#------------------------------------------------------------------------------
#$Date: 2021-06-05 21:36:09 +0300 (Sat, 05 Jun 2021) $
#$Revision: 266022 $
#$URL: file:///home/coder/svn-repositories/cod/cif/7/70/68/7706898.cif $
#------------------------------------------------------------------------------
#
# This file is available in the Crystallography Open Database (COD),
# http://www.crystallography.net/
#
# All data on this site have been placed in the public domain by the
# contributors.
#
data_7706898
loop_
_publ_author_name
'Kamebuchi, Hajime'
'Murakami, Hiroki'
'Shiga, Ryosuke'
'Tadokoro, Makoto'
_publ_section_title
;
 Preparation of a magnetic metal-organic square and metal-organic cubes
 using 4,5-bis(2-imidazolinyl)imidazolate: slow magnetization relaxation
 behavior in mixed-valent octamanganese(ii/iii) clusters.
;
_journal_issue                   16
_journal_name_full
'Dalton transactions (Cambridge, England : 2003)'
_journal_page_first              5452
_journal_page_last               5464
_journal_paper_doi               10.1039/d0dt04425c
_journal_volume                  50
_journal_year                    2021
_chemical_formula_moiety
'C46 H70 Cu4 N24 O4 S3, 8(C2 H6 O S), 4(Cl O4)'
_chemical_formula_sum            'C62 H118 Cl4 Cu4 N24 O28 S11'
_chemical_formula_weight         2396.42
_space_group_crystal_system      triclinic
_space_group_IT_number           2
_space_group_name_Hall           '-P 1'
_space_group_name_H-M_alt        'P -1'
_atom_sites_solution_hydrogens   geom
_audit_creation_method           SHELXL-2018/1
_audit_update_record
;
2021-03-16 deposited with the CCDC.	2021-03-19 downloaded from the CCDC.
;
_cell_angle_alpha                77.9020(10)
_cell_angle_beta                 67.6080(10)
_cell_angle_gamma                67.1220(10)
_cell_formula_units_Z            2
_cell_length_a                   17.5963(8)
_cell_length_b                   17.8058(8)
_cell_length_c                   18.9440(8)
_cell_measurement_reflns_used    8929
_cell_measurement_temperature    173(2)
_cell_measurement_theta_max      27.70
_cell_measurement_theta_min      2.23
_cell_volume                     5043.0(4)
_computing_cell_refinement       'Bruker SAINT'
_computing_data_collection       'Bruker APEX2'
_computing_data_reduction        'Bruker SAINT'
_computing_molecular_graphics    'Bruker SHELXTL'
_computing_publication_material  'Bruker SHELXTL'
_computing_structure_refinement  'SHELXL-2018/1 (Sheldrick, 2018)'
_computing_structure_solution    'SHELXT 2014/5 (Sheldrick, 2014)'
_diffrn_ambient_temperature      173(2)
_diffrn_measured_fraction_theta_full 0.982
_diffrn_measured_fraction_theta_max 0.982
_diffrn_measurement_device_type  'Bruker APEX-II CCD'
_diffrn_measurement_method       '\f and \w scans'
_diffrn_radiation_type           MoK\a
_diffrn_radiation_wavelength     0.71073
_diffrn_reflns_av_R_equivalents  0.0184
_diffrn_reflns_av_unetI/netI     0.0409
_diffrn_reflns_Laue_measured_fraction_full 0.982
_diffrn_reflns_Laue_measured_fraction_max 0.982
_diffrn_reflns_limit_h_max       9
_diffrn_reflns_limit_h_min       -20
_diffrn_reflns_limit_k_max       16
_diffrn_reflns_limit_k_min       -21
_diffrn_reflns_limit_l_max       22
_diffrn_reflns_limit_l_min       -22
_diffrn_reflns_number            23993
_diffrn_reflns_point_group_measured_fraction_full 0.982
_diffrn_reflns_point_group_measured_fraction_max 0.982
_diffrn_reflns_theta_full        25.027
_diffrn_reflns_theta_max         25.027
_diffrn_reflns_theta_min         1.332
_exptl_absorpt_coefficient_mu    1.247
_exptl_absorpt_correction_T_max  0.7457
_exptl_absorpt_correction_T_min  0.6478
_exptl_absorpt_correction_type   multi-scan
_exptl_absorpt_process_details
'SADABS-2016/2 - Bruker AXS area detector scaling and absorption correction. Reference: Krause, L., Herbst-Irmer, R., Sheldrick G.M. & Stalke D., J. Appl. Cryst. 48 (2015) 3-10.'
_exptl_crystal_colour            blue
_exptl_crystal_density_diffrn    1.578
_exptl_crystal_description       plate
_exptl_crystal_F_000             2484
_exptl_crystal_size_max          0.200
_exptl_crystal_size_mid          0.100
_exptl_crystal_size_min          0.050
_refine_diff_density_max         2.741
_refine_diff_density_min         -2.501
_refine_diff_density_rms         0.140
_refine_ls_extinction_method     none
_refine_ls_goodness_of_fit_ref   1.050
_refine_ls_hydrogen_treatment    constr
_refine_ls_matrix_type           full
_refine_ls_number_parameters     1330
_refine_ls_number_reflns         17484
_refine_ls_number_restraints     143
_refine_ls_restrained_S_all      1.129
_refine_ls_R_factor_all          0.0883
_refine_ls_R_factor_gt           0.0729
_refine_ls_shift/su_max          0.001
_refine_ls_shift/su_mean         0.000
_refine_ls_structure_factor_coef Fsqd
_refine_ls_weighting_details
'w=1/[\s^2^(Fo^2^)+(0.0974P)^2^+28.7001P] where P=(Fo^2^+2Fc^2^)/3'
_refine_ls_weighting_scheme      calc
_refine_ls_wR_factor_gt          0.1888
_refine_ls_wR_factor_ref         0.2023
_reflns_Friedel_coverage         0.000
_reflns_number_gt                13956
_reflns_number_total             17484
_reflns_threshold_expression     'I > 2\s(I)'
_cod_data_source_file            d0dt04425c2.cif
_cod_data_source_block           160602shiga_0m_a_4
_cod_depositor_comments
'Adding full bibliography for 7706898--7706900.cif.'
_cod_database_code               7706898
_shelx_shelxl_version_number     2018/1
_shelx_space_group_comment
;
The symmetry employed for this shelxl refinement is uniquely defined
by the following loop, which should always be used as a source of
symmetry information in preference to the above space-group names.
They are only intended as comments.
;
_shelx_estimated_absorpt_t_min   0.789
_shelx_estimated_absorpt_t_max   0.940
_shelx_res_file
;
TITL 160602shiga_0m_a.res in P-1
    160602shiga_0m_a_4.res
    created by SHELXL-2018/1 at 17:16:35 on 16-Mar-2021
CELL  0.71073  17.5963  17.8058  18.9440   77.902   67.608   67.122
ZERR    2.000   0.0008   0.0008   0.0008    0.001    0.001    0.001
LATT 1
SFAC C  H  Cl Cu N  O  S
UNIT 124  236  8  8  48  56  22
LIST 4 ! automatically inserted. Change 6 to 4 for CHECKCIF!!
L.S. 20
ACTA
BOND $H
FMAP 2
PLAN 50
SIZE 0.05 0.1 0.2
DFIX 2.00 0.002 H2 H6
DFIX 2.00 0.002 H8 H12
ISOR 0.01 C43 C46 C51 S3A S28A C61A
ISOR 0.01 C40 C41 O26
ISOR 0.01 C57A C58A C61B C62B
REM DMSO
DFIX 1.50 0.002 S2B O2
DFIX 1.80 0.002 S2B C39
DFIX 1.80 0.002 S2B C40
DFIX 1.50 0.002 S3A O3
DFIX 1.80 0.002 S3A C41
DFIX 1.80 0.002 S3A C42
DFIX 1.50 0.002 S21B O21
DFIX 1.80 0.002 S21B C47
DFIX 1.80 0.002 S21B C48
DFIX 1.50 0.002 S23A O23
DFIX 1.80 0.002 S23A C51
DFIX 1.80 0.002 S23A C52
DFIX 1.50 0.002 S23B O23
DFIX 1.80 0.002 S23B C51
DFIX 1.80 0.002 S23B C52
DANG 2.65 0.002 O23 C51
DANG 2.65 0.002 O23 C52
DANG 2.67 0.002 C51 C52
DFIX 1.50 0.002 S24A O24
DFIX 1.50 0.002 S24B O24
DFIX 1.50 0.002 S26A O26
DFIX 1.80 0.002 S26A C57A
DFIX 1.80 0.002 S26A C58A
DANG 2.65 0.002 O26 C57A
DANG 2.65 0.002 O26 C58A
DANG 2.67 0.002 C57A C58A
DFIX 1.50 0.002 S26B O26
DFIX 1.80 0.002 S26B C57B
DFIX 1.80 0.002 S26B C58B
DANG 2.65 0.002 O26 C57B
DANG 2.65 0.002 O26 C58B
DANG 2.67 0.002 C57B C58B
DFIX 1.50 0.002 S27A O27
DFIX 1.80 0.002 S27A C59
DFIX 1.80 0.002 S27A C60
DFIX 1.50 0.002 S27B O27
DFIX 1.80 0.002 S27B C59
DFIX 1.80 0.002 S27B C60
DANG 2.65 0.002 O27 C59
DANG 2.65 0.002 O27 C60
DANG 2.67 0.002 C59 C60
DFIX 1.50 0.002 S28A O28
DFIX 1.80 0.002 S28A C61A
DFIX 1.80 0.002 S28A C62A
DFIX 1.50 0.002 S28B O28
DFIX 1.80 0.002 S28B C61B
DFIX 1.80 0.002 S28B C62B
DANG 2.65 0.002 O28 C61B
DANG 2.65 0.002 O28 C62B
DANG 2.67 0.002 C61B C62B
DELU 0.002 S2B C40
SIMU 0.001 S28B C61B
SIMU 0.002 S28B C62B
REM DMSO
REM Instructions for potential hydrogen bonds
EQIV $1 -x+1, -y+1, -z+1
HTAB N2 O26_$1
HTAB N6 O27_$1
HTAB N8 O24_$1
HTAB N8 O16
HTAB N12 O16
HTAB N14 N18
EQIV $2 -x+2, -y, -z+1
HTAB N14 O23_$2
HTAB N18 N14
HTAB N18 O23_$2
HTAB N18 O26
HTAB N20 N24
HTAB N20 O25_$1
HTAB N24 N20
HTAB N24 O13_$1
HTAB C5 O28_$1
EQIV $3 -x+1, -y+2, -z+1
HTAB C10 O22_$3
HTAB C14 O28_$1
EQIV $4 -x+1, -y+1, -z
HTAB C17 O10_$4
HTAB C19 O14_$4
EQIV $5 -x+2, -y+1, -z
HTAB C20 O18_$5
HTAB C20 O20_$5
HTAB C23 O28_$1
EQIV $6 -x+2, -y+1, -z+1
HTAB C26 O22_$6
EQIV $7 x, y-1, z
HTAB C28 O22_$7
HTAB C29 O22_$7
HTAB C29 S23A
HTAB C32 O28_$1
HTAB C35 O14_$1
HTAB C38 O9_$1
HTAB C39 O17
HTAB C39 O21_$3
HTAB C40 O6_$1
EQIV $8 x+1, y, z
HTAB C42 O12_$8
HTAB C43 S28A_$1
HTAB C44 O9_$8
HTAB C45 O8_$8
EQIV $9 x, y, z+1
HTAB C48 O16_$9
HTAB C49 O21
HTAB C49 O11_$1
HTAB C49 O7_$1
HTAB C51 O13_$1
HTAB C51 O18_$6
HTAB C52 O15_$1
HTAB C54 O17_$1
EQIV $10 -x+1, -y+1, -z+2
HTAB C54 S21A_$10
HTAB C56 O9
EQIV $11 x-1, y, z
HTAB C56 O19_$11
HTAB C57A O15_$4
HTAB C57A O17_$7
HTAB C58A Cl4_$7
HTAB C58A O18_$7
EQIV $12 -x+1, -y, -z+1
HTAB C58A O6_$12
HTAB C57B Cl4_$7
HTAB C57B O17_$7
HTAB C57B O18_$7
HTAB C58B O18_$7
HTAB C58B O5_$12
HTAB C58B O6_$12
HTAB C58B O23_$2
HTAB C60 O7
HTAB C60 O21_$1
HTAB C61A S2A_$1
HTAB C61A O19_$1
HTAB C61A S3A_$1
HTAB C62A O1_$1
HTAB C62A S2A_$1
HTAB C61B O3_$1
HTAB C61B O19_$1
HTAB C62B O1_$1
HTAB C62B O8
TEMP -100
WGHT    0.097400   28.700100
FVAR       0.16679   0.67598   0.35020   0.75859   0.45635   0.55389   0.53514
FVAR       0.46795   0.67578
CU1   4    0.548586    0.559810    0.676035    11.00000    0.02552    0.01453 =
         0.01689   -0.00472   -0.01278    0.00245
CU2   4    0.438537    0.744506    0.393530    11.00000    0.02104    0.01468 =
         0.01523   -0.00219   -0.00869    0.00199
CU3   4    0.695027    0.444227    0.203474    11.00000    0.02145    0.01656 =
         0.01325   -0.00358   -0.00767    0.00174
CU4   4    0.792675    0.255740    0.490926    11.00000    0.02129    0.01379 =
         0.01599   -0.00259   -0.00930    0.00243
N1    5    0.461872    0.657132    0.731655    11.00000    0.03200    0.02038 =
         0.02171   -0.00766   -0.01520    0.00218
N2    5    0.364186    0.779302    0.730992    11.00000    0.03696    0.02221 =
         0.02815   -0.01321   -0.01691    0.00912
AFIX  43
H2    2    0.329182    0.822200    0.712349    11.00000   -1.20000
AFIX   0
N3    5    0.496853    0.621646    0.593956    11.00000    0.02512    0.01615 =
         0.01612   -0.00588   -0.00965    0.00115
N4    5    0.461166    0.689035    0.491021    11.00000    0.01687    0.01836 =
         0.01724   -0.00373   -0.00523   -0.00071
N5    5    0.352448    0.832028    0.464384    11.00000    0.02712    0.01651 =
         0.02208    0.00009   -0.01140    0.00158
N6    5    0.325401    0.887684    0.568559    11.00000    0.04025    0.01882 =
         0.03000   -0.00931   -0.01693    0.00424
AFIX  43
H6    2    0.326237    0.888956    0.614439    11.00000   -1.20000
AFIX   0
N7    5    0.404217    0.793385    0.300402    11.00000    0.02247    0.01486 =
         0.02145   -0.00050   -0.01116    0.00212
N8    5    0.432005    0.788364    0.178455    11.00000    0.05060    0.02919 =
         0.02464   -0.00113   -0.02251    0.00707
AFIX  43
H8    2    0.458728    0.767176    0.133710    11.00000   -1.20000
AFIX   0
N9    5    0.516633    0.652016    0.325641    11.00000    0.01952    0.01679 =
         0.01786   -0.00253   -0.00926    0.00203
N10   5    0.603990    0.542871    0.259200    11.00000    0.02225    0.01786 =
         0.01521   -0.00134   -0.00733   -0.00078
N11   5    0.645445    0.505378    0.119833    11.00000    0.02482    0.02595 =
         0.01484   -0.00552   -0.00765   -0.00174
N12   5    0.554760    0.614649    0.080248    11.00000    0.04070    0.02881 =
         0.02404   -0.00186   -0.01911    0.00448
AFIX  43
H12   2    0.512586    0.662460    0.084064    11.00000   -1.20000
AFIX   0
N13   5    0.772435    0.341325    0.152037    11.00000    0.02828    0.02169 =
         0.01730   -0.00641   -0.00775    0.00025
N14   5    0.877194    0.221251    0.155136    11.00000    0.03177    0.02445 =
         0.01960   -0.00590   -0.00803    0.00717
AFIX  43
H14A  2    0.913881    0.180949    0.174400    11.00000   -1.20000
AFIX   0
N15   5    0.727123    0.373216    0.292962    11.00000    0.02076    0.01669 =
         0.01768   -0.00260   -0.00778   -0.00109
N16   5    0.757620    0.304407    0.397742    11.00000    0.02146    0.01673 =
         0.01676   -0.00326   -0.00690   -0.00083
N17   5    0.867487    0.161728    0.424793    11.00000    0.02559    0.01584 =
         0.02032   -0.00213   -0.00891    0.00479
N18   5    0.900634    0.110083    0.314420    11.00000    0.03052    0.01661 =
         0.02209   -0.00657   -0.01264    0.00641
AFIX  43
H18   2    0.900500    0.110056    0.268020    11.00000   -1.20000
AFIX   0
N19   5    0.819897    0.203347    0.585527    11.00000    0.02315    0.01781 =
         0.01969   -0.00026   -0.01042    0.00030
N20   5    0.807320    0.220718    0.703853    11.00000    0.04533    0.02387 =
         0.02494   -0.00935   -0.02393    0.01297
AFIX  43
H20   2    0.783810    0.243801    0.747536    11.00000   -1.20000
AFIX   0
N21   5    0.706963    0.343895    0.561734    11.00000    0.02634    0.01521 =
         0.01629   -0.00142   -0.01282    0.00022
N22   5    0.619922    0.453151    0.628568    11.00000    0.02456    0.01614 =
         0.01850   -0.00432   -0.01093   -0.00022
N23   5    0.588894    0.495607    0.762680    11.00000    0.03269    0.01670 =
         0.01749   -0.00387   -0.01421   -0.00127
N24   5    0.661847    0.375257    0.809273    11.00000    0.05190    0.02532 =
         0.02194   -0.00502   -0.02134    0.01429
AFIX  43
H24   2    0.685600    0.321666    0.813019    11.00000   -1.20000
AFIX   0
C1    1    0.433923    0.684890    0.808249    11.00000    0.03822    0.02400 =
         0.02337   -0.00785   -0.01557    0.00264
AFIX  23
H1A   2    0.484318    0.685393    0.819370    11.00000   -1.20000
H1B   2    0.405935    0.648966    0.848051    11.00000   -1.20000
AFIX   0
C2    1    0.367750    0.772239    0.805088    11.00000    0.04063    0.02726 =
         0.02581   -0.01119   -0.01577   -0.00044
AFIX  23
H2A   2    0.309945    0.777467    0.844673    11.00000   -1.20000
H2B   2    0.389179    0.813514    0.811200    11.00000   -1.20000
AFIX   0
C3    1    0.419436    0.714141    0.692121    11.00000    0.02109    0.01601 =
         0.02074   -0.00730   -0.00866   -0.00239
C4    1    0.439362    0.698241    0.613288    11.00000    0.01568    0.01760 =
         0.01817   -0.00211   -0.00782   -0.00106
C5    1    0.507265    0.619344    0.520206    11.00000    0.02662    0.01594 =
         0.01992   -0.00416   -0.01088    0.00245
AFIX  43
H5    2    0.543844    0.572674    0.491777    11.00000   -1.20000
AFIX   0
C6    1    0.417801    0.740158    0.549995    11.00000    0.01650    0.01593 =
         0.02036   -0.00466   -0.00678   -0.00135
C7    1    0.363787    0.820949    0.529589    11.00000    0.01730    0.01562 =
         0.02026   -0.00236   -0.00602   -0.00104
C8    1    0.282970    0.956499    0.526753    11.00000    0.04196    0.01844 =
         0.03861   -0.00392   -0.01639    0.00333
AFIX  23
H8A   2    0.307953    1.000436    0.516185    11.00000   -1.20000
H8B   2    0.219280    0.978432    0.554258    11.00000   -1.20000
AFIX   0
C9    1    0.302734    0.919190    0.452681    11.00000    0.03657    0.01713 =
         0.03455   -0.00384   -0.01540    0.00564
AFIX  23
H9A   2    0.247902    0.925958    0.444769    11.00000   -1.20000
H9B   2    0.337860    0.945344    0.407756    11.00000   -1.20000
AFIX   0
C10   1    0.352503    0.874818    0.274239    11.00000    0.03005    0.01660 =
         0.02798    0.00090   -0.01545    0.00186
AFIX  23
H10A  2    0.372779    0.917764    0.278612    11.00000   -1.20000
H10B  2    0.289577    0.888426    0.304593    11.00000   -1.20000
AFIX   0
C11   1    0.368890    0.866495    0.189739    11.00000    0.05784    0.02886 =
         0.03183    0.00177   -0.02697    0.00536
AFIX  23
H11A  2    0.315110    0.869739    0.181995    11.00000   -1.20000
H11B  2    0.391535    0.908787    0.155353    11.00000   -1.20000
AFIX   0
C12   1    0.447529    0.749318    0.242315    11.00000    0.02035    0.01543 =
         0.01982   -0.00103   -0.00981   -0.00356
C13   1    0.507642    0.668107    0.254529    11.00000    0.01852    0.01855 =
         0.01548    0.00075   -0.00846   -0.00288
C14   1    0.575338    0.576682    0.324958    11.00000    0.02565    0.01980 =
         0.01754   -0.00180   -0.01040    0.00064
AFIX  43
H14   2    0.594637    0.549999    0.367164    11.00000   -1.20000
AFIX   0
C15   1    0.561369    0.600425    0.213697    11.00000    0.01960    0.01795 =
         0.01604   -0.00268   -0.00806   -0.00220
C16   1    0.585099    0.575876    0.137179    11.00000    0.02460    0.02089 =
         0.01835    0.00001   -0.01057   -0.00766
C17   1    0.596069    0.572434    0.013601    11.00000    0.04740    0.03404 =
         0.01946   -0.00240   -0.01626   -0.00416
AFIX  23
H17A  2    0.624873    0.604448   -0.030392    11.00000   -1.20000
H17B  2    0.554532    0.557718    0.000444    11.00000   -1.20000
AFIX   0
C18   1    0.663627    0.496004    0.038581    11.00000    0.03642    0.02851 =
         0.01281   -0.00494   -0.00899   -0.00394
AFIX  23
H18A  2    0.656074    0.445441    0.033227    11.00000   -1.20000
H18B  2    0.724017    0.493929    0.007372    11.00000   -1.20000
AFIX   0
C19   1    0.817864    0.320762    0.071439    11.00000    0.03967    0.03026 =
         0.01720   -0.00639   -0.00827   -0.00194
AFIX  23
H19A  2    0.852157    0.356808    0.042235    11.00000   -1.20000
H19B  2    0.775636    0.325881    0.046511    11.00000   -1.20000
AFIX   0
C20   1    0.878467    0.231193    0.076721    11.00000    0.03494    0.02948 =
         0.02100   -0.01174   -0.00501    0.00164
AFIX  23
H20A  2    0.855041    0.193026    0.067759    11.00000   -1.20000
H20B  2    0.938266    0.222986    0.039818    11.00000   -1.20000
AFIX   0
C21   1    0.811682    0.282835    0.193145    11.00000    0.02005    0.01869 =
         0.01496   -0.00352   -0.00460   -0.00425
C22   1    0.783544    0.295572    0.274345    11.00000    0.01733    0.01691 =
         0.02019   -0.00456   -0.00584   -0.00132
C23   1    0.714306    0.375719    0.366814    11.00000    0.02301    0.01456 =
         0.01811   -0.00122   -0.00834   -0.00084
AFIX  43
H23   2    0.678346    0.422946    0.394591    11.00000   -1.20000
AFIX   0
C24   1    0.800913    0.253101    0.338896    11.00000    0.01843    0.01612 =
         0.01568   -0.00534   -0.00688   -0.00219
C25   1    0.856068    0.172769    0.359351    11.00000    0.01791    0.01624 =
         0.01826   -0.00205   -0.00571   -0.00209
C26   1    0.949884    0.041235    0.356133    11.00000    0.03029    0.01635 =
         0.02990   -0.00508   -0.01086    0.00738
AFIX  23
H26A  2    1.013347    0.023285    0.327078    11.00000   -1.20000
H26B  2    0.929300   -0.005716    0.366723    11.00000   -1.20000
AFIX   0
C27   1    0.929562    0.077942    0.430639    11.00000    0.03311    0.02228 =
         0.02888   -0.00351   -0.01503    0.00740
AFIX  23
H27A  2    0.902791    0.045786    0.475853    11.00000   -1.20000
H27B  2    0.983459    0.079167    0.434811    11.00000   -1.20000
AFIX   0
C28   1    0.888076    0.129719    0.605819    11.00000    0.03002    0.01651 =
         0.02657   -0.00178   -0.01585    0.00384
AFIX  23
H28A  2    0.946814    0.124839    0.568084    11.00000   -1.20000
H28B  2    0.875828    0.079403    0.607834    11.00000   -1.20000
AFIX   0
C29   1    0.882270    0.144170    0.685294    11.00000    0.04314    0.02191 =
         0.03516   -0.00448   -0.02851    0.00857
AFIX  23
H29A  2    0.871429    0.098665    0.723180    11.00000   -1.20000
H29B  2    0.936520    0.150444    0.683397    11.00000   -1.20000
AFIX   0
C30   1    0.781349    0.248900    0.642742    11.00000    0.02133    0.01320 =
         0.01987   -0.00028   -0.00999   -0.00286
C31   1    0.715788    0.327580    0.633238    11.00000    0.02256    0.01529 =
         0.01814   -0.00097   -0.01267   -0.00276
C32   1    0.649514    0.419784    0.562233    11.00000    0.02604    0.01633 =
         0.02137   -0.00311   -0.01471    0.00201
AFIX  43
H32   2    0.631521    0.447265    0.519541    11.00000   -1.20000
AFIX   0
C33   1    0.661521    0.394571    0.674747    11.00000    0.01895    0.01735 =
         0.01710   -0.00002   -0.00919   -0.00232
C34   1    0.639036    0.420469    0.750304    11.00000    0.02011    0.02103 =
         0.01736   -0.00203   -0.00729   -0.00523
C35   1    0.640359    0.430647    0.867068    11.00000    0.03836    0.03740 =
         0.02073   -0.00888   -0.01707    0.00307
AFIX  23
H35A  2    0.693030    0.439507    0.865837    11.00000   -1.20000
H35B  2    0.611849    0.409706    0.919216    11.00000   -1.20000
AFIX   0
C36   1    0.576655    0.509305    0.840881    11.00000    0.03261    0.02784 =
         0.01521   -0.00387   -0.01359   -0.00561
AFIX  23
H36A  2    0.515559    0.517457    0.874690    11.00000   -1.20000
H36B  2    0.591243    0.557681    0.840914    11.00000   -1.20000
AFIX   0
S1    7    0.706769    0.604854    0.685034    11.00000    0.05234    0.05261 =
         0.03761    0.00394   -0.02388   -0.03075
O1    6    0.661975    0.612236    0.629557    11.00000    0.05382    0.06230 =
         0.04063    0.01070   -0.02889   -0.03492
C37   1    0.746071    0.687396    0.659117    11.00000    0.11408    0.07169 =
         0.11286    0.01913   -0.07279   -0.06314
AFIX 137
H37A  2    0.781938    0.686697    0.604845    11.00000   -1.50000
H37B  2    0.781577    0.682463    0.690189    11.00000   -1.50000
H37C  2    0.696544    0.738905    0.667910    11.00000   -1.50000
AFIX   0
C38   1    0.808204    0.526961    0.656885    11.00000    0.06719    0.06663 =
         0.09014   -0.01187   -0.03866   -0.01805
AFIX 137
H38A  2    0.799538    0.474062    0.667229    11.00000   -1.50000
H38B  2    0.843974    0.527441    0.685642    11.00000   -1.50000
H38C  2    0.837985    0.535698    0.601998    11.00000   -1.50000
AFIX   0
O2    6    0.536641    0.808570    0.365775    11.00000    0.06983    0.09234 =
         0.03985    0.00108   -0.01137   -0.05966
C39   1    0.594729    0.867776    0.216552    11.00000    0.06938    0.13169 =
         0.06386    0.02882   -0.02247   -0.04566
AFIX 137
H39A  2    0.554867    0.854597    0.200480    11.00000   -1.50000
H39B  2    0.650375    0.860416    0.174490    11.00000   -1.50000
H39C  2    0.568571    0.924652    0.230151    11.00000   -1.50000
AFIX   0
C40   1    0.668398    0.855961    0.316475    11.00000    0.09055    0.15965 =
         0.11681    0.00326   -0.03950   -0.07879
AFIX 137
H40A  2    0.629611    0.912437    0.326430    11.00000   -1.50000
H40B  2    0.720948    0.855885    0.272568    11.00000   -1.50000
H40C  2    0.685147    0.828977    0.361669    11.00000   -1.50000
AFIX   0
PART 1
S2A   7    0.613277    0.802818    0.296168    21.00000    0.03661    0.04146 =
         0.04379   -0.00819   -0.00475   -0.01668
PART 2
S2B   7    0.558704    0.879548    0.317243   -21.00000    0.05416    0.03750 =
         0.07510   -0.00204   -0.01271   -0.00519
PART 0
O3    6    0.806515    0.496535    0.163724    11.00000    0.03228    0.04117 =
         0.07056   -0.00035   -0.00748   -0.01573
C41   1    0.975614    0.376356    0.132090    11.00000    0.08077    0.08239 =
         0.14482    0.00955   -0.04369   -0.03799
AFIX 137
H41A  2    0.958690    0.329596    0.161116    11.00000   -1.50000
H41B  2    1.032151    0.371099    0.134465    11.00000   -1.50000
H41C  2    0.980404    0.377708    0.078611    11.00000   -1.50000
AFIX   0
C42   1    0.945321    0.541604    0.114169    11.00000    0.04305    0.04436 =
         0.13473   -0.00085   -0.01667   -0.02127
AFIX 137
H42A  2    0.921598    0.565725    0.072223    11.00000   -1.50000
H42B  2    1.008596    0.513711    0.093035    11.00000   -1.50000
H42C  2    0.933563    0.584818    0.145466    11.00000   -1.50000
AFIX   0
PART 1
S3A   7    0.894277    0.469169    0.172536    31.00000    0.03864    0.04973 =
         0.04541    0.00514   -0.01698   -0.01551
PART 2
S3B   7    0.897257    0.472633    0.111177   -31.00000    0.03077    0.04727 =
         0.04695   -0.00764   -0.00744   -0.00910
PART 0
O4    6    0.899353    0.318089    0.453862    11.00000    0.05990    0.06318 =
         0.05729    0.01635   -0.02605   -0.04256
C43   1    0.921584    0.360639    0.386645    11.00000    0.10392    0.13238 =
         0.09029    0.00120   -0.01741   -0.06801
AFIX  23
H43A  2    0.870726    0.408903    0.381722    11.00000   -1.20000
H43B  2    0.942299    0.326139    0.343747    11.00000   -1.20000
AFIX   0
C44   1    0.993315    0.386886    0.385705    11.00000    0.15472    0.23455 =
         0.09556   -0.00828   -0.00140   -0.16604
AFIX  23
H44A  2    1.050792    0.342700    0.370164    11.00000   -1.20000
H44B  2    0.996145    0.436236    0.350636    11.00000   -1.20000
AFIX   0
C45   1    0.967839    0.403907    0.463680    11.00000    0.07954    0.11237 =
         0.10579   -0.01561   -0.02514   -0.06049
AFIX  23
H45A  2    0.933676    0.462581    0.470820    11.00000   -1.20000
H45B  2    1.019786    0.388982    0.479396    11.00000   -1.20000
AFIX   0
C46   1    0.914327    0.353514    0.507784    11.00000    0.11573    0.14134 =
         0.09971   -0.00141   -0.03695   -0.08661
AFIX  23
H46A  2    0.944909    0.309731    0.539416    11.00000   -1.20000
H46B  2    0.857887    0.387338    0.542186    11.00000   -1.20000
AFIX   0
O21   6    0.558289    0.960785    0.805703    11.00000    0.11653    0.09383 =
         0.08155    0.01590   -0.01316   -0.04334
C47   1    0.447383    0.954785    0.951602    11.00000    0.09715    0.11000 =
         0.09797   -0.01823   -0.00708   -0.05051
AFIX 137
H47A  2    0.442710    1.003800    0.971065    11.00000   -1.50000
H47B  2    0.440449    0.912727    0.993794    11.00000   -1.50000
H47C  2    0.401514    0.968445    0.929020    11.00000   -1.50000
AFIX   0
C48   1    0.551027    0.815674    0.875393    11.00000    0.10397    0.09247 =
         0.06660    0.00955   -0.03283   -0.04393
AFIX 137
H48A  2    0.508868    0.821641    0.850784    11.00000   -1.50000
H48B  2    0.533469    0.790484    0.927485    11.00000   -1.50000
H48C  2    0.609245    0.780967    0.845858    11.00000   -1.50000
AFIX   0
S22   7    0.814732    0.902472    0.760167    11.00000    0.05087    0.04817 =
         0.07185    0.00136   -0.02872   -0.02070
O22   6    0.832950    0.974240    0.712888    11.00000    0.05983    0.03776 =
         0.13629    0.02090   -0.04410   -0.01792
C49   1    0.775479    0.860158    0.711936    11.00000    0.10085    0.07889 =
         0.12012   -0.01614   -0.06125   -0.03777
AFIX 137
H49A  2    0.718294    0.898114    0.709922    11.00000   -1.50000
H49B  2    0.769569    0.808379    0.739084    11.00000   -1.50000
H49C  2    0.816560    0.850252    0.659753    11.00000   -1.50000
AFIX   0
C50   1    0.917752    0.824721    0.750862    11.00000    0.06816    0.05372 =
         0.17396    0.03699   -0.06142   -0.02023
AFIX 137
H50A  2    0.948580    0.812753    0.696999    11.00000   -1.50000
H50B  2    0.909132    0.775221    0.781598    11.00000   -1.50000
H50C  2    0.952506    0.843197    0.768845    11.00000   -1.50000
AFIX   0
PART 1
S21A  7    0.553832    0.916599    0.879232    41.00000    0.07589    0.08488 =
         0.06231    0.01886   -0.03236   -0.04234
PART 2
S21B  7    0.492577    0.921575    0.856247   -41.00000    0.07803    0.08678 =
         0.06581    0.01421   -0.02780   -0.02164
PART 0
O23   6    0.993826   -0.049022    0.842634    11.00000    0.04582    0.05637 =
         0.07731   -0.03218   -0.00425    0.00600
C51   1    0.919000    0.073711    0.935653    11.00000    0.11647    0.14449 =
         0.19657   -0.06593   -0.03846   -0.04471
AFIX 137
H51A  2    0.914033    0.039956    0.984124    11.00000   -1.50000
H51B  2    0.870947    0.126264    0.943880    11.00000   -1.50000
H51C  2    0.974989    0.083088    0.916559    11.00000   -1.50000
AFIX   0
C52   1    0.824538   -0.009971    0.926713    11.00000    0.05071    0.06194 =
         0.09115   -0.02721   -0.01064   -0.02264
AFIX 137
H52A  2    0.782351    0.003863    0.899971    11.00000   -1.50000
H52B  2    0.796000    0.017359    0.974616    11.00000   -1.50000
H52C  2    0.846078   -0.069266    0.938065    11.00000   -1.50000
AFIX   0
PART 1
S23A  7    0.913645    0.022877    0.867810    51.00000    0.04166    0.04431 =
         0.05418   -0.01567   -0.00801   -0.00520
PART 2
S23B  7    0.933804   -0.026243    0.919553   -51.00000    0.03678    0.04312 =
         0.04801   -0.01414   -0.01395   -0.00281
PART 0
O24   6    0.420395    0.207505    0.947945    11.00000    0.05205    0.09738 =
         0.07350    0.03185   -0.01097   -0.01733
C53   1    0.269131    0.314566    0.926202    11.00000    0.04950    0.05885 =
         0.08467    0.01976   -0.03347   -0.03004
AFIX 137
H53A  2    0.292875    0.357158    0.895901    11.00000   -1.50000
H53B  2    0.207361    0.339871    0.955887    11.00000   -1.50000
H53C  2    0.274451    0.277194    0.891896    11.00000   -1.50000
AFIX   0
C54   1    0.261221    0.201279    1.042032    11.00000    0.06159    0.07604 =
         0.04333    0.00349   -0.01542   -0.04050
AFIX 137
H54A  2    0.254030    0.173739    1.006521    11.00000   -1.50000
H54B  2    0.203945    0.237666    1.071328    11.00000   -1.50000
H54C  2    0.287666    0.160376    1.077211    11.00000   -1.50000
AFIX   0
PART 1
S24A  7    0.329150    0.258546    0.990286    61.00000    0.03371    0.04924 =
         0.03242   -0.00686   -0.00815   -0.01863
PART 2
S24B  7    0.333934    0.212019    0.948199   -61.00000    0.05187    0.04577 =
         0.04782   -0.00132   -0.01825   -0.01853
PART 0
S25   7    0.072707    0.710981    0.216814    11.00000    0.04531    0.04263 =
         0.05672   -0.01208   -0.02641   -0.00451
O25   6    0.145957    0.669862    0.250253    11.00000    0.04824    0.04809 =
         0.06246   -0.01016   -0.03333   -0.01152
C55   1    0.110082    0.666281    0.129866    11.00000    0.05355    0.07794 =
         0.04992   -0.00848   -0.02618   -0.01687
AFIX 137
H55A  2    0.155702    0.686329    0.092218    11.00000   -1.50000
H55B  2    0.061244    0.680899    0.110779    11.00000   -1.50000
H55C  2    0.134116    0.606719    0.138178    11.00000   -1.50000
AFIX   0
C56   1   -0.007340    0.664432    0.269726    11.00000    0.04604    0.12028 =
         0.06717   -0.01494   -0.01349   -0.03008
AFIX 137
H56A  2    0.020087    0.604897    0.268861    11.00000   -1.50000
H56B  2   -0.053537    0.683140    0.246713    11.00000   -1.50000
H56C  2   -0.032702    0.679595    0.322777    11.00000   -1.50000
AFIX   0
PART 1
S26A  7    0.833054    0.021228    0.189587    71.00000    0.02417    0.02745 =
         0.02860   -0.01004   -0.00505   -0.00519
C57A  1    0.741435    0.010912    0.176368    71.00000    0.03425    0.03695 =
         0.05333   -0.00613   -0.02377   -0.00659
AFIX 137
H57A  2    0.721299    0.054510    0.139618    71.00000   -1.50000
H57B  2    0.693795    0.014949    0.225477    71.00000   -1.50000
H57C  2    0.759427   -0.042328    0.156826    71.00000   -1.50000
AFIX   0
C58A  1    0.861769   -0.076118    0.242752    71.00000    0.08330    0.06146 =
         0.08932    0.03104   -0.06700   -0.02352
AFIX 137
H58A  2    0.869817   -0.119476    0.213392    71.00000   -1.50000
H58B  2    0.814854   -0.075599    0.291894    71.00000   -1.50000
H58C  2    0.916246   -0.086204    0.251875    71.00000   -1.50000
AFIX   0
PART 2
S26B  7    0.789142    0.008323    0.228736   -71.00000    0.03964    0.04105 =
         0.04386   -0.01376   -0.01154   -0.01267
C57B  1    0.834086    0.007151    0.125997   -71.00000    0.09551
AFIX 137
H57D  2    0.789279    0.043215    0.103627   -71.00000   -1.50000
H57E  2    0.853325   -0.048673    0.111470   -71.00000   -1.50000
H57F  2    0.884103    0.026274    0.107006   -71.00000   -1.50000
AFIX   0
C58B  1    0.880156   -0.074672    0.247045   -71.00000    0.03488
AFIX 137
H58D  2    0.888989   -0.123576    0.224716   -71.00000   -1.50000
H58E  2    0.868031   -0.085881    0.302413   -71.00000   -1.50000
H58F  2    0.933021   -0.059765    0.223979   -71.00000   -1.50000
AFIX   0
PART 0
O26   6    0.793863    0.084717    0.247105    11.00000    0.05074    0.05255 =
         0.11013   -0.05011   -0.05057    0.01760
C59   1    0.421866    0.153910    0.468834    11.00000    0.09655    0.29503 =
         0.12723   -0.09230    0.00205   -0.11150
AFIX 137
H59A  2    0.458143    0.188293    0.455068    11.00000   -1.50000
H59B  2    0.403882    0.140629    0.524287    11.00000   -1.50000
H59C  2    0.369879    0.183371    0.453572    11.00000   -1.50000
AFIX   0
C60   1    0.416766    0.077116    0.363968    11.00000    0.09142    0.30710 =
         0.14486   -0.11607   -0.01727   -0.05638
AFIX 137
H60A  2    0.414950    0.127985    0.331397    11.00000   -1.50000
H60B  2    0.357365    0.080713    0.397619    11.00000   -1.50000
H60C  2    0.441380    0.031186    0.331790    11.00000   -1.50000
AFIX   0
PART 1
S27A  7    0.483396    0.061576    0.420579    81.00000    0.06027    0.11657 =
         0.06918   -0.00517   -0.02475   -0.04202
PART 2
S27B  7    0.481985    0.128724    0.371672   -81.00000    0.04732    0.11919 =
         0.08620   -0.01204   -0.01272   -0.04066
PART 0
O27   6    0.569703    0.067439    0.368980    11.00000    0.05408    0.12288 =
         0.09729   -0.03283   -0.02175   -0.03746
PART 1
S28A  7    0.235503    0.415805    0.600428    91.00000    0.08376    0.07585 =
         0.28186    0.00145   -0.08174   -0.02426
C61A  1    0.241794    0.367569    0.692570    91.00000    0.19428    0.13917 =
         0.12776   -0.01293    0.03655   -0.07437
AFIX 137
H61A  2    0.297752    0.322628    0.685777    91.00000   -1.50000
H61B  2    0.193682    0.346094    0.718511    91.00000   -1.50000
H61C  2    0.237373    0.407730    0.723576    91.00000   -1.50000
AFIX   0
C62A  1    0.301978    0.324589    0.550106    91.00000    0.23995    0.08092 =
         0.11774    0.02593   -0.12259   -0.08414
AFIX 137
H62A  2    0.315637    0.338606    0.494875    91.00000   -1.50000
H62B  2    0.270094    0.286058    0.565876    91.00000   -1.50000
H62C  2    0.356413    0.299420    0.562159    91.00000   -1.50000
AFIX   0
PART 2
S28B  7    0.280561    0.383436    0.607550   -91.00000    0.08246    0.05988 =
         0.06124    0.02083   -0.03739   -0.04850
C61B  1    0.197744    0.396731    0.700747   -91.00000    0.08434    0.06117 =
         0.06263    0.02153   -0.03362   -0.04669
AFIX 137
H61D  2    0.141459    0.404161    0.696430   -91.00000   -1.50000
H61E  2    0.192975    0.444983    0.721511   -91.00000   -1.50000
H61F  2    0.213734    0.348283    0.735012   -91.00000   -1.50000
AFIX   0
C62B  1    0.212346    0.378209    0.559403   -91.00000    0.07827    0.05883 =
         0.06267    0.01843   -0.03933   -0.05218
AFIX 137
H62D  2    0.239287    0.387074    0.504015   -91.00000   -1.50000
H62E  2    0.154635    0.420455    0.576729   -91.00000   -1.50000
H62F  2    0.205963    0.324250    0.571243   -91.00000   -1.50000
AFIX   0
PART 0
O28   6    0.295303    0.463517    0.580581    11.00000    0.04084    0.03799 =
         0.05682   -0.00804   -0.01902   -0.01181
CL1   3    0.155057    0.183483    0.539469    11.00000    0.06177    0.03954 =
         0.04554    0.00422   -0.00542   -0.01060
O5    6    0.093402    0.148879    0.579541    11.00000    0.08030    0.15396 =
         0.16800    0.08013   -0.06427   -0.07808
O6    6    0.221049    0.153625    0.576339    11.00000    0.09363    0.10170 =
         0.12731    0.01677   -0.06232   -0.04074
O7    6    0.204641    0.157830    0.466717    11.00000    0.18774    0.10357 =
         0.06016   -0.01919   -0.00474   -0.03203
O8    6    0.121825    0.268927    0.535349    11.00000    0.12654    0.05295 =
         0.14956    0.00456   -0.02117   -0.00136
CL2   3    0.174423    0.408170    0.158011    11.00000    0.04805    0.05429 =
         0.03550   -0.00703   -0.00976   -0.02358
O9    6    0.098106    0.460180    0.209876    11.00000    0.08488    0.12274 =
         0.07451   -0.04121    0.00423   -0.02383
O10   6    0.245866    0.425260    0.155318    11.00000    0.09653    0.27118 =
         0.06650   -0.01974   -0.01998   -0.11492
O11   6    0.179639    0.329617    0.183985    11.00000    0.27383    0.06921 =
         0.10423    0.01558   -0.07637   -0.07990
O12   6    0.166793    0.424677    0.083779    11.00000    0.05696    0.11227 =
         0.04406   -0.00467   -0.01826   -0.02640
CL3   3    0.327644    0.770622    0.021432    11.00000    0.03599    0.02953 =
         0.02949    0.00116   -0.01875   -0.00612
O13   6    0.266816    0.781021    0.096356    11.00000    0.07458    0.08999 =
         0.04596    0.02019    0.00092    0.01254
O14   6    0.324902    0.708293   -0.010605    11.00000    0.29984    0.07448 =
         0.08751    0.02181   -0.11817   -0.09977
O15   6    0.310095    0.843629   -0.027180    11.00000    0.06991    0.03831 =
         0.03892    0.00871   -0.02288   -0.00317
O16   6    0.409896    0.747677    0.027510    11.00000    0.06749    0.14604 =
         0.09941    0.06750   -0.06080   -0.05157
CL4   3    0.879277    0.793860    0.090759    11.00000    0.03545    0.03752 =
         0.03892   -0.00643   -0.00978   -0.01547
O17   6    0.801612    0.854675    0.083194    11.00000    0.05534    0.06455 =
         0.09809   -0.01925   -0.04101    0.00163
O18   6    0.938211    0.831208    0.089260    11.00000    0.05338    0.09239 =
         0.07695   -0.03603   -0.00719   -0.04265
O19   6    0.856878    0.748290    0.160878    11.00000    0.11314    0.09336 =
         0.05515    0.02790   -0.01271   -0.04546
O20   6    0.919123    0.741336    0.030302    11.00000    0.06469    0.07652 =
         0.08120   -0.04757    0.00499   -0.03152
HKLF 4




REM  160602shiga_0m_a.res in P-1
REM R1 =  0.0729 for   13956 Fo > 4sig(Fo)  and  0.0883 for all   17484 data
REM   1330 parameters refined using    143 restraints

END

WGHT      0.0976     28.6912

REM Highest difference peak  2.741,  deepest hole -2.501,  1-sigma level  0.140
Q1    1   0.9148  0.0113  0.8893  11.00000  0.05    2.74
Q2    1   0.4757  0.0804  0.4059  11.00000  0.05    1.64
Q3    1   0.9161  0.0851  0.8956  11.00000  0.05    1.62
Q4    1   0.3957  0.2041  0.9426  11.00000  0.05    1.53
Q5    1   0.8379  0.0343  0.1237  11.00000  0.05    1.50
Q6    1   0.5407  0.8681  0.3207  11.00000  0.05    1.40
Q7    1   0.5450  0.6349  0.0897  11.00000  0.05    1.33
Q8    1   0.9741  0.2934  0.4655  11.00000  0.05    1.30
Q9    1   0.4378  0.7694  0.1678  11.00000  0.05    1.28
Q10   1   0.5344  0.8331  0.3526  11.00000  0.05    1.28
Q11   1   1.1054  0.0663  0.4490  11.00000  0.05    1.26
Q12   1   0.9819 -0.0682  0.8476  11.00000  0.05    1.24
Q13   1   0.8220 -0.0152  0.9075  11.00000  0.05    1.20
Q14   1   0.9590  0.3925  0.1681  11.00000  0.05    1.15
Q15   1   0.1592  0.4140  0.6644  11.00000  0.05    1.08
Q16   1   0.2597  0.4177  0.5498  11.00000  0.05    1.08
Q17   1   0.3212  0.8775  0.5880  11.00000  0.05    1.02
Q18   1   0.8444 -0.0589  0.2644  11.00000  0.05    1.01
Q19   1   0.3664  0.7939  0.7149  11.00000  0.05    1.01
Q20   1   0.2155  0.4799  0.6478  11.00000  0.05    1.00
Q21   1   0.9684  0.3052  0.4044  11.00000  0.05    0.99
Q22   1   0.5981  0.0525  0.3666  11.00000  0.05    0.97
Q23   1   0.2788  0.4520  0.5873  11.00000  0.05    0.95
Q24   1   0.6999  0.8279  0.3183  11.00000  0.05    0.94
Q25   1   0.9130  0.0330  0.9615  11.00000  0.05    0.93
Q26   1   0.1244  0.1723  0.5128  11.00000  0.05    0.91
Q27   1   0.4396  0.0518  0.3769  11.00000  0.05    0.86
Q28   1   0.2607  0.3423  0.1576  11.00000  0.05    0.84
Q29   1   0.3866  0.2379  0.9783  11.00000  0.05    0.82
Q30   1   0.7833 -0.0114  0.2357  11.00000  0.05    0.79
Q31   1   0.3990  0.7096 -0.0257  11.00000  0.05    0.76
Q32   1   0.7976  0.1083  0.2378  11.00000  0.05    0.74
Q33   1   0.4459  0.1200  0.3426  11.00000  0.05    0.71
Q34   1   0.1218  0.1285  0.5053  11.00000  0.05    0.71
Q35   1   0.1967  0.3782  0.5931  11.00000  0.05    0.67
Q36   1   0.4607  0.9407  0.9292  11.00000  0.05    0.67
Q37   1   0.2387  0.4204  0.6230  11.00000  0.05    0.66
Q38   1   0.4410  0.1619  0.4656  11.00000  0.05    0.66
Q39   1   0.2583  0.7428  0.0585  11.00000  0.05    0.65
Q40   1   0.8230  0.4887  0.1762  11.00000  0.05    0.63
Q41   1   0.1648  0.2328  0.4744  11.00000  0.05    0.62
Q42   1   0.7806  0.0801  0.2823  11.00000  0.05    0.61
Q43   1   0.4985  0.9308  0.8677  11.00000  0.05    0.61
Q44   1   0.8770  0.4589  0.1679  11.00000  0.05    0.59
Q45   1   0.3560  0.7898  0.0620  11.00000  0.05    0.59
Q46   1   0.1024  0.3902  0.2270  11.00000  0.05    0.58
Q47   1   0.7346  0.0231  0.1898  11.00000  0.05    0.58
Q48   1   0.4591  0.1267  0.4791  11.00000  0.05    0.57
Q49   1   0.0623  0.6569  0.2446  11.00000  0.05    0.55
Q50   1   0.2349  0.1612  0.5119  11.00000  0.05    0.55
;
_shelx_res_checksum              28270
_shelx_hkl_file
;
  -1   0   0  998.90   21.30
  -2   0   0  287.17    6.30
  -3   0   0 1306.67   27.80
  -4   0   0  586.64   12.80
  -4   0   0  587.14   12.50
  -5   0   0    2.60    0.50
  -5   0   0    1.70    0.30
  -6   0   0   32.90    1.50
  -6   0   0   34.30    1.30
  -7   0   0   69.99    2.60
  -7   0   0   74.09    2.20
  -8   0   0 1378.86   29.20
  -8   0   0 1373.26   29.80
  -9   0   0  428.46    9.60
  -9   0   0  410.66   10.30
 -10   0   0   36.30    2.10
 -10   0   0   36.20    1.60
 -11   0   0   80.89    3.40
 -12   0   0   25.20    2.20
 -13   0   0    8.10    1.50
 -14   0   0   37.60    2.70
 -15   0   0   16.40    2.10
 -16   0   0   19.80    2.50
 -17   0   0    2.40    1.70
 -18   0   0   10.90    2.40
 -17   1   0   22.80    2.80
 -16   1   0    2.00    1.40
 -15   1   0   12.90    2.00
 -14   1   0    1.50    1.10
 -13   1   0  100.69    4.20
 -12   1   0    5.00    1.20
 -11   1   0    9.00    1.40
 -10   1   0  166.48    5.10
 -10   1   0  158.98    4.30
  -9   1   0   88.69    2.70
  -9   1   0   86.89    3.20
  -8   1   0  179.08    5.10
  -8   1   0  178.18    4.50
  -7   1   0  128.79    3.90
  -6   1   0   73.19    2.50
  -5   1   0   79.59    2.50
  -4   1   0  292.07    6.80
  -3   1   0  790.72   16.90
   2  -1   0  640.24   13.60
  -2   1   0  635.74   13.60
   1  -1   0   12.80    0.50
  -1   1   0   11.80    0.50
  -1  -1   0 1482.85   34.70
  -2  -1   0    8.30    0.40
  -2  -1   0    9.40    0.40
  -3  -1   0  302.47    6.60
  -4  -1   0    5.10    0.50
  -4  -1   0    4.20    0.50
  -5  -1   0   61.89    2.00
  -5  -1   0   61.59    1.80
  -6  -1   0   61.89    1.90
  -6  -1   0   60.19    2.10
  -7  -1   0   53.69    2.10
  -7  -1   0   52.49    1.80
  -8  -1   0   37.00    1.50
  -8  -1   0   39.30    1.90
  -9  -1   0  168.68    4.40
  -9  -1   0  169.88    5.00
 -10  -1   0   55.39    2.00
 -10  -1   0   52.99    2.50
 -11  -1   0    0.50    0.80
 -11  -1   0   -0.30    0.50
 -12  -1   0  151.68    5.20
 -13  -1   0  172.98    5.80
 -14  -1   0   11.40    1.90
 -15  -1   0   74.19    3.80
 -16  -1   0    4.00    1.50
 -17  -1   0   -1.80    1.30
 -18  -1   0    7.10    1.90
 -17   2   0   70.09    4.40
 -16   2   0    5.00    1.70
 -15   2   0   29.30    2.80
 -14   2   0   39.90    3.00
 -13   2   0   43.80    2.80
 -12   2   0   -0.80    0.90
 -11   2   0  113.79    4.30
 -10   2   0    7.80    1.30
  -9   2   0  227.58    6.40
  -8   2   0   24.70    1.60
  -7   2   0   41.60    2.00
  -6   2   0   97.89    3.10
  -5   2   0    4.70    0.70
  -4   2   0   37.90    1.50
   3  -2   0  454.85    9.90
  -3   2   0  438.86    9.90
   2  -2   0  285.37    6.40
  -2   2   0  283.17    6.40
   1  -2   0   58.59    1.60
   1  -2   0   55.49    1.50
  -1   2   0   59.19    1.50
   0  -2   0  857.31   18.20
   0  -2   0  859.81   18.10
   0   2   0  857.41   18.20
  -1  -2   0   10.30    0.50
  -2  -2   0    1.80    0.20
  -2  -2   0    3.00    0.30
  -3  -2   0    8.10    0.50
  -4  -2   0   58.79    1.80
  -4  -2   0   58.09    1.70
  -5  -2   0  196.18    4.60
  -5  -2   0  189.48    4.70
  -6  -2   0   46.00    1.60
  -6  -2   0   46.50    1.80
  -7  -2   0    4.10    0.60
  -7  -2   0    4.10    0.70
  -8  -2   0    0.70    0.40
  -8  -2   0    0.40    0.50
  -9  -2   0  130.69    3.60
  -9  -2   0  133.59    4.10
 -10  -2   0    6.70    1.10
 -10  -2   0    7.80    0.90
 -11  -2   0    8.60    1.00
 -11  -2   0    7.90    1.30
 -12  -2   0   28.00    2.00
 -12  -2   0   26.70    1.50
 -13  -2   0   62.09    3.10
 -14  -2   0   44.20    2.90
 -15  -2   0   82.39    4.00
 -16  -2   0    2.90    1.30
 -17  -2   0   43.90    3.60
 -18  -2   0    2.50    1.50
 -17   3   0    2.40    1.70
 -16   3   0   13.40    2.30
 -15   3   0    6.90    1.70
 -14   3   0   32.30    3.00
 -13   3   0   55.59    3.20
 -12   3   0  219.48    6.90
 -11   3   0   12.80    1.70
 -10   3   0   -1.20    0.70
  -9   3   0  247.98    7.00
  -8   3   0   67.19    2.80
  -7   3   0  225.98    6.10
  -6   3   0    0.20    0.50
  -5   3   0  788.42   17.40
   4  -3   0  812.22   17.70
  -4   3   0  810.82   17.70
   3  -3   0    3.50    0.50
  -3   3   0    2.90    0.50
   2  -3   0   10.10    0.80
   2  -3   0    8.80    0.60
  -2   3   0   10.50    0.70
   1  -3   0 1991.60   42.30
   1  -3   0 2042.20   42.40
  -1   3   0 1968.90   42.40
   0  -3   0  229.68    5.10
   0  -3   0  223.08    5.10
   0   3   0  225.88    5.00
  -1  -3   0  315.27    6.90
  -2  -3   0  265.67    6.00
  -2  -3   0  271.77    5.90
  -3  -3   0  338.67    7.40
  -3  -3   0  336.97    7.50
  -4  -3   0 9160.08  200.68
  -4  -3   0 9062.79  201.58
  -5  -3   0 1707.23   35.60
  -5  -3   0 1653.23   35.40
  -6  -3   0   11.80    0.90
  -7  -3   0  331.67    7.70
  -7  -3   0  336.47    8.00
  -8  -3   0    6.10    0.80
  -8  -3   0    7.40    1.00
  -9  -3   0    5.10    0.90
  -9  -3   0    3.80    0.70
 -10  -3   0   15.60    1.50
 -10  -3   0   17.20    1.20
 -11  -3   0  114.29    3.50
 -11  -3   0  115.09    4.00
 -12  -3   0   15.80    1.30
 -12  -3   0   16.10    1.70
 -13  -3   0   85.79    3.70
 -14  -3   0   36.30    2.50
 -15  -3   0    3.20    1.30
 -16  -3   0   50.59    3.20
 -17  -3   0    2.10    1.50
 -18  -3   0    7.40    2.00
 -16   4   0    1.90    1.60
 -15   4   0   13.40    2.30
 -14   4   0    1.80    1.30
 -13   4   0    5.20    1.40
 -12   4   0    2.80    1.30
 -11   4   0   35.70    2.40
 -10   4   0    8.80    1.40
  -9   4   0  229.28    6.60
  -8   4   0  172.28    5.20
  -7   4   0   -0.80    0.50
  -6   4   0   75.69    2.80
   5  -4   0   99.59    3.20
  -5   4   0   99.79    3.10
   4  -4   0  131.09    3.70
  -4   4   0  128.79    3.70
   3  -4   0  680.33   14.80
   3  -4   0  676.63   14.60
  -3   4   0  664.53   14.80
   2  -4   0  252.37    5.90
   2  -4   0  245.68    5.80
  -2   4   0  252.77    5.90
   1  -4   0  536.35   11.70
   1  -4   0  538.75   11.60
  -1   4   0  535.05   11.60
   0  -4   0   64.49    1.90
   0  -4   0   66.39    1.90
   0   4   0   63.29    1.80
  -1  -4   0 1025.60   22.10
  -1  -4   0 1068.29   22.10
   1   4   0 1045.70   22.00
  -2  -4   0  163.68    3.90
  -2  -4   0  161.08    3.70
  -3  -4   0  160.18    3.70
  -3  -4   0  155.38    3.90
  -4  -4   0 2285.07   47.80
  -4  -4   0 2264.57   47.80
  -5  -4   0 3725.33   79.29
  -5  -4   0 3791.82   79.49
  -6  -4   0  548.85   12.10
  -6  -4   0  541.35   12.10
  -7  -4   0    3.00    0.60
  -7  -4   0    3.30    0.60
  -8  -4   0  422.26    9.90
  -8  -4   0  412.86    9.60
  -9  -4   0   18.70    1.20
  -9  -4   0   18.50    1.30
 -10  -4   0    0.30    0.50
 -10  -4   0    0.80    0.60
 -11  -4   0  116.19    4.00
 -11  -4   0  116.79    3.60
 -12  -4   0    2.10    1.00
 -12  -4   0    1.10    0.70
 -13  -4   0   31.10    2.20
 -13  -4   0   25.90    1.70
 -14  -4   0   25.80    2.30
 -15  -4   0   16.80    2.20
 -16  -4   0   48.40    3.10
 -17  -4   0  158.28    6.10
 -18  -4   0   19.10    2.50
 -19  -4   0   34.40    3.40
 -16   5   0    0.20    1.50
 -15   5   0   10.10    2.00
 -14   5   0    3.50    1.50
 -13   5   0   46.00    3.10
 -12   5   0   -0.30    1.00
 -11   5   0   46.80    2.80
 -10   5   0  130.69    4.70
  -9   5   0   83.49    3.50
  -8   5   0   77.69    3.20
  -7   5   0    1.20    0.70
  -6   5   0    1.30    0.70
   5  -5   0   67.89    2.50
  -5   5   0   69.39    2.50
   4  -5   0    0.10    0.50
  -4   5   0    0.50    0.50
   3  -5   0  334.37    7.80
   3  -5   0  342.27    8.00
  -3   5   0  339.37    8.00
   2  -5   0    0.70    0.40
   2  -5   0    1.00    0.30
  -2   5   0    0.90    0.40
   1  -5   0  521.45   11.50
   1  -5   0  517.35   11.40
  -1   5   0  520.85   11.40
   0  -5   0  354.26    8.00
   0  -5   0  356.36    8.00
   0   5   0  358.56    7.90
  -1  -5   0  238.98    5.60
  -1  -5   0  238.38    5.60
   1   5   0  241.78    5.50
  -2  -5   0  358.96    7.90
  -2  -5   0  357.26    8.10
  -3  -5   0   17.20    0.90
  -3  -5   0   16.40    0.80
  -4  -5   0  352.66    7.80
  -4  -5   0  343.37    8.00
  -5  -5   0  131.19    3.50
  -5  -5   0  134.59    3.60
  -6  -5   0  852.11   18.50
  -6  -5   0  852.51   18.50
  -7  -5   0  307.47    7.20
  -7  -5   0  297.87    7.30
  -8  -5   0    6.90    0.90
  -8  -5   0    5.80    0.80
  -9  -5   0  863.31   18.80
  -9  -5   0  845.22   19.00
 -10  -5   0    5.30    1.00
 -10  -5   0    5.30    0.90
 -11  -5   0   30.50    1.70
 -11  -5   0   34.80    2.00
 -12  -5   0    1.00    0.70
 -12  -5   0    0.20    0.90
 -13  -5   0    6.00    1.00
 -13  -5   0    4.20    1.20
 -14  -5   0    0.90    1.00
 -15  -5   0    3.80    1.30
 -16  -5   0    4.30    1.40
 -17  -5   0   56.79    3.70
 -18  -5   0   26.90    2.80
 -19  -5   0    3.10    1.60
 -15   6   0   -1.10    1.50
 -14   6   0    0.10    1.30
 -13   6   0    0.00    1.20
 -12   6   0    2.10    1.20
 -11   6   0    7.20    1.50
 -10   6   0    9.20    1.50
  -9   6   0  353.56    9.50
  -8   6   0  283.77    7.80
  -7   6   0   57.89    2.70
   6  -6   0    3.90    0.90
  -6   6   0    3.70    0.90
   5  -6   0  237.58    6.40
  -5   6   0  245.88    6.40
   4  -6   0   18.90    1.30
  -4   6   0   22.70    1.40
   3  -6   0    9.70    1.00
   3  -6   0    7.70    0.80
  -3   6   0    7.80    0.90
   2  -6   0    0.20    0.40
   2  -6   0    0.40    0.40
  -2   6   0    0.40    0.40
   1  -6   0  805.62   17.40
   1  -6   0  805.12   17.50
  -1   6   0  802.42   17.40
   0  -6   0  422.96    9.60
   0  -6   0  423.86    9.60
   0   6   0  435.36    9.50
  -1  -6   0  290.87    6.90
  -1  -6   0  296.37    6.90
   1   6   0  303.07    6.70
  -2  -6   0   19.50    1.10
   2   6   0   19.60    0.90
  -3  -6   0  112.39    2.90
  -3  -6   0  114.09    3.20
  -4  -6   0  119.49    3.30
  -4  -6   0  115.69    3.10
  -5  -6   0   25.00    1.30
  -5  -6   0   24.10    1.10
  -6  -6   0   76.89    2.40
  -6  -6   0   71.99    2.40
  -7  -6   0   42.60    1.80
  -7  -6   0   46.30    1.90
  -8  -6   0  495.05   11.30
  -8  -6   0  490.15   11.40
  -9  -6   0  129.49    3.80
  -9  -6   0  130.09    4.00
 -10  -6   0   19.40    1.60
 -10  -6   0   18.80    1.50
 -11  -6   0   46.00    2.30
 -11  -6   0   44.80    2.10
 -12  -6   0   56.59    2.50
 -12  -6   0   60.19    2.80
 -13  -6   0   25.40    1.70
 -13  -6   0   28.30    2.00
 -14  -6   0   19.60    1.70
 -14  -6   0   22.50    2.20
 -15  -6   0    9.50    1.60
 -16  -6   0    2.40    1.30
 -17  -6   0   -1.20    1.10
 -18  -6   0    0.50    1.20
 -19  -6   0    2.40    1.70
 -14   7   0    8.90    2.00
 -13   7   0    1.10    1.30
 -12   7   0   -1.70    1.00
 -11   7   0    0.20    1.10
 -10   7   0    4.40    1.30
  -9   7   0   20.30    2.10
  -8   7   0  354.56    9.40
  -7   7   0    5.10    1.20
   6  -7   0    8.50    1.20
  -6   7   0    9.30    1.20
   5  -7   0  193.58    5.50
  -5   7   0  191.88    5.40
   4  -7   0  158.68    4.60
   4  -7   0  152.68    4.30
  -4   7   0  157.68    4.50
   3  -7   0   28.70    1.60
   3  -7   0   31.00    1.50
  -3   7   0   29.50    1.60
   2  -7   0   82.79    2.80
   2  -7   0   84.39    2.70
  -2   7   0   87.09    2.70
   1  -7   0   21.20    1.30
   1  -7   0   22.40    1.20
  -1   7   0   21.40    1.20
   0  -7   0   46.00    1.70
   0  -7   0   48.00    1.80
   0   7   0   44.90    1.70
  -1  -7   0    2.80    0.50
  -1  -7   0    2.80    0.60
   1   7   0    3.10    0.50
  -2  -7   0   12.10    1.00
  -2  -7   0    8.70    0.80
   2   7   0   11.20    0.80
  -3  -7   0   82.09    2.60
  -3  -7   0   82.69    2.30
  -4  -7   0  273.97    6.30
  -4  -7   0  267.37    6.60
  -5  -7   0  104.29    2.90
  -5  -7   0  101.29    3.10
  -6  -7   0  375.66    8.60
  -6  -7   0  372.36    8.90
  -7  -7   0   36.20    1.80
  -7  -7   0   34.80    1.60
  -8  -7   0  114.09    3.50
  -8  -7   0  109.79    3.40
  -9  -7   0    7.30    1.00
  -9  -7   0   11.70    1.30
 -10  -7   0  175.88    4.90
 -10  -7   0  168.98    5.00
 -11  -7   0   18.40    1.60
 -11  -7   0   13.50    1.50
 -12  -7   0   24.20    2.00
 -12  -7   0   26.10    1.80
 -13  -7   0  322.47    8.70
 -13  -7   0  319.47    8.30
 -14  -7   0   33.30    2.30
 -14  -7   0   32.50    2.10
 -15  -7   0   49.60    3.00
 -16  -7   0   74.39    3.80
 -17  -7   0    0.60    1.20
 -18  -7   0    4.90    1.60
 -19  -7   0    1.40    1.40
 -14   8   0   63.99    4.10
 -13   8   0   72.09    4.10
 -12   8   0    0.60    1.20
 -11   8   0   -0.30    1.10
 -10   8   0   22.00    2.40
  -9   8   0   11.70    1.70
  -8   8   0   10.70    1.50
  -7   8   0  133.59    4.60
   6  -8   0   11.40    1.40
  -6   8   0   11.50    1.40
   5  -8   0   29.70    1.90
  -5   8   0   33.30    2.00
   4  -8   0   41.60    2.10
   4  -8   0   42.70    1.90
  -4   8   0   41.00    2.10
   3  -8   0   95.79    3.10
   3  -8   0   94.89    3.20
  -3   8   0   92.39    3.10
   2  -8   0   29.50    1.50
   2  -8   0   30.90    1.70
  -2   8   0   30.00    1.50
   1  -8   0  157.18    4.40
   1  -8   0  155.78    4.40
  -1   8   0  160.98    4.30
   0  -8   0   21.90    1.30
   0  -8   0   23.80    1.30
   0   8   0   20.90    1.20
  -1  -8   0   51.09    2.00
  -1  -8   0   56.39    2.10
   1   8   0   53.49    1.80
  -2  -8   0  171.88    4.70
  -2  -8   0  177.58    4.60
   2   8   0  179.18    4.40
  -3  -8   0   11.30    1.00
   3   8   0   10.80    0.80
  -4  -8   0   11.00    0.80
  -4  -8   0   11.90    1.10
  -5  -8   0   91.39    2.70
  -5  -8   0   96.19    3.00
  -6  -8   0   97.39    2.90
  -6  -8   0   96.89    3.10
  -7  -8   0  164.98    4.70
  -7  -8   0  173.18    4.50
  -8  -8   0   34.60    1.80
  -8  -8   0   31.40    1.60
  -9  -8   0  302.27    7.60
  -9  -8   0  302.77    7.70
 -10  -8   0   85.79    3.10
 -10  -8   0   89.49    3.20
 -11  -8   0    2.30    0.90
 -11  -8   0    0.70    0.70
 -12  -8   0   40.20    2.20
 -12  -8   0   41.80    2.30
 -13  -8   0  365.96    9.70
 -13  -8   0  369.26    9.30
 -14  -8   0    6.90    1.40
 -14  -8   0    7.90    1.30
 -15  -8   0   21.60    2.20
 -15  -8   0   22.40    2.00
 -16  -8   0   -0.60    1.10
 -17  -8   0   20.60    2.50
 -18  -8   0   11.90    2.10
 -19  -8   0    2.00    1.60
 -13   9   0   82.39    4.40
 -12   9   0  114.69    5.10
 -11   9   0   -0.90    1.00
 -10   9   0   17.90    2.20
  -9   9   0   43.60    2.80
  -8   9   0    0.60    0.90
  -7   9   0   11.80    1.60
   6  -9   0   59.29    2.80
  -6   9   0   52.09    2.70
   5  -9   0   82.99    3.30
  -5   9   0   81.79    3.20
   4  -9   0  141.79    4.50
   4  -9   0  143.19    4.30
  -4   9   0  140.99    4.40
   3  -9   0   10.70    1.20
   3  -9   0    7.50    1.10
  -3   9   0    7.90    1.00
   2  -9   0   14.30    1.30
   2  -9   0   17.70    1.50
  -2   9   0   15.60    1.30
   1  -9   0  612.84   14.00
  -1   9   0  615.24   13.80
   0  -9   0   80.69    2.80
   0  -9   0   87.59    2.90
   0   9   0   83.19    2.70
  -1  -9   0   75.29    2.60
  -1  -9   0   73.69    2.60
   1   9   0   75.79    2.40
  -2  -9   0   18.60    1.20
  -2  -9   0   16.90    1.30
   2   9   0   16.50    1.00
  -3  -9   0    2.10    0.60
  -3  -9   0    0.20    0.50
   3   9   0    1.30    0.50
  -4  -9   0  543.65   12.50
  -5  -9   0    5.90    0.90
  -5  -9   0    6.60    0.70
  -6  -9   0   53.19    2.00
  -6  -9   0   51.69    2.20
  -7  -9   0   11.60    1.20
  -7  -9   0   10.20    1.00
  -8  -9   0    2.90    0.90
  -8  -9   0    3.40    0.70
  -9  -9   0    1.10    0.60
  -9  -9   0    1.40    0.80
 -10  -9   0   57.09    2.50
 -10  -9   0   55.29    2.60
 -11  -9   0   11.70    1.30
 -11  -9   0   12.90    1.50
 -12  -9   0   11.40    1.40
 -12  -9   0   10.20    1.40
 -13  -9   0    4.20    1.10
 -13  -9   0    6.70    1.20
 -14  -9   0   85.69    3.50
 -14  -9   0   90.09    3.80
 -15  -9   0   42.60    2.70
 -15  -9   0   37.20    2.40
 -16  -9   0   22.90    2.40
 -16  -9   0   22.10    2.30
 -17  -9   0    2.80    1.40
 -18  -9   0    3.80    1.50
 -19  -9   0    9.00    2.20
 -12  10   0  117.19    5.40
 -11  10   0   -0.30    1.10
 -10  10   0   -0.20    1.00
  -9  10   0  135.69    5.20
  -8  10   0   43.50    2.80
  -7  10   0   31.10    2.30
   6 -10   0   14.10    1.70
  -6  10   0   16.40    1.80
   5 -10   0  206.78    6.10
  -5  10   0  203.48    6.00
   4 -10   0  325.47    8.30
   4 -10   0  310.67    8.40
  -4  10   0  321.87    8.30
   3 -10   0   11.20    1.30
   3 -10   0    8.20    1.20
  -3  10   0    7.40    1.10
   2 -10   0    4.70    0.90
   2 -10   0    6.30    1.00
  -2  10   0    4.20    0.80
   1 -10   0   15.90    1.40
   1 -10   0   17.00    1.40
  -1  10   0   17.40    1.30
   0 -10   0   74.79    2.80
   0 -10   0   83.89    2.90
   0  10   0   78.69    2.60
  -1 -10   0  172.68    4.90
  -1 -10   0  170.48    4.80
   1  10   0  172.18    4.60
  -2 -10   0   33.80    1.80
  -2 -10   0   35.70    1.70
   2  10   0   34.00    1.50
  -3 -10   0   -0.20    0.50
  -3 -10   0    0.00    0.50
   3  10   0    0.00    0.50
  -4 -10   0   13.90    1.30
   4  10   0   11.80    1.00
  -5 -10   0   40.80    1.70
  -5 -10   0   40.30    2.00
  -6 -10   0   -0.20    0.60
  -6 -10   0    2.20    0.60
  -7 -10   0    1.50    0.80
  -7 -10   0    1.50    0.60
  -8 -10   0   56.69    2.50
  -8 -10   0   56.39    2.30
  -9 -10   0  114.29    3.60
  -9 -10   0  113.99    3.90
 -10 -10   0   21.80    1.60
 -10 -10   0   23.50    1.80
 -11 -10   0   53.49    2.50
 -11 -10   0   54.09    2.60
 -12 -10   0   41.60    2.40
 -12 -10   0   44.00    2.40
 -13 -10   0   50.89    2.70
 -13 -10   0   52.79    2.70
 -14 -10   0   10.50    1.60
 -14 -10   0   12.30    1.70
 -15 -10   0    1.60    1.10
 -15 -10   0    0.00    1.00
 -16 -10   0    3.30    1.30
 -11  11   0   27.20    2.80
 -10  11   0   67.99    3.90
  -9  11   0   47.30    3.00
  -8  11   0   31.40    2.70
  -7  11   0   21.20    2.10
   6 -11   0    5.80    1.30
  -6  11   0    5.70    1.30
   5 -11   0   18.80    1.90
  -5  11   0   18.90    1.80
   4 -11   0    1.80    0.80
   4 -11   0    1.10    0.80
  -4  11   0    0.70    0.90
   3 -11   0  108.99    3.80
   3 -11   0  113.69    4.00
  -3  11   0  107.29    3.80
   2 -11   0   15.80    1.60
   2 -11   0   16.10    1.60
  -2  11   0   13.10    1.40
   1 -11   0   66.69    2.70
   1 -11   0   69.79    2.80
  -1  11   0   68.39    2.60
   0 -11   0   18.70    1.50
   0 -11   0   16.10    1.50
   0  11   0   17.60    1.30
  -1 -11   0  108.19    3.60
  -1 -11   0  109.89    3.50
   1  11   0  108.99    3.30
  -2 -11   0   93.59    3.30
  -2 -11   0   94.69    3.20
   2  11   0   95.29    3.00
  -3 -11   0    3.20    0.80
  -3 -11   0    3.20    0.80
   3  11   0    3.30    0.70
  -4 -11   0   21.60    1.50
  -4 -11   0   18.70    1.40
   4  11   0   20.60    1.20
  -5 -11   0   -0.30    0.60
   5  11   0    0.50    0.50
  -6 -11   0   -0.10    0.40
  -6 -11   0   -0.20    0.60
  -7 -11   0    6.80    1.10
  -7 -11   0    6.80    0.90
  -8 -11   0  141.09    4.20
  -8 -11   0  146.99    4.60
  -9 -11   0   10.50    1.40
  -9 -11   0    9.30    1.10
 -10 -11   0    0.10    0.70
 -10 -11   0    1.70    1.00
 -11 -11   0   34.60    2.30
 -11 -11   0   31.30    2.30
 -12 -11   0   48.00    2.60
 -13 -11   0  451.85   11.40
 -14 -11   0   14.30    1.90
 -15 -11   0   -0.30    1.00
 -16 -11   0    7.30    1.60
 -17 -11   0   67.29    4.60
 -11  12   0    8.50    2.00
 -10  12   0    5.30    1.80
  -9  12   0  173.58    6.20
  -8  12   0   73.59    3.80
  -7  12   0    8.70    1.60
   6 -12   0    3.90    1.30
  -6  12   0    3.20    1.30
   5 -12   0  158.08    5.40
  -5  12   0  160.48    5.20
   4 -12   0    0.70    0.80
   4 -12   0    1.70    0.90
  -4  12   0    1.40    0.90
   3 -12   0    1.10    0.90
   3 -12   0    0.50    0.80
  -3  12   0    0.40    0.80
   2 -12   0    7.40    1.30
   2 -12   0    9.30    1.30
  -2  12   0    9.50    1.30
   1 -12   0   10.00    1.20
   1 -12   0   10.10    1.30
  -1  12   0   10.30    1.20
   0 -12   0   38.50    2.10
   0 -12   0   41.10    2.10
   0  12   0   35.80    1.80
  -1 -12   0    2.70    0.90
  -1 -12   0    3.40    0.90
   1  12   0    3.90    0.80
  -2 -12   0   62.19    2.70
  -2 -12   0   60.09    2.50
   2  12   0   56.89    2.30
  -3 -12   0  840.92   19.20
  -3 -12   0  844.62   18.90
   3  12   0  857.51   18.60
  -4 -12   0   68.19    2.80
  -4 -12   0   68.29    2.60
   4  12   0   64.89    2.40
  -5 -12   0  224.08    6.30
  -5 -12   0  221.88    5.90
  -6 -12   0   40.30    2.20
  -7 -12   0    7.90    1.20
  -8 -12   0   29.70    2.00
  -9 -12   0   24.20    2.00
 -10 -12   0   18.20    1.80
 -11 -12   0   30.80    2.30
 -12 -12   0    1.00    1.00
 -13 -12   0   33.20    2.50
 -14 -12   0   85.79    3.70
 -15 -12   0   35.50    2.60
 -16 -12   0   23.70    2.40
 -17 -12   0    1.30    1.30
 -10  13   0    7.80    2.00
  -9  13   0   13.50    2.10
  -8  13   0   92.39    4.30
  -7  13   0    1.10    1.10
   6 -13   0   14.70    1.90
  -6  13   0   13.20    1.80
   5 -13   0  248.98    7.40
  -5  13   0  238.58    7.20
   4 -13   0  346.47    9.40
   4 -13   0  345.07    9.40
  -4  13   0  347.17    9.20
   3 -13   0    3.20    1.10
   3 -13   0    3.50    1.10
  -3  13   0    3.50    1.00
   2 -13   0   13.30    1.60
   2 -13   0   17.00    1.70
  -2  13   0   15.60    1.60
   1 -13   0   18.20    1.80
   1 -13   0   10.80    1.50
  -1  13   0   11.80    1.30
   0 -13   0    3.60    1.00
   0 -13   0    3.40    1.00
   0  13   0    3.90    0.90
  -1 -13   0    1.40    0.80
  -1 -13   0    1.00    0.80
  -2 -13   0   18.60    1.60
  -2 -13   0   16.00    1.60
  -3 -13   0  235.78    6.70
  -3 -13   0  234.18    6.30
  -4 -13   0  162.68    5.10
  -4 -13   0  159.78    4.70
  -5 -13   0    4.80    1.10
  -5 -13   0    5.10    1.00
  -6 -13   0    1.50    0.80
  -6 -13   0    3.40    1.10
  -7 -13   0   29.00    2.00
  -8 -13   0   98.09    3.80
  -9 -13   0   63.99    3.10
 -10 -13   0  200.38    6.10
 -11 -13   0    2.20    1.10
 -12 -13   0   21.90    2.20
 -13 -13   0   22.30    2.20
 -14 -13   0    2.60    1.30
 -15 -13   0    1.30    1.30
 -16 -13   0   36.90    2.80
 -17 -13   0   42.50    2.90
  -8  14   0   -0.50    1.20
  -7  14   0    0.50    1.20
   6 -14   0    1.40    1.20
  -6  14   0    2.10    1.10
   5 -14   0   34.50    2.50
  -5  14   0   34.40    2.40
   4 -14   0  159.78    5.40
  -4  14   0  153.28    5.80
   3 -14   0   65.39    3.20
   3 -14   0   70.89    3.40
   2 -14   0    4.60    1.10
   2 -14   0    5.90    1.30
   1 -14   0  104.19    4.10
   1 -14   0  100.09    3.80
   0 -14   0   33.80    2.20
   0 -14   0   36.00    2.30
  -1 -14   0   17.10    1.80
  -1 -14   0   21.30    1.80
  -2 -14   0    9.90    1.30
  -2 -14   0    6.70    1.30
  -3 -14   0    2.70    1.00
  -3 -14   0    3.30    1.00
  -4 -14   0   61.59    3.00
  -4 -14   0   57.19    2.80
  -5 -14   0  125.29    4.40
  -6 -14   0   39.00    2.30
  -7 -14   0   12.10    1.60
  -8 -14   0   94.29    3.80
  -9 -14   0    3.20    1.10
 -10 -14   0    0.80    1.00
 -11 -14   0    0.50    1.00
 -12 -14   0   22.80    2.20
 -13 -14   0   49.90    3.10
 -14 -14   0    3.30    1.50
 -15 -14   0    9.10    1.70
 -16 -14   0    0.70    1.40
 -17 -14   0   68.29    3.80
   5 -15   0   28.70    2.60
   4 -15   0    9.90    1.60
   3 -15   0   63.09    3.20
   2 -15   0    7.80    1.40
   2 -15   0    7.40    1.50
   1 -15   0   59.49    3.10
   1 -15   0   57.39    2.90
   0 -15   0    1.00    0.90
   0 -15   0    0.90    0.90
  -1 -15   0    0.80    1.10
  -1 -15   0    1.40    0.90
  -2 -15   0    0.70    1.10
  -3 -15   0    0.00    0.90
  -4 -15   0   15.30    1.80
  -5 -15   0   -0.80    0.90
  -6 -15   0   16.10    1.80
  -7 -15   0    1.70    1.00
  -8 -15   0   32.50    2.30
  -9 -15   0   20.80    2.00
 -10 -15   0    0.60    1.00
 -11 -15   0   15.70    2.00
 -12 -15   0   31.20    2.60
 -13 -15   0   -0.90    1.00
 -14 -15   0    0.70    1.20
 -15 -15   0    1.70    1.20
 -16 -15   0    1.60    1.40
 -17 -15   0    3.80    1.60
   5 -16   0    0.70    1.30
   4 -16   0  118.59    4.80
   3 -16   0    5.30    1.40
   2 -16   0    0.80    1.10
   2 -16   0    0.70    1.10
   1 -16   0  137.19    5.20
   0 -16   0  110.89    4.50
  -1 -16   0  145.29    5.20
  -2 -16   0   13.00    1.80
  -3 -16   0   37.30    2.50
  -4 -16   0    3.70    1.30
  -5 -16   0   34.90    2.40
  -6 -16   0   -0.30    0.90
  -7 -16   0   33.50    2.60
  -8 -16   0   -0.40    1.00
  -9 -16   0   10.40    1.70
 -10 -16   0    7.10    1.50
 -11 -16   0    2.00    1.20
 -12 -16   0   24.40    2.40
 -13 -16   0    5.50    1.50
 -14 -16   0   39.10    2.80
 -15 -16   0    6.40    1.60
 -16 -16   0    6.50    1.80
   1 -17   0   22.30    2.40
   0 -17   0  151.68    5.60
  -1 -17   0   84.79    3.90
  -2 -17   0   -0.70    1.10
  -3 -17   0   -1.40    1.00
  -4 -17   0   89.59    4.00
  -5 -17   0   18.10    2.10
  -6 -17   0   13.10    1.90
  -7 -17   0   12.10    1.80
  -8 -17   0   19.00    2.20
  -9 -17   0   49.99    3.00
 -10 -17   0   10.00    1.70
 -11 -17   0    0.90    1.20
 -12 -17   0  112.99    4.70
 -13 -17   0   11.50    1.90
 -14 -17   0    0.30    1.10
 -15 -17   0    0.50    1.10
   1 -18   0   14.90    2.20
   0 -18   0    2.20    1.40
  -1 -18   0   23.40    2.50
  -2 -18   0    1.40    1.30
  -3 -18   0   84.29    4.10
  -4 -18   0   20.30    2.30
  -5 -18   0  148.79    5.60
  -6 -18   0   58.09    3.30
  -7 -18   0    0.70    1.10
  -8 -18   0   27.60    2.60
  -9 -18   0    0.60    1.20
 -10 -18   0   20.10    2.30
 -11 -18   0    9.90    1.80
 -12 -18   0    3.60    1.40
 -13 -18   0   18.30    2.30
 -14 -18   0    1.60    1.30
   0 -19   0    5.70    1.90
  -1 -19   0    6.50    1.70
  -2 -19   0    0.60    1.20
  -3 -19   0   40.50    3.00
  -4 -19   0   75.59    4.00
  -5 -19   0   18.50    2.30
  -6 -19   0    8.90    1.80
  -7 -19   0   19.30    2.30
  -8 -19   0   63.59    3.60
  -9 -19   0   22.90    2.50
 -10 -19   0    0.50    1.20
 -11 -19   0    1.40    1.40
 -12 -19   0    2.10    1.40
 -13 -19   0    4.80    1.60
  -2 -20   0   12.80    2.20
  -3 -20   0    6.90    1.70
  -4 -20   0   37.80    3.30
  -5 -20   0   85.99    4.50
  -6 -20   0   15.50    2.20
  -7 -20   0   11.50    2.00
  -8 -20   0   79.39    4.30
  -9 -20   0   32.90    3.10
 -10 -20   0   14.50    2.20
 -11 -20   0    3.10    1.60
 -10 -20   1    2.80    1.50
  -9 -20   1   31.40    3.10
  -8 -20   1  179.38    6.70
  -7 -20   1   35.50    3.20
  -6 -20   1    7.60    1.90
  -5 -20   1    6.20    1.70
  -4 -20   1   23.60    2.80
  -3 -20   1    7.50    2.00
 -12 -19   1    1.00    1.30
 -11 -19   1    1.80    1.40
 -10 -19   1   -0.30    1.30
  -9 -19   1   13.10    2.10
  -8 -19   1    5.80    1.70
  -7 -19   1  183.48    6.60
  -6 -19   1   -0.20    1.20
  -5 -19   1    8.40    1.90
  -4 -19   1   95.99    4.50
  -3 -19   1    4.30    1.50
  -2 -19   1    9.10    1.90
  -1 -19   1   10.90    2.10
   0 -19   1    4.80    1.80
   1 -19   1   87.49    4.60
 -14 -18   1    3.60    1.50
 -13 -18   1    1.60    1.30
 -12 -18   1    0.30    1.20
 -11 -18   1   10.30    1.90
 -10 -18   1    7.60    1.80
  -9 -18   1   22.80    2.50
  -8 -18   1   13.80    2.00
  -7 -18   1    1.70    1.20
  -6 -18   1    4.80    1.50
  -5 -18   1   51.99    3.30
  -4 -18   1   15.10    2.20
  -3 -18   1    1.40    1.20
  -2 -18   1    8.80    1.90
  -1 -18   1    3.60    1.60
   0 -18   1   20.30    2.50
   1 -18   1   13.20    2.20
 -15 -17   1   14.10    2.00
 -14 -17   1    1.50    1.20
 -13 -17   1   19.10    2.40
 -12 -17   1   10.80    1.80
 -11 -17   1    8.30    1.70
 -10 -17   1   15.70    2.10
  -9 -17   1    2.70    1.40
  -8 -17   1   22.40    2.30
  -7 -17   1   23.90    2.50
  -6 -17   1    1.00    1.20
  -5 -17   1   68.69    3.60
  -4 -17   1  348.67    9.90
  -3 -17   1   90.79    4.10
  -2 -17   1   19.40    2.20
  -1 -17   1   25.80    2.50
   0 -17   1    7.30    1.70
   1 -17   1   26.30    2.70
   2 -17   1    1.70    1.20
 -16 -16   1   10.40    1.80
 -15 -16   1    2.40    1.40
 -14 -16   1   11.50    1.90
 -13 -16   1    8.20    1.60
 -12 -16   1    8.30    1.60
 -11 -16   1   20.10    2.20
 -10 -16   1    1.70    1.10
  -9 -16   1    3.60    1.40
  -8 -16   1    8.10    1.60
  -7 -16   1    6.00    1.60
  -6 -16   1    3.40    1.20
  -5 -16   1    0.50    1.00
  -4 -16   1    0.70    1.00
  -3 -16   1  297.27    8.60
  -2 -16   1  104.69    4.30
  -1 -16   1   32.20    2.50
   0 -16   1  172.98    6.00
   1 -16   1   48.50    3.00
   2 -16   1    1.30    1.20
   3 -16   1   14.00    2.00
 -16 -15   1    2.30    1.40
 -15 -15   1    8.60    1.70
 -14 -15   1    5.50    1.50
 -13 -15   1   19.60    2.20
 -12 -15   1    5.10    1.30
 -11 -15   1   26.40    2.40
 -10 -15   1   22.70    2.30
  -9 -15   1   26.20    2.40
  -8 -15   1   13.80    1.80
  -7 -15   1    0.00    1.00
  -6 -15   1    1.80    1.10
  -5 -15   1   58.89    3.00
  -4 -15   1    0.80    1.10
  -3 -15   1  268.27    7.80
  -2 -15   1    3.70    1.30
  -1 -15   1  100.79    4.10
   0 -15   1   45.00    2.70
   1 -15   1   27.20    2.50
   2 -15   1   17.80    2.10
   3 -15   1    1.80    1.20
   3 -15   1    0.40    1.00
   4 -15   1    9.30    1.60
   5 -15   1   25.30    2.40
 -17 -14   1   20.10    2.30
 -16 -14   1   39.60    2.80
 -15 -14   1    7.90    1.60
 -14 -14   1   26.00    2.40
 -13 -14   1    2.70    1.20
 -12 -14   1   43.30    2.70
 -11 -14   1    0.60    1.00
 -10 -14   1    4.80    1.30
  -9 -14   1   13.50    1.70
  -8 -14   1   53.99    2.90
  -7 -14   1  106.19    4.10
  -6 -14   1    7.70    1.30
  -5 -14   1   -0.30    0.90
  -4 -14   1    2.60    1.00
  -3 -14   1   -0.10    0.80
  -2 -14   1   64.09    3.00
  -1 -14   1   51.69    2.80
   0 -14   1  833.22   19.10
   0 -14   1  845.72   19.70
   1 -14   1  231.68    6.90
   1 -14   1  219.88    6.40
   2 -14   1   17.10    1.90
   2 -14   1   13.30    1.50
  -3  14  -1   40.90    2.50
   3 -14   1   41.10    2.50
   3 -14   1   41.30    2.60
  -4  14  -1    2.40    1.10
   4 -14   1    5.60    1.30
   4 -14   1    3.50    1.20
  -5  14  -1    1.30    1.10
   5 -14   1   -0.20    1.00
  -6  14  -1   17.10    2.00
  -7  14  -1    1.80    1.30
  -8  14  -1   14.10    2.10
  -9  14  -1   57.89    3.60
 -17 -13   1    1.60    1.30
 -16 -13   1    8.00    1.70
 -15 -13   1    6.50    1.60
 -14 -13   1   47.20    2.80
 -13 -13   1   22.70    2.20
 -12 -13   1    1.80    1.10
 -11 -13   1   14.10    1.70
 -10 -13   1   -1.40    0.80
  -9 -13   1    0.20    0.90
  -8 -13   1    3.60    1.10
  -7 -13   1  201.98    6.10
  -6 -13   1   15.30    1.70
  -5 -13   1    0.70    0.90
  -4 -13   1    6.60    1.20
  -3 -13   1   88.99    3.50
  -3 -13   1   84.29    3.00
   2  13  -1    0.10    0.80
  -2 -13   1    0.00    0.80
  -2 -13   1   -1.20    0.60
   1  13  -1   11.90    1.30
  -1 -13   1   10.20    1.30
  -1 -13   1    9.80    1.40
   0  13  -1   13.00    1.40
   0 -13   1    9.60    1.20
   0 -13   1   13.10    1.60
  -1  13  -1  372.76    9.40
   1 -13   1  377.06    9.80
   1 -13   1  371.06    9.40
  -2  13  -1  116.79    4.10
   2 -13   1  125.79    4.20
   2 -13   1  121.39    4.50
  -3  13  -1    8.50    1.40
   3 -13   1    6.80    1.30
   3 -13   1    8.80    1.50
  -4  13  -1  214.68    6.50
   4 -13   1  219.68    6.70
   4 -13   1  211.98    6.50
  -5  13  -1  179.98    5.90
   5 -13   1  186.58    5.90
  -6  13  -1    0.00    0.90
  -7  13  -1    0.50    1.20
  -8  13  -1   13.20    2.00
  -9  13  -1   19.50    2.40
 -10  13  -1   22.00    2.60
 -16 -12   1    6.10    1.60
 -15 -12   1   15.70    2.00
 -14 -12   1   -0.60    1.00
 -13 -12   1    9.30    1.60
 -12 -12   1   57.79    3.00
 -11 -12   1    9.50    1.60
 -10 -12   1   21.10    2.00
  -9 -12   1   20.90    2.00
  -8 -12   1    3.70    1.10
  -7 -12   1   13.80    1.50
  -7 -12   1   15.60    1.50
  -6 -12   1    6.50    1.10
  -6 -12   1    8.20    1.10
   5  12  -1    6.00    0.90
  -5 -12   1    5.10    1.00
  -5 -12   1    5.30    0.90
   4  12  -1    4.60    0.90
  -4 -12   1    3.20    0.90
  -4 -12   1    3.90    0.80
   3  12  -1   14.20    1.30
  -3 -12   1   13.70    1.30
  -3 -12   1   15.00    1.60
   2  12  -1   14.90    1.30
  -2 -12   1   16.00    1.40
  -2 -12   1   13.80    1.50
   1  12  -1   18.80    1.50
  -1 -12   1   18.60    1.70
  -1 -12   1   16.70    1.50
   0  12  -1   -0.30    0.70
   0 -12   1    0.40    0.70
   0 -12   1    1.60    0.80
  -1  12  -1   25.60    1.70
   1 -12   1   21.80    1.70
   1 -12   1   23.10    2.00
  -2  12  -1   -0.40    0.70
   2 -12   1    0.00    0.80
   2 -12   1   -0.30    0.80
  -3  12  -1    5.00    1.10
   3 -12   1    4.80    1.20
   3 -12   1    4.90    1.00
  -4  12  -1   49.70    2.60
   4 -12   1   44.00    2.50
   4 -12   1   47.90    2.70
  -5  12  -1   56.99    2.90
   5 -12   1   56.49    2.90
  -6  12  -1  231.78    7.00
  -7  12  -1    1.90    1.20
  -8  12  -1  139.69    5.30
  -9  12  -1   34.90    3.00
 -10  12  -1    2.70    1.50
 -11  12  -1    0.20    1.50
 -16 -11   1   16.40    2.00
 -15 -11   1   24.30    2.30
 -14 -11   1    2.40    1.10
 -13 -11   1  131.29    5.40
 -13 -11   1  141.69    4.90
 -12 -11   1  149.79    5.00
 -12 -11   1  151.58    5.10
 -11 -11   1   30.20    2.00
 -11 -11   1   32.50    2.20
 -10 -11   1    5.90    1.20
 -10 -11   1    7.70    1.20
  -9 -11   1   38.30    2.20
  -9 -11   1   32.10    1.90
  -8 -11   1   11.80    1.40
  -8 -11   1   10.90    1.20
  -7 -11   1    2.90    0.80
  -7 -11   1    2.80    0.90
  -6 -11   1    5.80    0.90
  -6 -11   1    4.90    1.00
  -5 -11   1    2.10    0.70
  -5 -11   1    1.60    0.70
   4  11  -1   20.20    1.30
  -4 -11   1   19.50    1.70
  -4 -11   1   19.50    1.30
   3  11  -1   37.80    1.80
  -3 -11   1   38.90    2.00
  -3 -11   1   37.40    1.80
   2  11  -1    1.00    0.60
  -2 -11   1    1.90    0.70
  -2 -11   1    1.00    0.70
   1  11  -1   44.40    2.00
  -1 -11   1   43.80    2.00
  -1 -11   1   47.60    2.30
   0  11  -1   90.09    3.10
   0 -11   1   90.19    3.30
   0 -11   1   84.59    3.00
  -1  11  -1   90.49    3.10
   1 -11   1   88.79    3.40
   1 -11   1   88.09    3.10
  -2  11  -1    2.70    0.90
   2 -11   1    2.60    0.80
   2 -11   1    3.40    0.90
  -3  11  -1   45.40    2.30
   3 -11   1   41.90    2.30
   3 -11   1   45.70    2.30
  -4  11  -1  229.68    6.50
   4 -11   1  220.48    6.40
   4 -11   1  226.28    6.50
  -5  11  -1   63.19    3.00
   5 -11   1   62.79    2.90
  -6  11  -1   77.49    3.50
   6 -11   1   86.19    3.60
  -7  11  -1    5.90    1.30
  -8  11  -1   93.19    4.20
  -9  11  -1    3.70    1.40
 -10  11  -1    0.20    1.30
 -11  11  -1   10.20    1.90
 -12  11  -1    9.80    2.20
 -16 -10   1    2.20    1.30
 -15 -10   1    3.90    1.40
 -15 -10   1    0.50    1.10
 -14 -10   1    2.90    1.10
 -14 -10   1    2.00    1.20
 -13 -10   1    9.50    1.50
 -13 -10   1    7.90    1.40
 -12 -10   1  223.58    6.60
 -12 -10   1  227.28    6.50
 -11 -10   1   19.50    1.80
 -11 -10   1   20.00    1.90
 -10 -10   1   68.39    2.90
 -10 -10   1   72.19    3.00
  -9 -10   1   26.70    1.70
  -9 -10   1   27.70    1.90
  -8 -10   1   62.99    2.70
  -8 -10   1   66.09    2.60
  -7 -10   1   69.99    2.80
  -7 -10   1   68.39    2.60
  -6 -10   1    8.90    1.00
  -6 -10   1    7.80    1.10
  -5 -10   1   59.69    2.20
  -5 -10   1   55.09    2.40
   4  10  -1  132.19    3.80
  -4 -10   1  136.79    4.10
  -4 -10   1  130.19    3.70
   3  10  -1  475.55   10.80
  -3 -10   1  466.55   11.20
  -3 -10   1  464.15   10.70
   2  10  -1   27.30    1.50
  -2 -10   1   27.10    1.50
  -2 -10   1   28.60    1.70
   1  10  -1    6.90    0.90
  -1 -10   1    7.30    0.90
  -1 -10   1    7.80    1.00
   0  10  -1  162.48    4.50
   0 -10   1  154.48    4.40
   0 -10   1  153.28    4.60
  -1  10  -1   86.29    3.00
   1 -10   1   85.29    3.10
   1 -10   1   88.39    3.00
  -2  10  -1   25.70    1.60
   2 -10   1   26.70    1.70
   2 -10   1   24.90    1.60
  -3  10  -1   14.30    1.50
   3 -10   1   13.50    1.40
   3 -10   1   10.70    1.20
  -4  10  -1   71.89    3.00
   4 -10   1   62.89    2.80
   4 -10   1   66.59    2.90
  -5  10  -1   82.09    3.40
   5 -10   1   85.99    3.40
  -6  10  -1   27.90    2.00
   6 -10   1   24.20    2.10
  -7  10  -1   15.80    1.80
  -8  10  -1  156.58    5.50
  -9  10  -1  175.38    6.00
 -10  10  -1   17.20    2.30
 -11  10  -1    4.90    1.70
 -12  10  -1    0.30    1.30
 -18  -9   1    7.10    1.70
 -17  -9   1    3.10    1.50
 -16  -9   1    6.10    1.50
 -15  -9   1    2.10    1.10
 -15  -9   1    5.00    1.40
 -14  -9   1   -0.20    1.00
 -14  -9   1   -0.20    1.00
 -13  -9   1   10.00    1.50
 -13  -9   1   11.60    1.60
 -12  -9   1   90.99    3.50
 -12  -9   1  101.69    3.80
 -11  -9   1  174.68    5.40
 -11  -9   1  176.58    5.30
 -10  -9   1    1.20    0.70
 -10  -9   1   -0.30    0.70
  -9  -9   1   46.30    2.20
  -9  -9   1   40.80    2.10
  -8  -9   1  174.38    5.10
  -8  -9   1  183.28    5.10
  -7  -9   1   21.00    1.50
  -7  -9   1   19.90    1.30
  -6  -9   1    0.30    0.60
  -6  -9   1    0.80    0.50
  -5  -9   1   42.70    2.00
  -5  -9   1   40.20    1.70
  -4  -9   1  312.97    7.50
  -4  -9   1  315.17    7.80
   3   9  -1    6.60    0.80
  -3  -9   1    8.60    0.90
  -3  -9   1    7.60    1.00
   2   9  -1   14.00    1.00
  -2  -9   1   11.10    1.10
  -2  -9   1   14.20    1.10
   1   9  -1   63.69    2.30
  -1  -9   1   61.89    2.40
  -1  -9   1   66.19    2.30
   0   9  -1  108.69    3.30
   0  -9   1  105.69    3.40
   0  -9   1  107.89    3.30
  -1   9  -1  201.28    5.30
   1  -9   1  197.28    5.50
   1  -9   1  200.08    5.30
  -2   9  -1  229.88    6.10
   2  -9   1  235.48    6.20
   2  -9   1  229.48    6.10
  -3   9  -1    7.80    1.10
   3  -9   1    4.10    0.80
   3  -9   1    8.70    1.10
  -4   9  -1    2.20    0.80
   4  -9   1    4.10    0.90
   4  -9   1    4.40    0.90
  -5   9  -1    0.50    0.80
   5  -9   1    0.70    0.70
  -6   9  -1   19.40    1.80
   6  -9   1   21.10    1.90
  -7   9  -1    0.80    0.90
  -8   9  -1   38.70    2.50
  -9   9  -1  230.68    7.20
 -10   9  -1   87.39    4.00
 -11   9  -1   20.70    2.40
 -12   9  -1    8.30    1.90
 -13   9  -1   59.59    3.80
 -18  -8   1    4.90    1.60
 -17  -8   1   64.19    3.70
 -16  -8   1  123.39    5.00
 -15  -8   1    1.30    1.20
 -14  -8   1   10.80    1.60
 -14  -8   1   10.80    1.40
 -13  -8   1   35.60    2.30
 -13  -8   1   36.00    2.20
 -12  -8   1    5.20    1.10
 -12  -8   1    4.60    1.10
 -11  -8   1    1.30    0.80
 -11  -8   1    0.80    0.80
 -10  -8   1    8.30    1.10
 -10  -8   1    7.70    1.10
  -9  -8   1  554.24   12.90
  -9  -8   1  540.25   12.80
  -8  -8   1  182.18    5.20
  -8  -8   1  185.68    5.10
  -7  -8   1   36.60    1.80
  -7  -8   1   37.00    1.90
  -6  -8   1   33.50    1.60
  -6  -8   1   30.80    1.70
  -5  -8   1   -0.10    0.40
  -5  -8   1    0.40    0.60
  -4  -8   1    9.30    0.90
  -4  -8   1    8.50    1.00
  -3  -8   1   16.40    1.20
  -3  -8   1   17.10    1.00
  -3  -8   1   16.00    1.10
   2   8  -1  111.39    3.20
  -2  -8   1  110.39    3.40
  -2  -8   1  111.69    3.10
   1   8  -1    4.40    0.70
  -1  -8   1    4.50    0.70
  -1  -8   1    4.90    0.80
   0   8  -1    3.70    0.70
   0  -8   1    2.60    0.60
   0  -8   1    4.30    0.70
  -1   8  -1    8.60    1.00
   1  -8   1   10.50    1.00
   1  -8   1    8.50    1.00
  -2   8  -1   64.89    2.40
   2  -8   1   66.19    2.40
   2  -8   1   64.49    2.50
  -3   8  -1   49.50    2.20
   3  -8   1   54.09    2.20
   3  -8   1   49.20    2.20
  -4   8  -1  151.58    4.60
   4  -8   1  155.78    4.60
   4  -8   1  155.58    4.60
  -5   8  -1   23.20    1.70
   5  -8   1   24.80    1.60
  -6   8  -1  159.48    5.00
  -7   8  -1  106.89    3.90
  -8   8  -1    3.50    1.20
  -9   8  -1   36.90    2.50
 -10   8  -1  150.28    5.40
 -11   8  -1    6.20    1.50
 -12   8  -1  129.69    5.30
 -13   8  -1    7.70    1.90
 -14   8  -1   57.59    3.80
 -18  -7   1   13.00    2.30
 -17  -7   1   16.50    2.30
 -16  -7   1   49.90    3.30
 -15  -7   1   64.49    3.50
 -14  -7   1   73.79    3.60
 -14  -7   1   68.49    3.00
 -13  -7   1    3.10    1.00
 -13  -7   1    2.70    1.20
 -12  -7   1  143.19    4.50
 -12  -7   1  151.18    5.00
 -11  -7   1    4.60    1.00
 -11  -7   1    3.30    1.00
 -10  -7   1   58.89    2.60
 -10  -7   1   62.29    2.50
  -9  -7   1    1.20    0.70
  -9  -7   1   -0.60    0.70
  -8  -7   1 1166.18   25.10
  -8  -7   1 1140.69   25.20
  -7  -7   1  178.78    4.90
  -7  -7   1  175.48    4.80
  -6  -7   1   10.90    1.00
  -6  -7   1   11.10    1.10
  -5  -7   1    0.40    0.50
  -5  -7   1    0.80    0.50
  -4  -7   1  181.48    4.60
  -4  -7   1  178.18    4.70
  -3  -7   1   89.29    2.80
  -3  -7   1   87.79    2.60
   2   7  -1  132.49    3.60
  -2  -7   1  133.89    3.80
  -2  -7   1  139.89    3.50
   1   7  -1   93.39    2.70
  -1  -7   1   88.39    2.60
  -1  -7   1   88.39    2.80
   0   7  -1    2.70    0.60
   0  -7   1    1.70    0.50
   0  -7   1    1.30    0.50
  -1   7  -1  202.98    5.20
   1  -7   1  198.98    5.20
   1  -7   1  205.78    5.10
  -2   7  -1   58.59    2.20
   2  -7   1   58.09    2.20
   2  -7   1   58.49    2.10
  -3   7  -1  153.98    4.40
   3  -7   1  159.58    4.40
   3  -7   1  156.48    4.40
  -4   7  -1  349.57    8.50
   4  -7   1  337.87    8.40
   4  -7   1  347.27    8.50
  -5   7  -1   23.20    1.60
   5  -7   1   22.20    1.50
  -6   7  -1    0.90    0.70
  -7   7  -1    1.30    0.90
  -8   7  -1    3.50    1.20
  -9   7  -1   25.50    2.20
 -10   7  -1    2.10    1.10
 -11   7  -1    4.70    1.40
 -12   7  -1   41.60    3.10
 -13   7  -1  179.68    6.50
 -14   7  -1    4.70    1.70
 -15   7  -1   22.30    2.80
 -18  -6   1    2.90    1.70
 -17  -6   1   -1.30    1.30
 -16  -6   1    0.40    1.10
 -15  -6   1   40.60    2.90
 -14  -6   1   81.99    3.80
 -13  -6   1    8.40    1.20
 -13  -6   1    9.60    1.50
 -12  -6   1  160.88    5.20
 -12  -6   1  159.48    4.70
 -11  -6   1   11.00    1.40
 -11  -6   1   12.10    1.30
 -10  -6   1   18.10    1.30
 -10  -6   1   20.90    1.50
  -9  -6   1   37.30    1.80
  -9  -6   1   38.50    2.00
  -8  -6   1   23.50    1.50
  -8  -6   1   21.20    1.50
  -7  -6   1  526.15   11.90
  -7  -6   1  516.85   12.00
  -6  -6   1    0.50    0.50
  -6  -6   1    0.40    0.50
  -5  -6   1   14.70    1.00
  -5  -6   1   12.80    0.90
  -4  -6   1  416.96    9.60
  -4  -6   1  419.86    9.50
  -3  -6   1   15.70    1.00
  -3  -6   1   16.00    0.90
  -2  -6   1  238.28    5.60
  -2  -6   1  230.48    5.70
  -2  -6   1  240.68    5.50
   1   6  -1   24.70    1.20
  -1  -6   1   25.90    1.10
  -1  -6   1   24.50    1.20
   0   6  -1    3.70    0.60
   0  -6   1    5.40    0.70
   0  -6   1    4.20    0.50
  -1   6  -1  253.27    6.10
   1  -6   1  253.17    6.10
   1  -6   1  255.97    6.20
  -2   6  -1    6.10    0.80
   2  -6   1    6.60    0.80
   2  -6   1    6.70    0.70
  -3   6  -1   66.89    2.40
   3  -6   1   66.89    2.30
   3  -6   1   69.09    2.40
  -4   6  -1   22.80    1.40
   4  -6   1   22.50    1.40
  -5   6  -1  386.56    9.40
   5  -6   1  389.46    9.40
  -6   6  -1  224.18    6.20
  -7   6  -1    0.50    0.70
  -8   6  -1   30.00    2.00
  -9   6  -1    1.50    1.00
 -10   6  -1   56.59    3.10
 -11   6  -1    3.90    1.30
 -12   6  -1   21.70    2.30
 -13   6  -1   82.39    4.10
 -14   6  -1  188.08    6.90
 -15   6  -1   12.80    2.40
 -18  -5   1   22.30    2.70
 -17  -5   1   -0.10    1.40
 -16  -5   1    3.50    1.50
 -15  -5   1   15.10    2.10
 -14  -5   1   15.20    1.90
 -13  -5   1   82.29    3.00
 -13  -5   1   83.69    3.60
 -12  -5   1    0.60    0.70
 -12  -5   1    1.70    1.00
 -11  -5   1   -0.10    0.60
 -11  -5   1    1.30    0.90
 -10  -5   1    0.70    0.60
 -10  -5   1    1.20    0.80
  -9  -5   1  109.79    3.60
  -9  -5   1  107.79    3.30
  -8  -5   1  183.68    5.00
  -8  -5   1  176.18    4.70
  -7  -5   1   88.79    2.90
  -7  -5   1   88.29    2.70
  -6  -5   1  179.48    4.70
  -6  -5   1  175.58    4.60
  -5  -5   1  517.95   11.70
  -5  -5   1  531.05   11.70
  -4  -5   1  395.66    8.80
  -4  -5   1  382.16    8.80
  -3  -5   1   72.19    2.20
  -3  -5   1   75.29    2.20
  -2  -5   1    5.50    0.60
  -2  -5   1    4.20    0.60
   1   5  -1   29.30    1.20
  -1  -5   1   30.70    1.20
  -1  -5   1   28.40    1.10
   0   5  -1  868.71   18.40
   0  -5   1  830.22   18.50
   0  -5   1  878.91   18.30
  -1   5  -1   67.19    2.10
   1  -5   1   66.19    2.10
   1  -5   1   64.09    2.00
  -2   5  -1   34.50    1.40
   2  -5   1   30.70    1.40
   2  -5   1   34.90    1.40
  -3   5  -1    0.30    0.40
   3  -5   1    0.10    0.40
   3  -5   1    0.70    0.40
  -4   5  -1  253.57    6.30
   4  -5   1  244.58    6.20
  -5   5  -1    9.30    1.00
  -6   5  -1  289.17    7.40
  -7   5  -1   31.10    1.80
  -8   5  -1   17.50    1.70
  -9   5  -1   15.10    1.70
 -10   5  -1   90.59    3.80
 -11   5  -1   -1.60    0.80
 -12   5  -1   64.89    3.40
 -13   5  -1   16.80    2.10
 -14   5  -1   55.09    3.50
 -15   5  -1    9.00    1.90
 -16   5  -1   19.20    2.70
 -18  -4   1    3.80    1.60
 -17  -4   1   60.59    3.80
 -16  -4   1    0.30    1.30
 -15  -4   1   50.79    3.30
 -14  -4   1   75.89    3.70
 -13  -4   1   38.30    2.50
 -12  -4   1  234.68    6.70
 -12  -4   1  212.38    5.80
 -11  -4   1  197.08    5.90
 -11  -4   1  197.48    5.30
 -10  -4   1    0.00    0.50
 -10  -4   1    0.60    0.70
  -9  -4   1    7.10    0.90
  -9  -4   1    3.80    0.90
  -8  -4   1  249.38    6.60
  -8  -4   1  260.07    6.20
  -7  -4   1  374.16    8.50
  -7  -4   1  362.26    8.80
  -6  -4   1   89.89    2.80
  -6  -4   1   92.79    2.70
  -5  -4   1  268.97    6.20
  -5  -4   1  259.57    6.30
  -4  -4   1  977.70   20.70
  -4  -4   1  964.50   20.80
  -3  -4   1  942.21   20.20
  -3  -4   1  958.60   20.30
  -2  -4   1   10.00    0.70
  -2  -4   1   10.40    0.70
  -1  -4   1  992.00   21.20
  -1  -4   1 1016.50   21.10
  -1  -4   1  986.00   20.90
   0   4  -1 1824.82   38.50
   0  -4   1 1777.92   38.00
   0  -4   1 1834.92   38.20
  -1   4  -1  241.58    5.60
   1  -4   1  237.68    5.50
   1  -4   1  235.98    5.60
  -2   4  -1    0.10    0.30
   2  -4   1    0.00    0.30
   2  -4   1    0.00    0.30
  -3   4  -1   35.60    1.50
   3  -4   1   39.80    1.50
   3  -4   1   38.80    1.50
  -4   4  -1    6.80    0.80
   4  -4   1   11.00    1.00
  -5   4  -1  147.99    4.20
  -6   4  -1   38.30    1.90
  -7   4  -1    4.30    0.90
  -8   4  -1  146.29    4.70
  -9   4  -1   24.40    1.80
 -10   4  -1    0.00    0.80
 -11   4  -1    4.70    1.30
 -12   4  -1  139.99    5.10
 -13   4  -1   96.19    4.30
 -14   4  -1    2.50    1.30
 -15   4  -1    3.40    1.50
 -16   4  -1   18.80    2.50
 -18  -3   1    0.40    1.40
 -17  -3   1   -0.40    1.20
 -16  -3   1   28.70    2.80
 -15  -3   1   14.00    2.00
 -14  -3   1   -0.40    1.00
 -13  -3   1   13.30    1.80
 -12  -3   1    3.10    1.00
 -11  -3   1  292.07    8.10
 -11  -3   1  301.07    7.30
 -10  -3   1    1.80    0.80
 -10  -3   1    2.20    0.60
  -9  -3   1  123.99    3.50
  -9  -3   1  126.49    4.00
  -8  -3   1 1124.39   24.10
  -8  -3   1 1124.09   24.60
  -7  -3   1  291.07    7.30
  -7  -3   1  302.47    6.90
  -6  -3   1    5.90    0.60
  -6  -3   1    6.30    0.80
  -5  -3   1    0.50    0.40
  -5  -3   1    1.30    0.40
  -4  -3   1  176.98    4.40
  -4  -3   1  178.68    4.30
  -3  -3   1 1350.76   28.40
  -3  -3   1 1324.57   28.20
  -2  -3   1  100.59    2.60
  -2  -3   1   97.79    2.50
  -1  -3   1  572.64   12.40
  -1  -3   1  583.34   12.40
   0   3  -1 1626.14   34.00
   0  -3   1 1633.74   34.40
   0  -3   1 1624.04   34.50
  -1   3  -1   79.89    2.20
   1  -3   1   79.39    2.10
   1  -3   1   75.49    2.00
  -2   3  -1    1.20    0.40
   2  -3   1    1.10    0.40
   2  -3   1    1.00    0.30
  -3   3  -1  997.00   21.40
   3  -3   1 1004.90   21.40
  -4   3  -1    2.30    0.50
  -5   3  -1  100.99    3.10
  -6   3  -1  150.18    4.30
  -7   3  -1  119.89    3.80
  -8   3  -1  118.79    3.90
  -9   3  -1   48.60    2.40
 -10   3  -1   95.89    3.70
 -11   3  -1    2.60    1.10
 -12   3  -1   -0.30    0.90
 -13   3  -1  302.77    8.80
 -14   3  -1   36.60    2.80
 -15   3  -1   11.50    2.10
 -16   3  -1    6.60    1.70
 -17   3  -1   16.90    2.50
 -18  -2   1    4.80    1.80
 -17  -2   1   28.20    3.10
 -16  -2   1    3.50    1.60
 -15  -2   1   -0.80    1.10
 -14  -2   1  110.19    4.60
 -13  -2   1   -0.10    0.90
 -12  -2   1    8.80    1.50
 -11  -2   1   16.70    1.20
 -11  -2   1   19.00    1.80
 -10  -2   1   59.89    2.70
 -10  -2   1   62.39    2.20
  -9  -2   1  225.08    6.20
  -9  -2   1  225.88    5.50
  -8  -2   1   23.30    1.50
  -8  -2   1   24.80    1.20
  -7  -2   1  187.88    4.60
  -7  -2   1  185.58    5.00
  -6  -2   1    0.80    0.50
  -6  -2   1    0.70    0.30
  -5  -2   1  574.74   12.20
  -5  -2   1  555.24   12.60
  -4  -2   1  474.75   10.20
  -4  -2   1  465.95   10.40
  -3  -2   1  228.68    5.30
  -3  -2   1  230.78    5.20
  -2  -2   1  359.86    7.90
  -2  -2   1  360.36    7.80
  -1  -2   1   20.90    0.80
  -1  -2   1   18.80    0.70
   0   2  -1   78.39    2.00
   0  -2   1   81.29    2.00
  -1   2  -1   87.79    2.20
   1  -2   1   89.69    2.10
   1  -2   1   88.39    2.20
  -2   2  -1  197.68    4.60
   2  -2   1  196.38    4.50
  -3   2  -1 1903.11   40.30
  -4   2  -1  556.34   12.30
  -5   2  -1  965.00   20.90
  -6   2  -1    7.90    0.90
  -7   2  -1  118.69    3.70
  -8   2  -1    1.10    0.70
  -9   2  -1   87.79    3.30
 -10   2  -1   78.19    3.30
 -11   2  -1   12.20    1.60
 -12   2  -1    1.80    1.10
 -13   2  -1   65.09    3.30
 -14   2  -1  159.58    5.90
 -15   2  -1    8.60    1.80
 -16   2  -1   12.30    2.10
 -17   2  -1    1.00    1.60
 -18  -1   1    1.40    1.60
 -17  -1   1   23.10    2.80
 -16  -1   1   44.10    3.20
 -15  -1   1   -0.10    1.10
 -14  -1   1    2.30    1.30
 -13  -1   1  206.98    6.70
 -12  -1   1  237.28    7.10
 -11  -1   1  142.19    4.80
 -10  -1   1    1.20    0.50
 -10  -1   1    1.50    0.90
  -9  -1   1    1.10    0.80
  -9  -1   1    0.70    0.40
  -8  -1   1   11.30    0.90
  -8  -1   1   13.20    1.30
  -7  -1   1    2.80    0.70
  -7  -1   1    0.50    0.40
  -6  -1   1   28.20    1.10
  -6  -1   1   26.90    1.40
  -5  -1   1   12.20    0.70
  -5  -1   1   13.40    0.90
  -4  -1   1 2865.31   59.39
  -4  -1   1 2805.92   60.29
  -3  -1   1  444.66    9.80
  -3  -1   1  446.06    9.50
  -2  -1   1  222.18    5.10
  -2  -1   1  227.48    4.90
  -1  -1   1  191.18    4.10
  -1  -1   1  178.08    4.00
   0  -1   1   19.50    0.60
  -1   1  -1  416.06    8.90
  -2   1  -1    4.00    0.40
  -3   1  -1   62.59    1.80
  -4   1  -1  107.39    2.90
  -5   1  -1    2.70    0.50
  -6   1  -1  157.48    4.30
  -7   1  -1    1.80    0.60
  -8   1  -1  118.49    3.70
  -9   1  -1   -0.40    0.60
 -10   1  -1   45.90    1.90
 -10   1  -1   39.40    2.20
 -11   1  -1    0.70    0.80
 -11   1  -1    1.00    0.60
 -12   1  -1   33.80    2.30
 -13   1  -1   85.09    3.80
 -14   1  -1   16.30    2.00
 -15   1  -1    1.80    1.40
 -16   1  -1   43.00    3.20
 -17   1  -1   23.80    2.70
 -18   1  -1    4.20    1.70
 -17   0   1    6.50    2.00
 -16   0   1   28.50    2.90
 -15   0   1    5.70    1.70
 -14   0   1   53.69    3.20
 -13   0   1    3.90    1.20
 -12   0   1  476.65   12.30
 -11   0   1  284.77    8.00
 -10   0   1   81.09    3.30
 -10   0   1   80.29    2.50
  -9   0   1    6.10    0.70
  -9   0   1    8.10    1.20
  -8   0   1   23.60    1.60
  -8   0   1   24.50    1.10
  -7   0   1  126.19    3.20
  -7   0   1  122.89    3.80
  -6   0   1    0.80    0.30
  -6   0   1    1.50    0.50
  -5   0   1    6.70    0.50
  -5   0   1    6.50    0.70
  -4   0   1 1270.57   26.30
  -4   0   1 1231.88   26.60
  -3   0   1  886.31   18.60
   2   0  -1   40.60    1.20
  -2   0   1   42.00    1.30
   1   0  -1   51.99    1.20
  -1   0   1   46.90    1.30
  -1   0  -1  555.34   11.80
  -2   0  -1   32.80    1.00
  -3   0  -1   85.99    2.20
  -4   0  -1   73.69    2.10
  -5   0  -1  104.19    2.90
  -6   0  -1   19.20    1.10
  -7   0  -1  128.99    3.50
  -7   0  -1  134.59    3.80
  -8   0  -1   12.80    1.00
  -8   0  -1   13.90    1.20
  -9   0  -1   58.59    2.10
  -9   0  -1   60.09    2.50
 -10   0  -1  100.69    3.10
 -10   0  -1   96.49    3.50
 -11   0  -1  151.68    5.00
 -11   0  -1  158.58    4.40
 -12   0  -1    5.10    1.20
 -13   0  -1    1.10    1.10
 -14   0  -1  178.08    6.10
 -15   0  -1   27.30    2.60
 -16   0  -1    8.60    1.80
 -17   0  -1   44.40    3.60
 -18   0  -1   20.60    2.70
 -17   1   1    2.80    1.60
 -16   1   1   -0.40    1.40
 -15   1   1   23.20    2.60
 -14   1   1    0.90    1.20
 -13   1   1   14.80    1.90
 -12   1   1   50.49    2.90
 -11   1   1   60.69    3.00
 -10   1   1    0.50    0.80
  -9   1   1  165.08    4.10
  -9   1   1  158.98    5.00
  -8   1   1    0.70    0.40
  -8   1   1    0.80    0.60
  -7   1   1   10.10    0.70
  -7   1   1   11.20    1.20
  -6   1   1   29.60    1.10
  -6   1   1   29.30    1.50
  -5   1   1  219.58    5.00
  -4   1   1   17.10    1.00
   3  -1  -1  196.88    4.60
  -3   1   1  190.68    4.70
   2  -1  -1  501.35   10.80
  -2   1   1  504.45   10.90
   1  -1  -1   25.30    0.80
  -1   1   1   24.30    0.80
   0  -1  -1    3.40    0.30
  -1  -1  -1  649.14   13.70
  -2  -1  -1  320.97    6.80
  -2  -1  -1  321.57    6.90
  -3  -1  -1   14.00    0.60
  -4  -1  -1   26.50    1.00
  -4  -1  -1   25.40    1.00
  -5  -1  -1  714.83   15.60
  -5  -1  -1  723.43   15.50
  -6  -1  -1  213.88    5.30
  -6  -1  -1  209.48    5.10
  -7  -1  -1    0.20    0.40
  -7  -1  -1    0.70    0.40
  -8  -1  -1   20.60    1.30
  -8  -1  -1   20.30    1.10
  -9  -1  -1  244.58    6.40
  -9  -1  -1  236.48    5.90
 -10  -1  -1  123.19    4.00
 -10  -1  -1  116.49    3.50
 -11  -1  -1   30.00    1.90
 -11  -1  -1   30.00    1.60
 -12  -1  -1   50.59    2.20
 -12  -1  -1   54.29    2.70
 -13  -1  -1   54.09    2.90
 -14  -1  -1   58.79    3.10
 -15  -1  -1    4.20    1.40
 -16  -1  -1   21.40    2.40
 -17  -1  -1   76.89    4.20
 -18  -1  -1   51.59    3.60
 -17   2   1    0.80    1.50
 -16   2   1    1.20    1.40
 -15   2   1   72.89    4.00
 -14   2   1    1.70    1.40
 -13   2   1    3.90    1.50
 -12   2   1   36.70    2.50
 -11   2   1   89.29    3.80
 -10   2   1   21.00    1.90
  -9   2   1  236.38    6.70
  -8   2   1  346.07    8.70
  -8   2   1  340.27    7.80
  -7   2   1    6.10    1.00
  -6   2   1   13.10    1.20
  -5   2   1   10.90    1.00
   4  -2  -1    1.10    0.40
  -4   2   1    0.70    0.40
   3  -2  -1  135.99    3.50
  -3   2   1  137.19    3.50
   2  -2  -1  123.59    3.10
  -2   2   1  122.79    3.10
   1  -2  -1   64.99    1.50
  -1   2   1   62.59    1.70
   0  -2  -1  874.41   18.10
   0  -2  -1  876.71   18.10
   0   2   1  835.62   18.00
  -1  -2  -1   11.20    0.50
  -2  -2  -1   33.70    1.00
  -3  -2  -1 1026.40   21.90
  -3  -2  -1 1061.09   22.10
  -4  -2  -1   30.50    1.10
  -4  -2  -1   32.60    1.10
  -5  -2  -1  991.50   21.00
  -5  -2  -1  980.60   21.00
  -6  -2  -1   86.59    2.50
  -7  -2  -1   17.80    1.00
  -7  -2  -1   18.80    1.10
  -8  -2  -1   59.19    2.20
  -8  -2  -1   59.99    2.10
  -9  -2  -1   40.00    2.00
  -9  -2  -1   42.80    1.70
 -10  -2  -1   13.00    1.10
 -10  -2  -1   13.40    1.30
 -11  -2  -1   23.80    1.50
 -11  -2  -1   21.90    1.70
 -12  -2  -1  177.18    5.00
 -12  -2  -1  189.68    5.70
 -13  -2  -1   47.10    2.70
 -14  -2  -1   31.60    2.40
 -15  -2  -1   18.50    2.10
 -16  -2  -1    3.80    1.60
 -17  -2  -1    9.50    1.80
 -18  -2  -1   25.70    2.80
 -19  -2  -1    5.80    1.80
 -16   3   1   18.80    2.70
 -15   3   1    2.10    1.60
 -14   3   1    8.70    1.80
 -13   3   1   22.90    2.40
 -12   3   1   15.50    2.00
 -11   3   1   19.00    2.00
 -10   3   1  178.88    5.70
  -9   3   1   13.80    1.50
  -8   3   1 1084.59   24.20
  -7   3   1  411.56   10.00
  -6   3   1    1.90    0.70
   5  -3  -1   94.19    3.00
  -5   3   1   95.89    3.00
   4  -3  -1  259.97    6.40
  -4   3   1  269.67    6.50
   3  -3  -1  123.79    3.30
  -3   3   1  118.89    3.30
   2  -3  -1    8.80    0.50
   2  -3  -1    9.10    0.70
  -2   3   1    6.90    0.60
   1  -3  -1    2.60    0.40
   1  -3  -1    2.10    0.30
  -1   3   1    2.00    0.40
   0  -3  -1 2687.43   55.39
   0  -3  -1 2651.63   55.69
   0   3   1 2582.34   55.29
  -1  -3  -1  148.79    3.40
  -2  -3  -1  328.27    7.20
  -3  -3  -1   88.19    2.10
  -4  -3  -1 5731.73  104.69
  -4  -3  -1 4201.18  107.19
  -5  -3  -1 4394.26   92.89
  -5  -3  -1 4480.45   93.29
  -6  -3  -1   30.90    1.30
  -6  -3  -1   29.90    1.30
  -7  -3  -1  223.08    5.50
  -7  -3  -1  227.18    5.60
  -8  -3  -1   25.30    1.30
  -8  -3  -1   25.90    1.40
  -9  -3  -1   37.20    1.70
  -9  -3  -1   37.60    1.90
 -10  -3  -1    3.30    0.70
 -10  -3  -1    3.90    0.80
 -11  -3  -1    1.60    0.90
 -11  -3  -1    2.30    0.70
 -12  -3  -1  138.59    4.20
 -12  -3  -1  143.49    4.70
 -13  -3  -1   35.20    2.40
 -13  -3  -1   37.70    2.00
 -14  -3  -1   10.10    1.70
 -15  -3  -1   49.99    3.00
 -16  -3  -1   11.90    2.00
 -17  -3  -1    0.30    1.20
 -18  -3  -1   74.79    4.30
 -19  -3  -1    8.00    2.00
 -16   4   1   30.70    3.20
 -15   4   1    7.60    1.90
 -14   4   1   20.00    2.50
 -13   4   1    5.10    1.50
 -12   4   1    5.20    1.40
 -11   4   1   31.30    2.40
 -10   4   1   24.10    2.10
  -9   4   1   61.09    2.90
  -8   4   1   17.30    1.60
  -7   4   1   97.39    3.50
   6  -4  -1   51.69    2.20
  -6   4   1   47.00    2.20
   5  -4  -1  308.77    7.70
  -5   4   1  310.37    7.70
   4  -4  -1  237.78    6.00
  -4   4   1  238.38    6.00
   3  -4  -1  667.33   14.20
   3  -4  -1  648.54   14.60
  -3   4   1  660.13   14.50
   2  -4  -1  174.88    4.10
   2  -4  -1  176.98    4.40
  -2   4   1  170.08    4.30
   1  -4  -1  143.29    3.40
   1  -4  -1  143.59    3.70
  -1   4   1  141.79    3.50
   0  -4  -1  358.46    8.10
   0  -4  -1  367.46    7.90
   0   4   1  356.66    7.80
  -1  -4  -1  438.46    9.40
  -1  -4  -1  430.36    9.50
   1   4   1  429.86    9.20
  -2  -4  -1  227.38    5.20
  -3  -4  -1  494.95   10.80
  -3  -4  -1  498.05   10.50
  -4  -4  -1   15.90    0.90
  -4  -4  -1   16.20    0.70
  -5  -4  -1 9999.00  205.18
  -5  -4  -1 8795.02  209.68
  -6  -4  -1 1655.33   34.90
  -6  -4  -1 1663.23   35.00
  -7  -4  -1    5.70    0.70
  -7  -4  -1    7.50    0.80
  -8  -4  -1   97.39    2.90
  -9  -4  -1   91.79    3.10
  -9  -4  -1  101.09    3.00
 -10  -4  -1   15.90    1.40
 -10  -4  -1   17.50    1.20
 -11  -4  -1   38.70    2.10
 -11  -4  -1   41.30    1.90
 -12  -4  -1   53.69    2.30
 -12  -4  -1   55.79    2.60
 -13  -4  -1  176.48    5.60
 -13  -4  -1  174.28    5.00
 -14  -4  -1  243.08    6.60
 -14  -4  -1  246.28    7.30
 -15  -4  -1    4.10    1.30
 -16  -4  -1   74.99    3.70
 -17  -4  -1   40.70    3.00
 -18  -4  -1    2.60    1.50
 -19  -4  -1   12.80    2.30
 -15   5   1   31.20    3.20
 -14   5   1    0.70    1.30
 -13   5   1   25.00    2.60
 -12   5   1   48.80    3.10
 -11   5   1   46.30    2.90
 -10   5   1    2.70    1.10
  -9   5   1   27.00    2.00
  -8   5   1   43.20    2.40
  -7   5   1   94.39    3.50
   6  -5  -1    1.90    0.70
  -6   5   1    2.00    0.80
   5  -5  -1  109.79    3.60
  -5   5   1  112.89    3.50
   4  -5  -1  440.56   10.60
  -4   5   1  469.15   10.60
   3  -5  -1   43.60    1.80
   3  -5  -1   42.30    1.50
  -3   5   1   43.50    1.70
   2  -5  -1    3.50    0.60
   2  -5  -1    4.30    0.50
  -2   5   1    4.10    0.60
   1  -5  -1  118.49    3.00
   1  -5  -1  113.49    3.20
  -1   5   1  115.99    3.00
   0  -5  -1  133.69    3.50
   0  -5  -1  133.49    3.30
   0   5   1  128.49    3.20
  -1  -5  -1   96.69    2.70
  -1  -5  -1   97.59    2.60
   1   5   1   97.79    2.40
  -2  -5  -1   25.70    1.10
   2   5   1   25.20    0.80
  -3  -5  -1   68.39    1.80
  -3  -5  -1   73.09    2.10
  -4  -5  -1  270.57    6.00
  -4  -5  -1  270.47    6.30
  -5  -5  -1   11.80    0.90
  -5  -5  -1   10.70    0.70
  -6  -5  -1 2281.17   47.80
  -6  -5  -1 2240.58   47.50
  -7  -5  -1  124.89    3.50
  -7  -5  -1  126.59    3.50
  -8  -5  -1  174.48    4.60
  -8  -5  -1  174.58    4.60
  -9  -5  -1  203.98    5.40
  -9  -5  -1  197.88    5.30
 -10  -5  -1  152.58    4.50
 -10  -5  -1  156.98    4.40
 -11  -5  -1    4.90    0.90
 -11  -5  -1    3.20    0.80
 -12  -5  -1    4.00    0.90
 -12  -5  -1    3.30    0.90
 -13  -5  -1    4.90    1.00
 -13  -5  -1    4.10    1.20
 -14  -5  -1    3.50    1.10
 -14  -5  -1    3.60    1.00
 -15  -5  -1   -0.10    1.00
 -16  -5  -1    0.70    1.20
 -17  -5  -1   -1.50    1.10
 -18  -5  -1   26.00    2.90
 -19  -5  -1    1.90    1.60
 -15   6   1    2.60    1.80
 -14   6   1    6.00    1.80
 -13   6   1    3.50    1.50
 -12   6   1   99.79    4.50
 -11   6   1   44.80    3.00
 -10   6   1   67.49    3.30
  -9   6   1  101.29    4.00
  -8   6   1   78.99    3.30
  -7   6   1  119.19    4.10
   6  -6  -1   89.59    3.30
  -6   6   1   92.49    3.30
   5  -6  -1   10.80    1.20
  -5   6   1   10.00    1.20
   4  -6  -1  786.72   17.70
  -4   6   1  794.12   17.60
   3  -6  -1  303.87    7.20
   3  -6  -1  303.87    7.50
  -3   6   1  312.27    7.40
   2  -6  -1    0.20    0.30
   2  -6  -1    0.90    0.50
  -2   6   1    0.50    0.40
   1  -6  -1  331.67    7.50
   1  -6  -1  336.57    7.80
  -1   6   1  318.07    7.50
   0  -6  -1  155.88    4.10
   0  -6  -1  160.88    4.00
   0   6   1  158.18    3.90
  -1  -6  -1   20.40    1.10
  -1  -6  -1   22.40    1.10
   1   6   1   21.80    0.90
  -2  -6  -1  306.07    7.10
   2   6   1  307.47    6.70
  -3  -6  -1  369.26    8.00
  -3  -6  -1  368.56    8.40
  -4  -6  -1    6.70    0.70
  -4  -6  -1    6.00    0.50
  -5  -6  -1  237.38    5.90
  -5  -6  -1  246.98    5.60
  -6  -6  -1   18.20    1.00
  -6  -6  -1   18.30    1.10
  -7  -6  -1  141.29    3.70
  -7  -6  -1  133.89    3.80
  -8  -6  -1  911.41   19.70
  -8  -6  -1  897.41   19.80
  -9  -6  -1  929.81   20.40
  -9  -6  -1  927.91   20.40
 -10  -6  -1   21.40    1.50
 -10  -6  -1   18.70    1.40
 -11  -6  -1   32.00    1.90
 -11  -6  -1   31.90    1.70
 -12  -6  -1   26.10    1.60
 -12  -6  -1   23.40    1.90
 -13  -6  -1   14.10    1.60
 -13  -6  -1   15.60    1.50
 -14  -6  -1    4.60    1.30
 -14  -6  -1    6.00    1.10
 -15  -6  -1    9.70    1.60
 -15  -6  -1    9.80    1.30
 -16  -6  -1   67.59    3.50
 -17  -6  -1   81.09    4.10
 -18  -6  -1   10.30    1.90
 -19  -6  -1   14.50    2.20
 -14   7   1    4.50    1.90
 -13   7   1   -0.20    1.30
 -12   7   1   12.90    2.00
 -11   7   1   11.70    1.90
 -10   7   1    7.90    1.50
  -9   7   1   49.90    2.80
  -8   7   1    3.40    1.10
   7  -7  -1  326.57    8.80
  -7   7   1  335.97    8.80
   6  -7  -1   69.09    2.90
  -6   7   1   67.79    2.90
   5  -7  -1   20.60    1.50
  -5   7   1   22.50    1.60
   4  -7  -1  439.96   10.40
   4  -7  -1  430.96    9.90
  -4   7   1  418.56   10.20
   3  -7  -1  387.86    9.20
   3  -7  -1  403.66    9.60
  -3   7   1  403.06    9.40
   2  -7  -1   75.29    2.40
   2  -7  -1   76.29    2.60
  -2   7   1   76.29    2.50
   1  -7  -1    0.30    0.40
   1  -7  -1    1.10    0.50
  -1   7   1    0.20    0.40
   0  -7  -1  684.03   15.10
   0  -7  -1  680.33   14.90
   0   7   1  682.13   14.80
  -1  -7  -1  663.73   14.80
  -1  -7  -1  672.03   14.90
   1   7   1  686.33   14.50
  -2  -7  -1  102.59    3.00
  -2  -7  -1   96.89    2.90
   2   7   1  102.29    2.60
  -3  -7  -1   10.50    1.00
   3   7   1   13.10    0.70
  -4  -7  -1  301.27    6.80
  -4  -7  -1  308.87    7.30
  -5  -7  -1    0.50    0.50
  -5  -7  -1    0.00    0.30
  -6  -7  -1  215.48    5.10
  -6  -7  -1  209.58    5.50
  -7  -7  -1    5.30    0.70
  -7  -7  -1    5.20    0.80
  -8  -7  -1   95.79    2.90
  -8  -7  -1   91.29    3.00
  -9  -7  -1 4948.90  104.09
  -9  -7  -1 4886.81  103.19
 -10  -7  -1 1372.66   29.90
 -10  -7  -1 1382.96   29.80
 -11  -7  -1    1.80    0.80
 -11  -7  -1    1.10    0.70
 -12  -7  -1   18.20    1.70
 -12  -7  -1   16.40    1.50
 -13  -7  -1   18.10    1.80
 -13  -7  -1   14.40    1.60
 -14  -7  -1   32.00    2.20
 -14  -7  -1   33.20    2.00
 -15  -7  -1   36.40    2.40
 -15  -7  -1   30.40    2.10
 -16  -7  -1    2.80    1.30
 -17  -7  -1   26.40    2.60
 -18  -7  -1  116.29    5.10
 -19  -7  -1    6.60    1.90
 -13   8   1   10.80    2.20
 -12   8   1    0.70    1.30
 -11   8   1   33.80    2.90
 -10   8   1    0.90    1.10
  -9   8   1    2.60    1.20
  -8   8   1    6.70    1.30
   7  -8  -1    6.40    1.20
  -7   8   1    5.60    1.30
   6  -8  -1   10.30    1.40
  -6   8   1    7.80    1.20
   5  -8  -1  115.79    4.00
  -5   8   1  111.59    3.80
   4  -8  -1   60.49    2.30
   4  -8  -1   63.09    2.60
  -4   8   1   63.29    2.50
   3  -8  -1  112.99    3.70
   3  -8  -1  111.09    3.40
  -3   8   1  118.69    3.60
   2  -8  -1    8.80    0.90
   2  -8  -1    9.10    1.10
  -2   8   1    9.60    1.00
   1  -8  -1   72.19    2.40
   1  -8  -1   72.99    2.60
  -1   8   1   75.39    2.40
   0  -8  -1   15.50    1.30
   0  -8  -1   15.30    1.00
   0   8   1   17.60    1.00
  -1  -8  -1   68.49    2.30
  -1  -8  -1   63.79    2.30
   1   8   1   64.39    2.00
  -2  -8  -1  268.67    6.60
  -2  -8  -1  260.87    6.50
   2   8   1  268.67    6.10
  -3  -8  -1    0.90    0.50
   3   8   1    1.20    0.40
  -4  -8  -1  328.27    7.90
  -5  -8  -1   47.50    2.00
  -5  -8  -1   45.00    1.50
  -6  -8  -1   13.40    1.20
  -6  -8  -1   15.80    0.90
  -7  -8  -1  198.98    5.00
  -7  -8  -1  195.38    5.30
  -8  -8  -1   16.90    1.20
  -8  -8  -1   18.90    1.40
  -9  -8  -1  190.18    5.00
  -9  -8  -1  181.38    5.20
 -10  -8  -1  574.94   13.30
 -10  -8  -1  567.74   13.20
 -11  -8  -1   58.89    2.60
 -11  -8  -1   54.79    2.50
 -12  -8  -1   78.49    3.20
 -12  -8  -1   85.49    3.20
 -13  -8  -1   33.40    2.20
 -13  -8  -1   32.30    2.10
 -14  -8  -1   37.80    2.40
 -14  -8  -1   32.20    2.00
 -15  -8  -1    1.30    1.00
 -15  -8  -1   -0.50    0.80
 -16  -8  -1   18.50    1.80
 -16  -8  -1   16.80    2.00
 -17  -8  -1   13.40    2.00
 -18  -8  -1    1.60    1.30
 -19  -8  -1   11.20    2.00
 -13   9   1  136.99    6.00
 -12   9   1   18.20    2.50
 -11   9   1   33.60    3.00
 -10   9   1    3.00    1.30
  -9   9   1   48.40    2.90
  -8   9   1   33.70    2.50
   7  -9  -1   59.49    3.00
  -7   9   1   56.59    2.90
   6  -9  -1   49.10    2.60
  -6   9   1   51.19    2.60
   5  -9  -1  115.29    4.10
  -5   9   1  118.69    4.10
   4  -9  -1  441.56   10.20
   4  -9  -1  425.06   10.60
  -4   9   1  418.36   10.40
   3  -9  -1   42.20    2.20
   3  -9  -1   42.10    1.90
  -3   9   1   38.70    2.00
   2  -9  -1    0.50    0.60
  -2   9   1   -0.20    0.50
   1  -9  -1   22.10    1.40
   1  -9  -1   21.60    1.50
  -1   9   1   20.00    1.30
   0  -9  -1  290.17    7.30
   0  -9  -1  294.47    7.20
   0   9   1  286.37    6.90
  -1  -9  -1   30.20    1.60
  -1  -9  -1   32.20    1.60
   1   9   1   30.40    1.30
  -2  -9  -1  242.98    6.20
  -2  -9  -1  242.78    6.20
   2   9   1  244.18    5.80
  -3  -9  -1   24.50    1.40
  -3  -9  -1   26.30    1.50
   3   9   1   26.50    1.10
  -4  -9  -1  713.13   16.00
   4   9   1  719.33   15.40
  -5  -9  -1   54.59    2.20
  -5  -9  -1   53.89    1.80
  -6  -9  -1   73.79    2.20
  -6  -9  -1   69.79    2.60
  -7  -9  -1    8.00    1.10
  -7  -9  -1    7.60    0.80
  -8  -9  -1   -0.40    0.60
  -8  -9  -1    0.00    0.50
  -9  -9  -1   37.50    1.80
  -9  -9  -1   36.60    2.00
 -10  -9  -1    4.10    0.80
 -10  -9  -1    3.60    0.90
 -11  -9  -1    0.70    0.70
 -11  -9  -1    0.30    0.70
 -12  -9  -1   28.10    1.80
 -12  -9  -1   27.50    1.90
 -13  -9  -1   45.80    2.50
 -13  -9  -1   46.30    2.50
 -14  -9  -1   41.30    2.50
 -14  -9  -1   46.40    2.60
 -15  -9  -1   10.70    1.50
 -15  -9  -1    9.50    1.60
 -16  -9  -1   49.40    2.70
 -16  -9  -1   46.20    3.00
 -17  -9  -1    0.10    1.20
 -18  -9  -1   20.70    2.60
 -12  10   1  142.39    5.90
 -11  10   1   48.30    3.30
 -10  10   1    5.10    1.40
  -9  10   1    2.50    1.30
  -8  10   1  103.79    4.20
   7 -10  -1    1.50    1.10
  -7  10   1    1.80    1.10
   6 -10  -1   25.10    2.20
  -6  10   1   27.60    2.10
   5 -10  -1    3.20    1.00
  -5  10   1    3.00    1.00
   4 -10  -1  255.67    6.90
   4 -10  -1  268.87    7.30
  -4  10   1  263.27    7.10
   3 -10  -1  375.86    9.60
   3 -10  -1  385.96    9.40
  -3  10   1  383.76    9.40
   2 -10  -1   88.99    3.10
   2 -10  -1   87.79    3.30
  -2  10   1   86.79    3.00
   1 -10  -1    3.40    0.80
   1 -10  -1    3.20    0.80
  -1  10   1    3.50    0.70
   0 -10  -1  167.38    4.80
   0 -10  -1  167.08    4.70
   0  10   1  161.48    4.40
  -1 -10  -1   31.20    1.70
  -1 -10  -1   30.30    1.60
   1  10   1   30.80    1.40
  -2 -10  -1  102.79    3.30
  -2 -10  -1  104.99    3.40
   2  10   1  101.39    2.90
  -3 -10  -1    2.00    0.70
  -3 -10  -1    2.10    0.70
   3  10   1    0.80    0.40
  -4 -10  -1  371.06    9.00
   4  10   1  375.46    8.40
  -5 -10  -1  468.85   11.10
   5  10   1  466.75   10.40
  -6 -10  -1   92.09    3.20
  -6 -10  -1   90.49    2.70
  -7 -10  -1    5.70    0.70
  -7 -10  -1    3.50    0.90
  -8 -10  -1  178.78    4.80
  -8 -10  -1  182.58    5.20
  -9 -10  -1  431.36   10.10
  -9 -10  -1  433.66   10.60
 -10 -10  -1  345.27    8.50
 -10 -10  -1  354.66    8.90
 -11 -10  -1   16.70    1.60
 -11 -10  -1   15.30    1.40
 -12 -10  -1   13.00    1.40
 -12 -10  -1   11.10    1.40
 -13 -10  -1  682.23   16.10
 -13 -10  -1  690.63   16.10
 -14 -10  -1  209.68    6.40
 -14 -10  -1  202.98    6.20
 -15 -10  -1    5.60    1.30
 -16 -10  -1   76.09    3.50
 -17 -10  -1   27.10    2.40
 -11  11   1   44.70    3.40
 -10  11   1    1.60    1.40
  -9  11   1   71.79    3.80
  -8  11   1   23.90    2.30
   7 -11  -1    1.40    1.10
  -7  11   1    0.70    0.90
   6 -11  -1   58.09    3.00
  -6  11   1   61.09    3.00
   5 -11  -1    1.40    1.00
  -5  11   1    1.20    0.90
   4 -11  -1   21.40    2.00
   4 -11  -1   20.10    1.70
  -4  11   1   17.90    1.70
   3 -11  -1  215.18    6.30
   3 -11  -1  221.88    6.10
  -3  11   1  218.58    6.10
   2 -11  -1    8.70    1.10
   2 -11  -1    6.30    1.20
  -2  11   1    8.80    1.10
   1 -11  -1  205.78    5.70
   1 -11  -1  206.48    5.90
  -1  11   1  209.08    5.60
   0 -11  -1  203.28    5.70
   0 -11  -1  199.38    5.60
   0  11   1  196.38    5.20
  -1 -11  -1  292.57    7.50
  -1 -11  -1  288.77    7.50
   1  11   1  292.67    7.00
  -2 -11  -1   68.19    2.70
  -2 -11  -1   72.59    2.70
   2  11   1   64.19    2.20
  -3 -11  -1    0.20    0.60
  -3 -11  -1    0.30    0.60
   3  11   1   -0.20    0.40
  -4 -11  -1   44.00    2.10
  -4 -11  -1   48.40    2.10
   4  11   1   47.20    1.70
  -5 -11  -1  201.98    5.60
   5  11   1  200.28    5.00
  -6 -11  -1   42.20    2.20
  -7 -11  -1    0.30    0.80
  -7 -11  -1    0.00    0.50
  -8 -11  -1   29.30    1.90
  -8 -11  -1   35.00    2.40
  -9 -11  -1   63.39    2.80
 -10 -11  -1    2.40    1.00
 -11 -11  -1   27.80    2.00
 -12 -11  -1   91.19    3.70
 -13 -11  -1   18.90    2.00
 -14 -11  -1   39.50    2.50
 -15 -11  -1  133.59    4.70
 -16 -11  -1    0.20    1.00
 -17 -11  -1    1.90    1.20
 -10  12   1   24.80    2.60
  -9  12   1  230.18    7.50
  -8  12   1  156.48    5.70
   7 -12  -1   10.70    1.80
  -7  12   1   10.00    1.70
   6 -12  -1    6.50    1.40
  -6  12   1    5.30    1.30
   5 -12  -1    3.10    1.20
  -5  12   1    2.20    1.10
   4 -12  -1    3.90    1.10
  -4  12   1    3.50    1.00
   3 -12  -1   30.00    2.10
   3 -12  -1   29.60    1.90
  -3  12   1   27.60    1.90
   2 -12  -1    0.90    0.80
   2 -12  -1    1.50    0.80
  -2  12   1    1.40    0.80
   1 -12  -1   78.29    3.20
   1 -12  -1   85.59    3.20
  -1  12   1   83.29    3.00
   0 -12  -1  203.68    5.70
   0 -12  -1  199.78    5.80
   0  12   1  198.08    5.40
  -1 -12  -1   96.89    3.40
  -1 -12  -1   90.19    3.40
   1  12   1   94.69    3.00
  -2 -12  -1  201.28    5.80
  -2 -12  -1  210.78    5.80
   2  12   1  205.88    5.30
  -3 -12  -1   32.80    1.90
  -3 -12  -1   32.00    1.90
  -4 -12  -1   44.20    2.20
  -4 -12  -1   47.50    2.30
  -5 -12  -1    0.70    0.70
  -5 -12  -1    1.10    0.70
  -6 -12  -1   10.80    1.30
  -7 -12  -1   10.40    1.40
  -8 -12  -1   84.29    3.30
  -9 -12  -1   11.90    1.50
 -10 -12  -1   10.30    1.50
 -11 -12  -1    1.80    1.10
 -12 -12  -1   15.30    1.80
 -13 -12  -1    0.80    1.20
 -14 -12  -1    2.90    1.20
 -15 -12  -1    3.60    1.40
 -16 -12  -1    0.50    1.20
 -17 -12  -1   10.80    1.80
 -18 -12  -1   11.60    1.80
  -9  13   1   36.30    3.10
  -8  13   1  168.08    6.10
   7 -13  -1  217.68    7.30
  -7  13   1  229.18    7.20
   6 -13  -1    2.70    1.20
  -6  13   1    2.20    1.10
   5 -13  -1    1.10    1.00
  -5  13   1   -1.00    0.90
   4 -13  -1    4.20    1.20
  -4  13   1    6.10    1.30
   3 -13  -1   13.30    1.60
   3 -13  -1   11.10    1.60
  -3  13   1   11.20    1.40
   2 -13  -1    2.20    0.90
   2 -13  -1    2.60    1.00
  -2  13   1    2.80    0.90
   1 -13  -1   78.89    3.20
   1 -13  -1   78.99    3.20
  -1  13   1   74.19    3.00
   0 -13  -1   46.50    2.50
   0 -13  -1   44.30    2.40
  -1 -13  -1  290.37    7.90
  -1 -13  -1  306.87    8.00
  -2 -13  -1  118.29    4.00
  -2 -13  -1  124.69    4.20
  -3 -13  -1   10.80    1.30
  -3 -13  -1   10.70    1.40
  -4 -13  -1  148.19    4.70
  -4 -13  -1  148.39    4.60
  -5 -13  -1   89.59    3.40
  -5 -13  -1   94.49    3.40
  -6 -13  -1    9.60    1.30
  -7 -13  -1    1.20    0.90
  -8 -13  -1    2.00    1.00
  -9 -13  -1  194.28    5.90
 -10 -13  -1   46.00    2.60
 -11 -13  -1    4.50    1.20
 -12 -13  -1   24.90    2.20
 -13 -13  -1   99.59    4.20
 -14 -13  -1    7.60    1.70
 -15 -13  -1    7.80    1.60
 -16 -13  -1   10.80    1.80
 -17 -13  -1   53.49    3.30
 -18 -13  -1    5.20    1.60
  -8  14   1    3.90    1.60
  -7  14   1  108.79    4.80
   6 -14  -1    6.80    1.50
   5 -14  -1   59.89    3.40
   4 -14  -1    0.40    0.90
   3 -14  -1   17.10    1.90
   2 -14  -1    2.20    1.00
   2 -14  -1   -0.30    0.80
   1 -14  -1   36.80    2.40
   1 -14  -1   37.00    2.30
   0 -14  -1    5.60    1.10
   0 -14  -1    5.30    1.20
  -1 -14  -1  238.28    6.80
  -1 -14  -1  237.48    6.80
  -2 -14  -1  109.29    4.00
  -2 -14  -1  103.09    3.80
  -3 -14  -1   24.70    2.00
  -3 -14  -1   25.50    2.10
  -4 -14  -1    8.40    1.30
  -4 -14  -1    9.40    1.30
  -5 -14  -1    3.00    1.00
  -5 -14  -1    1.40    0.90
  -6 -14  -1   -0.60    0.70
  -6 -14  -1    0.70    0.80
  -7 -14  -1    3.80    1.10
  -8 -14  -1    0.40    0.90
  -9 -14  -1   53.29    2.80
 -10 -14  -1  122.39    4.50
 -11 -14  -1    2.50    1.20
 -12 -14  -1   24.20    2.30
 -13 -14  -1   45.40    3.00
 -14 -14  -1    7.30    1.60
 -15 -14  -1   15.60    2.10
 -16 -14  -1   16.40    2.20
 -17 -14  -1   -2.70    1.30
 -18 -14  -1    1.50    1.40
   6 -15  -1   20.20    2.30
   5 -15  -1  253.37    7.90
   4 -15  -1  120.39    4.80
   3 -15  -1    1.40    1.10
   2 -15  -1    4.60    1.30
   2 -15  -1    0.60    1.00
   1 -15  -1    1.80    1.10
   1 -15  -1    0.40    0.90
   0 -15  -1    1.20    1.00
   0 -15  -1   -0.40    0.80
  -1 -15  -1   14.20    1.70
  -1 -15  -1    9.90    1.50
  -2 -15  -1   20.40    1.90
  -2 -15  -1   19.10    2.00
  -3 -15  -1   57.59    2.90
  -3 -15  -1   54.49    2.70
  -4 -15  -1   37.10    2.20
  -4 -15  -1   36.60    2.40
  -5 -15  -1    1.40    1.00
  -6 -15  -1   17.30    1.80
  -7 -15  -1    5.80    1.20
  -8 -15  -1   47.50    2.70
  -9 -15  -1    0.00    0.90
 -10 -15  -1   15.70    1.80
 -11 -15  -1    1.10    1.10
 -12 -15  -1   12.40    1.80
 -13 -15  -1    0.10    1.20
 -14 -15  -1    4.60    1.50
 -15 -15  -1    4.50    1.50
 -16 -15  -1   58.39    3.60
 -17 -15  -1   -0.70    1.40
   6 -16  -1    2.80    1.50
   5 -16  -1   14.10    2.00
   4 -16  -1  187.58    6.50
   3 -16  -1  188.78    6.30
   2 -16  -1    0.00    0.90
   1 -16  -1    8.30    1.60
   1 -16  -1    6.00    1.40
   0 -16  -1   93.69    4.10
   0 -16  -1   95.29    3.90
  -1 -16  -1    4.70    1.30
  -1 -16  -1    6.90    1.30
  -2 -16  -1    8.00    1.50
  -3 -16  -1   11.30    1.60
  -4 -16  -1   11.90    1.60
  -5 -16  -1   25.00    2.20
  -6 -16  -1    2.80    1.10
  -7 -16  -1   11.70    1.70
  -8 -16  -1  339.77    9.30
  -9 -16  -1   87.59    3.80
 -10 -16  -1   44.50    2.80
 -11 -16  -1    1.30    1.20
 -12 -16  -1    1.20    1.20
 -13 -16  -1    1.30    1.30
 -14 -16  -1   -0.10    1.10
 -15 -16  -1   29.50    2.70
 -16 -16  -1    7.40    1.70
 -17 -16  -1    4.80    1.70
   4 -17  -1   20.90    2.40
   3 -17  -1   65.19    3.50
   2 -17  -1    5.10    1.60
   1 -17  -1    1.50    1.40
   0 -17  -1   34.70    2.80
  -1 -17  -1   79.89    3.80
  -2 -17  -1    2.60    1.30
  -3 -17  -1   17.80    2.00
  -4 -17  -1   52.09    3.00
  -5 -17  -1   21.70    2.20
  -6 -17  -1   20.30    2.10
  -7 -17  -1    0.50    1.00
  -8 -17  -1   14.80    1.90
  -9 -17  -1  147.29    5.30
 -10 -17  -1    2.70    1.20
 -11 -17  -1    3.20    1.30
 -12 -17  -1    7.50    1.60
 -13 -17  -1    2.40    1.30
 -14 -17  -1    0.80    1.30
 -15 -17  -1   10.10    2.00
 -16 -17  -1    3.20    1.50
   0 -18  -1   23.90    2.40
  -1 -18  -1   48.10    3.00
  -2 -18  -1    3.40    1.40
  -3 -18  -1   -0.20    1.10
  -4 -18  -1   24.80    2.50
  -5 -18  -1    0.00    1.10
  -6 -18  -1    5.20    1.40
  -7 -18  -1    0.40    1.10
  -8 -18  -1   45.20    3.00
  -9 -18  -1   -0.40    1.10
 -10 -18  -1   18.10    2.10
 -11 -18  -1    1.80    1.30
 -12 -18  -1    1.10    1.30
 -13 -18  -1    3.40    1.40
 -14 -18  -1    3.40    1.40
 -15 -18  -1    7.60    1.70
  -1 -19  -1  104.69    4.80
  -2 -19  -1    2.30    1.30
  -3 -19  -1   25.60    2.60
  -4 -19  -1   21.90    2.50
  -5 -19  -1   14.70    2.00
  -6 -19  -1    0.60    1.30
  -7 -19  -1    1.10    1.30
  -8 -19  -1    0.90    1.20
  -9 -19  -1   28.00    2.70
 -10 -19  -1    6.30    1.60
 -11 -19  -1    1.10    1.20
 -12 -19  -1   33.70    3.10
 -13 -19  -1   27.90    2.80
  -2 -20  -1    1.90    1.30
  -3 -20  -1    4.70    1.60
  -4 -20  -1   68.29    4.00
  -5 -20  -1   36.80    3.20
  -6 -20  -1   20.80    2.40
  -7 -20  -1   -1.70    1.20
  -8 -20  -1    1.00    1.40
  -9 -20  -1    1.90    1.30
 -10 -20  -1   10.80    2.00
 -11 -20  -1    7.10    1.70
  -8 -20   2    1.70    1.40
  -7 -20   2    7.20    1.90
  -6 -20   2   22.80    2.80
  -5 -20   2    7.20    2.00
  -4 -20   2    1.20    1.40
  -3 -20   2   43.70    3.70
 -11 -19   2   10.20    2.00
 -10 -19   2   21.80    2.60
  -9 -19   2    9.00    1.90
  -8 -19   2   16.50    2.30
  -7 -19   2    1.10    1.30
  -6 -19   2    8.20    1.90
  -5 -19   2    4.30    1.60
  -4 -19   2   64.69    4.00
  -3 -19   2    4.40    1.70
  -2 -19   2   55.19    3.70
  -1 -19   2    1.90    1.30
   0 -19   2   13.80    2.30
 -13 -18   2    1.90    1.50
 -12 -18   2   14.70    2.20
 -11 -18   2    1.50    1.30
 -10 -18   2    1.10    1.30
  -9 -18   2    2.10    1.30
  -8 -18   2  135.89    5.50
  -7 -18   2   57.19    3.60
  -6 -18   2    0.30    1.30
  -5 -18   2   32.80    3.00
  -4 -18   2   -0.30    1.10
  -3 -18   2   14.10    2.10
  -2 -18   2    3.00    1.50
  -1 -18   2    6.40    1.70
   0 -18   2   20.70    2.50
   1 -18   2   32.30    3.10
   2 -18   2    2.10    1.60
 -14 -17   2    4.00    1.50
 -13 -17   2    1.00    1.20
 -12 -17   2    1.10    1.30
 -11 -17   2    2.10    1.40
 -10 -17   2    2.00    1.30
  -9 -17   2    1.10    1.30
  -8 -17   2   72.79    3.90
  -7 -17   2  239.48    7.60
  -6 -17   2    2.30    1.30
  -5 -17   2    4.00    1.40
  -4 -17   2   85.39    4.10
  -3 -17   2   25.10    2.60
  -2 -17   2    1.90    1.30
  -1 -17   2    2.60    1.30
   0 -17   2    9.60    1.80
   1 -17   2  144.69    5.70
   2 -17   2   15.80    2.20
   3 -17   2    3.80    1.60
 -15 -16   2    9.90    1.90
 -14 -16   2   -0.80    1.00
 -13 -16   2    9.20    1.80
 -12 -16   2    1.80    1.30
 -11 -16   2   59.69    3.40
 -10 -16   2    5.10    1.40
  -9 -16   2   27.10    2.50
  -8 -16   2    2.30    1.20
  -7 -16   2  135.99    5.10
  -6 -16   2   85.39    3.90
  -5 -16   2   24.60    2.40
  -4 -16   2    9.30    1.70
  -3 -16   2  117.29    4.70
  -2 -16   2   35.00    2.90
  -1 -16   2    2.00    1.30
   0 -16   2   48.70    3.00
   1 -16   2   19.40    2.30
   2 -16   2   72.89    3.90
   3 -16   2    3.00    1.50
 -16 -15   2    0.40    1.10
 -15 -15   2    3.00    1.30
 -14 -15   2    1.20    1.10
 -13 -15   2    4.20    1.30
 -12 -15   2   10.00    1.70
 -11 -15   2    4.90    1.40
 -10 -15   2    4.40    1.30
  -9 -15   2   -0.20    1.00
  -8 -15   2    7.10    1.50
  -7 -15   2   17.30    1.90
  -6 -15   2   24.70    2.30
  -5 -15   2   38.80    2.60
  -4 -15   2  141.59    5.10
  -3 -15   2  195.98    6.40
  -2 -15   2   64.89    3.30
  -1 -15   2    1.90    1.20
   0 -15   2   20.00    2.10
   1 -15   2   86.59    4.00
   2 -15   2    1.30    1.20
   3 -15   2    6.40    1.60
   4 -15   2    5.00    1.50
 -16 -14   2    2.80    1.40
 -15 -14   2    9.90    1.70
 -14 -14   2    3.10    1.30
 -13 -14   2    1.20    1.00
 -12 -14   2   13.90    1.90
 -11 -14   2  231.78    7.10
 -10 -14   2   50.29    3.00
  -9 -14   2   -0.90    0.80
  -8 -14   2    1.80    1.10
  -7 -14   2   -0.10    0.90
  -6 -14   2    9.00    1.50
  -5 -14   2   17.90    1.90
  -4 -14   2   20.30    2.00
  -3 -14   2  313.47    8.70
  -2 -14   2   68.59    3.30
  -1 -14   2   -0.10    0.90
   0 -14   2  244.68    7.30
  -1  14  -2  112.19    4.10
   1 -14   2  111.19    4.40
  -2  14  -2    1.20    0.90
   2 -14   2    2.40    1.10
  -3  14  -2    1.10    1.00
   3 -14   2    3.50    1.10
   3 -14   2    3.50    1.20
  -4  14  -2    3.10    1.20
   4 -14   2    0.60    1.10
   4 -14   2    3.30    1.10
  -5  14  -2   87.19    3.90
  -6  14  -2   56.19    3.20
  -7  14  -2    5.90    1.50
  -8  14  -2   27.90    2.80
  -9  14  -2  111.39    5.10
 -16 -13   2   -0.30    1.10
 -15 -13   2    1.60    1.20
 -14 -13   2   19.50    2.10
 -13 -13   2   30.00    2.50
 -12 -13   2   50.59    2.80
 -11 -13   2  108.69    4.30
 -10 -13   2   53.49    2.80
  -9 -13   2   29.80    2.40
  -8 -13   2   43.10    2.60
  -7 -13   2   19.00    1.90
  -6 -13   2    0.80    0.90
  -5 -13   2    0.10    0.80
   4  13  -2    4.30    1.50
  -4 -13   2    6.70    1.30
   3  13  -2  169.98    5.10
  -3 -13   2  183.98    5.60
   2  13  -2  107.39    3.70
  -2 -13   2  108.69    4.10
   1  13  -2    3.80    1.00
  -1 -13   2    4.10    1.10
   0  13  -2  118.89    3.90
   0 -13   2  111.79    4.30
   0 -13   2  108.99    3.80
  -1  13  -2  449.56   11.00
   1 -13   2  455.85   11.50
   1 -13   2  440.16   10.90
  -2  13  -2  202.48    6.00
   2 -13   2  200.38    5.90
   2 -13   2  200.38    6.30
  -3  13  -2    5.70    1.20
   3 -13   2    5.10    1.10
   3 -13   2    8.50    1.60
  -4  13  -2    6.40    1.30
   4 -13   2    7.10    1.30
   4 -13   2    7.80    1.50
  -5  13  -2   -0.80    0.80
  -6  13  -2   30.60    2.60
  -7  13  -2    0.10    1.00
  -8  13  -2   10.40    1.90
  -9  13  -2  114.19    5.10
 -10  13  -2  124.09    5.40
 -16 -12   2   -0.50    1.40
 -15 -12   2   12.90    1.80
 -14 -12   2   -0.70    1.00
 -13 -12   2   50.69    2.80
 -12 -12   2    3.50    1.20
 -11 -12   2    1.10    0.90
 -10 -12   2   -0.10    0.90
  -9 -12   2    7.20    1.20
  -9 -12   2    7.90    1.40
  -8 -12   2  159.58    4.90
  -8 -12   2  159.18    5.10
  -7 -12   2   16.10    1.50
  -7 -12   2   15.40    1.60
  -6 -12   2   22.50    1.60
  -6 -12   2   28.40    1.90
  -5 -12   2    0.00    0.80
   4  12  -2  155.18    4.70
  -4 -12   2  158.58    5.00
   3  12  -2  186.98    5.40
  -3 -12   2  195.98    5.80
   2  12  -2    5.70    1.00
  -2 -12   2    4.60    1.10
  -2 -12   2    4.50    0.80
   1  12  -2   69.99    2.80
  -1 -12   2   68.79    2.60
  -1 -12   2   66.29    3.00
   0  12  -2  191.08    5.40
   0 -12   2  186.38    5.20
   0 -12   2  185.38    5.70
  -1  12  -2    2.00    0.90
   1 -12   2    1.00    0.70
   1 -12   2    0.80    0.80
  -2  12  -2  309.97    8.10
   2 -12   2  307.27    8.40
   2 -12   2  298.07    7.90
  -3  12  -2   20.70    1.80
   3 -12   2   19.50    1.70
   3 -12   2   19.20    2.00
  -4  12  -2  152.28    5.00
   4 -12   2  144.69    5.10
   4 -12   2  153.78    4.90
  -5  12  -2   46.40    2.70
  -6  12  -2   40.50    2.60
  -7  12  -2    1.60    1.00
  -8  12  -2    7.90    1.70
  -9  12  -2   39.60    2.90
 -10  12  -2   11.60    1.90
 -11  12  -2   74.29    4.10
 -15 -11   2   17.10    2.00
 -14 -11   2    1.60    1.20
 -14 -11   2    1.00    1.10
 -13 -11   2    1.60    1.00
 -13 -11   2    0.10    0.90
 -12 -11   2   12.70    1.70
 -12 -11   2   12.20    1.60
 -11 -11   2   45.80    2.50
 -11 -11   2   45.70    2.60
 -10 -11   2   91.49    3.50
 -10 -11   2   77.39    3.30
  -9 -11   2   19.80    1.80
  -9 -11   2   18.10    1.70
  -8 -11   2   63.69    2.80
  -8 -11   2   58.99    2.60
  -7 -11   2   22.20    1.70
  -7 -11   2   21.50    1.60
  -6 -11   2    3.70    0.90
  -6 -11   2    7.40    1.10
  -5 -11   2   16.20    1.40
  -5 -11   2   16.10    1.30
  -5 -11   2   17.70    1.60
   4  11  -2    1.20    0.70
  -4 -11   2    2.00    0.90
  -4 -11   2    1.90    0.60
   3  11  -2  267.47    6.90
  -3 -11   2  263.67    6.50
  -3 -11   2  265.87    7.20
   2  11  -2   29.10    1.70
  -2 -11   2   30.00    1.90
  -2 -11   2   31.00    1.50
   1  11  -2    0.60    0.70
  -1 -11   2    0.40    0.60
  -1 -11   2   -0.30    0.60
   0  11  -2  103.19    3.50
   0 -11   2   98.49    3.20
   0 -11   2  101.19    3.70
  -1  11  -2  150.08    4.60
   1 -11   2  150.98    4.40
   1 -11   2  152.88    4.90
  -2  11  -2   19.20    1.70
   2 -11   2   15.50    1.40
   2 -11   2   16.90    1.70
  -3  11  -2   12.20    1.50
   3 -11   2   16.40    1.70
   3 -11   2   14.40    1.50
  -4  11  -2  211.88    6.10
   4 -11   2  204.68    6.20
   4 -11   2  202.28    6.00
  -5  11  -2  461.05   11.60
   5 -11   2  460.25   11.50
  -6  11  -2   16.70    1.80
  -7  11  -2    0.40    0.90
  -8  11  -2    0.40    1.00
  -9  11  -2   62.39    3.50
 -10  11  -2    0.40    1.20
 -11  11  -2    0.20    1.20
 -12  11  -2    3.90    1.70
 -17 -10   2    8.90    1.80
 -16 -10   2   38.50    3.20
 -15 -10   2   71.79    3.70
 -15 -10   2   68.29    3.70
 -14 -10   2   66.89    3.10
 -14 -10   2   64.29    3.30
 -13 -10   2   39.10    2.60
 -13 -10   2   37.90    2.40
 -12 -10   2   11.80    1.50
 -12 -10   2    8.50    1.40
 -11 -10   2  171.88    5.30
 -11 -10   2  167.28    5.40
 -10 -10   2   59.49    2.80
 -10 -10   2   52.69    2.60
  -9 -10   2   68.59    2.90
  -9 -10   2   68.49    2.90
  -8 -10   2   14.90    1.50
  -8 -10   2   14.80    1.40
  -7 -10   2  287.67    7.60
  -7 -10   2  296.37    7.50
  -6 -10   2    7.10    1.10
  -6 -10   2    7.50    1.00
  -5 -10   2   24.90    1.60
  -5 -10   2   26.10    1.70
  -4 -10   2   84.59    2.90
  -4 -10   2   79.09    3.00
  -4 -10   2   83.79    2.60
   3  10  -2  163.08    4.60
  -3 -10   2  158.48    4.20
  -3 -10   2  161.08    4.80
   2  10  -2    0.20    0.60
  -2 -10   2    0.80    0.50
  -2 -10   2    1.10    0.70
   1  10  -2   21.90    1.50
  -1 -10   2   23.70    1.30
  -1 -10   2   22.90    1.60
   0  10  -2   54.49    2.30
   0 -10   2   48.10    2.30
   0 -10   2   52.49    2.00
  -1  10  -2    7.60    1.10
   1 -10   2    6.30    1.00
   1 -10   2    6.20    0.90
  -2  10  -2   32.70    1.90
   2 -10   2   31.90    2.00
   2 -10   2   32.50    1.70
  -3  10  -2    9.10    1.30
   3 -10   2    7.60    1.20
   3 -10   2   10.80    1.20
  -4  10  -2   99.89    3.70
   4 -10   2  107.89    3.70
   4 -10   2  103.39    3.80
  -5  10  -2  597.14   14.50
   5 -10   2  613.44   14.40
  -6  10  -2  360.86    9.60
  -7  10  -2    7.60    1.40
  -8  10  -2   39.10    2.50
  -9  10  -2   27.00    2.60
 -10  10  -2   38.70    3.00
 -11  10  -2   18.40    2.30
 -12  10  -2    0.90    1.50
 -13  10  -2   27.80    3.10
 -18  -9   2    2.00    1.50
 -17  -9   2    2.60    1.60
 -16  -9   2    8.30    1.90
 -15  -9   2   25.80    2.60
 -14  -9   2   15.80    1.70
 -14  -9   2   14.20    1.90
 -13  -9   2   39.40    2.40
 -13  -9   2   39.50    2.60
 -12  -9   2    8.70    1.30
 -12  -9   2    8.80    1.40
 -11  -9   2   28.10    2.00
 -11  -9   2   26.40    1.90
 -10  -9   2   18.90    1.70
 -10  -9   2   22.30    1.70
  -9  -9   2   20.50    1.70
  -9  -9   2   18.20    1.60
  -8  -9   2   17.70    1.60
  -8  -9   2   15.40    1.50
  -7  -9   2   18.80    1.50
  -7  -9   2   23.40    1.60
  -6  -9   2  102.39    3.30
  -6  -9   2  100.49    3.40
  -5  -9   2  142.89    4.10
  -5  -9   2  138.09    4.20
  -4  -9   2   35.70    1.70
  -4  -9   2   31.90    1.80
  -3  -9   2   31.00    1.70
  -3  -9   2   30.50    1.30
   2   9  -2   42.40    1.90
  -2  -9   2   38.00    1.60
  -2  -9   2   40.20    1.90
   1   9  -2   13.10    1.20
  -1  -9   2   14.80    1.00
  -1  -9   2   11.10    1.20
   0   9  -2  147.89    4.30
   0  -9   2  146.29    4.00
   0  -9   2  155.08    4.50
  -1   9  -2   91.49    3.10
   1  -9   2   86.29    3.20
   1  -9   2   98.99    3.00
  -2   9  -2   88.39    3.10
   2  -9   2   82.59    3.10
   2  -9   2   89.59    3.00
  -3   9  -2  120.99    3.90
   3  -9   2  121.99    3.80
   3  -9   2  117.09    4.00
  -4   9  -2    3.60    0.90
   4  -9   2    4.00    1.00
   4  -9   2    3.60    0.90
  -5   9  -2   24.00    1.80
   5  -9   2   25.80    1.80
  -6   9  -2  571.64   13.90
  -7   9  -2   52.69    2.80
  -8   9  -2   24.30    2.20
  -9   9  -2  116.59    4.60
 -10   9  -2   82.39    3.90
 -11   9  -2    2.80    1.30
 -12   9  -2   11.10    2.00
 -13   9  -2   15.80    2.40
 -18  -8   2   17.60    2.60
 -17  -8   2   19.20    2.50
 -16  -8   2    9.50    2.00
 -15  -8   2    5.30    1.60
 -14  -8   2    8.40    1.60
 -14  -8   2    9.10    1.60
 -13  -8   2    3.40    1.20
 -13  -8   2    6.60    1.30
 -12  -8   2    0.90    1.00
 -12  -8   2    1.80    1.00
 -11  -8   2   37.60    2.10
 -11  -8   2   41.50    2.40
 -10  -8   2    0.80    0.80
 -10  -8   2   -0.10    0.60
  -9  -8   2   46.90    2.20
  -9  -8   2   46.60    2.30
  -8  -8   2   34.10    1.90
  -8  -8   2   31.70    1.90
  -7  -8   2   24.90    1.60
  -7  -8   2   26.30    1.60
  -6  -8   2   38.10    1.80
  -6  -8   2   34.90    1.80
  -5  -8   2   18.20    1.30
  -5  -8   2   17.70    1.30
  -4  -8   2  113.49    3.50
  -4  -8   2  114.89    3.40
  -3  -8   2  107.69    3.30
  -3  -8   2  113.19    2.90
  -3  -8   2  102.79    3.40
   2   8  -2   95.09    3.00
  -2  -8   2  101.79    3.20
  -2  -8   2   97.09    2.70
   1   8  -2   10.50    1.00
  -1  -8   2   10.40    0.80
  -1  -8   2   10.20    1.10
   0   8  -2   19.10    1.30
   0  -8   2   20.80    1.10
   0  -8   2   21.90    1.40
  -1   8  -2   13.80    1.20
   1  -8   2   13.20    1.00
   1  -8   2   13.80    1.30
  -2   8  -2  279.37    7.10
   2  -8   2  286.27    7.20
   2  -8   2  275.67    6.90
  -3   8  -2   34.70    1.80
   3  -8   2   32.00    1.70
   3  -8   2   35.60    1.90
  -4   8  -2    1.80    0.70
   4  -8   2    1.00    0.60
   4  -8   2    2.60    0.80
  -5   8  -2    2.30    0.90
  -6   8  -2   90.79    3.50
  -7   8  -2   10.10    1.50
  -8   8  -2  140.19    4.90
  -9   8  -2  155.58    5.40
 -10   8  -2    0.60    1.10
 -11   8  -2  146.59    5.60
 -12   8  -2    0.60    1.40
 -13   8  -2   19.30    2.40
 -14   8  -2   -1.10    1.20
 -18  -7   2    3.30    1.60
 -17  -7   2    0.40    1.40
 -16  -7   2   53.69    3.50
 -15  -7   2    7.00    1.60
 -14  -7   2    9.30    1.70
 -13  -7   2   63.09    2.80
 -13  -7   2   68.39    3.30
 -12  -7   2   19.80    1.70
 -12  -7   2   17.70    1.80
 -11  -7   2   18.00    1.80
 -11  -7   2   16.00    1.50
 -10  -7   2  163.38    5.00
 -10  -7   2  148.69    4.60
  -9  -7   2    6.80    1.00
  -9  -7   2    7.30    1.00
  -8  -7   2    1.10    0.70
  -8  -7   2    0.40    0.70
  -7  -7   2  421.26   10.20
  -7  -7   2  426.76   10.00
  -6  -7   2  299.07    7.50
  -6  -7   2  307.47    7.60
  -5  -7   2   79.09    2.70
  -5  -7   2   80.89    2.70
  -4  -7   2   80.89    2.70
  -4  -7   2   83.59    2.70
  -3  -7   2  171.38    4.50
  -3  -7   2  172.38    4.60
  -2  -7   2    2.20    0.60
  -2  -7   2    2.90    0.60
  -2  -7   2    2.10    0.40
   1   7  -2   63.39    2.20
  -1  -7   2   64.69    2.30
  -1  -7   2   68.79    2.00
   0   7  -2   15.40    1.10
   0  -7   2   14.80    0.90
   0  -7   2   15.60    1.10
  -1   7  -2   21.70    1.30
   1  -7   2   21.00    1.30
   1  -7   2   21.30    1.10
  -2   7  -2  230.18    6.00
   2  -7   2  232.58    5.80
   2  -7   2  232.68    6.00
  -3   7  -2   29.10    1.70
   3  -7   2   30.20    1.70
   3  -7   2   29.10    1.50
  -4   7  -2   86.99    3.00
   4  -7   2   85.59    2.90
   4  -7   2   85.59    3.00
  -5   7  -2  248.88    6.70
  -6   7  -2   -0.40    0.60
  -7   7  -2   51.79    2.60
  -8   7  -2  238.68    6.90
  -9   7  -2  401.96   10.60
 -10   7  -2  301.37    8.70
 -11   7  -2    1.00    1.20
 -12   7  -2    1.00    1.30
 -13   7  -2   54.59    3.40
 -14   7  -2    2.50    1.50
 -15   7  -2    8.70    2.00
 -18  -6   2    9.40    2.10
 -17  -6   2   80.49    4.30
 -16  -6   2    4.60    1.50
 -15  -6   2   -0.30    1.20
 -14  -6   2   25.70    2.40
 -13  -6   2    0.90    1.10
 -12  -6   2   77.09    3.40
 -12  -6   2   68.39    2.80
 -11  -6   2  220.28    6.00
 -11  -6   2  222.88    6.60
 -10  -6   2  111.89    3.90
 -10  -6   2  110.19    3.50
  -9  -6   2  163.58    5.00
  -9  -6   2  168.68    4.70
  -8  -6   2   25.40    1.50
  -8  -6   2   25.70    1.70
  -7  -6   2   30.40    1.60
  -7  -6   2   33.30    1.80
  -6  -6   2  264.17    6.60
  -6  -6   2  269.77    6.70
  -5  -6   2  157.48    4.30
  -5  -6   2  157.68    4.30
  -4  -6   2  349.87    8.20
  -4  -6   2  339.37    8.10
  -3  -6   2   19.90    1.10
  -3  -6   2   22.20    1.20
  -2  -6   2   54.49    1.60
  -2  -6   2   52.29    1.90
  -2  -6   2   50.49    1.90
   1   6  -2    1.60    0.50
  -1  -6   2    1.60    0.50
  -1  -6   2    1.70    0.40
   0   6  -2    7.90    0.80
   0  -6   2    9.40    0.90
   0  -6   2    9.50    0.70
  -1   6  -2   14.30    1.00
   1  -6   2   17.20    0.90
   1  -6   2   14.30    1.00
  -2   6  -2   42.80    1.80
   2  -6   2   43.40    1.80
   2  -6   2   42.80    1.60
  -3   6  -2  216.18    5.60
   3  -6   2  216.88    5.70
   3  -6   2  217.98    5.50
  -4   6  -2  124.09    3.80
   4  -6   2  125.99    3.70
  -5   6  -2   18.00    1.40
  -6   6  -2  502.45   12.00
  -7   6  -2    1.00    0.80
  -8   6  -2    7.90    1.30
  -9   6  -2    0.10    0.80
 -10   6  -2  218.48    6.80
 -11   6  -2   73.79    3.50
 -12   6  -2    9.10    1.70
 -13   6  -2  120.59    5.10
 -14   6  -2  103.59    4.80
 -15   6  -2    1.50    1.60
 -18  -5   2   26.30    3.10
 -17  -5   2   16.20    2.50
 -16  -5   2  140.99    5.80
 -15  -5   2    1.40    1.20
 -14  -5   2    0.60    1.00
 -13  -5   2   21.50    2.20
 -12  -5   2  129.69    4.00
 -12  -5   2  129.69    4.70
 -11  -5   2   26.20    1.60
 -11  -5   2   22.00    2.00
 -10  -5   2   14.60    1.30
 -10  -5   2   18.20    1.70
  -9  -5   2   32.20    1.60
  -9  -5   2   34.60    1.90
  -8  -5   2    0.00    0.60
  -8  -5   2    0.20    0.60
  -7  -5   2    9.30    0.90
  -7  -5   2    8.80    1.10
  -6  -5   2  112.99    3.40
  -6  -5   2  112.09    3.20
  -5  -5   2  147.09    4.10
  -5  -5   2  144.19    3.90
  -4  -5   2 1154.88   25.10
  -4  -5   2 1192.38   25.20
  -3  -5   2  444.06   10.00
  -3  -5   2  439.56   10.00
  -2  -5   2   75.89    2.30
  -2  -5   2   73.09    2.30
  -1  -5   2  321.67    7.00
  -1  -5   2  318.87    7.40
  -1  -5   2  317.27    7.40
   0   5  -2  304.07    7.10
   0  -5   2  305.97    6.70
   0  -5   2  301.57    7.10
  -1   5  -2    4.90    0.70
   1  -5   2    4.90    0.70
   1  -5   2    4.80    0.50
  -2   5  -2   90.79    2.80
   2  -5   2   94.69    2.60
   2  -5   2   93.59    2.80
  -3   5  -2    2.00    0.60
   3  -5   2    1.90    0.50
   3  -5   2    1.60    0.50
  -4   5  -2  215.78    5.60
  -5   5  -2   17.00    1.30
  -6   5  -2   19.60    1.60
  -7   5  -2    4.10    0.90
  -8   5  -2   18.40    1.70
  -9   5  -2   17.30    1.70
 -10   5  -2   54.39    2.90
 -11   5  -2    3.10    1.20
 -12   5  -2    0.00    1.00
 -13   5  -2   -0.10    1.00
 -14   5  -2   35.00    3.10
 -15   5  -2   42.10    3.20
 -16   5  -2   -0.20    1.30
 -18  -4   2   21.80    2.80
 -17  -4   2    0.90    1.40
 -16  -4   2   12.10    2.10
 -15  -4   2  192.48    6.70
 -14  -4   2    3.10    1.30
 -13  -4   2   24.50    2.30
 -12  -4   2  241.08    7.20
 -11  -4   2   86.19    2.90
 -11  -4   2   86.09    3.50
 -10  -4   2   32.30    2.00
 -10  -4   2   32.80    1.60
  -9  -4   2   60.89    2.70
  -9  -4   2   59.19    2.20
  -8  -4   2    1.40    0.60
  -8  -4   2    1.60    0.70
  -7  -4   2   21.30    1.20
  -7  -4   2   20.20    1.40
  -6  -4   2  143.79    3.70
  -6  -4   2  136.09    4.00
  -5  -4   2   39.40    1.50
  -5  -4   2   36.60    1.60
  -4  -4   2  445.26    9.80
  -4  -4   2  433.06   10.00
  -3  -4   2  108.39    3.00
  -3  -4   2  108.29    2.90
  -2  -4   2   40.20    1.50
  -2  -4   2   41.30    1.50
  -1  -4   2  248.78    5.90
  -1  -4   2  246.58    5.90
  -1  -4   2  253.97    5.40
   0   4  -2   67.89    2.20
   0  -4   2   74.69    1.80
   0  -4   2   73.69    2.20
  -1   4  -2   89.39    2.60
   1  -4   2   88.89    2.60
   1  -4   2   92.39    2.30
  -2   4  -2   57.99    1.90
   2  -4   2   54.99    1.90
   2  -4   2   55.49    1.70
  -3   4  -2  263.57    6.40
  -4   4  -2   56.19    2.10
  -5   4  -2    3.80    0.70
  -6   4  -2   25.00    1.50
  -7   4  -2    6.30    1.00
  -8   4  -2  205.98    5.90
  -9   4  -2  430.56   10.80
 -10   4  -2   47.60    2.60
 -11   4  -2   29.40    2.40
 -12   4  -2    8.60    1.50
 -13   4  -2   88.39    4.10
 -14   4  -2   61.89    3.60
 -15   4  -2   10.80    1.90
 -16   4  -2    8.20    1.90
 -17   4  -2   60.59    4.00
 -18  -3   2    5.60    1.80
 -17  -3   2   16.70    2.50
 -16  -3   2   -0.90    1.30
 -15  -3   2   43.10    3.10
 -14  -3   2   99.39    4.40
 -13  -3   2   32.00    2.70
 -12  -3   2   41.50    2.60
 -11  -3   2   41.30    1.80
 -11  -3   2   44.70    2.50
 -10  -3   2   60.89    2.20
 -10  -3   2   63.89    2.90
  -9  -3   2   39.10    2.10
  -9  -3   2   42.90    1.70
  -8  -3   2    0.50    0.50
  -8  -3   2    1.30    0.70
  -7  -3   2    7.90    1.00
  -7  -3   2    9.10    0.80
  -6  -3   2  102.59    3.20
  -6  -3   2  100.89    2.80
  -5  -3   2   17.90    1.10
  -5  -3   2   16.90    0.90
  -4  -3   2   15.00    1.00
  -4  -3   2   15.30    0.80
  -3  -3   2 2097.89   44.70
  -3  -3   2 2107.49   44.10
  -2  -3   2  124.39    3.20
  -2  -3   2  116.09    3.00
  -1  -3   2  315.27    7.10
  -1  -3   2  318.57    7.20
   0  -3   2   35.60    1.00
   0  -3   2   34.90    1.30
  -1   3  -2    2.80    0.50
   1  -3   2    2.40    0.40
   1  -3   2    2.70    0.30
  -2   3  -2 1438.26   30.20
   2  -3   2 1421.96   30.20
  -3   3  -2  568.04   12.60
  -4   3  -2   46.80    1.80
  -5   3  -2   34.00    1.60
  -6   3  -2   24.30    1.40
  -7   3  -2    0.20    0.60
  -8   3  -2   90.69    3.20
  -9   3  -2   15.30    1.50
 -10   3  -2  442.06   11.10
 -11   3  -2    0.50    0.90
 -12   3  -2   52.79    2.90
 -13   3  -2   -0.10    1.20
 -14   3  -2   25.10    2.40
 -15   3  -2   16.10    2.20
 -16   3  -2    2.20    1.40
 -17   3  -2   14.60    2.40
 -18  -2   2   19.80    2.80
 -17  -2   2   20.70    2.70
 -16  -2   2   -0.60    1.20
 -15  -2   2    0.00    1.10
 -14  -2   2   -0.10    1.20
 -13  -2   2    1.00    1.00
 -12  -2   2    0.40    1.00
 -11  -2   2    5.60    1.20
 -10  -2   2   26.60    1.40
 -10  -2   2   28.80    1.90
  -9  -2   2  163.28    5.10
  -9  -2   2  167.98    4.30
  -8  -2   2  362.06    8.20
  -8  -2   2  359.86    9.00
  -7  -2   2    2.80    0.50
  -7  -2   2    2.90    0.70
  -6  -2   2   98.59    3.10
  -6  -2   2   94.79    2.60
  -5  -2   2   65.49    1.90
  -5  -2   2   65.29    2.20
  -4  -2   2  412.06    8.90
  -4  -2   2  403.66    9.30
  -3  -2   2   93.79    2.40
  -3  -2   2   91.29    2.60
  -2  -2   2 1206.48   25.20
  -2  -2   2 1177.28   25.20
  -1  -2   2   12.60    0.70
  -1  -2   2   13.80    0.70
   0  -2   2 1912.91   39.70
   0  -2   2 1881.21   40.20
  -1   2  -2  178.48    4.30
   1  -2   2  184.88    4.30
  -2   2  -2 1544.55   32.60
  -3   2  -2   96.19    2.70
  -4   2  -2   12.10    0.80
  -5   2  -2   80.49    2.60
  -6   2  -2   67.19    2.40
  -7   2  -2    5.70    0.90
  -8   2  -2   15.30    1.40
  -9   2  -2    2.80    0.90
 -10   2  -2  239.08    6.70
 -11   2  -2  261.27    7.40
 -12   2  -2    1.50    1.00
 -13   2  -2   29.00    2.40
 -14   2  -2   10.20    1.80
 -15   2  -2    3.60    1.30
 -16   2  -2    4.30    1.50
 -17   2  -2   13.30    2.30
 -17  -1   2    0.30    1.50
 -16  -1   2   92.99    4.70
 -15  -1   2  145.39    5.80
 -14  -1   2   21.70    2.50
 -13  -1   2   -1.90    0.90
 -12  -1   2    1.20    1.10
 -11  -1   2   84.89    3.70
 -10  -1   2   16.70    1.70
  -9  -1   2   36.10    2.10
  -9  -1   2   38.00    1.50
  -8  -1   2  609.84   13.20
  -8  -1   2  607.44   14.20
  -7  -1   2  810.02   18.20
  -7  -1   2  809.72   17.30
  -6  -1   2   -0.30    0.40
  -6  -1   2    0.50    0.30
  -5  -1   2   97.89    2.50
  -5  -1   2   98.19    3.00
  -4  -1   2  100.99    3.00
  -4  -1   2  108.89    2.60
  -3  -1   2   80.29    2.00
  -3  -1   2   84.39    2.40
  -2  -1   2  769.72   16.30
  -2  -1   2  753.32   16.10
  -1  -1   2   49.50    1.30
  -1  -1   2   52.79    1.50
   0  -1   2  381.26    8.40
   0  -1   2  397.36    8.50
  -1   1  -2  759.62   16.10
  -2   1  -2  255.07    5.80
  -3   1  -2  273.87    6.30
  -4   1  -2    3.30    0.50
  -5   1  -2  271.07    6.50
  -6   1  -2   21.80    1.20
  -7   1  -2    0.00    0.40
  -8   1  -2   13.80    1.30
  -9   1  -2  151.28    4.60
 -10   1  -2   16.10    1.50
 -11   1  -2    9.80    1.40
 -11   1  -2    8.30    1.10
 -12   1  -2   93.39    3.50
 -12   1  -2   90.19    3.70
 -13   1  -2  222.88    6.80
 -14   1  -2   36.80    2.60
 -15   1  -2    5.20    1.50
 -16   1  -2    4.30    1.60
 -17   1  -2   12.30    2.10
 -18   1  -2    1.70    1.50
 -17   0   2    1.90    1.70
 -16   0   2    0.20    1.30
 -15   0   2  110.79    5.00
 -14   0   2    0.60    1.10
 -13   0   2    0.60    1.10
 -12   0   2   11.40    1.70
 -11   0   2  192.68    6.10
 -10   0   2   97.79    3.80
  -9   0   2   72.89    2.20
  -9   0   2   82.29    3.20
  -8   0   2   67.69    2.00
  -8   0   2   68.89    2.80
  -7   0   2  308.47    7.80
  -7   0   2  303.27    6.80
  -6   0   2  200.38    5.40
  -6   0   2  205.38    4.60
  -5   0   2   53.99    1.40
  -5   0   2   47.90    1.90
  -4   0   2   43.40    1.20
  -4   0   2   39.10    1.60
   3   0  -2   26.10    1.00
  -3   0   2   27.20    1.20
  -3   0   2   26.30    0.80
   2   0  -2   23.70    0.90
  -2   0   2   22.50    1.00
   1   0  -2    2.60    0.30
  -1   0   2    4.40    0.40
   0   0   2  164.48    3.80
   1   0   2  339.97    7.40
  -2   0  -2  450.05    9.70
  -3   0  -2  274.37    6.20
  -4   0  -2   22.70    1.00
  -5   0  -2  538.85   11.90
  -6   0  -2   87.79    2.70
  -7   0  -2    3.30    0.60
  -8   0  -2    8.50    1.00
  -9   0  -2   44.40    1.90
  -9   0  -2   47.00    2.10
 -10   0  -2   38.90    1.80
 -10   0  -2   38.20    2.00
 -11   0  -2    1.60    0.70
 -11   0  -2    2.00    0.90
 -12   0  -2  109.19    3.60
 -12   0  -2  108.29    4.10
 -13   0  -2  198.38    6.20
 -14   0  -2    5.70    1.50
 -15   0  -2    2.50    1.30
 -16   0  -2   46.50    3.10
 -17   0  -2   29.00    2.90
 -18   0  -2   13.40    2.20
 -17   1   2    0.80    1.50
 -16   1   2    1.20    1.50
 -15   1   2    4.30    1.60
 -14   1   2   52.29    3.30
 -13   1   2    2.60    1.20
 -12   1   2    2.20    1.30
 -11   1   2  118.69    4.60
 -10   1   2    1.40    0.90
  -9   1   2    0.80    0.80
  -8   1   2   64.29    1.90
  -8   1   2   66.79    2.80
  -7   1   2   12.50    0.70
  -7   1   2   10.90    1.20
  -6   1   2  241.68    5.40
  -6   1   2  237.88    6.30
  -5   1   2  314.37    6.70
  -5   1   2  299.07    7.50
   4  -1  -2  216.98    5.30
  -4   1   2  219.28    4.70
  -4   1   2  213.98    5.40
   3  -1  -2 1861.31   39.00
  -3   1   2 1824.32   39.00
   2  -1  -2    0.50    0.30
  -2   1   2    0.70    0.30
   1  -1  -2    1.90    0.30
  -1   1   2    1.40    0.30
   0  -1  -2  448.46    9.40
   0   1   2  431.16    9.40
   1   1   2  157.28    3.50
  -2  -1  -2  165.18    3.70
  -4  -1  -2  339.97    7.50
  -5  -1  -2 1035.10   22.00
  -6  -1  -2    6.80    0.70
  -6  -1  -2    6.00    0.70
  -7  -1  -2    2.70    0.60
  -7  -1  -2    2.80    0.60
  -8  -1  -2    3.30    0.70
  -8  -1  -2    5.70    0.80
  -9  -1  -2    5.90    0.90
  -9  -1  -2    4.60    0.80
 -10  -1  -2    5.20    0.90
 -10  -1  -2    3.70    0.80
 -11  -1  -2    0.10    0.70
 -11  -1  -2    0.00    0.60
 -12  -1  -2    1.60    0.90
 -12  -1  -2    4.00    0.90
 -13  -1  -2   82.69    3.00
 -13  -1  -2   81.89    3.50
 -14  -1  -2   18.00    2.00
 -15  -1  -2   70.59    3.60
 -16  -1  -2    5.80    1.70
 -17  -1  -2   -0.10    1.20
 -18  -1  -2   60.99    4.00
 -19  -1  -2   17.80    2.60
 -16   2   2    0.00    1.50
 -15   2   2    0.30    1.30
 -14   2   2    0.10    1.20
 -13   2   2    7.60    1.60
 -12   2   2  139.99    5.20
 -11   2   2   47.10    2.80
 -10   2   2   16.60    1.80
  -9   2   2  241.68    6.90
  -8   2   2  178.18    4.50
  -8   2   2  170.58    5.20
  -7   2   2  239.48    5.50
  -7   2   2  246.38    6.60
  -6   2   2    0.60    0.50
  -6   2   2    0.00    0.20
   5  -2  -2   93.99    2.90
  -5   2   2   95.79    2.30
  -5   2   2   98.39    3.10
   4  -2  -2  264.57    6.20
  -4   2   2  245.38    6.20
   3  -2  -2  277.27    6.40
  -3   2   2  263.47    6.40
   2  -2  -2  624.04   13.80
  -2   2   2  649.74   13.80
   1  -2  -2  109.19    2.80
  -1   2   2  105.89    2.70
   0  -2  -2 1855.31   38.60
   0  -2  -2 1844.32   39.00
   0   2   2 1840.92   38.90
  -1  -2  -2  409.86    8.70
  -2  -2  -2  382.06    8.30
  -3  -2  -2  124.09    2.80
  -3  -2  -2  124.69    3.10
  -4  -2  -2  329.57    7.50
  -4  -2  -2  338.27    7.30
  -5  -2  -2   87.79    2.40
  -5  -2  -2   83.59    2.30
  -6  -2  -2   25.50    1.20
  -6  -2  -2   27.90    1.20
  -7  -2  -2    4.10    0.60
  -7  -2  -2    4.20    0.60
  -8  -2  -2  157.18    4.20
  -8  -2  -2  157.08    4.30
  -9  -2  -2  449.16   10.60
  -9  -2  -2  450.25   10.40
 -10  -2  -2   40.30    1.80
 -10  -2  -2   40.20    2.00
 -11  -2  -2    3.40    0.80
 -11  -2  -2    5.20    1.00
 -12  -2  -2    7.30    1.20
 -12  -2  -2    7.40    1.00
 -13  -2  -2   23.00    2.00
 -13  -2  -2   25.70    1.70
 -14  -2  -2   11.30    1.70
 -15  -2  -2   19.00    2.10
 -16  -2  -2   10.30    1.80
 -17  -2  -2   34.30    3.00
 -18  -2  -2   18.00    2.40
 -19  -2  -2   46.30    3.80
 -16   3   2    0.00    1.50
 -15   3   2    3.20    1.60
 -14   3   2   15.80    2.30
 -13   3   2    0.80    1.20
 -12   3   2   87.99    4.00
 -11   3   2  296.97    8.60
 -10   3   2   16.50    1.90
  -9   3   2    6.80    1.20
  -8   3   2  348.97    9.10
  -7   3   2    4.90    1.00
   6  -3  -2   40.50    1.90
  -6   3   2   39.60    2.00
   5  -3  -2    6.40    0.90
  -5   3   2    4.50    0.80
   4  -3  -2  104.29    3.10
  -4   3   2  100.09    3.10
   3  -3  -2    5.50    0.70
  -3   3   2    6.00    0.70
   2  -3  -2 1524.85   32.60
   2  -3  -2 1556.14   32.30
  -2   3   2 1556.34   32.80
   1  -3  -2  476.35    9.90
   1  -3  -2  456.75   10.30
  -1   3   2  472.65   10.20
   0  -3  -2   63.29    1.60
   0  -3  -2   60.69    1.90
   0   3   2   62.89    1.70
  -2  -3  -2  739.33   15.70
  -3  -3  -2   35.20    1.00
  -3  -3  -2   35.40    1.20
  -4  -3  -2  257.67    5.70
  -4  -3  -2  258.57    6.00
  -5  -3  -2   12.80    0.80
  -5  -3  -2   13.60    0.70
  -6  -3  -2 1183.58   25.30
  -6  -3  -2 1201.68   25.40
  -7  -3  -2    0.80    0.40
  -7  -3  -2    1.50    0.50
  -8  -3  -2   18.40    1.20
  -8  -3  -2   18.10    1.20
  -9  -3  -2  212.88    5.60
  -9  -3  -2  219.28    5.60
 -10  -3  -2    7.80    1.00
 -10  -3  -2   10.20    1.10
 -11  -3  -2   33.00    1.70
 -11  -3  -2   29.70    1.90
 -12  -3  -2   69.19    2.70
 -12  -3  -2   70.89    3.00
 -13  -3  -2    2.30    0.80
 -13  -3  -2    3.30    1.00
 -14  -3  -2   32.50    2.30
 -14  -3  -2   34.80    2.00
 -15  -3  -2    3.20    1.20
 -16  -3  -2   31.40    2.80
 -17  -3  -2   44.30    3.20
 -18  -3  -2   22.20    2.70
 -19  -3  -2    4.50    1.80
 -15   4   2   10.60    2.10
 -14   4   2   24.50    2.70
 -13   4   2    4.20    1.50
 -12   4   2    0.50    1.20
 -11   4   2   28.40    2.60
 -10   4   2   19.40    2.00
  -9   4   2   15.00    1.70
  -8   4   2   51.69    2.60
  -7   4   2  130.49    4.30
   6  -4  -2   76.69    2.90
  -6   4   2   86.79    3.10
   5  -4  -2   31.00    1.60
  -5   4   2   30.60    1.60
   4  -4  -2    5.50    0.80
  -4   4   2    5.30    0.80
   3  -4  -2   46.90    1.40
   3  -4  -2   44.50    1.80
  -3   4   2   44.20    1.70
   2  -4  -2  994.40   21.70
   2  -4  -2 1015.10   21.10
  -2   4   2 1006.20   21.50
   1  -4  -2  385.56    8.90
   1  -4  -2  410.96    8.50
  -1   4   2  387.36    8.70
   0  -4  -2  848.32   18.70
   0  -4  -2  894.41   18.30
   0   4   2  865.31   18.30
  -1  -4  -2 1207.08   25.10
   1   4   2 1189.48   25.20
  -2  -4  -2  169.78    4.00
  -3  -4  -2   55.29    1.70
  -4  -4  -2  308.47    7.10
  -4  -4  -2  316.87    6.70
  -5  -4  -2  695.63   15.30
  -5  -4  -2  707.73   14.90
  -6  -4  -2  369.96    8.20
  -6  -4  -2  358.56    8.40
  -7  -4  -2   29.80    1.40
  -7  -4  -2   29.10    1.30
  -8  -4  -2   20.40    1.20
  -8  -4  -2   18.00    1.10
  -9  -4  -2    0.60    0.50
  -9  -4  -2    1.70    0.60
 -10  -4  -2  158.18    4.50
 -10  -4  -2  155.48    4.50
 -11  -4  -2    0.90    0.70
 -11  -4  -2    1.70    0.60
 -12  -4  -2  207.98    5.70
 -12  -4  -2  202.28    5.90
 -13  -4  -2    4.30    1.00
 -13  -4  -2    4.30    1.10
 -14  -4  -2    6.50    1.30
 -14  -4  -2    4.20    1.00
 -15  -4  -2   27.90    2.50
 -16  -4  -2   82.39    3.90
 -17  -4  -2    2.00    1.40
 -18  -4  -2    7.90    1.80
 -19  -4  -2   17.30    2.40
 -15   5   2   29.00    3.10
 -14   5   2    6.60    1.90
 -13   5   2    0.50    1.40
 -12   5   2    0.80    1.30
 -11   5   2    0.60    1.20
 -10   5   2  184.48    6.10
  -9   5   2    5.40    1.30
  -8   5   2   65.89    3.00
   7  -5  -2   68.69    2.90
  -7   5   2   68.49    3.00
   6  -5  -2    0.10    0.70
  -6   5   2    0.70    0.60
   5  -5  -2   18.90    1.40
  -5   5   2   15.40    1.40
   4  -5  -2  264.27    6.80
  -4   5   2  272.37    6.80
   3  -5  -2  591.84   13.60
   3  -5  -2  616.14   13.10
  -3   5   2  605.94   13.60
   2  -5  -2   66.89    2.30
   2  -5  -2   67.09    1.90
  -2   5   2   68.89    2.20
   1  -5  -2   86.59    2.70
   1  -5  -2   87.19    2.30
  -1   5   2   86.09    2.40
   0  -5  -2    8.40    0.60
   0  -5  -2    7.70    0.80
   0   5   2    7.80    0.60
  -1  -5  -2  115.29    3.00
  -1  -5  -2  117.59    3.20
   1   5   2  116.99    2.70
  -2  -5  -2   51.49    1.60
   2   5   2   51.09    1.30
  -3  -5  -2   29.70    1.20
  -4  -5  -2  475.35   10.50
  -4  -5  -2  473.05   10.00
  -5  -5  -2  320.77    6.90
  -5  -5  -2  309.27    7.30
  -6  -5  -2    5.90    0.70
  -6  -5  -2    7.00    0.60
  -7  -5  -2  146.89    3.70
  -7  -5  -2  138.99    3.90
  -8  -5  -2   15.70    1.10
  -8  -5  -2   17.30    1.10
  -9  -5  -2   34.50    1.60
  -9  -5  -2   33.70    1.60
 -10  -5  -2  186.98    5.20
 -10  -5  -2  190.08    5.20
 -11  -5  -2   56.79    2.40
 -11  -5  -2   54.39    2.30
 -12  -5  -2  152.38    4.60
 -12  -5  -2  135.29    4.30
 -13  -5  -2  195.88    5.80
 -13  -5  -2  187.28    5.40
 -14  -5  -2   12.30    1.40
 -14  -5  -2   11.60    1.60
 -15  -5  -2   95.69    3.60
 -15  -5  -2   97.39    4.00
 -16  -5  -2   22.50    2.20
 -17  -5  -2   14.10    2.00
 -18  -5  -2    4.40    1.70
 -19  -5  -2    2.00    1.50
 -14   6   2    2.30    1.60
 -13   6   2   29.10    3.00
 -12   6   2    2.10    1.30
 -11   6   2    1.90    1.20
 -10   6   2   32.30    2.50
  -9   6   2   44.10    2.60
  -8   6   2   16.80    1.80
   7  -6  -2  165.38    5.20
  -7   6   2  164.48    5.20
   6  -6  -2  100.99    3.70
  -6   6   2  107.29    3.70
   5  -6  -2   97.59    3.40
  -5   6   2   98.89    3.40
   4  -6  -2  742.83   17.00
  -4   6   2  764.82   16.90
   3  -6  -2  977.80   20.60
   3  -6  -2  967.70   21.20
  -3   6   2  943.31   21.00
   2  -6  -2  450.15   10.50
   2  -6  -2  449.95   10.00
  -2   6   2  459.05   10.30
   1  -6  -2   32.90    1.50
   1  -6  -2   32.70    1.20
  -1   6   2   33.20    1.30
   0  -6  -2    1.20    0.50
   0  -6  -2    0.60    0.30
   0   6   2    1.30    0.30
  -1  -6  -2   28.00    1.20
  -1  -6  -2   27.60    1.30
   1   6   2   30.00    1.00
  -2  -6  -2    5.40    0.60
   2   6   2    5.00    0.40
  -3  -6  -2   66.29    2.10
   3   6   2   64.89    1.60
  -4  -6  -2   25.40    1.20
  -4  -6  -2   26.80    0.80
  -5  -6  -2 1343.57   28.50
  -5  -6  -2 1328.27   27.90
  -6  -6  -2  433.76    9.90
  -6  -6  -2  431.36    9.50
  -7  -6  -2  101.39    3.10
  -7  -6  -2  104.69    2.80
  -8  -6  -2   29.70    1.40
  -8  -6  -2   42.50    1.80
  -9  -6  -2  133.59    4.00
  -9  -6  -2  136.49    3.90
 -10  -6  -2    6.10    0.90
 -10  -6  -2    6.70    0.90
 -11  -6  -2   90.39    3.10
 -11  -6  -2   85.59    3.10
 -12  -6  -2   51.19    2.30
 -12  -6  -2   55.99    2.50
 -13  -6  -2   11.70    1.40
 -13  -6  -2    8.00    1.20
 -14  -6  -2    0.50    0.80
 -14  -6  -2    2.00    0.90
 -15  -6  -2  104.39    4.10
 -15  -6  -2  102.69    3.80
 -16  -6  -2   -1.10    1.10
 -17  -6  -2   99.79    4.50
 -18  -6  -2    1.00    1.30
 -19  -6  -2    9.50    1.90
 -14   7   2    1.20    1.50
 -13   7   2   46.40    3.60
 -12   7   2   32.70    3.00
 -11   7   2    9.10    1.80
 -10   7   2    5.90    1.50
  -9   7   2    8.10    1.50
  -8   7   2   50.79    2.70
   7  -7  -2    1.20    0.80
  -7   7   2    0.90    0.80
   6  -7  -2    0.50    0.80
  -6   7   2    0.10    0.80
   5  -7  -2   76.99    3.00
  -5   7   2   71.69    2.90
   4  -7  -2   21.40    1.70
   4  -7  -2   20.40    1.10
  -4   7   2   21.40    1.50
   3  -7  -2  685.23   15.60
   3  -7  -2  694.23   15.10
  -3   7   2  683.43   15.40
   2  -7  -2  940.51   20.00
   2  -7  -2  928.91   20.60
  -2   7   2  923.61   20.30
   1  -7  -2  315.67    7.80
   1  -7  -2  323.67    7.40
  -1   7   2  313.77    7.40
   0  -7  -2  165.68    4.60
   0  -7  -2  168.08    4.30
   0   7   2  170.38    4.20
  -1  -7  -2   72.99    2.20
  -1  -7  -2   67.19    2.40
   1   7   2   73.39    2.00
  -2  -7  -2  219.78    5.60
  -2  -7  -2  217.38    5.40
   2   7   2  225.08    5.00
  -3  -7  -2    0.70    0.50
   3   7   2    0.80    0.20
  -4  -7  -2    7.50    0.80
  -5  -7  -2 1791.92   37.70
  -5  -7  -2 1825.92   38.30
  -6  -7  -2  543.05   12.60
  -6  -7  -2  570.64   12.10
  -7  -7  -2    2.50    0.50
  -7  -7  -2    2.30    0.60
  -8  -7  -2    8.70    0.80
  -8  -7  -2    9.10    1.00
  -9  -7  -2  266.87    6.80
  -9  -7  -2  258.37    6.50
 -10  -7  -2  608.94   14.10
 -10  -7  -2  614.64   13.90
 -11  -7  -2    0.60    0.60
 -11  -7  -2   -0.80    0.60
 -12  -7  -2    8.30    1.20
 -12  -7  -2    8.60    1.20
 -13  -7  -2   74.19    3.10
 -13  -7  -2   71.69    2.90
 -14  -7  -2   45.10    2.60
 -14  -7  -2   44.80    2.30
 -15  -7  -2    3.70    1.10
 -15  -7  -2    2.40    1.00
 -16  -7  -2   92.49    4.00
 -16  -7  -2   84.39    3.50
 -17  -7  -2   51.79    3.10
 -18  -7  -2    1.00    1.40
 -19  -7  -2    3.60    1.50
 -13   8   2   68.69    4.10
 -12   8   2  126.59    5.50
 -11   8   2   11.80    1.90
 -10   8   2   35.50    2.70
  -9   8   2    0.20    1.00
  -8   8   2   72.09    3.30
   7  -8  -2   -0.30    0.90
  -7   8   2   -0.30    0.70
   6  -8  -2    7.60    1.30
  -6   8   2    6.20    1.20
   5  -8  -2   13.50    1.60
  -5   8   2   13.60    1.40
   4  -8  -2  244.78    6.10
   4  -8  -2  239.28    6.70
  -4   8   2  246.38    6.50
   3  -8  -2    1.40    0.50
   3  -8  -2    1.40    0.80
  -3   8   2    1.60    0.70
   2  -8  -2   18.40    1.40
   2  -8  -2   13.90    1.00
  -2   8   2   17.90    1.20
   1  -8  -2   95.59    3.30
   1  -8  -2   98.09    2.90
  -1   8   2  101.99    3.00
   0  -8  -2  250.87    6.10
   0  -8  -2  243.88    6.40
   0   8   2  249.78    5.90
  -1  -8  -2    7.10    0.90
  -1  -8  -2    7.20    0.80
   1   8   2    6.90    0.60
  -2  -8  -2   23.70    1.20
  -2  -8  -2   22.40    1.30
   2   8   2   24.20    1.00
  -3  -8  -2   51.69    2.00
   3   8   2   52.29    1.50
  -4  -8  -2   36.00    1.60
   4   8   2   35.30    1.10
  -5  -8  -2   13.90    1.20
  -5  -8  -2   12.40    0.70
  -6  -8  -2  117.99    3.60
  -6  -8  -2  122.09    3.10
  -7  -8  -2    1.50    0.40
  -7  -8  -2    0.90    0.60
  -8  -8  -2   43.90    2.00
  -8  -8  -2   42.90    1.70
  -9  -8  -2  207.38    5.20
  -9  -8  -2  198.48    5.50
 -10  -8  -2  766.22   17.40
 -10  -8  -2  767.52   17.10
 -11  -8  -2  140.09    4.10
 -11  -8  -2  133.69    4.30
 -12  -8  -2   10.70    1.30
 -12  -8  -2   11.00    1.30
 -13  -8  -2   -1.10    0.70
 -13  -8  -2    0.20    0.70
 -14  -8  -2  131.19    4.40
 -14  -8  -2  128.19    4.40
 -15  -8  -2    9.70    1.60
 -15  -8  -2    9.60    1.50
 -16  -8  -2    7.30    1.40
 -16  -8  -2    6.60    1.50
 -17  -8  -2   38.50    2.80
 -18  -8  -2   26.00    2.60
 -19  -8  -2   -0.90    1.30
 -13   9   2    7.50    2.10
 -12   9   2  118.49    5.30
 -11   9   2   52.39    3.40
 -10   9   2   16.60    2.20
  -9   9   2   33.70    2.50
   8  -9  -2    1.20    1.00
  -8   9   2    1.50    1.00
   7  -9  -2   24.10    2.10
  -7   9   2   22.00    2.10
   6  -9  -2   78.39    3.40
  -6   9   2   87.49    3.50
   5  -9  -2    0.10    0.70
  -5   9   2   -0.10    0.80
   4  -9  -2  115.19    4.00
   4  -9  -2  111.49    3.50
  -4   9   2  114.99    3.80
   3  -9  -2   46.10    2.30
   3  -9  -2   48.80    2.00
  -3   9   2   48.20    2.20
   2  -9  -2  144.89    4.10
   2  -9  -2  146.39    4.50
  -2   9   2  145.59    4.20
   1  -9  -2    4.60    0.70
   1  -9  -2    4.30    0.90
  -1   9   2    3.60    0.70
   0  -9  -2  732.63   16.50
   0  -9  -2  734.93   16.10
   0   9   2  719.83   16.00
  -1  -9  -2  395.86    9.60
  -1  -9  -2  398.56    9.30
   1   9   2  403.86    9.00
  -2  -9  -2   11.00    1.10
  -2  -9  -2    8.30    1.00
   2   9   2   10.30    0.70
  -3  -9  -2   35.90    1.70
  -3  -9  -2   34.70    1.70
   3   9   2   37.70    1.20
  -4  -9  -2  180.68    4.90
   4   9   2  184.48    4.20
  -5  -9  -2  119.89    3.70
   5   9   2  125.99    3.10
  -6  -9  -2   19.20    1.30
  -6  -9  -2   19.50    0.90
  -7  -9  -2  130.39    4.00
  -7  -9  -2  138.19    3.50
  -8  -9  -2   33.70    1.40
  -8  -9  -2   32.70    1.80
  -9  -9  -2  292.17    7.50
  -9  -9  -2  292.37    7.10
 -10  -9  -2   87.19    2.90
 -10  -9  -2   84.49    3.10
 -11  -9  -2   24.20    1.70
 -11  -9  -2   26.80    1.60
 -12  -9  -2   11.20    1.30
 -12  -9  -2   12.30    1.40
 -13  -9  -2   65.29    2.80
 -13  -9  -2   59.09    2.70
 -14  -9  -2   57.69    2.80
 -14  -9  -2   53.19    2.70
 -15  -9  -2  179.58    5.70
 -15  -9  -2  167.38    5.40
 -16  -9  -2    2.20    1.20
 -16  -9  -2    4.20    1.10
 -17  -9  -2    9.90    1.80
 -17  -9  -2   10.10    1.60
 -12  10   2   -1.60    1.20
 -11  10   2    6.00    1.70
 -10  10   2   25.10    2.60
  -9  10   2   -0.60    1.10
   8 -10  -2    9.80    1.70
  -8  10   2   14.90    1.90
   7 -10  -2   73.69    3.50
  -7  10   2   80.29    3.50
   6 -10  -2    1.10    1.00
  -6  10   2    0.10    0.80
   5 -10  -2   35.00    2.20
  -5  10   2   33.80    2.10
   4 -10  -2   27.80    1.70
   4 -10  -2   27.90    2.00
  -4  10   2   30.80    2.00
   3 -10  -2  133.99    4.10
   3 -10  -2  138.99    4.60
  -3  10   2  139.69    4.30
   2 -10  -2   47.90    2.10
   2 -10  -2   47.00    2.40
  -2  10   2   51.59    2.20
   1 -10  -2    5.60    1.00
   1 -10  -2    7.20    0.90
  -1  10   2    7.00    0.90
   0 -10  -2   78.09    2.70
   0 -10  -2   75.29    2.90
   0  10   2   74.49    2.50
  -1 -10  -2  425.66   10.30
  -1 -10  -2  428.46   10.10
   1  10   2  425.26    9.70
  -2 -10  -2  625.84   14.30
  -2 -10  -2  642.64   14.50
   2  10   2  631.04   13.80
  -3 -10  -2    7.90    1.10
  -3 -10  -2    8.20    1.00
   3  10   2    9.10    0.70
  -4 -10  -2   85.89    3.00
   4  10   2   85.69    2.30
  -5 -10  -2  645.94   14.90
   5  10   2  663.03   14.10
  -6 -10  -2   14.00    0.80
  -6 -10  -2   14.70    1.30
  -7 -10  -2  194.38    5.40
  -7 -10  -2  193.28    4.70
  -8 -10  -2   88.19    3.20
  -8 -10  -2   86.59    2.60
  -9 -10  -2  192.48    4.90
  -9 -10  -2  183.98    5.40
 -10 -10  -2   87.39    2.90
 -10 -10  -2   90.69    3.30
 -11 -10  -2   19.10    1.40
 -11 -10  -2   19.90    1.80
 -12 -10  -2   21.10    1.80
 -12 -10  -2   22.30    1.60
 -13 -10  -2  225.78    6.60
 -14 -10  -2  574.64   13.90
 -15 -10  -2    0.40    1.10
 -16 -10  -2    2.60    1.10
 -17 -10  -2   14.00    1.80
 -11  11   2    1.40    1.40
 -10  11   2    2.20    1.50
  -9  11   2    4.80    1.40
  -8  11   2    4.10    1.30
   7 -11  -2   -0.30    1.00
  -7  11   2   -0.90    0.90
   6 -11  -2    6.80    1.50
  -6  11   2    5.60    1.30
   5 -11  -2    0.40    0.90
  -5  11   2    1.70    0.90
   4 -11  -2    8.10    1.30
  -4  11   2    6.00    1.20
   3 -11  -2   12.50    1.50
   3 -11  -2   14.20    1.40
  -3  11   2   10.50    1.30
   2 -11  -2   60.99    2.80
   2 -11  -2   64.29    2.60
  -2  11   2   66.79    2.60
   1 -11  -2    6.70    1.00
   1 -11  -2    7.70    1.30
  -1  11   2    4.80    0.90
   0 -11  -2   42.10    2.20
   0 -11  -2   42.20    2.00
   0  11   2   41.70    1.80
  -1 -11  -2  179.08    5.00
  -1 -11  -2  182.18    5.30
   1  11   2  182.68    4.70
  -2 -11  -2   35.80    1.90
  -2 -11  -2   34.50    1.80
   2  11   2   36.00    1.50
  -3 -11  -2    2.30    0.80
  -3 -11  -2    1.10    0.60
   3  11   2    2.10    0.50
  -4 -11  -2   38.70    2.00
  -4 -11  -2   40.40    2.00
   4  11   2   39.50    1.40
  -5 -11  -2    2.10    0.80
  -6 -11  -2    8.50    1.10
  -7 -11  -2  104.59    3.60
  -8 -11  -2  116.79    3.90
  -9 -11  -2    0.80    0.80
 -10 -11  -2    9.40    1.30
 -11 -11  -2   38.60    2.20
 -12 -11  -2    1.90    1.00
 -13 -11  -2    8.50    1.40
 -14 -11  -2  591.34   14.40
 -15 -11  -2  343.27    9.30
 -16 -11  -2    1.30    1.10
 -17 -11  -2    0.10    1.00
 -18 -11  -2   -0.40    1.00
 -10  12   2    6.60    1.70
  -9  12   2   29.70    2.80
  -8  12   2   -0.30    1.20
   7 -12  -2    6.00    1.50
  -7  12   2    7.10    1.50
   6 -12  -2   85.39    4.00
  -6  12   2   86.69    3.70
   5 -12  -2   72.89    3.50
  -5  12   2   77.09    3.40
   4 -12  -2   11.10    1.50
  -4  12   2   15.60    1.60
   3 -12  -2    1.60    0.90
   3 -12  -2    1.40    0.80
  -3  12   2    1.60    0.90
   2 -12  -2  146.79    4.90
   2 -12  -2  152.18    4.70
  -2  12   2  150.88    4.60
   1 -12  -2   60.69    2.60
   1 -12  -2   57.89    2.80
  -1  12   2   54.89    2.30
   0 -12  -2   89.49    3.50
   0 -12  -2   96.19    3.40
   0  12   2   94.19    3.10
  -1 -12  -2    2.40    0.80
  -1 -12  -2    4.60    1.10
   1  12   2    2.70    0.70
  -2 -12  -2  139.39    4.30
  -2 -12  -2  145.69    4.50
  -3 -12  -2   12.20    1.40
  -3 -12  -2   16.90    1.50
  -4 -12  -2  304.47    7.90
  -4 -12  -2  303.17    7.80
  -5 -12  -2  261.27    7.00
  -6 -12  -2    2.90    0.90
  -7 -12  -2   90.79    3.40
  -8 -12  -2   53.39    2.60
  -9 -12  -2   83.59    3.30
 -10 -12  -2   -0.60    0.80
 -11 -12  -2   -1.20    0.80
 -12 -12  -2   22.10    2.00
 -13 -12  -2   99.99    3.90
 -14 -12  -2    0.10    1.00
 -15 -12  -2   60.29    3.10
 -16 -12  -2    1.60    1.10
 -17 -12  -2    8.70    1.70
 -18 -12  -2    1.00    1.30
  -9  13   2    2.30    1.50
  -8  13   2   49.30    3.30
   7 -13  -2   10.70    1.90
  -7  13   2    7.70    1.70
   6 -13  -2   -1.10    1.00
  -6  13   2   -0.40    1.00
   5 -13  -2    1.80    1.20
  -5  13   2    0.50    0.90
   4 -13  -2   21.60    2.10
  -4  13   2   22.80    2.00
   3 -13  -2  103.99    4.00
  -3  13   2   92.89    3.60
   2 -13  -2    2.50    0.90
   2 -13  -2    2.10    1.00
   1 -13  -2   65.59    2.80
   1 -13  -2   58.19    2.90
   0 -13  -2  147.79    5.00
   0 -13  -2  160.28    4.90
  -1 -13  -2  263.27    7.20
  -1 -13  -2  257.47    7.10
  -2 -13  -2    5.60    1.10
  -2 -13  -2    5.60    1.10
  -3 -13  -2   40.50    2.20
  -3 -13  -2   44.40    2.30
  -4 -13  -2    8.80    1.30
  -4 -13  -2    7.50    1.20
  -5 -13  -2   95.09    3.50
  -5 -13  -2   93.89    3.50
  -6 -13  -2  166.28    5.10
  -7 -13  -2    2.10    0.90
  -8 -13  -2   36.10    2.20
  -9 -13  -2  209.88    6.20
 -10 -13  -2   45.80    2.60
 -11 -13  -2   23.90    2.20
 -12 -13  -2    1.30    1.10
 -13 -13  -2   16.80    1.90
 -14 -13  -2   54.39    3.00
 -15 -13  -2   11.10    1.80
 -16 -13  -2   24.00    2.40
 -17 -13  -2   31.30    2.70
 -18 -13  -2   52.99    3.40
 -19 -13  -2    2.20    1.60
   7 -14  -2   22.30    2.50
   6 -14  -2    0.40    1.20
   5 -14  -2   17.50    2.10
   4 -14  -2    0.20    1.00
   3 -14  -2   22.10    2.10
   2 -14  -2    1.10    1.00
   2 -14  -2    0.10    0.90
   1 -14  -2   -0.90    0.80
   1 -14  -2    0.90    0.80
   0 -14  -2    3.50    1.10
   0 -14  -2    1.40    0.90
  -1 -14  -2   23.80    2.10
  -1 -14  -2   28.80    2.00
  -2 -14  -2   96.09    3.70
  -2 -14  -2   97.69    3.70
  -3 -14  -2    0.10    0.80
  -3 -14  -2    0.40    0.80
  -4 -14  -2   10.00    1.40
  -4 -14  -2    8.10    1.30
  -5 -14  -2  191.08    5.70
  -5 -14  -2  189.18    5.70
  -6 -14  -2    7.70    1.30
  -6 -14  -2    8.60    1.30
  -7 -14  -2   39.10    2.40
  -8 -14  -2   21.40    1.90
  -9 -14  -2   84.49    3.50
 -10 -14  -2   48.00    2.80
 -11 -14  -2   67.99    3.30
 -12 -14  -2   37.70    2.60
 -13 -14  -2   47.50    2.90
 -14 -14  -2  129.59    4.90
 -15 -14  -2   46.70    3.10
 -16 -14  -2   19.00    2.20
 -17 -14  -2    0.30    1.40
 -18 -14  -2  105.69    4.60
   7 -15  -2   30.00    2.90
   6 -15  -2   13.70    2.10
   5 -15  -2   29.40    2.70
   4 -15  -2  141.69    5.30
   3 -15  -2    3.50    1.30
   2 -15  -2    1.20    1.10
   1 -15  -2   -0.20    0.90
   1 -15  -2    1.30    1.10
   0 -15  -2    4.70    1.10
   0 -15  -2    3.40    1.00
  -1 -15  -2    1.10    0.90
  -1 -15  -2    0.90    1.00
  -2 -15  -2    1.20    0.90
  -2 -15  -2    1.00    0.90
  -3 -15  -2    1.50    1.00
  -3 -15  -2    1.90    1.00
  -4 -15  -2  209.88    6.20
  -4 -15  -2  208.88    6.30
  -5 -15  -2    2.70    1.00
  -5 -15  -2    3.60    1.20
  -6 -15  -2  252.07    7.10
  -6 -15  -2  251.97    7.20
  -7 -15  -2   20.20    1.90
  -7 -15  -2   15.80    1.80
  -8 -15  -2   10.90    1.60
  -9 -15  -2   12.60    1.70
 -10 -15  -2   53.39    2.90
 -11 -15  -2   -0.10    1.00
 -12 -15  -2   44.90    2.80
 -13 -15  -2    6.90    1.50
 -14 -15  -2    6.60    1.60
 -15 -15  -2   -0.90    1.10
 -16 -15  -2    4.00    1.50
 -17 -15  -2   -2.00    1.30
 -18 -15  -2   19.30    2.40
   6 -16  -2    4.40    1.70
   5 -16  -2   22.00    2.50
   4 -16  -2   85.89    4.10
   3 -16  -2  253.67    7.80
   2 -16  -2    7.90    1.60
   1 -16  -2   40.90    2.70
   0 -16  -2    2.20    1.10
   0 -16  -2    0.90    1.10
  -1 -16  -2   24.30    2.20
  -1 -16  -2   20.90    2.10
  -2 -16  -2    0.90    0.90
  -2 -16  -2    1.50    1.00
  -3 -16  -2   25.90    2.20
  -3 -16  -2   25.20    2.20
  -4 -16  -2  152.58    5.10
  -4 -16  -2  147.49    5.00
  -5 -16  -2  321.67    8.80
  -5 -16  -2  323.27    8.80
  -6 -16  -2    6.70    1.30
  -7 -16  -2   36.80    2.40
  -8 -16  -2    4.00    1.30
  -9 -16  -2    1.00    1.10
 -10 -16  -2    2.20    1.20
 -11 -16  -2    2.50    1.20
 -12 -16  -2   10.10    1.70
 -13 -16  -2  105.09    4.50
 -14 -16  -2   31.90    2.80
 -15 -16  -2    1.90    1.40
 -16 -16  -2   -0.80    1.20
 -17 -16  -2    7.90    1.80
   4 -17  -2    6.00    1.70
   3 -17  -2   60.09    3.50
   2 -17  -2   77.59    3.90
   1 -17  -2    4.60    1.30
   0 -17  -2    1.70    1.20
   0 -17  -2   -0.10    1.00
  -1 -17  -2   76.29    3.60
  -1 -17  -2   70.79    3.40
  -2 -17  -2    1.00    1.20
  -2 -17  -2    1.90    1.20
  -3 -17  -2   19.30    2.10
  -4 -17  -2    6.80    1.50
  -5 -17  -2   -0.40    0.90
  -6 -17  -2  250.17    7.50
  -7 -17  -2   39.70    2.60
  -8 -17  -2    5.10    1.30
  -9 -17  -2   48.30    2.90
 -10 -17  -2    5.50    1.40
 -11 -17  -2   20.00    2.20
 -12 -17  -2    2.50    1.30
 -13 -17  -2    3.80    1.50
 -14 -17  -2   70.59    3.90
 -15 -17  -2    6.60    1.70
 -16 -17  -2    1.10    1.50
   3 -18  -2   17.30    2.30
   2 -18  -2   55.99    3.90
  -1 -18  -2    2.70    1.30
  -2 -18  -2   14.00    2.00
  -3 -18  -2    6.00    1.40
  -4 -18  -2   28.50    2.50
  -5 -18  -2    3.20    1.30
  -6 -18  -2   11.40    1.80
  -7 -18  -2    3.10    1.30
  -8 -18  -2    4.20    1.40
  -9 -18  -2    1.00    1.20
 -10 -18  -2   15.30    2.00
 -11 -18  -2    1.00    1.20
 -12 -18  -2    1.50    1.40
 -13 -18  -2    1.10    1.30
 -14 -18  -2    0.40    1.20
 -15 -18  -2   10.20    1.90
  -1 -19  -2  246.38    8.70
  -2 -19  -2   14.50    2.10
  -3 -19  -2   19.00    2.20
  -4 -19  -2    2.10    1.40
  -5 -19  -2   -0.80    1.00
  -6 -19  -2   23.10    2.40
  -7 -19  -2    1.20    1.30
  -8 -19  -2   95.29    4.30
  -9 -19  -2   79.39    4.10
 -10 -19  -2    7.30    1.70
 -11 -19  -2   18.40    2.30
 -12 -19  -2    0.50    1.20
 -13 -19  -2   22.00    2.50
 -14 -19  -2    4.50    1.70
  -2 -20  -2   47.30    3.40
  -3 -20  -2   -0.20    1.20
  -4 -20  -2    0.20    1.30
  -5 -20  -2    3.10    1.40
  -6 -20  -2    1.40    1.30
  -7 -20  -2    0.60    1.20
  -8 -20  -2   29.70    2.80
  -9 -20  -2   12.00    2.00
 -10 -20  -2   17.60    2.30
 -11 -20  -2    6.90    1.70
 -12 -20  -2    2.60    1.50
  -7 -21  -2   17.30    2.30
  -8 -21  -2    2.90    1.50
 -10 -19   3    0.70    1.50
  -9 -19   3    3.40    1.60
  -8 -19   3   -0.50    1.30
  -7 -19   3    0.60    1.40
  -6 -19   3   29.50    3.00
  -5 -19   3    6.90    1.80
  -4 -19   3    1.30    1.40
  -3 -19   3   12.00    2.30
  -2 -19   3   -0.70    1.50
  -1 -19   3    0.90    1.40
   0 -19   3   -0.90    1.40
 -12 -18   3    8.40    1.80
 -11 -18   3   44.90    3.20
 -10 -18   3    0.70    1.30
  -9 -18   3   16.90    2.30
  -8 -18   3   44.90    3.20
  -7 -18   3    4.40    1.50
  -6 -18   3    1.40    1.50
  -5 -18   3   10.20    2.00
  -4 -18   3    1.60    1.40
  -3 -18   3   62.99    3.90
  -2 -18   3    5.00    1.70
  -1 -18   3    3.30    1.50
   0 -18   3   23.10    2.70
   1 -18   3   23.70    2.70
   2 -18   3   16.00    2.40
 -13 -17   3   -0.70    1.20
 -12 -17   3    0.50    1.20
 -11 -17   3    4.60    1.50
 -10 -17   3   89.79    4.30
  -9 -17   3    0.60    1.30
  -8 -17   3    2.60    1.30
  -7 -17   3   58.59    3.50
  -6 -17   3   -0.50    1.10
  -5 -17   3   11.60    2.00
  -4 -17   3    3.00    1.40
  -3 -17   3    7.50    1.60
  -2 -17   3   36.70    3.10
  -1 -17   3    1.10    1.20
   0 -17   3    0.00    1.10
   1 -17   3   13.00    2.20
   2 -17   3   45.80    3.30
   3 -17   3   23.50    2.70
 -14 -16   3   11.90    1.90
 -13 -16   3    1.10    1.20
 -12 -16   3   39.70    3.30
 -11 -16   3   35.10    2.70
 -10 -16   3   43.30    3.10
  -9 -16   3    1.60    1.20
  -8 -16   3    6.60    1.60
  -7 -16   3   30.90    2.70
  -6 -16   3   37.80    2.80
  -5 -16   3   32.90    2.80
  -4 -16   3    0.60    1.10
  -3 -16   3    1.70    1.20
  -2 -16   3   93.09    4.30
  -1 -16   3   50.99    3.20
   0 -16   3   14.20    2.00
   1 -16   3    4.70    1.50
   2 -16   3   27.60    2.70
   3 -16   3   58.39    3.60
   4 -16   3    2.80    1.50
 -15 -15   3   28.70    2.70
 -14 -15   3   11.70    1.90
 -13 -15   3    2.00    1.20
 -12 -15   3    0.50    1.10
 -11 -15   3    9.60    1.70
 -10 -15   3   -0.30    1.00
  -9 -15   3   56.89    3.20
  -8 -15   3   56.29    3.10
  -7 -15   3  165.98    5.70
  -6 -15   3   17.90    2.00
  -5 -15   3    0.10    1.00
  -4 -15   3   85.99    3.90
  -3 -15   3   43.40    2.80
  -2 -15   3   19.10    2.10
  -1 -15   3    2.40    1.20
   0 -15   3    1.80    1.20
   1 -15   3   44.60    2.90
   2 -15   3   94.69    4.30
   3 -15   3   20.50    2.40
   4 -15   3   16.50    2.10
  -5  15  -3   70.49    4.00
  -6  15  -3   -1.00    1.10
  -7  15  -3   -1.60    1.10
 -16 -14   3    4.40    1.50
 -15 -14   3   19.20    2.20
 -14 -14   3   21.30    2.20
 -13 -14   3    1.10    1.10
 -12 -14   3   10.30    1.70
 -11 -14   3   41.00    2.80
 -10 -14   3   44.20    2.80
  -9 -14   3   30.80    2.60
  -8 -14   3    3.00    1.20
  -7 -14   3   -0.80    0.80
  -6 -14   3   23.00    2.20
  -5 -14   3    4.50    1.20
  -4 -14   3    4.70    1.20
  -3 -14   3  551.24   13.80
  -2 -14   3  108.99    4.40
   1  14  -3   18.80    2.10
  -1 -14   3   22.00    2.20
   0  14  -3    1.40    1.00
   0 -14   3    0.50    0.90
  -1  14  -3   -0.20    0.90
   1 -14   3   -0.50    1.00
  -2  14  -3    2.10    1.00
   2 -14   3   -0.80    1.00
  -3  14  -3   11.00    1.60
   3 -14   3    5.50    1.40
  -4  14  -3   12.10    1.70
   4 -14   3    8.70    1.70
  -5  14  -3   67.89    3.50
  -6  14  -3  109.39    4.60
  -7  14  -3    2.70    1.40
  -8  14  -3    2.50    1.30
  -9  14  -3   13.10    2.20
 -15 -13   3    3.40    1.30
 -14 -13   3   11.50    1.80
 -13 -13   3    4.50    1.40
 -12 -13   3   33.30    2.70
 -11 -13   3  100.59    4.10
 -10 -13   3   44.80    2.70
  -9 -13   3   27.80    2.10
  -8 -13   3    3.70    1.20
  -7 -13   3   70.69    3.20
  -6 -13   3   -0.50    0.80
  -6 -13   3    0.10    0.80
   5  13  -3    8.10    1.20
  -5 -13   3    6.50    1.30
   4  13  -3   50.89    2.50
  -4 -13   3   48.70    2.70
   3  13  -3   85.79    3.40
  -3 -13   3   91.19    3.70
   2  13  -3  538.75   13.20
  -2 -13   3  570.04   13.80
   1  13  -3   47.10    2.50
  -1 -13   3   49.70    2.80
   0  13  -3    2.80    1.00
   0 -13   3    1.40    1.00
  -1  13  -3    2.70    1.00
   1 -13   3    5.30    1.30
  -2  13  -3   25.50    2.10
   2 -13   3   22.50    2.20
  -3  13  -3    1.60    1.00
   3 -13   3    0.70    1.00
  -4  13  -3    0.10    0.90
   4 -13   3   -0.50    0.80
  -5  13  -3    0.60    1.00
  -6  13  -3  152.38    5.50
  -7  13  -3   41.10    2.80
  -8  13  -3   -2.30    1.00
  -9  13  -3    0.60    1.30
 -10  13  -3    8.30    2.00
 -15 -12   3    9.50    1.60
 -14 -12   3    0.30    1.10
 -13 -12   3    9.20    1.50
 -12 -12   3   78.29    3.50
 -11 -12   3   28.00    2.40
 -11 -12   3   28.20    2.10
 -10 -12   3    4.50    1.20
 -10 -12   3    4.50    1.20
  -9 -12   3    2.40    1.10
  -9 -12   3    0.50    0.90
  -8 -12   3   47.90    2.70
  -8 -12   3   46.50    2.50
  -7 -12   3   51.59    2.70
  -7 -12   3   51.49    2.50
  -6 -12   3  127.89    4.40
  -6 -12   3  127.09    4.20
  -5 -12   3   10.60    1.40
  -5 -12   3   10.10    1.30
   4  12  -3   12.80    1.40
  -4 -12   3   11.50    1.50
   3  12  -3  388.56    9.80
  -3 -12   3  396.76   10.20
   2  12  -3   55.29    2.50
  -2 -12   3   53.89    2.70
   1  12  -3   57.29    2.60
  -1 -12   3   54.79    2.80
   0  12  -3  375.66    9.50
   0 -12   3  380.16   10.00
  -1  12  -3   64.49    2.90
   1 -12   3   71.19    3.20
   1 -12   3   65.59    2.60
  -2  12  -3    1.20    0.90
   2 -12   3    0.80    1.00
   2 -12   3    0.60    0.70
  -3  12  -3   33.00    2.20
   3 -12   3   31.80    2.30
   3 -12   3   30.50    2.00
  -4  12  -3    1.40    0.90
   4 -12   3    1.50    1.10
  -5  12  -3  133.59    4.80
  -6  12  -3   20.90    2.10
  -7  12  -3   27.00    2.50
  -8  12  -3    1.80    1.30
  -9  12  -3   21.80    2.40
 -10  12  -3    9.60    1.90
 -11  12  -3    0.30    1.30
 -15 -11   3    7.50    1.70
 -14 -11   3    0.00    1.00
 -14 -11   3    1.00    1.20
 -13 -11   3    1.60    1.00
 -13 -11   3    0.00    1.00
 -12 -11   3    5.90    1.30
 -12 -11   3    6.30    1.40
 -11 -11   3  135.89    4.90
 -11 -11   3  136.59    4.70
 -10 -11   3    1.50    1.00
 -10 -11   3    3.00    1.10
  -9 -11   3    7.50    1.30
  -9 -11   3    4.50    1.10
  -8 -11   3   95.69    3.60
  -8 -11   3   93.09    3.60
  -7 -11   3    7.90    1.20
  -7 -11   3    9.10    1.40
  -6 -11   3   96.09    3.60
  -6 -11   3   97.59    3.50
  -5 -11   3   84.19    3.10
  -5 -11   3   79.19    3.20
  -4 -11   3    0.90    0.70
   3  11  -3    3.80    0.90
  -3 -11   3    1.80    0.80
   2  11  -3   10.30    1.20
  -2 -11   3   12.30    1.40
   1  11  -3   25.80    1.70
  -1 -11   3   20.70    1.90
  -1 -11   3   22.90    1.30
   0  11  -3    2.90    0.90
   0 -11   3    2.50    1.00
   0 -11   3    2.40    0.70
  -1  11  -3  494.45   11.80
   1 -11   3  488.15   12.10
   1 -11   3  478.55   11.30
  -2  11  -3  660.63   15.30
   2 -11   3  648.34   15.00
   2 -11   3  655.73   15.60
  -3  11  -3   51.69    2.50
   3 -11   3   40.40    2.10
   3 -11   3   41.70    2.40
  -4  11  -3   42.60    2.40
   4 -11   3   41.90    2.50
  -5  11  -3    2.10    1.10
  -6  11  -3   95.99    3.90
  -7  11  -3    8.00    1.60
  -8  11  -3   -0.10    1.00
  -9  11  -3   23.90    2.50
 -10  11  -3  141.89    5.50
 -11  11  -3    0.50    1.30
 -12  11  -3    3.90    1.80
 -17 -10   3    3.20    1.50
 -16 -10   3    1.60    1.30
 -15 -10   3    1.10    1.20
 -14 -10   3   -0.90    1.10
 -14 -10   3    2.50    1.10
 -13 -10   3   18.80    1.90
 -13 -10   3   16.00    1.90
 -12 -10   3   23.40    2.00
 -12 -10   3   22.80    2.20
 -11 -10   3    4.30    1.10
 -11 -10   3    1.60    1.10
 -10 -10   3   26.50    1.90
 -10 -10   3   30.40    2.00
  -9 -10   3   67.39    3.00
  -9 -10   3   74.99    3.10
  -8 -10   3   26.40    1.90
  -8 -10   3   30.00    2.00
  -7 -10   3   26.40    1.80
  -7 -10   3   25.70    1.80
  -6 -10   3  353.06    8.80
  -6 -10   3  343.87    8.90
  -5 -10   3   24.20    1.60
  -5 -10   3   26.50    1.70
  -4 -10   3   72.59    2.80
  -4 -10   3   70.69    2.90
  -4 -10   3   74.59    2.90
   3  10  -3    5.30    0.90
  -3 -10   3    5.90    1.00
  -3 -10   3    6.40    0.70
   2  10  -3   12.10    1.20
  -2 -10   3   12.30    1.30
  -2 -10   3   13.10    1.00
   1  10  -3    0.20    0.60
  -1 -10   3   -0.30    0.40
  -1 -10   3   -1.50    0.50
   0  10  -3   18.00    1.50
   0 -10   3   14.80    1.50
   0 -10   3   19.00    1.20
  -1  10  -3  230.88    6.40
   1 -10   3  246.08    6.70
   1 -10   3  234.48    6.00
  -2  10  -3  769.72   17.70
   2 -10   3  753.12   17.90
   2 -10   3  801.72   17.40
  -3  10  -3  322.57    8.60
   3 -10   3  341.27    8.40
   3 -10   3  334.77    8.80
  -4  10  -3    5.40    1.20
   4 -10   3    5.60    1.20
  -5  10  -3  118.89    4.20
  -6  10  -3  206.38    6.30
  -7  10  -3    1.00    1.00
  -8  10  -3   42.40    2.70
  -9  10  -3    0.30    1.00
 -10  10  -3   87.49    4.10
 -11  10  -3   76.89    4.00
 -12  10  -3    4.00    1.70
 -13  10  -3    7.00    1.90
 -17  -9   3   11.60    2.10
 -16  -9   3    6.20    1.80
 -15  -9   3   70.19    3.90
 -14  -9   3    2.30    1.20
 -13  -9   3   83.49    3.90
 -13  -9   3   79.29    3.30
 -12  -9   3   28.80    2.20
 -12  -9   3   26.80    1.90
 -11  -9   3   21.40    1.90
 -11  -9   3   21.70    2.00
 -10  -9   3   20.60    1.80
 -10  -9   3   19.20    1.90
  -9  -9   3    2.40    0.90
  -9  -9   3    2.60    0.90
  -8  -9   3  100.09    3.50
  -8  -9   3   94.49    3.50
  -7  -9   3  140.59    4.40
  -7  -9   3  139.29    4.40
  -6  -9   3    0.30    0.60
  -6  -9   3    0.30    0.60
  -5  -9   3  426.36   10.60
  -5  -9   3  450.45   10.60
  -4  -9   3  240.58    5.60
  -4  -9   3  245.88    6.40
  -4  -9   3  234.68    6.40
  -3  -9   3    8.20    1.10
  -3  -9   3    7.70    0.70
  -3  -9   3    8.80    1.10
   2   9  -3   88.79    3.00
  -2  -9   3   80.69    3.00
  -2  -9   3   87.69    2.50
   1   9  -3   15.80    1.40
  -1  -9   3   16.70    1.50
  -1  -9   3   16.70    1.00
   0   9  -3    9.90    1.10
   0  -9   3    9.20    1.10
   0  -9   3    8.10    0.80
  -1   9  -3    1.40    0.70
   1  -9   3    2.30    0.80
   1  -9   3    0.80    0.50
  -2   9  -3  341.27    8.60
   2  -9   3  338.47    8.80
   2  -9   3  345.57    8.30
  -3   9  -3  304.87    7.90
   3  -9   3  309.67    8.10
   3  -9   3  304.77    7.60
  -4   9  -3  264.37    7.30
   4  -9   3  277.87    7.50
  -5   9  -3    1.70    0.90
  -6   9  -3  189.28    5.80
  -7   9  -3   66.29    3.10
  -8   9  -3    1.40    1.00
  -9   9  -3    0.60    1.00
 -10   9  -3    7.20    1.60
 -11   9  -3    8.50    1.70
 -12   9  -3   14.10    2.30
 -13   9  -3    0.00    1.40
 -18  -8   3   11.10    2.40
 -17  -8   3   33.20    3.30
 -16  -8   3    7.30    1.80
 -15  -8   3   38.60    2.90
 -14  -8   3   -0.20    1.20
 -13  -8   3    0.30    0.90
 -13  -8   3    1.80    1.20
 -12  -8   3   27.30    2.40
 -12  -8   3   25.60    1.90
 -11  -8   3   70.89    3.30
 -11  -8   3   75.39    3.00
 -10  -8   3   48.70    2.40
 -10  -8   3   52.39    2.70
  -9  -8   3    1.70    0.70
  -9  -8   3    0.60    0.80
  -8  -8   3   32.20    2.00
  -8  -8   3   31.00    1.80
  -7  -8   3    3.60    0.90
  -7  -8   3    3.50    0.80
  -6  -8   3    5.80    1.00
  -6  -8   3    3.60    0.80
  -5  -8   3  103.39    3.30
  -5  -8   3   96.29    3.30
  -4  -8   3  231.08    6.20
  -4  -8   3  241.58    6.20
  -3  -8   3 1168.88   25.90
  -3  -8   3 1193.28   25.90
  -3  -8   3 1209.78   25.10
  -2  -8   3    2.00    0.70
  -2  -8   3    2.40    0.50
   1   8  -3    1.50    0.60
  -1  -8   3    1.70    0.70
  -1  -8   3    1.40    0.40
   0   8  -3   77.19    2.70
   0  -8   3   72.49    2.80
   0  -8   3   78.49    2.30
  -1   8  -3   37.30    1.90
   1  -8   3   39.60    2.00
   1  -8   3   40.80    1.60
  -2   8  -3  269.87    7.00
   2  -8   3  270.77    7.10
   2  -8   3  263.87    6.60
  -3   8  -3   36.60    2.00
   3  -8   3   37.70    1.80
   3  -8   3   37.50    2.00
  -4   8  -3   63.99    2.70
   4  -8   3   68.79    2.80
  -5   8  -3 1026.60   23.00
  -6   8  -3  391.16   10.00
  -7   8  -3  110.99    4.10
  -8   8  -3   42.10    2.60
  -9   8  -3   67.29    3.30
 -10   8  -3   11.60    1.80
 -11   8  -3   37.00    3.00
 -12   8  -3    0.10    1.20
 -13   8  -3   10.20    1.90
 -14   8  -3    3.90    1.70
 -18  -7   3    7.30    1.90
 -17  -7   3    7.50    1.90
 -16  -7   3    9.10    1.90
 -15  -7   3   10.90    2.00
 -14  -7   3   47.10    3.20
 -13  -7   3   59.69    3.20
 -12  -7   3   26.50    2.40
 -12  -7   3   29.20    1.90
 -11  -7   3   89.59    3.70
 -11  -7   3   76.09    3.00
 -10  -7   3    1.40    1.00
 -10  -7   3    1.30    0.80
  -9  -7   3   21.90    1.50
  -9  -7   3   22.30    1.70
  -8  -7   3   42.80    2.10
  -8  -7   3   37.90    1.90
  -7  -7   3  128.89    4.10
  -7  -7   3  132.59    3.90
  -6  -7   3   18.00    1.30
  -6  -7   3   17.30    1.30
  -5  -7   3    5.40    0.90
  -5  -7   3    6.20    0.90
  -4  -7   3    0.90    0.60
  -4  -7   3    0.50    0.50
  -3  -7   3  296.87    7.40
  -3  -7   3  298.67    7.40
  -2  -7   3  279.97    7.10
  -2  -7   3  288.77    7.10
  -2  -7   3  295.37    6.40
   1   7  -3   86.89    2.90
  -1  -7   3   87.59    2.30
  -1  -7   3   85.79    2.90
   0   7  -3    2.50    0.70
   0  -7   3    1.70    0.60
   0  -7   3    1.20    0.40
  -1   7  -3    4.80    0.80
   1  -7   3    3.90    0.60
   1  -7   3    4.60    0.80
  -2   7  -3  162.18    4.70
   2  -7   3  163.98    4.80
   2  -7   3  173.58    4.40
  -3   7  -3   64.49    2.50
   3  -7   3   67.29    2.30
   3  -7   3   69.89    2.70
  -4   7  -3   -0.50    0.60
  -5   7  -3  198.88    5.70
  -6   7  -3  655.53   15.30
  -7   7  -3   99.39    3.80
  -8   7  -3    5.90    1.20
  -9   7  -3  242.68    7.20
 -10   7  -3  227.28    7.00
 -11   7  -3    0.50    1.10
 -12   7  -3    1.20    1.20
 -13   7  -3   -0.20    1.20
 -14   7  -3   39.00    3.40
 -15   7  -3   35.60    3.50
 -18  -6   3   -0.90    1.50
 -17  -6   3    0.70    1.40
 -16  -6   3   53.19    3.70
 -15  -6   3    4.60    1.60
 -14  -6   3   -0.20    1.00
 -13  -6   3    8.90    1.60
 -12  -6   3   69.99    3.30
 -12  -6   3   69.09    2.80
 -11  -6   3    1.70    1.00
 -11  -6   3    1.40    0.80
 -10  -6   3   47.20    2.60
 -10  -6   3   47.30    2.20
  -9  -6   3  152.48    4.40
  -9  -6   3  152.88    4.90
  -8  -6   3   22.30    1.40
  -8  -6   3   20.00    1.50
  -7  -6   3   70.49    2.50
  -7  -6   3   70.29    2.80
  -6  -6   3  102.49    3.10
  -6  -6   3   99.29    3.30
  -5  -6   3  169.98    4.70
  -5  -6   3  166.18    4.50
  -4  -6   3  297.07    7.20
  -4  -6   3  298.97    7.40
  -3  -6   3   47.40    1.90
  -3  -6   3   47.70    1.90
  -2  -6   3   32.00    1.50
  -2  -6   3   30.30    1.50
  -2  -6   3   35.20    1.00
  -1  -6   3   -0.20    0.40
  -1  -6   3    0.50    0.30
  -1  -6   3    0.50    0.40
   0   6  -3   46.90    1.90
   0  -6   3   45.90    1.90
   0  -6   3   47.80    1.50
  -1   6  -3  332.27    8.10
   1  -6   3  339.97    7.60
   1  -6   3  339.47    8.10
  -2   6  -3   27.50    1.50
   2  -6   3   26.50    1.50
   2  -6   3   27.70    1.20
  -3   6  -3   10.60    1.10
   3  -6   3   11.40    1.20
  -4   6  -3  267.07    6.90
  -5   6  -3   69.49    2.70
  -6   6  -3   38.00    2.10
  -7   6  -3  181.08    5.40
  -8   6  -3   25.00    2.10
  -9   6  -3   17.20    1.80
 -10   6  -3  359.46    9.70
 -11   6  -3  131.99    5.00
 -12   6  -3   22.90    2.40
 -13   6  -3    0.70    1.20
 -14   6  -3   21.80    2.60
 -15   6  -3    6.20    1.90
 -16   6  -3    3.40    1.70
 -18  -5   3    0.10    1.40
 -17  -5   3   13.70    2.30
 -16  -5   3   46.90    3.60
 -15  -5   3   73.49    4.00
 -14  -5   3   14.70    2.00
 -13  -5   3   49.30    3.10
 -12  -5   3    4.90    1.30
 -11  -5   3   63.39    2.60
 -11  -5   3   70.79    3.30
 -10  -5   3    0.00    0.60
 -10  -5   3    0.00    0.80
  -9  -5   3    0.80    0.80
  -9  -5   3    0.80    0.60
  -8  -5   3    7.10    0.90
  -8  -5   3    8.30    1.20
  -7  -5   3  145.39    4.40
  -7  -5   3  149.19    4.10
  -6  -5   3   71.19    2.60
  -6  -5   3   68.09    2.30
  -5  -5   3   12.20    1.10
  -5  -5   3   12.10    1.00
  -4  -5   3  113.99    3.20
  -4  -5   3  112.29    3.40
  -3  -5   3   21.20    1.10
  -3  -5   3   20.40    1.20
  -2  -5   3   29.60    1.40
  -2  -5   3   25.80    1.30
  -1  -5   3    4.20    0.30
  -1  -5   3    3.20    0.60
  -1  -5   3    3.40    0.60
   0   5  -3   26.70    1.30
   0  -5   3   26.00    1.30
   0  -5   3   28.00    0.90
  -1   5  -3  160.18    4.30
   1  -5   3  163.78    3.90
   1  -5   3  167.58    4.40
  -2   5  -3  180.18    4.80
   2  -5   3  182.68    4.80
  -3   5  -3   21.40    1.30
   3  -5   3   21.10    1.30
  -4   5  -3   23.60    1.40
  -5   5  -3   69.39    2.60
  -6   5  -3  796.22   18.00
  -7   5  -3   17.20    1.60
  -8   5  -3    2.10    0.90
  -9   5  -3   58.89    2.80
 -10   5  -3  129.89    4.60
 -11   5  -3  241.68    7.30
 -12   5  -3   34.20    2.50
 -13   5  -3   60.79    3.40
 -14   5  -3   -0.10    1.10
 -15   5  -3   98.59    4.80
 -16   5  -3    9.40    2.00
 -17  -4   3    7.10    1.90
 -16  -4   3   37.50    3.30
 -15  -4   3   63.89    3.70
 -14  -4   3   57.09    3.40
 -13  -4   3   33.30    2.60
 -12  -4   3  138.39    5.00
 -11  -4   3   29.70    2.20
 -10  -4   3   66.19    2.40
 -10  -4   3   69.19    3.10
  -9  -4   3    1.40    0.60
  -9  -4   3    2.00    0.90
  -8  -4   3   40.70    1.70
  -8  -4   3   38.70    2.10
  -7  -4   3   49.80    1.90
  -7  -4   3   48.30    2.20
  -6  -4   3   12.30    1.00
  -6  -4   3   10.90    1.10
  -5  -4   3   54.99    2.20
  -5  -4   3   60.19    2.00
  -4  -4   3   77.39    2.30
  -4  -4   3   73.09    2.50
  -3  -4   3  222.48    5.40
  -3  -4   3  222.58    5.60
  -2  -4   3  167.68    4.20
  -2  -4   3  167.68    4.40
  -1  -4   3   22.50    1.10
  -1  -4   3   23.50    1.20
   0  -4   3  269.07    5.80
   0  -4   3  269.87    6.40
   0  -4   3  262.07    6.40
  -1   4  -3  315.87    7.50
  -2   4  -3 1769.92   37.50
   2  -4   3 1769.32   37.50
  -3   4  -3  174.38    4.60
  -4   4  -3    0.80    0.50
  -5   4  -3  239.58    6.20
  -6   4  -3   48.50    2.10
  -7   4  -3  132.49    4.20
  -8   4  -3   21.80    1.60
  -9   4  -3   12.80    1.50
 -10   4  -3  227.88    6.70
 -11   4  -3   23.50    2.20
 -12   4  -3   10.60    1.70
 -13   4  -3  200.08    6.60
 -14   4  -3  171.28    6.20
 -15   4  -3   13.70    2.20
 -16   4  -3   29.10    3.00
 -17   4  -3   -0.60    1.50
 -17  -3   3    1.10    1.50
 -16  -3   3   17.10    2.50
 -15  -3   3   -0.10    1.40
 -14  -3   3   19.90    2.40
 -13  -3   3   71.39    3.60
 -12  -3   3   62.19    3.20
 -11  -3   3    2.40    1.00
 -10  -3   3   70.69    2.40
 -10  -3   3   68.59    3.10
  -9  -3   3    1.40    0.50
  -9  -3   3    1.00    0.80
  -8  -3   3   37.10    1.50
  -8  -3   3   36.90    2.00
  -7  -3   3    4.70    0.90
  -7  -3   3    5.20    0.70
  -6  -3   3  399.06    9.60
  -6  -3   3  395.36    8.90
  -5  -3   3    1.00    0.40
  -5  -3   3    0.90    0.50
  -4  -3   3  147.39    4.00
  -4  -3   3  138.19    3.60
  -3  -3   3  177.68    4.30
  -3  -3   3  174.28    4.60
  -2  -3   3 2221.28   47.70
  -2  -3   3 2281.27   47.60
  -1  -3   3  139.09    3.70
  -1  -3   3  140.89    3.60
   0  -3   3   81.69    2.40
  -1   3  -3  247.28    6.00
   1  -3   3  255.17    6.00
  -2   3  -3  232.08    5.70
   2  -3   3  237.28    5.70
  -3   3  -3   10.50    0.90
  -4   3  -3   24.80    1.30
  -5   3  -3    1.40    0.50
  -6   3  -3  135.69    4.00
  -7   3  -3  208.58    5.70
  -8   3  -3  252.87    6.80
  -9   3  -3    3.50    0.90
 -10   3  -3   70.79    3.00
 -11   3  -3   21.10    2.00
 -12   3  -3    4.90    1.20
 -13   3  -3   80.69    3.70
 -14   3  -3  299.47    8.90
 -15   3  -3  124.19    5.20
 -16   3  -3    0.40    1.30
 -17   3  -3    1.10    1.40
 -17  -2   3   -1.10    1.30
 -16  -2   3   -1.20    1.30
 -15  -2   3   16.60    2.30
 -14  -2   3   51.69    3.30
 -13  -2   3    3.40    1.40
 -12  -2   3  678.23   16.60
 -11  -2   3   76.79    3.50
 -10  -2   3   -0.50    0.70
  -9  -2   3   15.10    1.60
  -9  -2   3   14.50    1.00
  -8  -2   3   21.20    1.10
  -8  -2   3   22.20    1.60
  -7  -2   3  127.39    4.10
  -7  -2   3  132.19    3.40
  -6  -2   3  363.66    8.10
  -6  -2   3  362.66    8.80
  -5  -2   3    3.40    0.70
  -5  -2   3    4.10    0.50
  -4  -2   3  169.68    4.50
  -4  -2   3  166.08    4.00
  -3  -2   3   52.79    1.60
  -3  -2   3   51.09    1.90
  -2  -2   3 1502.25   30.70
  -2  -2   3 1391.06   30.40
  -1  -2   3    0.20    0.30
  -1  -2   3    0.50    0.40
   0  -2   3  378.06    8.50
   0  -2   3  375.96    8.40
   1  -2   3 2356.76   49.99
  -2   2  -3  530.35   11.70
  -3   2  -3  507.75   11.30
  -4   2  -3   44.70    1.70
  -5   2  -3    0.50    0.40
  -6   2  -3   -0.30    0.40
  -7   2  -3   34.30    1.70
  -8   2  -3   66.39    2.60
  -9   2  -3   95.39    3.40
 -10   2  -3  232.98    6.60
 -11   2  -3   36.30    2.20
 -12   2  -3   46.80    2.60
 -13   2  -3   40.40    2.60
 -14   2  -3   13.90    2.00
 -15   2  -3   29.20    2.70
 -16   2  -3   19.70    2.50
 -17   2  -3    2.60    1.70
 -18   2  -3   16.60    2.50
 -17  -1   3    1.80    1.50
 -16  -1   3   -1.00    1.40
 -15  -1   3   -1.50    1.10
 -14  -1   3    7.00    1.70
 -13  -1   3   10.10    1.70
 -12  -1   3   82.39    3.80
 -11  -1   3  392.06   10.50
 -10  -1   3  112.79    4.20
  -9  -1   3   21.40    1.90
  -9  -1   3   22.80    1.20
  -8  -1   3  179.18    5.30
  -8  -1   3  175.98    4.30
  -7  -1   3  353.36    7.90
  -7  -1   3  355.66    8.90
  -6  -1   3    0.40    0.50
  -6  -1   3    0.50    0.30
  -5  -1   3    0.60    0.50
  -5  -1   3    0.00    0.30
  -4  -1   3  154.08    4.20
  -4  -1   3  153.38    3.60
   3   1  -3   92.59    2.40
  -3  -1   3   92.79    2.80
  -3  -1   3   93.79    2.30
   2   1  -3  801.62   16.90
  -2  -1   3  806.02   17.40
  -2  -1   3  802.72   16.90
   1   1  -3  133.49    3.00
  -1  -1   3  130.59    3.10
  -1  -1   3  135.09    3.40
   0  -1   3  146.39    3.60
   0  -1   3  136.29    3.40
   1  -1   3  408.36    9.00
  -2   1  -3    1.10    0.40
  -3   1  -3   63.89    2.00
  -4   1  -3   13.90    0.90
  -5   1  -3   11.60    0.90
  -6   1  -3  263.67    6.50
  -7   1  -3   12.70    1.10
  -8   1  -3    5.90    0.90
  -9   1  -3  122.39    3.90
 -10   1  -3   39.60    2.10
 -11   1  -3   11.00    1.40
 -12   1  -3   12.20    1.50
 -12   1  -3   12.80    1.40
 -13   1  -3   26.00    2.30
 -14   1  -3    6.80    1.60
 -15   1  -3    6.10    1.50
 -16   1  -3    9.40    1.80
 -17   1  -3   28.80    2.90
 -18   1  -3   30.10    3.00
 -17   0   3    3.70    1.90
 -16   0   3    1.10    1.40
 -15   0   3    9.90    2.10
 -14   0   3    3.80    1.50
 -13   0   3   -0.40    1.00
 -12   0   3    1.30    1.10
 -11   0   3    1.10    1.00
 -10   0   3  163.38    5.40
  -9   0   3    3.50    0.90
  -8   0   3   -0.10    0.30
  -8   0   3    1.00    0.70
  -7   0   3  223.88    5.10
  -7   0   3  222.58    6.20
  -6   0   3   73.49    2.70
  -6   0   3   68.19    1.80
  -5   0   3    0.40    0.50
  -5   0   3    0.60    0.30
   4   0  -3   10.30    0.80
  -4   0   3   10.10    0.50
  -4   0   3    9.00    0.90
   3   0  -3   61.59    1.80
  -3   0   3   61.59    1.50
  -3   0   3   60.59    2.10
   2   0  -3  543.15   11.60
  -2   0   3  534.25   11.80
  -2   0   3  533.95   11.30
   1   0  -3 2740.13   56.59
  -1   0   3 2690.23   56.49
  -1   0   3 2678.93   57.29
   1   0   3  463.85   10.10
  -2   0  -3 1945.61   41.30
  -3   0  -3 1075.09   22.70
  -4   0  -3  454.85   10.10
  -5   0  -3  147.29    3.80
  -6   0  -3   23.30    1.20
  -7   0  -3    2.70    0.60
  -8   0  -3   23.80    1.40
  -9   0  -3   33.10    1.80
 -10   0  -3   58.39    2.50
 -11   0  -3   10.90    1.20
 -11   0  -3   12.00    1.40
 -12   0  -3    4.70    1.10
 -12   0  -3    5.70    1.00
 -13   0  -3    2.20    0.90
 -13   0  -3    3.50    1.20
 -14   0  -3  107.89    4.30
 -15   0  -3   49.50    3.00
 -16   0  -3   -0.70    1.00
 -17   0  -3   20.70    2.40
 -18   0  -3  117.09    5.30
 -16   1   3   14.60    2.40
 -15   1   3    7.50    2.00
 -14   1   3    4.50    1.60
 -13   1   3   42.80    3.00
 -12   1   3    0.50    1.00
 -11   1   3   14.80    1.90
 -10   1   3    0.90    0.90
  -9   1   3   22.10    1.90
  -8   1   3  735.73   17.10
  -7   1   3    4.90    1.00
  -7   1   3    3.40    0.40
  -6   1   3    5.20    0.40
  -6   1   3    2.20    0.70
   5  -1  -3   91.39    2.90
  -5   1   3   99.19    3.10
  -5   1   3   95.19    2.20
   4  -1  -3    8.80    0.80
  -4   1   3   10.60    1.00
   3  -1  -3   32.60    1.30
  -3   1   3   29.70    1.40
   2  -1  -3  524.25   11.00
  -2   1   3  478.95   11.10
   1  -1  -3  578.24   12.20
  -1   1   3  555.54   12.30
   0  -1  -3  308.57    6.80
   0   1   3  301.57    6.80
   1   1   3   23.70    0.90
  -2  -1  -3  258.47    5.70
  -3  -1  -3   70.29    1.90
  -4  -1  -3  897.11   19.10
  -5  -1  -3 1316.27   27.80
  -6  -1  -3  251.77    6.00
  -7  -1  -3   26.30    1.30
  -8  -1  -3   69.49    2.40
  -9  -1  -3   18.40    1.20
  -9  -1  -3   18.00    1.30
 -10  -1  -3  143.89    4.30
 -10  -1  -3  152.58    4.50
 -11  -1  -3  138.79    4.40
 -11  -1  -3  140.89    4.30
 -12  -1  -3    5.70    1.20
 -12  -1  -3    5.30    1.00
 -13  -1  -3    3.40    0.90
 -13  -1  -3    2.80    1.00
 -14  -1  -3    8.40    1.40
 -15  -1  -3  158.68    5.60
 -16  -1  -3   -1.10    1.00
 -17  -1  -3   35.30    3.00
 -18  -1  -3    2.50    1.60
 -19  -1  -3   39.80    3.50
 -16   2   3    0.30    1.50
 -15   2   3   33.10    3.20
 -14   2   3    5.40    1.70
 -13   2   3   -0.60    1.00
 -12   2   3   87.39    4.10
 -11   2   3   15.40    1.90
 -10   2   3   96.79    4.00
  -9   2   3    3.70    1.10
  -8   2   3   80.99    3.30
  -7   2   3  547.65   13.30
  -7   2   3  574.14   12.10
   6  -2  -3  179.18    4.90
  -6   2   3  175.68    3.90
  -6   2   3  168.18    5.00
   5  -2  -3    5.40    0.80
  -5   2   3    7.40    1.00
   4  -2  -3    0.30    0.40
  -4   2   3    1.40    0.50
   3  -2  -3 1621.14   34.20
  -3   2   3 1616.24   34.30
   2  -2  -3 1038.10   22.40
  -2   2   3 1058.79   22.40
   1  -2  -3 1415.36   29.20
  -1   2   3 1355.56   29.20
   0  -2  -3  148.19    3.60
   0  -2  -3  144.89    3.30
   0   2   3  144.09    3.50
  -1  -2  -3 1732.33   36.50
   1   2   3 1742.43   36.60
  -2  -2  -3  345.37    7.70
   2   2   3  350.66    7.50
  -3  -2  -3  869.71   18.50
  -3  -2  -3  889.31   18.70
  -4  -2  -3  109.79    3.00
  -4  -2  -3  110.89    2.70
  -5  -2  -3 1732.83   36.50
  -5  -2  -3 1750.42   36.70
  -6  -2  -3   58.19    1.80
  -6  -2  -3   54.49    1.90
  -7  -2  -3  181.18    4.80
  -7  -2  -3  184.98    4.70
  -8  -2  -3   15.40    1.10
  -8  -2  -3   13.00    1.10
  -9  -2  -3    0.00    0.50
  -9  -2  -3    0.50    0.50
 -10  -2  -3   29.10    1.70
 -10  -2  -3   29.80    1.70
 -11  -2  -3   26.30    1.60
 -11  -2  -3   25.60    1.80
 -12  -2  -3   44.20    2.30
 -12  -2  -3   44.40    2.20
 -13  -2  -3   81.49    3.40
 -13  -2  -3   81.89    3.10
 -14  -2  -3  103.09    4.00
 -14  -2  -3  104.49    3.70
 -15  -2  -3   -0.50    1.00
 -16  -2  -3   13.20    1.90
 -17  -2  -3   37.00    3.10
 -18  -2  -3    3.40    1.50
 -19  -2  -3    7.20    2.00
 -16   3   3    5.70    2.10
 -15   3   3    7.30    1.90
 -14   3   3   25.00    2.80
 -13   3   3    1.50    1.30
 -12   3   3   32.40    2.80
 -11   3   3    6.60    1.50
 -10   3   3  209.68    6.60
  -9   3   3   49.30    2.70
  -8   3   3    3.80    1.10
  -7   3   3   53.99    2.50
   6  -3  -3  402.86    9.60
  -6   3   3  396.76    9.80
  -6   3   3  391.26    8.40
   5  -3  -3   18.90    1.30
  -5   3   3   19.80    1.40
  -5   3   3   18.50    0.60
   4  -3  -3  106.49    3.30
  -4   3   3  110.69    3.40
   3  -3  -3  338.27    7.90
  -3   3   3  334.17    7.90
   2  -3  -3  810.72   17.70
  -2   3   3  818.32   17.60
   1  -3  -3  951.00   19.30
   1  -3  -3  912.51   19.80
  -1   3   3  907.61   19.70
   0  -3  -3  420.66    8.70
   0   3   3  398.26    8.90
  -1  -3  -3   46.60    1.30
   1   3   3   44.40    1.30
  -2  -3  -3  707.83   15.10
  -3  -3  -3    1.10    0.20
  -3  -3  -3    1.20    0.30
  -4  -3  -3    1.50    0.30
  -4  -3  -3    1.40    0.40
  -5  -3  -3   17.60    1.00
  -5  -3  -3   17.30    0.80
  -6  -3  -3  224.28    5.20
  -6  -3  -3  219.18    5.50
  -7  -3  -3  196.98    5.20
  -7  -3  -3  214.38    5.10
  -8  -3  -3    2.40    0.60
  -8  -3  -3    1.90    0.50
  -9  -3  -3   94.09    3.10
  -9  -3  -3   96.89    3.00
 -10  -3  -3   21.30    1.40
 -10  -3  -3   19.40    1.40
 -11  -3  -3    3.20    0.80
 -11  -3  -3    2.70    0.80
 -12  -3  -3   15.70    1.50
 -12  -3  -3   16.20    1.50
 -13  -3  -3   50.69    2.40
 -13  -3  -3   49.50    2.60
 -14  -3  -3    3.70    1.10
 -14  -3  -3    2.60    0.90
 -15  -3  -3    6.80    1.50
 -15  -3  -3    8.80    1.30
 -16  -3  -3   13.20    1.80
 -17  -3  -3   63.69    3.60
 -18  -3  -3  129.99    5.50
 -19  -3  -3    8.10    2.10
 -15   4   3    5.30    1.80
 -14   4   3   22.20    2.80
 -13   4   3    0.00    1.20
 -12   4   3    9.30    1.80
 -11   4   3   47.10    3.00
 -10   4   3   71.89    3.50
  -9   4   3    3.30    1.10
  -8   4   3    8.30    1.30
   7  -4  -3   15.10    1.50
  -7   4   3   12.90    1.40
   6  -4  -3  254.97    6.80
  -6   4   3  257.37    6.90
   5  -4  -3   87.29    3.00
  -5   4   3   88.99    3.10
   4  -4  -3   63.49    2.40
  -4   4   3   64.99    2.40
   3  -4  -3  119.29    3.50
  -3   4   3  114.59    3.40
   2  -4  -3  525.95   10.90
   2  -4  -3  506.85   11.60
  -2   4   3  508.05   11.50
   1  -4  -3   74.19    2.40
   1  -4  -3   75.39    1.90
  -1   4   3   73.09    2.20
   0  -4  -3 1441.56   29.70
   0  -4  -3 1363.76   29.80
   0   4   3 1404.46   29.70
  -1  -4  -3  414.16    9.30
  -1  -4  -3  410.76    8.90
   1   4   3  405.46    8.80
  -2  -4  -3  754.32   16.10
  -3  -4  -3  652.33   14.10
  -4  -4  -3    0.50    0.40
  -4  -4  -3    0.70    0.20
  -5  -4  -3 1162.98   24.20
  -5  -4  -3 1123.99   24.40
  -6  -4  -3  365.46    8.00
  -6  -4  -3  348.97    8.30
  -7  -4  -3    2.60    0.50
  -7  -4  -3    1.90    0.50
  -8  -4  -3   34.40    1.60
  -8  -4  -3   35.20    1.50
  -9  -4  -3    2.70    0.60
  -9  -4  -3    4.10    0.80
 -10  -4  -3    3.70    0.70
 -10  -4  -3    4.50    0.80
 -11  -4  -3  132.99    4.10
 -11  -4  -3  128.39    4.00
 -12  -4  -3  121.79    3.90
 -12  -4  -3  126.39    4.10
 -13  -4  -3   59.39    2.60
 -13  -4  -3   51.69    2.60
 -14  -4  -3   72.49    3.00
 -14  -4  -3   73.89    3.20
 -15  -4  -3    9.70    1.40
 -15  -4  -3    7.40    1.40
 -16  -4  -3    2.40    1.20
 -17  -4  -3   49.50    3.10
 -18  -4  -3   57.09    3.50
 -19  -4  -3   64.19    3.80
 -15   5   3    3.10    1.70
 -14   5   3   15.90    2.40
 -13   5   3   -0.80    1.20
 -12   5   3    2.80    1.40
 -11   5   3    0.90    1.10
 -10   5   3   31.70    2.40
  -9   5   3   22.00    2.10
  -8   5   3   99.39    3.90
   7  -5  -3  107.09    3.80
  -7   5   3  106.09    3.90
   6  -5  -3   33.40    1.90
  -6   5   3   34.20    2.00
   5  -5  -3   59.69    2.50
  -5   5   3   60.29    2.50
   4  -5  -3   21.80    1.40
  -4   5   3   24.90    1.50
   3  -5  -3    1.80    0.30
   3  -5  -3    2.10    0.70
  -3   5   3    2.00    0.60
   2  -5  -3    6.90    0.90
   2  -5  -3    6.80    0.50
  -2   5   3    6.70    0.70
   1  -5  -3   11.20    0.60
   1  -5  -3   11.80    1.00
  -1   5   3   10.80    0.80
   0  -5  -3  395.26    8.60
   0  -5  -3  388.86    9.10
   0   5   3  391.26    8.70
  -1  -5  -3 1960.30   42.30
  -1  -5  -3 2035.20   42.60
   1   5   3 2023.30   42.10
  -2  -5  -3   23.20    1.00
   2   5   3   23.60    0.70
  -3  -5  -3 1365.46   28.80
  -4  -5  -3   83.69    2.40
  -5  -5  -3   11.50    0.50
  -5  -5  -3   12.80    0.90
  -6  -5  -3    1.30    0.50
  -6  -5  -3    2.10    0.40
  -7  -5  -3   16.80    1.10
  -7  -5  -3   18.40    0.90
  -8  -5  -3   33.50    1.40
  -8  -5  -3   30.40    1.60
  -9  -5  -3  654.03   14.80
  -9  -5  -3  655.43   14.60
 -10  -5  -3  332.07    8.40
 -10  -5  -3  349.07    8.30
 -11  -5  -3    6.00    0.90
 -11  -5  -3    7.90    1.10
 -12  -5  -3   32.90    1.90
 -12  -5  -3   33.30    1.90
 -13  -5  -3   23.80    1.80
 -13  -5  -3   24.50    1.90
 -14  -5  -3   11.10    1.40
 -14  -5  -3   10.90    1.40
 -15  -5  -3    7.10    1.50
 -15  -5  -3    7.10    1.30
 -16  -5  -3    1.70    1.10
 -16  -5  -3    2.20    1.00
 -17  -5  -3    7.60    1.70
 -18  -5  -3    1.80    1.20
 -19  -5  -3    0.50    1.20
 -20  -5  -3    1.80    1.60
 -14   6   3   17.40    2.60
 -13   6   3    4.40    1.70
 -12   6   3    0.20    1.20
 -11   6   3    1.50    1.30
 -10   6   3    0.50    1.00
  -9   6   3    4.10    1.20
   8  -6  -3   85.19    3.60
  -8   6   3   92.99    3.80
   7  -6  -3  239.68    6.90
  -7   6   3  250.67    7.00
   6  -6  -3  268.97    7.30
  -6   6   3  272.57    7.40
   5  -6  -3    4.60    0.90
  -5   6   3    4.20    0.90
   4  -6  -3   44.30    2.10
  -4   6   3   41.80    2.00
   3  -6  -3   98.49    3.30
   3  -6  -3  105.39    2.70
  -3   6   3  104.79    3.30
   2  -6  -3   21.20    1.00
   2  -6  -3   19.40    1.30
  -2   6   3   22.00    1.20
   1  -6  -3   11.40    1.10
   1  -6  -3   12.80    0.70
  -1   6   3   11.70    0.90
   0  -6  -3  122.89    3.60
   0  -6  -3  120.69    3.10
   0   6   3  120.99    3.10
  -1  -6  -3  798.52   17.60
  -1  -6  -3  785.82   17.10
   1   6   3  814.92   17.00
  -2  -6  -3  175.98    4.30
   2   6   3  178.48    3.90
  -3  -6  -3   49.50    1.70
  -4  -6  -3   90.29    2.60
  -5  -6  -3    4.90    0.70
  -5  -6  -3    4.70    0.30
  -6  -6  -3   33.80    1.50
  -6  -6  -3   35.60    1.10
  -7  -6  -3  154.08    3.80
  -7  -6  -3  154.98    4.30
  -8  -6  -3   20.10    1.10
  -8  -6  -3   20.50    1.30
  -9  -6  -3  100.09    3.00
  -9  -6  -3   99.19    3.20
 -10  -6  -3   50.59    2.20
 -10  -6  -3   59.19    2.20
 -11  -6  -3   89.79    3.10
 -11  -6  -3   87.09    3.10
 -12  -6  -3    4.30    0.90
 -12  -6  -3    3.20    0.90
 -13  -6  -3   21.80    1.60
 -13  -6  -3   23.80    1.80
 -14  -6  -3   28.50    2.00
 -14  -6  -3   28.10    1.90
 -15  -6  -3   -1.10    0.90
 -15  -6  -3    0.20    0.80
 -16  -6  -3    5.40    1.20
 -16  -6  -3    5.30    1.40
 -17  -6  -3    6.60    1.60
 -18  -6  -3   37.40    2.80
 -19  -6  -3    0.80    1.50
 -20  -6  -3    1.80    1.40
 -14   7   3   13.40    2.40
 -13   7   3   11.00    2.20
 -12   7   3   -0.10    1.20
 -11   7   3   -0.10    1.10
 -10   7   3    5.80    1.50
  -9   7   3   -0.80    1.00
   8  -7  -3    9.30    1.40
  -8   7   3    8.20    1.50
   7  -7  -3   43.90    2.50
  -7   7   3   49.10    2.60
   6  -7  -3  127.59    4.40
  -6   7   3  135.19    4.40
   5  -7  -3   75.19    3.10
  -5   7   3   75.09    3.00
   4  -7  -3    4.20    0.60
   4  -7  -3    2.80    0.80
  -4   7   3    3.40    0.80
   3  -7  -3  127.09    3.30
   3  -7  -3  122.79    3.90
  -3   7   3  125.79    3.80
   2  -7  -3   40.00    1.50
   2  -7  -3   36.80    1.90
  -2   7   3   40.90    1.80
   1  -7  -3    0.00    0.50
   1  -7  -3    0.20    0.40
  -1   7   3   -0.10    0.40
   0  -7  -3   -0.60    0.30
   0  -7  -3    0.20    0.50
   0   7   3    0.50    0.40
  -1  -7  -3  127.39    3.80
  -1  -7  -3  132.09    3.40
   1   7   3  128.69    3.20
  -2  -7  -3  171.48    4.60
  -2  -7  -3  167.58    4.30
   2   7   3  168.08    3.90
  -3  -7  -3  203.48    5.00
   3   7   3  199.98    4.50
  -4  -7  -3  215.18    5.40
  -5  -7  -3    8.40    0.90
  -6  -7  -3  554.94   11.70
  -6  -7  -3  536.55   12.40
  -7  -7  -3    9.50    0.70
  -7  -7  -3    8.90    1.00
  -8  -7  -3    6.60    0.90
  -8  -7  -3    8.60    0.70
  -9  -7  -3  195.08    4.90
  -9  -7  -3  193.18    5.30
 -10  -7  -3   48.60    2.20
 -10  -7  -3   47.20    2.00
 -11  -7  -3   14.70    1.30
 -11  -7  -3   15.80    1.50
 -12  -7  -3  192.18    5.40
 -12  -7  -3  192.38    5.50
 -13  -7  -3    8.50    1.30
 -13  -7  -3    8.10    1.20
 -14  -7  -3    6.00    1.20
 -14  -7  -3    8.30    1.30
 -15  -7  -3   47.20    2.50
 -15  -7  -3   39.60    2.50
 -16  -7  -3   14.60    1.80
 -16  -7  -3   12.20    1.60
 -17  -7  -3    6.10    1.60
 -17  -7  -3    7.20    1.40
 -18  -7  -3    3.70    1.50
 -19  -7  -3    4.00    1.60
 -20  -7  -3   -0.40    1.40
 -13   8   3    1.40    1.60
 -12   8   3   87.89    4.50
 -11   8   3   87.79    4.30
 -10   8   3   -0.70    1.10
  -9   8   3    6.50    1.50
   8  -8  -3   -0.10    0.90
  -8   8   3   -0.70    0.90
   7  -8  -3   15.20    1.80
  -7   8   3   16.80    1.90
   6  -8  -3   16.80    1.70
  -6   8   3   14.40    1.60
   5  -8  -3   24.30    1.80
  -5   8   3   29.90    2.00
   4  -8  -3   16.10    1.60
   4  -8  -3   16.50    1.10
  -4   8   3   19.20    1.60
   3  -8  -3  121.79    3.40
   3  -8  -3  118.79    4.00
  -3   8   3  120.99    3.80
   2  -8  -3   77.39    2.90
   2  -8  -3   78.39    2.40
  -2   8   3   77.49    2.70
   1  -8  -3    0.50    0.40
   1  -8  -3    0.10    0.60
  -1   8   3    0.00    0.50
   0  -8  -3   19.70    1.10
   0  -8  -3   21.60    1.40
   0   8   3   19.40    1.10
  -1  -8  -3   19.30    1.10
  -1  -8  -3   19.90    1.40
   1   8   3   20.00    1.00
  -2  -8  -3   69.99    2.60
  -2  -8  -3   66.69    2.20
   2   8   3   69.89    1.90
  -3  -8  -3    0.80    0.50
   3   8   3    1.30    0.20
  -4  -8  -3    2.60    0.60
  -5  -8  -3  492.95   11.30
  -6  -8  -3    7.20    0.50
  -6  -8  -3    7.80    0.90
  -7  -8  -3   11.40    1.10
  -7  -8  -3   10.60    0.70
  -8  -8  -3    9.00    0.70
  -8  -8  -3   10.50    1.20
  -9  -8  -3    1.00    0.50
  -9  -8  -3    0.10    0.60
 -10  -8  -3   21.70    1.50
 -10  -8  -3   19.70    1.30
 -11  -8  -3   79.19    2.80
 -11  -8  -3   75.29    3.00
 -12  -8  -3   59.99    2.70
 -12  -8  -3   60.69    2.50
 -13  -8  -3   63.09    2.80
 -13  -8  -3   61.79    2.70
 -14  -8  -3   10.60    1.50
 -14  -8  -3   12.50    1.50
 -15  -8  -3   68.59    3.20
 -15  -8  -3   74.79    3.30
 -16  -8  -3   44.90    2.50
 -16  -8  -3   53.19    2.90
 -17  -8  -3    8.00    1.40
 -17  -8  -3    8.80    1.60
 -18  -8  -3    6.90    1.60
 -19  -8  -3   11.20    2.00
 -12   9   3   16.40    2.40
 -11   9   3  164.28    6.30
 -10   9   3  109.09    4.80
  -9   9   3    0.00    1.10
   8  -9  -3    9.90    1.60
  -8   9   3   14.40    1.90
   7  -9  -3    5.60    1.40
  -7   9   3    4.50    1.30
   6  -9  -3    2.60    1.00
  -6   9   3    1.20    0.90
   5  -9  -3   28.40    2.30
  -5   9   3   25.00    1.80
   4  -9  -3   22.60    1.90
  -4   9   3   23.10    1.70
   3  -9  -3  257.77    7.10
   3  -9  -3  261.47    6.50
  -3   9   3  264.87    6.90
   2  -9  -3  615.94   14.40
   2  -9  -3  610.84   13.70
  -2   9   3  608.14   13.90
   1  -9  -3   36.50    2.00
   1  -9  -3   42.80    1.70
  -1   9   3   39.80    1.80
   0  -9  -3   73.29    2.40
   0  -9  -3   71.69    2.80
   0   9   3   71.29    2.30
  -1  -9  -3  631.54   14.30
  -1  -9  -3  610.44   13.80
   1   9   3  621.04   13.60
  -2  -9  -3  131.69    3.70
  -2  -9  -3  133.39    4.10
   2   9   3  131.79    3.30
  -3  -9  -3   17.70    1.30
  -3  -9  -3   15.60    1.10
   3   9   3   15.70    0.70
  -4  -9  -3    0.20    0.60
   4   9   3    0.10    0.20
  -5  -9  -3  377.36    9.00
   5   9   3  376.96    8.00
  -6  -9  -3  213.78    5.70
  -6  -9  -3  220.28    4.80
  -7  -9  -3   76.49    2.10
  -7  -9  -3   76.09    2.70
  -8  -9  -3    5.00    0.90
  -8  -9  -3    5.00    0.60
  -9  -9  -3  213.78    5.90
  -9  -9  -3  215.58    5.30
 -10  -9  -3   42.20    1.70
 -10  -9  -3   41.30    2.10
 -11  -9  -3   64.19    2.40
 -11  -9  -3   62.39    2.70
 -12  -9  -3   66.19    2.80
 -12  -9  -3   65.79    2.60
 -13  -9  -3    0.20    0.90
 -13  -9  -3    1.10    0.70
 -14  -9  -3   10.70    1.50
 -14  -9  -3    7.00    1.20
 -15  -9  -3   40.10    2.40
 -15  -9  -3   37.00    2.40
 -16  -9  -3    3.30    1.40
 -16  -9  -3    5.90    1.30
 -17  -9  -3   79.79    3.50
 -18  -9  -3   48.60    2.90
 -11  10   3   46.70    3.50
 -10  10   3   89.49    4.50
  -9  10   3   21.60    2.40
   8 -10  -3   53.89    3.20
  -8  10   3   53.19    3.10
   7 -10  -3   25.70    2.40
  -7  10   3   29.90    2.20
   6 -10  -3    6.30    1.40
  -6  10   3    6.90    1.30
   5 -10  -3   -0.30    0.80
  -5  10   3    0.20    0.80
   4 -10  -3   95.79    3.80
  -4  10   3   98.79    3.60
   3 -10  -3  187.98    5.10
   3 -10  -3  189.58    5.70
  -3  10   3  184.68    5.40
   2 -10  -3  103.99    3.70
   2 -10  -3  104.89    3.30
  -2  10   3  100.49    3.40
   1 -10  -3    5.70    0.80
   1 -10  -3    4.20    1.00
  -1  10   3    4.70    0.80
   0 -10  -3    5.50    1.10
   0 -10  -3    5.90    0.80
   0  10   3    3.70    0.70
  -1 -10  -3   36.70    1.90
  -1 -10  -3   37.30    1.70
   1  10   3   33.80    1.40
  -2 -10  -3  480.55   11.40
  -2 -10  -3  471.45   11.00
   2  10   3  469.95   10.40
  -3 -10  -3  188.78    5.30
  -3 -10  -3  183.18    5.00
   3  10   3  188.48    4.40
  -4 -10  -3  191.98    5.20
   4  10   3  197.38    4.40
  -5 -10  -3  214.48    5.70
   5  10   3  216.08    4.70
  -6 -10  -3    9.80    1.10
   6  10   3    9.40    0.60
  -7 -10  -3    6.60    1.00
  -7 -10  -3    5.30    0.60
  -8 -10  -3  119.89    3.40
  -8 -10  -3  118.09    3.90
  -9 -10  -3   14.10    1.40
 -10 -10  -3  412.06   10.20
 -11 -10  -3   30.90    1.90
 -12 -10  -3    4.70    1.10
 -13 -10  -3   41.90    2.40
 -14 -10  -3    5.20    1.30
 -15 -10  -3    6.50    1.30
 -16 -10  -3   54.19    2.80
 -17 -10  -3   34.80    2.40
 -18 -10  -3    1.80    1.20
 -11  11   3   10.70    2.20
 -10  11   3    3.70    1.60
  -9  11   3    6.00    1.60
   8 -11  -3  194.88    6.70
  -8  11   3  200.88    6.60
   7 -11  -3   -1.20    1.00
  -7  11   3    0.50    1.00
   6 -11  -3    1.40    1.00
  -6  11   3   -0.80    0.80
   5 -11  -3   24.10    2.20
  -5  11   3   24.90    1.90
   4 -11  -3    2.30    1.00
  -4  11   3    3.40    1.10
   3 -11  -3  148.49    4.90
  -3  11   3  139.39    4.50
   2 -11  -3   23.20    2.00
   2 -11  -3   22.30    1.50
  -2  11   3   22.00    1.60
   1 -11  -3   32.00    2.00
   1 -11  -3   37.30    1.80
  -1  11   3   32.90    1.80
   0 -11  -3   79.59    3.20
   0 -11  -3   82.39    2.80
   0  11   3   83.09    2.80
  -1 -11  -3    1.40    0.60
  -1 -11  -3    0.00    0.70
   1  11   3    1.40    0.50
  -2 -11  -3   42.60    2.00
  -2 -11  -3   46.40    2.30
   2  11   3   41.70    1.60
  -3 -11  -3  260.77    7.00
  -3 -11  -3  264.77    6.80
   3  11   3  261.87    6.30
  -4 -11  -3    2.80    0.90
  -4 -11  -3    4.30    0.90
  -5 -11  -3  102.89    3.40
  -6 -11  -3   17.20    1.50
  -7 -11  -3  190.78    5.40
  -8 -11  -3    1.10    0.80
  -9 -11  -3   20.90    1.80
 -10 -11  -3   20.10    1.80
 -11 -11  -3   92.99    3.50
 -12 -11  -3   34.90    2.20
 -13 -11  -3   43.50    2.50
 -14 -11  -3   33.20    2.30
 -15 -11  -3   32.50    2.30
 -16 -11  -3    0.20    1.00
 -17 -11  -3    5.50    1.40
 -18 -11  -3   -1.40    1.10
 -19 -11  -3   -1.20    1.10
 -10  12   3    8.80    1.90
  -9  12   3   -1.60    1.20
   8 -12  -3   79.09    4.10
  -8  12   3   86.59    4.20
   7 -12  -3  346.17    9.90
  -7  12   3  341.77    9.60
   6 -12  -3   16.10    2.00
  -6  12   3   18.70    2.00
   5 -12  -3   11.70    1.70
  -5  12   3   14.20    1.70
   4 -12  -3   15.30    1.80
  -4  12   3   14.80    1.60
   3 -12  -3    8.00    1.40
  -3  12   3    9.70    1.30
   2 -12  -3    3.40    1.00
   2 -12  -3    2.80    0.90
  -2  12   3    2.20    0.90
   1 -12  -3  148.19    4.40
   1 -12  -3  141.89    4.80
  -1  12   3  145.39    4.30
   0 -12  -3   15.30    1.60
   0 -12  -3   17.40    1.50
   0  12   3   13.80    1.30
  -1 -12  -3   89.59    3.10
  -1 -12  -3   86.49    3.40
  -2 -12  -3  278.87    7.60
  -2 -12  -3  287.27    7.30
  -3 -12  -3   45.50    2.10
  -3 -12  -3   41.20    2.30
  -4 -12  -3    4.40    1.00
  -4 -12  -3    7.00    1.10
  -5 -12  -3  503.45   12.00
  -6 -12  -3  113.99    3.90
  -7 -12  -3   12.90    1.40
  -8 -12  -3   34.70    2.10
  -9 -12  -3   83.69    3.30
 -10 -12  -3   10.50    1.50
 -11 -12  -3    3.20    1.10
 -12 -12  -3    1.40    1.00
 -13 -12  -3   40.50    2.50
 -14 -12  -3   60.89    3.20
 -15 -12  -3    8.40    1.50
 -16 -12  -3    1.20    1.30
 -17 -12  -3    4.90    1.40
 -18 -12  -3    4.30    1.40
 -19 -12  -3   31.00    2.70
  -9  13   3    0.20    1.40
   8 -13  -3   10.80    2.00
  -8  13   3   11.80    1.90
   7 -13  -3   66.49    3.60
  -7  13   3   56.39    3.30
   6 -13  -3  169.48    6.10
  -6  13   3  169.28    5.80
   5 -13  -3    2.70    1.30
  -5  13   3    2.30    1.10
   4 -13  -3    9.90    1.60
  -4  13   3    7.10    1.50
   3 -13  -3   65.59    3.20
   2 -13  -3   11.50    1.60
   1 -13  -3    5.80    1.10
   1 -13  -3    7.30    1.30
   0 -13  -3    1.30    0.70
   0 -13  -3    0.10    0.90
  -1 -13  -3   -0.80    0.60
  -1 -13  -3    0.90    0.80
  -2 -13  -3  165.68    5.20
  -2 -13  -3  156.38    4.80
  -3 -13  -3   60.79    2.90
  -3 -13  -3   63.69    2.60
  -4 -13  -3    1.60    0.90
  -4 -13  -3    0.00    0.80
  -5 -13  -3  324.37    8.60
  -5 -13  -3  331.57    8.50
  -6 -13  -3  239.48    6.60
  -7 -13  -3   50.39    2.50
  -8 -13  -3    4.20    1.20
  -9 -13  -3   26.40    2.00
 -10 -13  -3   34.40    2.20
 -11 -13  -3    3.90    1.20
 -12 -13  -3   83.69    3.60
 -13 -13  -3   20.50    2.10
 -14 -13  -3  194.88    6.20
 -15 -13  -3   29.40    2.60
 -16 -13  -3    2.00    1.40
 -17 -13  -3    2.00    1.20
 -18 -13  -3    5.80    1.70
 -19 -13  -3   -0.30    1.40
   7 -14  -3   13.10    2.00
   6 -14  -3    9.80    1.90
   5 -14  -3    1.60    1.40
   4 -14  -3    4.20    1.40
   3 -14  -3    8.30    1.50
   2 -14  -3    2.70    1.10
   1 -14  -3    0.70    0.80
   1 -14  -3    0.10    0.90
   0 -14  -3   40.20    2.30
   0 -14  -3   39.90    2.40
  -1 -14  -3   81.49    3.50
  -1 -14  -3   81.59    3.20
  -2 -14  -3   66.99    2.90
  -2 -14  -3   67.29    3.10
  -3 -14  -3   -0.10    0.90
  -3 -14  -3    0.00    0.80
  -4 -14  -3    2.80    1.00
  -4 -14  -3    3.40    0.90
  -5 -14  -3  111.39    3.90
  -5 -14  -3  107.39    4.00
  -6 -14  -3  195.78    5.80
  -6 -14  -3  188.98    5.80
  -7 -14  -3  213.78    6.30
  -8 -14  -3  106.59    4.00
  -9 -14  -3    0.30    0.90
 -10 -14  -3  149.79    5.10
 -11 -14  -3   -0.70    0.90
 -12 -14  -3    9.30    1.60
 -13 -14  -3    0.70    1.20
 -14 -14  -3   89.89    3.90
 -15 -14  -3    7.70    1.70
 -16 -14  -3    0.00    1.30
 -17 -14  -3    2.70    1.50
 -18 -14  -3    8.20    1.70
 -19 -14  -3  129.89    5.40
   7 -15  -3   53.79    3.50
   6 -15  -3   21.80    2.50
   5 -15  -3    9.00    1.70
   4 -15  -3   54.49    3.30
   3 -15  -3   99.49    4.40
   2 -15  -3    1.00    1.10
   1 -15  -3   16.30    2.00
   0 -15  -3   13.90    1.70
   0 -15  -3   11.70    1.70
  -1 -15  -3    3.40    1.20
  -1 -15  -3    2.80    1.00
  -2 -15  -3  110.69    4.00
  -2 -15  -3  109.69    4.20
  -3 -15  -3    0.30    0.80
  -3 -15  -3    0.70    0.90
  -4 -15  -3   29.50    2.20
  -4 -15  -3   33.00    2.20
  -5 -15  -3   -0.70    0.90
  -5 -15  -3    0.20    0.90
  -6 -15  -3    7.70    1.30
  -6 -15  -3    4.80    1.20
  -7 -15  -3   13.30    1.60
  -7 -15  -3   13.60    1.60
  -8 -15  -3   14.60    1.80
  -9 -15  -3   60.29    3.00
 -10 -15  -3  133.99    4.90
 -11 -15  -3   25.40    2.30
 -12 -15  -3    0.60    1.20
 -13 -15  -3   26.70    2.50
 -14 -15  -3    0.70    1.30
 -15 -15  -3    0.20    1.40
 -16 -15  -3    2.00    1.40
 -17 -15  -3    9.20    1.90
 -18 -15  -3   10.00    2.10
   5 -16  -3   10.20    2.00
   4 -16  -3   -0.10    1.30
   3 -16  -3   28.20    2.60
   2 -16  -3   39.50    2.90
   1 -16  -3   38.70    2.70
   0 -16  -3   47.30    2.70
   0 -16  -3   41.20    2.80
  -1 -16  -3   86.89    3.90
  -1 -16  -3   87.49    3.70
  -2 -16  -3    5.90    1.20
  -2 -16  -3    4.90    1.30
  -3 -16  -3    4.10    1.30
  -3 -16  -3    4.90    1.20
  -4 -16  -3    6.90    1.30
  -4 -16  -3    7.80    1.40
  -5 -16  -3   39.00    2.40
  -5 -16  -3   38.90    2.40
  -6 -16  -3   14.80    1.80
  -6 -16  -3   19.70    1.90
  -7 -16  -3   20.40    2.00
  -7 -16  -3   26.20    2.20
  -8 -16  -3   23.60    2.10
  -9 -16  -3  152.98    5.30
 -10 -16  -3  135.89    5.00
 -11 -16  -3   37.80    2.60
 -12 -16  -3   -0.30    1.10
 -13 -16  -3   -0.60    1.10
 -14 -16  -3   25.00    2.60
 -15 -16  -3    4.10    1.70
 -16 -16  -3   15.50    2.20
 -17 -16  -3    1.10    1.50
   4 -17  -3   20.60    2.40
   3 -17  -3    2.90    1.40
   2 -17  -3    0.60    1.30
   1 -17  -3   10.70    1.80
   0 -17  -3   -0.20    1.00
  -1 -17  -3    1.00    1.00
  -1 -17  -3    1.70    1.00
  -2 -17  -3   22.90    2.20
  -2 -17  -3   18.60    2.00
  -3 -17  -3    8.40    1.50
  -3 -17  -3    8.60    1.60
  -4 -17  -3   73.39    3.40
  -4 -17  -3   79.99    3.50
  -5 -17  -3   18.80    2.00
  -5 -17  -3   15.60    1.90
  -6 -17  -3   49.60    2.90
  -7 -17  -3   -0.80    1.00
  -8 -17  -3   17.10    1.90
  -9 -17  -3    8.20    1.60
 -10 -17  -3    5.60    1.50
 -11 -17  -3  119.59    4.70
 -12 -17  -3    0.80    1.20
 -13 -17  -3   23.40    2.40
 -14 -17  -3  112.09    4.90
 -15 -17  -3    1.00    1.30
 -16 -17  -3   10.30    2.00
 -17 -17  -3   -1.40    1.30
   2 -18  -3    0.50    1.30
   1 -18  -3    2.10    1.40
   0 -18  -3    0.30    1.20
  -1 -18  -3    0.20    1.00
  -2 -18  -3    5.80    1.50
  -2 -18  -3    2.90    1.30
  -3 -18  -3    1.50    1.10
  -4 -18  -3   22.80    2.30
  -5 -18  -3    0.10    0.90
  -6 -18  -3    9.00    1.70
  -7 -18  -3    5.10    1.40
  -8 -18  -3    6.40    1.50
  -9 -18  -3    1.90    1.10
 -10 -18  -3   15.20    2.00
 -11 -18  -3   24.30    2.40
 -12 -18  -3    1.60    1.20
 -13 -18  -3    0.30    1.30
 -14 -18  -3    1.00    1.30
 -15 -18  -3    1.60    1.40
 -16 -18  -3   -0.30    1.40
  -2 -19  -3    0.70    1.10
  -3 -19  -3   -0.60    1.10
  -4 -19  -3   21.80    2.30
  -5 -19  -3   25.90    2.50
  -6 -19  -3    2.90    1.40
  -7 -19  -3    4.20    1.50
  -8 -19  -3    1.40    1.30
  -9 -19  -3  100.49    4.50
 -10 -19  -3    8.80    1.70
 -11 -19  -3   55.19    3.30
 -12 -19  -3    7.90    1.70
 -13 -19  -3   49.50    3.40
 -14 -19  -3   40.50    3.10
  -3 -20  -3   -0.50    1.30
  -4 -20  -3    1.50    1.40
  -5 -20  -3    1.50    1.20
  -6 -20  -3   37.70    2.80
  -7 -20  -3    3.60    1.50
  -8 -20  -3   24.20    2.50
  -9 -20  -3    7.70    1.80
 -10 -20  -3   82.29    4.10
 -11 -20  -3   12.10    2.00
 -12 -20  -3    9.70    1.90
 -13 -20  -3    4.40    1.60
  -6 -21  -3    1.20    1.50
  -7 -21  -3    2.90    1.40
  -8 -21  -3   16.70    2.30
  -9 -21  -3    5.70    1.70
  -9 -19   4    3.70    1.70
  -8 -19   4    2.50    1.50
  -7 -19   4   75.59    4.40
  -6 -19   4    5.10    1.70
  -5 -19   4   31.50    3.20
  -4 -19   4    2.60    1.70
  -3 -19   4    2.20    1.50
  -2 -19   4   13.60    2.40
  -1 -19   4    7.90    2.10
 -11 -18   4    7.20    1.80
 -10 -18   4    3.50    1.50
  -9 -18   4    7.70    2.00
  -8 -18   4    3.90    1.60
  -7 -18   4  181.78    6.70
  -6 -18   4   76.49    4.20
  -5 -18   4    6.60    1.90
  -4 -18   4   -0.30    1.20
  -3 -18   4   -1.40    1.20
  -2 -18   4   39.70    3.40
  -1 -18   4   16.50    2.40
   0 -18   4   10.00    2.20
   1 -18   4    8.70    1.90
   2 -18   4   75.09    4.40
 -13 -17   4    2.30    1.40
 -12 -17   4    1.70    1.30
 -11 -17   4   25.00    2.60
 -10 -17   4   29.30    2.90
  -9 -17   4   39.30    3.30
  -8 -17   4    6.30    1.70
  -7 -17   4    5.20    1.60
  -6 -17   4  109.79    4.90
  -5 -17   4   35.50    3.10
  -4 -17   4   43.70    3.10
  -3 -17   4    3.90    1.60
  -2 -17   4   13.20    2.10
  -1 -17   4    8.40    2.00
   0 -17   4    9.70    1.90
   1 -17   4   -0.90    1.20
   2 -17   4    1.00    1.40
   3 -17   4   36.50    3.40
 -14 -16   4    3.20    1.40
 -13 -16   4    6.40    1.60
 -12 -16   4   21.30    2.40
 -11 -16   4   10.30    1.80
 -10 -16   4    8.90    1.70
  -9 -16   4    4.50    1.50
  -8 -16   4    2.10    1.30
  -7 -16   4    8.80    1.70
  -6 -16   4    9.80    1.80
  -5 -16   4    2.10    1.20
  -4 -16   4    0.40    1.20
  -3 -16   4   12.90    2.00
  -2 -16   4   -0.80    1.00
  -1 -16   4   22.60    2.50
   0 -16   4    6.40    1.60
   1 -16   4   -0.90    1.10
   2 -16   4   45.20    3.20
   3 -16   4    4.60    1.60
 -14 -15   4    9.80    1.80
 -13 -15   4   12.20    1.90
 -12 -15   4   -1.00    1.10
 -11 -15   4   89.39    4.10
 -10 -15   4   31.70    2.70
  -9 -15   4    3.20    1.30
  -8 -15   4   34.80    2.60
  -7 -15   4   90.99    4.10
  -6 -15   4    0.20    1.10
  -5 -15   4   -0.60    1.00
  -4 -15   4   43.10    2.90
  -3 -15   4   79.59    3.90
  -2 -15   4    7.20    1.60
  -1 -15   4    7.00    1.60
   0 -15   4   16.30    2.10
   1 -15   4    0.40    1.10
   2 -15   4    1.20    1.40
  -3  15  -4    8.10    1.50
   3 -15   4    7.70    1.80
  -4  15  -4    1.00    1.00
   4 -15   4   -1.50    1.20
  -5  15  -4    0.80    1.20
  -6  15  -4   20.80    2.30
  -7  15  -4    1.80    1.40
 -15 -14   4   23.70    2.40
 -14 -14   4    9.70    1.80
 -13 -14   4    0.40    1.00
 -12 -14   4    4.00    1.40
 -11 -14   4   -0.80    1.00
 -10 -14   4   11.50    1.80
  -9 -14   4    0.50    1.00
  -8 -14   4   17.60    2.00
  -7 -14   4   39.00    2.70
  -6 -14   4  101.49    4.20
  -5 -14   4   54.79    3.00
  -4 -14   4    0.30    1.00
  -3 -14   4   26.70    2.40
   2  14  -4   13.70    1.60
  -2 -14   4   12.60    1.80
   1  14  -4   38.60    2.40
  -1 -14   4   34.90    2.60
   0  14  -4   -0.80    0.90
   0 -14   4   -0.40    0.90
  -1  14  -4    1.00    1.00
   1 -14   4    2.00    1.20
  -2  14  -4  142.09    5.00
   2 -14   4  143.89    5.40
  -3  14  -4    0.40    0.90
   3 -14   4   -0.70    1.00
  -4  14  -4    1.60    1.10
   4 -14   4    1.60    1.30
  -5  14  -4   16.70    2.00
  -6  14  -4    1.60    1.30
  -7  14  -4    6.60    1.60
  -8  14  -4    2.00    1.30
  -9  14  -4    6.00    1.80
 -14 -13   4    3.10    1.30
 -13 -13   4    2.20    1.20
 -12 -13   4    2.10    1.20
 -11 -13   4    6.30    1.40
 -10 -13   4   14.00    1.80
  -9 -13   4    2.30    1.20
  -8 -13   4    6.90    1.50
  -8 -13   4    5.80    1.30
  -7 -13   4    6.80    1.50
  -7 -13   4    5.90    1.20
  -6 -13   4  106.59    3.90
  -6 -13   4   97.99    4.00
  -5 -13   4   52.39    2.90
   4  13  -4    4.30    1.10
  -4 -13   4    6.60    1.30
   3  13  -4   22.10    1.90
  -3 -13   4   20.20    2.00
   2  13  -4   23.10    2.00
  -2 -13   4   25.40    2.30
   1  13  -4   -0.30    0.80
  -1 -13   4    1.40    1.00
   0  13  -4    2.00    1.00
   0 -13   4    1.80    1.10
  -1  13  -4   12.90    1.60
   1 -13   4   10.60    1.60
  -2  13  -4    2.80    1.10
   2 -13   4    3.10    1.20
  -3  13  -4   75.09    3.40
   3 -13   4   78.99    3.70
  -4  13  -4    1.50    1.10
   4 -13   4    2.50    1.30
  -5  13  -4   20.20    2.00
  -6  13  -4    8.40    1.60
  -7  13  -4   47.60    3.00
  -8  13  -4    1.70    1.40
  -9  13  -4   -0.20    1.20
 -10  13  -4    8.20    1.90
 -14 -12   4   13.10    1.70
 -13 -12   4   76.99    3.60
 -12 -12   4    2.70    1.30
 -12 -12   4    3.50    1.30
 -11 -12   4   63.89    3.30
 -11 -12   4   59.79    3.10
 -10 -12   4   -0.50    0.90
 -10 -12   4   -0.20    0.90
  -9 -12   4   78.49    3.50
  -9 -12   4   71.19    3.30
  -8 -12   4    0.80    0.90
  -8 -12   4    1.90    1.00
  -7 -12   4  211.38    6.40
  -7 -12   4  209.28    6.30
  -6 -12   4   31.80    2.30
  -6 -12   4   32.80    2.10
  -5 -12   4   48.60    2.70
  -5 -12   4   57.79    2.70
   4  12  -4   11.90    1.40
  -4 -12   4   11.80    1.60
   3  12  -4   41.50    2.30
  -3 -12   4   40.00    2.40
   2  12  -4  182.38    5.50
  -2 -12   4  181.38    5.80
   1  12  -4   10.40    1.40
  -1 -12   4    8.50    1.40
   0  12  -4   50.39    2.60
   0 -12   4   48.40    2.80
  -1  12  -4   88.59    3.50
   1 -12   4   84.29    3.80
  -2  12  -4   10.50    1.50
   2 -12   4   10.20    1.60
  -3  12  -4  148.29    5.00
   3 -12   4  142.39    5.20
  -4  12  -4    1.70    1.00
   4 -12   4    0.50    1.00
  -5  12  -4    9.30    1.50
  -6  12  -4    1.60    1.10
  -7  12  -4   11.70    1.80
  -8  12  -4   18.60    2.20
  -9  12  -4    9.20    1.80
 -10  12  -4   22.40    2.60
 -11  12  -4    0.30    1.30
 -16 -11   4    5.40    1.80
 -15 -11   4    1.90    1.40
 -14 -11   4   20.10    2.20
 -14 -11   4   14.90    2.10
 -13 -11   4    8.60    1.40
 -13 -11   4   11.20    1.80
 -12 -11   4    4.90    1.30
 -12 -11   4    6.90    1.50
 -11 -11   4   83.09    3.50
 -11 -11   4   78.39    3.70
 -10 -11   4  197.08    6.20
 -10 -11   4  189.08    5.90
  -9 -11   4   70.49    3.20
  -9 -11   4   67.99    3.20
  -8 -11   4    0.60    0.80
  -8 -11   4    2.30    1.00
  -7 -11   4    1.40    0.90
  -7 -11   4    3.10    1.00
  -6 -11   4   17.80    1.70
  -6 -11   4   16.60    1.60
  -5 -11   4    3.80    1.00
  -5 -11   4    5.40    1.10
  -4 -11   4    2.30    0.80
  -4 -11   4    2.30    0.90
   3  11  -4   61.59    2.70
  -3 -11   4   60.29    2.80
   2  11  -4  382.66    9.80
  -2 -11   4  400.66   10.10
   1  11  -4  291.67    7.80
  -1 -11   4  304.97    8.20
   0  11  -4    2.40    0.90
   0 -11   4    3.80    1.10
  -1  11  -4  305.77    8.10
   1 -11   4  306.77    8.40
  -2  11  -4  140.29    4.70
   2 -11   4  136.29    4.20
   2 -11   4  149.39    5.00
  -3  11  -4   26.20    2.10
   3 -11   4   20.50    2.00
  -4  11  -4   19.40    1.90
   4 -11   4   20.60    2.00
  -5  11  -4   -0.20    0.90
  -6  11  -4   32.70    2.30
  -7  11  -4   79.49    3.70
  -8  11  -4   15.50    2.00
  -9  11  -4   67.19    3.60
 -10  11  -4  118.99    5.00
 -11  11  -4    2.10    1.60
 -12  11  -4    0.10    1.30
 -17 -10   4   -0.40    1.40
 -16 -10   4    6.50    1.90
 -15 -10   4    1.00    1.30
 -14 -10   4   -0.30    1.00
 -13 -10   4   16.70    2.10
 -13 -10   4   13.40    1.60
 -12 -10   4   -0.40    1.00
 -12 -10   4    1.50    0.90
 -11 -10   4    1.80    1.00
 -11 -10   4    1.10    1.10
 -10 -10   4   36.20    2.40
 -10 -10   4   33.70    2.10
  -9 -10   4    6.70    1.30
  -9 -10   4    8.90    1.40
  -8 -10   4   21.50    1.90
  -8 -10   4   23.00    1.80
  -7 -10   4    8.60    1.20
  -7 -10   4   10.00    1.40
  -6 -10   4   78.49    3.20
  -6 -10   4   83.59    3.30
  -5 -10   4   33.40    2.00
  -5 -10   4   29.80    2.00
  -4 -10   4    1.00    0.80
  -4 -10   4    1.10    0.80
  -3 -10   4   34.30    2.00
  -3 -10   4   34.90    2.00
   2  10  -4  478.95   11.60
  -2 -10   4  480.75   11.80
   1  10  -4   21.30    1.80
  -1 -10   4   22.30    1.70
   0  10  -4   57.19    2.60
   0 -10   4   60.89    2.10
   0 -10   4   62.29    2.80
  -1  10  -4    1.50    0.90
   1 -10   4    2.10    0.60
   1 -10   4    1.50    0.90
  -2  10  -4  399.56   10.00
   2 -10   4  395.46   10.20
   2 -10   4  393.76    9.40
  -3  10  -4   75.29    3.20
   3 -10   4   74.49    3.30
  -4  10  -4    3.70    1.00
   4 -10   4    2.50    1.10
  -5  10  -4   59.59    3.00
  -6  10  -4   61.19    3.00
  -7  10  -4   14.60    1.80
  -8  10  -4    2.20    1.10
  -9  10  -4   22.70    2.30
 -10  10  -4   39.30    2.90
 -11  10  -4  134.39    5.40
 -12  10  -4    9.70    2.10
 -13  10  -4    6.30    1.90
 -17  -9   4    2.80    1.50
 -16  -9   4   45.00    3.30
 -15  -9   4   -0.60    1.30
 -14  -9   4    6.70    1.70
 -13  -9   4    9.50    1.60
 -13  -9   4   10.50    1.80
 -12  -9   4   31.60    2.10
 -12  -9   4   28.80    2.50
 -11  -9   4    1.70    0.90
 -11  -9   4    0.10    1.00
 -10  -9   4    3.00    1.20
 -10  -9   4    2.00    0.80
  -9  -9   4   41.80    2.50
  -9  -9   4   42.00    2.30
  -8  -9   4   14.60    1.60
  -8  -9   4   11.50    1.40
  -7  -9   4  221.78    6.20
  -7  -9   4  218.68    6.30
  -6  -9   4   53.39    2.40
  -6  -9   4   54.29    2.50
  -5  -9   4   13.70    1.40
  -5  -9   4   15.30    1.40
  -4  -9   4    0.10    0.70
  -4  -9   4    1.60    0.80
  -3  -9   4   21.60    1.60
  -3  -9   4   20.20    1.50
   2   9  -4   36.50    1.90
  -2  -9   4   34.40    2.00
  -2  -9   4   39.90    1.30
   1   9  -4    6.70    1.00
  -1  -9   4    7.90    0.70
  -1  -9   4    7.70    1.20
   0   9  -4   20.20    1.60
   0  -9   4   18.40    1.00
   0  -9   4   20.60    1.60
  -1   9  -4  110.49    3.70
   1  -9   4  119.99    3.20
   1  -9   4  101.49    3.80
  -2   9  -4  172.18    5.10
   2  -9   4  168.58    5.20
   2  -9   4  170.08    4.60
  -3   9  -4  301.87    8.00
   3  -9   4  301.37    8.20
  -4   9  -4   21.50    1.90
   4  -9   4   21.00    1.90
  -5   9  -4    0.50    0.80
  -6   9  -4    0.40    0.80
  -7   9  -4   77.99    3.40
  -8   9  -4    0.50    0.90
  -9   9  -4   17.70    2.00
 -10   9  -4    0.20    1.10
 -11   9  -4    5.40    1.50
 -12   9  -4   32.80    3.00
 -13   9  -4    0.70    1.50
 -14   9  -4    1.90    1.50
 -17  -8   4   -0.10    1.50
 -16  -8   4   11.70    2.10
 -15  -8   4  108.39    4.90
 -14  -8   4   74.19    4.00
 -13  -8   4   27.80    2.60
 -12  -8   4    3.90    1.20
 -12  -8   4    6.10    1.20
 -11  -8   4    0.30    1.00
 -11  -8   4   -0.10    0.80
 -10  -8   4    8.70    1.20
  -9  -8   4   -0.20    0.80
  -9  -8   4    2.00    0.80
  -8  -8   4    3.60    1.00
  -8  -8   4    4.00    0.90
  -7  -8   4  263.17    7.00
  -7  -8   4  278.37    7.40
  -6  -8   4  379.86    9.60
  -6  -8   4  389.36    9.50
  -5  -8   4   44.50    2.10
  -5  -8   4   47.80    2.20
  -4  -8   4    1.10    0.60
  -4  -8   4    1.00    0.70
  -3  -8   4   60.39    2.50
  -3  -8   4   57.89    2.50
  -3  -8   4   63.79    1.70
  -2  -8   4   49.40    2.20
  -2  -8   4   53.69    1.50
  -2  -8   4   48.40    2.20
   1   8  -4   16.80    1.40
  -1  -8   4   18.00    1.50
  -1  -8   4   18.30    0.80
   0   8  -4  160.48    4.70
   0  -8   4  156.38    3.90
   0  -8   4  160.88    4.80
  -1   8  -4   21.40    1.50
   1  -8   4   22.80    1.60
   1  -8   4   19.00    1.10
  -2   8  -4  372.16    9.20
   2  -8   4  371.56    9.40
  -3   8  -4  182.18    5.40
   3  -8   4  197.48    5.60
  -4   8  -4    0.10    0.60
   4  -8   4    0.60    0.70
  -5   8  -4  158.38    4.90
  -6   8  -4  506.35   12.40
  -7   8  -4    0.10    0.80
  -8   8  -4   -1.30    0.90
  -9   8  -4   40.50    2.70
 -10   8  -4   65.09    3.40
 -11   8  -4  125.39    5.00
 -12   8  -4    1.40    1.40
 -13   8  -4   36.00    3.20
 -14   8  -4   98.19    4.80
 -17  -7   4    4.00    1.70
 -16  -7   4   28.10    3.10
 -15  -7   4    5.50    1.60
 -14  -7   4   43.10    3.10
 -13  -7   4   31.80    2.70
 -12  -7   4    1.10    1.00
 -11  -7   4    2.60    1.10
 -11  -7   4    0.90    0.80
 -10  -7   4    6.70    1.10
 -10  -7   4    5.20    1.30
  -9  -7   4   15.00    1.40
  -9  -7   4   16.70    1.80
  -8  -7   4   19.90    1.50
  -8  -7   4   19.40    1.70
  -7  -7   4    1.80    0.80
  -7  -7   4    1.50    0.70
  -6  -7   4  254.37    6.60
  -6  -7   4  259.07    6.90
  -5  -7   4  201.98    5.50
  -5  -7   4  201.08    5.60
  -4  -7   4   13.80    1.30
  -4  -7   4   12.50    1.20
  -3  -7   4   67.89    1.70
  -3  -7   4   63.49    2.50
  -3  -7   4   63.29    2.50
  -2  -7   4  160.78    3.50
  -2  -7   4  148.49    4.40
  -2  -7   4  155.48    4.50
  -1  -7   4   87.79    2.20
  -1  -7   4   87.99    3.00
   0   7  -4    0.60    0.50
   0  -7   4    0.00    0.50
   0  -7   4    0.20    0.30
  -1   7  -4    9.70    1.10
   1  -7   4   12.20    1.20
  -2   7  -4  182.78    5.10
   2  -7   4  179.28    5.20
  -3   7  -4  155.38    4.60
   3  -7   4  152.78    4.70
  -4   7  -4   19.70    1.50
  -5   7  -4   47.00    2.30
  -6   7  -4 1030.30   23.20
  -7   7  -4  452.05   11.30
  -8   7  -4   24.30    2.10
  -9   7  -4    7.10    1.50
 -10   7  -4   21.50    2.10
 -11   7  -4   -1.00    0.90
 -12   7  -4    8.80    1.70
 -13   7  -4   10.40    2.00
 -14   7  -4   18.90    2.50
 -15   7  -4  134.69    5.90
 -17  -6   4   -1.30    1.30
 -16  -6   4    2.00    1.50
 -15  -6   4  125.49    5.40
 -14  -6   4    4.40    1.40
 -13  -6   4   54.69    3.20
 -12  -6   4  128.29    4.90
 -11  -6   4   21.90    1.60
 -11  -6   4   27.70    2.40
 -10  -6   4   28.20    1.70
 -10  -6   4   33.00    2.20
  -9  -6   4    0.60    0.70
  -9  -6   4    1.30    0.70
  -8  -6   4   42.30    1.90
  -8  -6   4   40.70    2.20
  -7  -6   4   44.60    2.00
  -7  -6   4   43.80    2.20
  -6  -6   4   28.80    1.60
  -6  -6   4   28.70    1.80
  -5  -6   4  160.68    4.70
  -5  -6   4  152.88    4.30
  -4  -6   4   17.90    1.30
  -4  -6   4   16.50    1.20
  -3  -6   4  128.49    3.70
  -3  -6   4  125.89    3.80
  -2  -6   4  106.29    3.30
  -2  -6   4  100.09    3.30
  -1  -6   4  166.18    3.70
  -1  -6   4  165.58    4.60
  -1  -6   4  164.18    4.60
   0   6  -4   82.99    2.80
   0  -6   4   81.99    2.80
  -1   6  -4    1.40    0.60
   1  -6   4    1.40    0.60
  -2   6  -4  117.49    3.60
   2  -6   4  110.49    3.60
  -3   6  -4    1.70    0.70
   3  -6   4    2.80    0.70
  -4   6  -4  149.29    4.50
  -5   6  -4   12.00    1.30
  -6   6  -4    1.80    0.90
  -7   6  -4  813.92   18.70
  -8   6  -4   17.50    1.80
  -9   6  -4   73.79    3.30
 -10   6  -4   81.49    3.60
 -11   6  -4   12.70    1.80
 -12   6  -4   16.60    2.10
 -13   6  -4    0.80    1.20
 -14   6  -4   11.70    2.10
 -15   6  -4   34.10    3.30
 -16   6  -4   26.50    3.10
 -17  -5   4   32.40    3.40
 -16  -5   4   11.80    2.20
 -15  -5   4    6.40    1.70
 -14  -5   4   20.60    2.40
 -13  -5   4   32.80    2.80
 -12  -5   4   83.99    3.90
 -11  -5   4   77.59    3.50
 -10  -5   4  208.88    5.60
 -10  -5   4  213.48    6.50
  -9  -5   4    3.10    1.00
  -9  -5   4    2.10    0.70
  -8  -5   4   48.70    2.00
  -8  -5   4   52.99    2.50
  -7  -5   4  111.19    3.70
  -7  -5   4  101.89    3.20
  -6  -5   4    9.10    1.10
  -6  -5   4    8.90    0.90
  -5  -5   4  104.59    3.20
  -5  -5   4  111.59    3.60
  -4  -5   4   28.30    1.40
  -4  -5   4   25.30    1.50
  -3  -5   4  811.62   17.80
  -3  -5   4  806.72   18.00
  -2  -5   4  732.33   16.30
  -2  -5   4  743.03   16.50
  -1  -5   4    3.60    0.70
  -1  -5   4    2.20    0.60
   0  -5   4  190.98    5.10
   0  -5   4  191.38    5.00
  -1   5  -4 1085.59   23.50
   1  -5   4 1079.29   23.50
  -2   5  -4  176.08    4.70
   2  -5   4  166.88    4.70
  -3   5  -4  103.39    3.30
   3  -5   4  104.19    3.30
  -4   5  -4    1.30    0.70
  -5   5  -4    0.90    0.70
  -6   5  -4   94.09    3.30
  -7   5  -4   54.39    2.50
  -8   5  -4    0.10    0.70
  -9   5  -4  234.18    6.80
 -10   5  -4  192.98    6.00
 -11   5  -4    0.20    0.90
 -12   5  -4   27.70    2.50
 -13   5  -4    3.60    1.50
 -14   5  -4   -0.10    1.10
 -15   5  -4   57.09    3.60
 -16   5  -4    1.40    1.60
 -17  -4   4   -0.50    1.60
 -16  -4   4    3.80    1.80
 -15  -4   4   77.49    4.20
 -14  -4   4   12.20    2.00
 -13  -4   4   18.70    2.20
 -12  -4   4    9.30    1.60
 -11  -4   4  116.09    4.50
 -10  -4   4   49.50    2.70
 -10  -4   4   49.90    2.00
  -9  -4   4    3.40    1.00
  -9  -4   4    2.70    0.70
  -8  -4   4    1.30    0.80
  -8  -4   4    1.00    0.50
  -7  -4   4  132.09    4.30
  -7  -4   4  137.09    3.70
  -6  -4   4   80.89    2.50
  -6  -4   4   80.49    3.00
  -5  -4   4   89.89    3.20
  -5  -4   4  100.99    2.90
  -4  -4   4  332.77    7.70
  -4  -4   4  322.57    8.00
  -3  -4   4   94.49    2.80
  -3  -4   4   91.59    3.00
  -2  -4   4   14.00    1.00
  -2  -4   4   13.20    0.90
  -1  -4   4   71.89    2.40
  -1  -4   4   69.99    2.30
   0  -4   4  124.99    3.60
   0  -4   4  122.69    3.50
  -1   4  -4   29.30    1.40
   1  -4   4   28.50    1.40
  -2   4  -4  922.91   20.10
   2  -4   4  918.91   20.10
  -3   4  -4  883.91   19.40
  -4   4  -4    1.30    0.60
  -5   4  -4    4.70    0.80
  -6   4  -4    9.70    1.10
  -7   4  -4   89.69    3.20
  -8   4  -4   30.00    1.90
  -9   4  -4   15.40    1.60
 -10   4  -4  857.41   19.80
 -11   4  -4  580.74   14.30
 -12   4  -4    1.50    1.00
 -13   4  -4    0.30    1.00
 -14   4  -4    1.50    1.20
 -15   4  -4   13.00    2.00
 -16   4  -4   57.39    3.70
 -17   4  -4   11.60    2.20
 -17  -3   4   -0.80    1.60
 -16  -3   4   57.59    4.00
 -15  -3   4   13.40    2.30
 -14  -3   4    5.00    1.50
 -13  -3   4    4.00    1.40
 -12  -3   4   35.50    2.60
 -11  -3   4   48.40    2.80
 -10  -3   4    1.90    0.90
  -9  -3   4  102.99    3.90
  -9  -3   4   98.09    2.90
  -8  -3   4   83.09    3.20
  -8  -3   4   74.89    2.40
  -7  -3   4    5.00    0.70
  -7  -3   4    4.00    0.90
  -6  -3   4   86.79    3.20
  -6  -3   4   91.99    2.60
  -5  -3   4    1.90    0.60
  -5  -3   4    2.50    0.50
  -4  -3   4   10.20    0.80
  -4  -3   4   10.50    1.10
  -3  -3   4   53.49    2.10
  -3  -3   4   54.09    1.80
  -2  -3   4   40.80    1.70
  -2  -3   4   37.50    1.50
  -1  -3   4   33.70    1.50
  -1  -3   4   37.10    1.40
   0  -3   4   18.60    1.00
   0  -3   4   19.70    1.10
   1  -3   4   15.10    1.00
  -2   3  -4  185.18    4.80
  -3   3  -4  290.87    7.00
  -4   3  -4    1.80    0.60
  -5   3  -4   81.79    2.80
  -6   3  -4    0.10    0.50
  -7   3  -4    6.90    1.00
  -8   3  -4    4.00    0.90
  -9   3  -4   35.60    2.00
 -10   3  -4   29.60    2.00
 -11   3  -4  320.27    8.70
 -12   3  -4  247.88    7.40
 -13   3  -4    1.20    1.00
 -14   3  -4   56.79    3.30
 -15   3  -4   76.39    3.90
 -16   3  -4    3.50    1.50
 -17   3  -4   -1.10    1.40
 -17  -2   4    7.20    2.00
 -16  -2   4   12.70    2.30
 -15  -2   4  140.89    6.00
 -14  -2   4    6.10    1.60
 -13  -2   4   41.50    2.90
 -12  -2   4   10.80    1.70
 -11  -2   4    1.30    1.10
 -10  -2   4    2.40    1.00
  -9  -2   4   49.99    2.60
  -8  -2   4   -0.20    0.60
  -8  -2   4    0.20    0.40
  -7  -2   4  587.44   13.50
  -7  -2   4  551.84   12.40
  -6  -2   4  110.69    3.00
  -6  -2   4  117.09    3.80
  -5  -2   4   68.99    2.60
  -5  -2   4   66.39    2.00
  -4  -2   4  229.08    5.20
  -4  -2   4  218.38    5.80
  -3  -2   4   34.70    1.20
  -3  -2   4   31.70    1.50
   2   2  -4  271.07    5.80
  -2  -2   4  263.07    6.50
  -2  -2   4  268.87    6.20
   1   2  -4   29.70    0.80
  -1  -2   4   30.50    1.40
  -1  -2   4   27.60    1.20
   0  -2   4 1059.79   22.60
   0  -2   4 1043.20   22.40
   1  -2   4   14.40    1.00
   1  -2   4   15.30    0.90
  -2   2  -4  244.38    5.90
  -3   2  -4  473.55   10.70
  -4   2  -4    3.20    0.60
  -5   2  -4  223.18    5.70
  -6   2  -4    7.40    0.90
  -7   2  -4   36.10    1.80
  -8   2  -4  193.68    5.40
  -9   2  -4   -0.70    0.50
 -10   2  -4   17.00    1.60
 -11   2  -4  133.99    4.50
 -12   2  -4    4.20    1.20
 -13   2  -4   34.60    2.40
 -14   2  -4   61.99    3.40
 -15   2  -4   83.49    4.10
 -16   2  -4   24.40    2.50
 -17   2  -4   -1.00    1.20
 -18   2  -4    8.00    1.90
 -17  -1   4    5.50    1.90
 -16  -1   4    0.30    1.40
 -15  -1   4    5.70    1.70
 -14  -1   4   45.20    3.20
 -13  -1   4    8.30    1.70
 -12  -1   4   35.30    2.60
 -11  -1   4   83.69    3.80
 -10  -1   4  268.37    7.80
  -9  -1   4    7.70    1.30
  -8  -1   4  176.28    4.30
  -8  -1   4  185.38    5.50
  -7  -1   4   18.60    1.60
  -7  -1   4   18.10    0.90
  -6  -1   4  452.25   10.00
  -6  -1   4  468.55   11.10
  -5  -1   4   37.80    1.20
  -5  -1   4   39.30    1.90
   4   1  -4    0.30    0.30
  -4  -1   4    0.10    0.50
  -4  -1   4    0.20    0.20
   3   1  -4  120.69    3.00
  -3  -1   4  117.59    3.50
  -3  -1   4  119.99    2.90
   2   1  -4  257.77    5.60
  -2  -1   4  246.18    5.70
  -2  -1   4  247.18    6.10
   1   1  -4  215.98    4.70
  -1  -1   4  209.28    5.30
  -1  -1   4  215.08    4.90
   0  -1   4    1.40    0.40
   0  -1   4    1.70    0.50
   1  -1   4   10.60    0.90
  -2   1  -4 1803.52   38.00
  -3   1  -4    1.20    0.40
  -4   1  -4    1.80    0.50
  -5   1  -4  300.07    7.20
  -6   1  -4  530.95   12.10
  -7   1  -4   19.60    1.30
  -8   1  -4    7.20    1.00
  -9   1  -4    9.90    1.20
 -10   1  -4   21.10    1.60
 -11   1  -4  272.67    7.40
 -12   1  -4    1.80    1.00
 -13   1  -4    7.20    1.30
 -14   1  -4  237.98    7.30
 -15   1  -4  282.77    8.50
 -16   1  -4   30.60    2.80
 -17   1  -4    4.90    1.60
 -18   1  -4   17.70    2.50
 -16   0   4   10.30    2.10
 -15   0   4   32.10    3.10
 -14   0   4   49.40    3.40
 -13   0   4    2.80    1.30
 -12   0   4   47.60    3.00
 -11   0   4   11.40    1.70
 -10   0   4  130.49    4.80
  -9   0   4   28.10    2.00
  -8   0   4    4.10    1.00
  -7   0   4   63.49    1.80
  -7   0   4   68.19    2.80
  -6   0   4   26.10    1.70
  -6   0   4   26.90    0.90
   5   0  -4   34.80    1.50
  -5   0   4   30.80    1.00
  -5   0   4   32.20    1.70
   4   0  -4    8.40    0.70
  -4   0   4    8.30    0.50
  -4   0   4    8.10    0.90
   3   0  -4   31.50    1.20
  -3   0   4   31.30    1.50
  -3   0   4   31.10    1.00
   2   0  -4  167.58    4.00
  -2   0   4  166.28    4.30
  -2   0   4  164.28    3.80
   1   0  -4  202.18    4.50
  -1   0   4  185.98    4.80
   0   0  -4  123.39    3.00
   0   0   4  121.09    3.30
   1   0   4  327.77    7.50
   2   0   4 1522.65   32.10
  -3   0  -4 1755.72   36.90
  -4   0  -4  286.47    6.70
  -5   0  -4  118.09    3.20
  -6   0  -4  592.24   13.20
  -7   0  -4  535.65   12.20
  -8   0  -4  111.69    3.50
  -9   0  -4    0.60    0.60
 -10   0  -4  160.28    4.80
 -11   0  -4  191.18    5.60
 -12   0  -4   36.40    2.20
 -12   0  -4   35.50    2.10
 -13   0  -4   69.39    3.00
 -13   0  -4   74.29    3.30
 -14   0  -4   52.29    2.70
 -14   0  -4   55.49    3.10
 -15   0  -4  151.98    5.50
 -16   0  -4   43.00    2.90
 -17   0  -4   -0.20    1.20
 -18   0  -4   43.20    3.20
 -19   0  -4   85.49    4.80
 -16   1   4    3.40    1.80
 -15   1   4    7.90    1.90
 -14   1   4   35.50    3.20
 -13   1   4    1.70    1.40
 -12   1   4   16.90    2.10
 -11   1   4  256.57    7.80
 -10   1   4   15.10    1.90
  -9   1   4   26.00    2.00
  -8   1   4  266.77    7.50
  -7   1   4  717.03   16.70
   6  -1  -4  157.08    4.40
  -6   1   4  155.98    4.70
  -6   1   4  152.18    3.40
   5  -1  -4   32.20    1.50
  -5   1   4   32.80    1.80
   4  -1  -4   50.19    1.80
  -4   1   4   44.50    1.90
   3  -1  -4   38.90    1.50
  -3   1   4   36.10    1.60
   2  -1  -4    4.10    0.50
  -2   1   4    3.80    0.60
   1  -1  -4   76.39    2.10
  -1   1   4   74.09    2.30
   0  -1  -4  758.22   16.00
   0   1   4  742.73   16.20
   1   1   4  273.47    6.30
   2   1   4 2726.33   57.09
  -4  -1  -4    6.20    0.60
  -5  -1  -4  736.33   15.90
  -6  -1  -4    0.80    0.40
  -7  -1  -4  115.69    3.30
  -8  -1  -4  109.49    3.30
  -9  -1  -4   22.30    1.50
 -10  -1  -4  143.79    4.40
 -11  -1  -4  279.97    7.50
 -11  -1  -4  286.17    7.40
 -12  -1  -4   13.90    1.60
 -12  -1  -4   13.40    1.40
 -13  -1  -4  319.17    8.70
 -13  -1  -4  323.37    8.40
 -14  -1  -4   17.80    1.80
 -14  -1  -4   18.90    2.00
 -15  -1  -4    6.70    1.40
 -16  -1  -4   11.00    1.80
 -17  -1  -4    2.80    1.50
 -18  -1  -4    8.60    1.90
 -19  -1  -4   68.19    4.20
 -16   2   4   16.20    2.50
 -15   2   4   26.80    3.00
 -14   2   4   38.40    3.40
 -13   2   4   28.70    2.90
 -12   2   4   57.59    3.40
 -11   2   4   -0.60    0.90
 -10   2   4  140.19    5.10
  -9   2   4   34.40    2.30
  -8   2   4   30.20    2.10
  -7   2   4 1088.99   24.40
   6  -2  -4  416.36    9.90
  -6   2   4  405.86   10.10
   5  -2  -4    3.40    0.70
  -5   2   4    3.30    0.80
   4  -2  -4    1.80    0.60
  -4   2   4    1.40    0.60
   3  -2  -4    3.20    0.60
  -3   2   4    3.80    0.70
   2  -2  -4  149.29    3.90
  -2   2   4  147.69    3.90
   1  -2  -4  118.29    3.10
   1  -2  -4  119.79    2.60
  -1   2   4  113.29    3.10
   0  -2  -4  435.46    9.70
   0   2   4  435.26    9.60
   1   2   4 1733.53   36.80
   2   2   4  374.46    8.20
  -3  -2  -4   13.60    0.70
  -4  -2  -4   62.19    1.80
  -5  -2  -4  105.99    2.80
  -6  -2  -4    3.80    0.60
  -7  -2  -4   33.50    1.40
  -8  -2  -4   78.09    2.60
  -8  -2  -4   81.59    2.80
  -9  -2  -4  242.98    6.20
  -9  -2  -4  236.98    6.30
 -10  -2  -4    2.60    0.70
 -10  -2  -4    1.90    0.70
 -11  -2  -4  122.29    4.00
 -11  -2  -4  123.09    4.00
 -12  -2  -4  114.89    3.90
 -12  -2  -4  126.09    4.20
 -13  -2  -4    8.00    1.30
 -13  -2  -4    9.10    1.30
 -14  -2  -4   51.19    2.70
 -14  -2  -4   46.80    2.50
 -15  -2  -4   70.29    3.30
 -15  -2  -4   66.99    3.00
 -16  -2  -4    7.80    1.50
 -17  -2  -4    2.40    1.30
 -18  -2  -4    3.60    1.50
 -19  -2  -4   39.50    3.40
 -15   3   4    0.90    1.50
 -14   3   4   22.50    2.70
 -13   3   4    5.80    1.70
 -12   3   4   -0.30    1.10
 -11   3   4   14.00    2.00
 -10   3   4   11.40    1.70
  -9   3   4   14.20    1.80
  -8   3   4   38.70    2.30
   7  -3  -4  147.49    4.60
  -7   3   4  150.98    4.80
   6  -3  -4  885.41   19.60
  -6   3   4  867.71   19.80
   5  -3  -4  344.47    8.40
  -5   3   4  337.97    8.50
   4  -3  -4   46.10    1.90
  -4   3   4   43.00    2.00
   3  -3  -4  231.48    5.90
  -3   3   4  237.68    6.00
   2  -3  -4  698.83   15.60
  -2   3   4  718.83   15.60
   1  -3  -4  119.99    3.30
   1  -3  -4  123.09    2.70
  -1   3   4  118.29    3.20
   0  -3  -4    0.60    0.40
   0  -3  -4    0.20    0.20
   0   3   4    0.50    0.30
  -1  -3  -4  360.16    7.80
   1   3   4  355.36    7.90
  -2  -3  -4   35.80    1.20
   2   3   4   36.70    1.10
  -3  -3  -4 1677.93   34.70
  -3  -3  -4 1619.14   34.80
  -4  -3  -4    0.00    0.20
  -4  -3  -4    0.20    0.30
  -5  -3  -4   68.19    2.20
  -5  -3  -4   67.39    1.90
  -6  -3  -4  248.28    6.10
  -6  -3  -4  251.37    5.80
  -7  -3  -4  209.08    5.40
  -7  -3  -4  213.08    5.10
  -8  -3  -4    7.50    0.80
  -8  -3  -4    7.80    0.90
  -9  -3  -4   59.99    2.40
  -9  -3  -4   56.69    2.20
 -10  -3  -4    0.10    0.60
 -10  -3  -4    0.90    0.60
 -11  -3  -4   89.19    3.20
 -11  -3  -4   84.19    3.10
 -12  -3  -4    1.70    0.80
 -12  -3  -4    0.70    0.80
 -13  -3  -4    9.10    1.30
 -13  -3  -4    7.80    1.20
 -14  -3  -4  151.08    5.10
 -14  -3  -4  168.78    5.10
 -15  -3  -4   24.20    2.00
 -15  -3  -4   20.80    2.00
 -16  -3  -4   11.60    1.70
 -17  -3  -4    2.00    1.40
 -18  -3  -4    1.10    1.20
 -19  -3  -4    7.20    1.80
 -15   4   4    5.00    1.80
 -14   4   4    3.00    1.60
 -13   4   4   13.00    2.10
 -12   4   4    6.10    1.60
 -11   4   4    8.60    1.70
 -10   4   4   49.70    3.00
  -9   4   4    1.00    1.00
  -8   4   4    0.60    0.80
   7  -4  -4   18.70    1.60
  -7   4   4   19.60    1.80
   6  -4  -4   67.19    2.70
  -6   4   4   72.99    3.00
   5  -4  -4    2.00    0.70
  -5   4   4    2.60    0.90
   4  -4  -4  197.78    5.40
  -4   4   4  202.58    5.50
   3  -4  -4  443.46   10.30
  -3   4   4  432.86   10.20
   2  -4  -4    3.30    0.60
   2  -4  -4    2.40    0.20
  -2   4   4    2.70    0.60
   1  -4  -4  185.88    4.10
   1  -4  -4  183.68    4.80
  -1   4   4  181.48    4.60
   0  -4  -4   35.30    1.50
   0  -4  -4   37.90    1.10
   0   4   4   38.00    1.30
  -1  -4  -4  743.13   15.90
  -1  -4  -4  765.32   16.40
   1   4   4  737.23   15.90
  -2  -4  -4   62.79    1.80
   2   4   4   63.29    1.70
  -3  -4  -4  140.49    3.60
  -4  -4  -4  678.33   14.90
  -4  -4  -4  692.43   14.40
  -5  -4  -4  126.49    3.00
  -5  -4  -4  133.39    3.50
  -6  -4  -4   55.39    1.70
  -6  -4  -4   56.19    2.00
  -7  -4  -4  955.80   20.20
  -7  -4  -4  934.21   20.60
  -8  -4  -4    7.00    0.80
  -8  -4  -4    6.60    0.90
  -9  -4  -4   95.49    3.10
  -9  -4  -4   92.49    2.90
 -10  -4  -4   10.20    1.10
 -10  -4  -4   10.00    1.10
 -11  -4  -4   24.30    1.50
 -11  -4  -4   24.20    1.70
 -12  -4  -4    1.50    0.70
 -12  -4  -4    1.30    0.80
 -13  -4  -4    3.00    0.90
 -13  -4  -4    3.00    0.90
 -14  -4  -4   10.80    1.40
 -14  -4  -4   15.20    1.60
 -15  -4  -4  172.28    5.60
 -15  -4  -4  164.38    5.30
 -16  -4  -4   27.70    2.40
 -16  -4  -4   27.90    2.10
 -17  -4  -4   57.99    3.40
 -18  -4  -4    1.90    1.30
 -19  -4  -4    2.80    1.40
 -20  -4  -4    2.60    1.70
 -14   5   4   16.50    2.60
 -13   5   4    6.40    1.80
 -12   5   4   21.10    2.50
 -11   5   4  131.19    5.30
 -10   5   4   28.80    2.70
  -9   5   4    4.50    1.20
   8  -5  -4   26.70    2.00
  -8   5   4   21.60    2.00
   7  -5  -4   -0.10    0.70
  -7   5   4    0.40    0.90
   6  -5  -4   26.10    1.70
  -6   5   4   28.10    1.90
   5  -5  -4    0.00    0.60
  -5   5   4   -0.20    0.60
   4  -5  -4    1.80    0.70
  -4   5   4    2.00    0.80
   3  -5  -4 1485.55   32.10
   3  -5  -4 1509.55   31.10
  -3   5   4 1482.35   32.10
   2  -5  -4  524.75   11.00
   2  -5  -4  521.15   11.90
  -2   5   4  499.15   11.70
   1  -5  -4   53.69    1.50
   1  -5  -4   51.39    2.00
  -1   5   4   53.09    1.90
   0  -5  -4   50.19    2.00
   0  -5  -4   54.79    1.60
   0   5   4   55.89    1.80
  -1  -5  -4   20.40    1.20
  -1  -5  -4   20.60    0.90
   1   5   4   22.50    0.90
  -2  -5  -4  279.17    6.40
   2   5   4  285.47    6.20
  -3  -5  -4  243.48    5.70
  -4  -5  -4   68.79    2.20
  -5  -5  -4   66.99    1.70
  -5  -5  -4   66.89    2.20
  -6  -5  -4  109.29    2.70
  -6  -5  -4  108.89    3.20
  -7  -5  -4   29.60    1.50
  -7  -5  -4   31.20    1.20
  -8  -5  -4   33.50    1.60
  -8  -5  -4   28.60    1.30
  -9  -5  -4   52.49    2.20
  -9  -5  -4   49.00    1.90
 -10  -5  -4  625.94   14.40
 -10  -5  -4  625.74   14.10
 -11  -5  -4    4.70    0.90
 -11  -5  -4    5.00    0.90
 -12  -5  -4    2.50    0.80
 -12  -5  -4    1.90    0.80
 -13  -5  -4    0.20    0.80
 -13  -5  -4   -0.10    0.70
 -14  -5  -4   45.60    2.50
 -14  -5  -4   47.40    2.50
 -15  -5  -4   54.79    2.70
 -15  -5  -4   51.89    2.70
 -16  -5  -4    8.80    1.50
 -16  -5  -4    8.10    1.40
 -17  -5  -4    1.40    1.10
 -18  -5  -4    5.30    1.50
 -19  -5  -4   27.90    2.70
 -20  -5  -4    4.50    1.60
 -14   6   4    2.70    1.60
 -13   6   4    1.50    1.50
 -12   6   4    7.20    1.80
 -11   6   4    1.10    1.30
 -10   6   4  165.08    6.00
  -9   6   4   12.00    1.80
   8  -6  -4   90.19    3.70
  -8   6   4   92.99    3.90
   7  -6  -4   55.99    2.70
  -7   6   4   56.19    2.80
   6  -6  -4    3.80    1.00
  -6   6   4    2.50    0.90
   5  -6  -4   55.39    2.50
  -5   6   4   54.39    2.50
   4  -6  -4   79.59    3.00
  -4   6   4   81.89    3.00
   3  -6  -4  120.09    3.90
   3  -6  -4  127.19    3.10
  -3   6   4  127.59    3.80
   2  -6  -4 2121.59   43.80
   2  -6  -4 2072.59   44.50
  -2   6   4 2081.09   44.30
   1  -6  -4  565.84   13.10
   1  -6  -4  577.24   12.40
  -1   6   4  578.04   12.80
   0  -6  -4   62.29    1.80
   0  -6  -4   58.39    2.30
   0   6   4   61.89    1.90
  -1  -6  -4  386.16    8.60
  -1  -6  -4  381.26    9.20
   1   6   4  397.26    8.60
  -2  -6  -4  170.48    4.20
   2   6   4  169.58    3.90
  -3  -6  -4   48.90    1.70
  -4  -6  -4   42.20    1.60
  -5  -6  -4   31.10    1.40
  -6  -6  -4  217.58    5.50
  -6  -6  -4  219.28    4.90
  -7  -6  -4  182.28    4.30
  -7  -6  -4  180.18    4.90
  -8  -6  -4  102.19    2.80
  -8  -6  -4  103.29    3.30
  -9  -6  -4   51.49    1.90
  -9  -6  -4   54.09    2.20
 -10  -6  -4  141.29    4.30
 -10  -6  -4  144.69    4.00
 -11  -6  -4  148.09    4.50
 -11  -6  -4  139.09    4.10
 -12  -6  -4   70.99    2.70
 -12  -6  -4   68.99    2.90
 -13  -6  -4    9.30    1.30
 -13  -6  -4   10.10    1.20
 -14  -6  -4    3.90    1.10
 -14  -6  -4    3.60    1.00
 -15  -6  -4   69.19    3.10
 -15  -6  -4   74.39    3.20
 -16  -6  -4   18.70    2.10
 -16  -6  -4   15.00    1.70
 -17  -6  -4   15.40    1.80
 -17  -6  -4   20.10    2.10
 -18  -6  -4   99.29    4.50
 -19  -6  -4   20.70    2.50
 -20  -6  -4    3.50    1.60
 -13   7   4   -0.20    1.50
 -12   7   4   50.79    3.50
 -11   7   4   29.90    3.00
 -10   7   4  102.69    4.50
  -9   7   4    8.70    1.70
   8  -7  -4    7.40    1.40
  -8   7   4    6.10    1.50
   7  -7  -4   31.40    2.20
  -7   7   4   37.80    2.40
   6  -7  -4   90.99    3.60
  -6   7   4   88.59    3.60
   5  -7  -4  147.39    4.80
  -5   7   4  149.99    4.80
   4  -7  -4   32.80    2.00
  -4   7   4   33.60    1.90
   3  -7  -4   11.10    1.30
   3  -7  -4   11.70    0.70
  -3   7   4    9.60    1.10
   2  -7  -4    3.30    0.50
   2  -7  -4    1.80    0.70
  -2   7   4    3.60    0.70
   1  -7  -4  414.96    9.10
   1  -7  -4  407.26    9.90
  -1   7   4  405.66    9.50
   0  -7  -4  102.79    3.40
   0  -7  -4  104.39    2.80
   0   7   4  104.99    2.90
  -1  -7  -4  283.57    6.80
  -1  -7  -4  291.17    7.30
   1   7   4  300.67    6.70
  -2  -7  -4    7.60    0.70
  -2  -7  -4    8.90    1.00
   2   7   4    9.50    0.60
  -3  -7  -4  192.58    4.80
  -4  -7  -4   70.99    2.30
  -5  -7  -4   45.40    1.80
  -6  -7  -4   33.00    0.90
  -6  -7  -4   31.90    1.50
  -7  -7  -4  117.89    3.60
  -7  -7  -4  122.49    2.90
  -8  -7  -4   14.90    1.30
  -8  -7  -4   15.30    0.80
  -9  -7  -4   12.50    1.20
  -9  -7  -4   12.10    0.90
 -10  -7  -4  138.59    4.30
 -10  -7  -4  139.99    3.90
 -11  -7  -4  259.27    6.60
 -11  -7  -4  259.57    6.90
 -12  -7  -4   74.59    3.00
 -12  -7  -4   74.39    2.80
 -13  -7  -4   22.00    1.60
 -13  -7  -4   22.10    1.90
 -14  -7  -4   34.00    2.10
 -14  -7  -4   31.80    2.00
 -15  -7  -4   38.40    2.30
 -15  -7  -4   36.60    2.30
 -16  -7  -4    8.60    1.50
 -16  -7  -4    6.70    1.40
 -17  -7  -4   58.59    2.90
 -17  -7  -4   61.19    3.30
 -18  -7  -4    0.50    1.10
 -19  -7  -4   18.10    2.40
 -20  -7  -4    3.20    1.60
 -13   8   4   -2.90    1.30
 -12   8   4   10.40    2.10
 -11   8   4   -0.20    1.40
 -10   8   4    8.40    1.80
  -9   8   4   32.10    2.80
   8  -8  -4    2.70    1.10
  -8   8   4    5.80    1.30
   7  -8  -4   21.90    2.10
  -7   8   4   28.90    2.40
   6  -8  -4   99.59    3.90
  -6   8   4  103.09    4.00
   5  -8  -4    6.20    1.20
  -5   8   4    5.40    1.10
   4  -8  -4   67.79    2.90
  -4   8   4   70.59    2.90
   3  -8  -4  110.59    3.80
   3  -8  -4  108.89    3.00
  -3   8   4  107.69    3.60
   2  -8  -4    4.60    0.60
   2  -8  -4    5.70    1.00
  -2   8   4    7.50    1.00
   1  -8  -4    9.40    0.80
   1  -8  -4    7.40    1.10
  -1   8   4    7.20    0.90
   0  -8  -4   91.89    3.20
   0  -8  -4   90.49    2.70
   0   8   4   93.79    2.80
  -1  -8  -4  124.29    3.30
  -1  -8  -4  116.59    3.80
   1   8   4  121.29    3.20
  -2  -8  -4   72.79    2.30
  -2  -8  -4   66.89    2.60
   2   8   4   72.19    2.00
  -3  -8  -4  136.09    3.70
   3   8   4  135.89    3.10
  -4  -8  -4  226.28    5.70
  -5  -8  -4  731.93   16.20
  -6  -8  -4  118.29    3.50
  -7  -8  -4    1.60    0.60
  -7  -8  -4    0.90    0.30
  -8  -8  -4   36.30    1.30
  -8  -8  -4   32.00    1.70
  -9  -8  -4   11.10    0.90
  -9  -8  -4   10.80    1.20
 -10  -8  -4   62.49    2.20
 -10  -8  -4   67.29    2.70
 -11  -8  -4    3.30    0.70
 -11  -8  -4    3.90    0.90
 -12  -8  -4   13.20    1.20
 -12  -8  -4   13.90    1.50
 -13  -8  -4   31.20    2.00
 -13  -8  -4   35.60    1.90
 -14  -8  -4   28.00    1.90
 -14  -8  -4   28.90    2.00
 -15  -8  -4    1.90    1.00
 -15  -8  -4    1.10    0.90
 -16  -8  -4    7.30    1.40
 -16  -8  -4    7.30    1.40
 -17  -8  -4    3.80    1.30
 -17  -8  -4    5.20    1.30
 -18  -8  -4    5.00    1.40
 -18  -8  -4    1.40    1.20
 -12   9   4    3.60    1.80
 -11   9   4   28.60    3.00
 -10   9   4    5.00    1.60
  -9   9   4    3.20    1.50
   8  -9  -4   33.20    2.80
  -8   9   4   38.10    2.60
   7  -9  -4   42.10    2.70
  -7   9   4   36.30    2.60
   6  -9  -4    3.50    1.10
  -6   9   4    3.10    1.00
   5  -9  -4  123.49    4.50
  -5   9   4  128.99    4.40
   4  -9  -4   42.20    2.40
  -4   9   4   41.90    2.30
   3  -9  -4  131.29    4.40
   3  -9  -4  125.29    4.30
  -3   9   4  124.99    4.00
   2  -9  -4  218.08    6.20
   2  -9  -4  212.28    5.30
  -2   9   4  212.38    5.70
   1  -9  -4   15.10    1.00
   1  -9  -4   18.30    1.60
  -1   9   4   13.40    1.20
   0  -9  -4    0.00    0.60
   0  -9  -4    2.30    0.60
   0   9   4    0.80    0.50
  -1  -9  -4  206.98    5.20
  -1  -9  -4  202.68    5.70
   1   9   4  199.88    5.00
  -2  -9  -4  169.38    5.00
  -2  -9  -4  174.18    4.60
   2   9   4  170.98    4.10
  -3  -9  -4  269.57    6.70
  -3  -9  -4  274.27    7.10
   3   9   4  276.17    6.00
  -4  -9  -4   24.40    1.40
  -5  -9  -4  109.89    3.40
  -6  -9  -4  990.00   21.70
  -7  -9  -4   61.99    1.60
  -7  -9  -4   60.29    2.40
  -8  -9  -4    2.10    0.40
  -8  -9  -4    3.10    0.80
  -9  -9  -4   21.70    1.50
  -9  -9  -4   20.00    1.00
 -10  -9  -4   35.00    2.00
 -10  -9  -4   33.80    1.50
 -11  -9  -4   88.79    2.80
 -11  -9  -4   89.29    3.30
 -12  -9  -4   26.60    1.50
 -12  -9  -4   26.20    1.80
 -13  -9  -4    0.80    0.90
 -13  -9  -4    2.60    0.80
 -14  -9  -4  108.19    4.00
 -14  -9  -4  127.19    4.40
 -15  -9  -4   75.59    3.30
 -16  -9  -4    1.40    1.10
 -17  -9  -4    0.40    1.00
 -18  -9  -4   12.70    1.80
 -11  10   4    2.80    1.60
 -10  10   4   30.30    3.00
  -9  10   4   -0.70    1.10
   8 -10  -4    1.80    1.30
  -8  10   4   -0.60    1.00
   7 -10  -4   20.00    2.20
  -7  10   4   23.80    2.30
   6 -10  -4   53.39    3.00
  -6  10   4   54.79    2.90
   5 -10  -4   27.80    2.40
  -5  10   4   28.70    2.10
   4 -10  -4    8.40    1.40
  -4  10   4    7.90    1.20
   3 -10  -4   14.80    1.60
  -3  10   4   15.10    1.50
   2 -10  -4    1.20    0.60
   2 -10  -4    1.10    0.80
  -2  10   4    2.10    0.70
   1 -10  -4  102.39    3.10
   1 -10  -4   95.49    3.70
  -1  10   4  105.99    3.30
   0 -10  -4   13.90    1.20
   0 -10  -4   11.90    1.40
   0  10   4   12.30    1.10
  -1 -10  -4   21.60    1.60
  -1 -10  -4   23.40    1.30
   1  10   4   20.80    1.20
  -2 -10  -4    7.40    0.90
  -2 -10  -4    7.20    1.10
   2  10   4    9.50    0.80
  -3 -10  -4  192.28    5.70
  -3 -10  -4  203.68    5.30
   3  10   4  203.48    4.60
  -4 -10  -4   40.40    1.90
   4  10   4   38.60    1.10
  -5 -10  -4   33.50    1.70
  -6 -10  -4  123.29    3.80
  -7 -10  -4  110.89    3.60
  -8 -10  -4   29.20    1.70
  -9 -10  -4    3.60    0.90
 -10 -10  -4    8.50    1.20
 -11 -10  -4    1.20    0.80
 -12 -10  -4    8.70    1.40
 -13 -10  -4    4.70    1.10
 -14 -10  -4   61.79    3.00
 -15 -10  -4  111.79    4.30
 -16 -10  -4   -1.30    0.80
 -17 -10  -4    2.40    1.30
 -18 -10  -4   11.70    1.80
 -19 -10  -4   -1.30    1.10
 -10  11   4   10.30    2.10
  -9  11   4    0.00    1.20
   8 -11  -4    0.30    1.20
  -8  11   4    0.10    1.00
   7 -11  -4   65.99    3.60
  -7  11   4   64.59    3.50
   6 -11  -4    2.80    1.30
  -6  11   4    2.80    1.20
   5 -11  -4   32.90    2.60
  -5  11   4   31.20    2.10
   4 -11  -4   41.80    2.50
  -4  11   4   42.60    2.40
   3 -11  -4  195.48    6.00
  -3  11   4  191.08    5.60
   2 -11  -4    1.10    0.80
   2 -11  -4    0.30    0.60
  -2  11   4    0.10    0.60
   1 -11  -4   24.80    1.50
   1 -11  -4   22.40    1.90
  -1  11   4   23.60    1.50
   0 -11  -4   60.29    2.30
   0 -11  -4   56.69    2.70
   0  11   4   54.59    2.20
  -1 -11  -4   57.89    2.70
  -1 -11  -4   64.99    2.40
   1  11   4   60.89    2.10
  -2 -11  -4   78.99    3.20
  -2 -11  -4   82.39    2.80
   2  11   4   83.99    2.70
  -3 -11  -4   32.60    2.00
  -3 -11  -4   29.70    1.60
  -4 -11  -4   56.79    2.60
  -4 -11  -4   60.49    2.40
  -5 -11  -4  225.98    6.10
  -6 -11  -4    8.70    1.20
  -7 -11  -4  107.29    3.60
  -8 -11  -4   -0.10    0.70
  -9 -11  -4  103.09    3.60
 -10 -11  -4   -0.50    0.70
 -11 -11  -4    2.00    0.90
 -12 -11  -4    0.80    1.00
 -13 -11  -4   35.00    2.40
 -14 -11  -4  118.09    4.40
 -15 -11  -4   13.10    1.70
 -16 -11  -4    1.20    1.10
 -17 -11  -4    1.30    1.20
 -18 -11  -4   13.10    1.80
 -19 -11  -4   11.00    1.90
  -9  12   4   -0.20    1.10
   8 -12  -4    3.30    1.40
  -8  12   4    5.00    1.50
   7 -12  -4   59.59    3.50
  -7  12   4   62.59    3.50
   6 -12  -4  121.39    5.00
  -6  12   4  122.29    4.70
   5 -12  -4   20.10    2.20
  -5  12   4   19.70    2.00
   4 -12  -4    0.00    1.00
  -4  12   4    0.40    0.80
   3 -12  -4   80.79    3.60
  -3  12   4   81.49    3.30
   2 -12  -4   65.49    3.10
  -2  12   4   60.09    2.70
   1 -12  -4   19.60    1.50
   1 -12  -4   20.90    2.00
  -1  12   4   20.90    1.80
   0 -12  -4    1.30    0.70
   0 -12  -4    0.50    0.90
  -1 -12  -4   12.60    1.60
  -1 -12  -4   11.20    1.20
  -2 -12  -4  355.46    9.20
  -2 -12  -4  346.07    8.60
  -3 -12  -4    3.30    1.00
  -3 -12  -4    1.90    0.80
  -4 -12  -4   21.50    1.50
  -4 -12  -4   24.40    1.80
  -5 -12  -4   19.80    1.60
  -6 -12  -4    1.60    0.80
  -7 -12  -4    0.80    0.80
  -8 -12  -4   30.20    1.90
  -9 -12  -4   37.10    2.10
 -10 -12  -4  362.36    9.30
 -11 -12  -4    8.00    1.30
 -12 -12  -4   76.99    3.30
 -13 -12  -4   28.50    2.10
 -14 -12  -4   11.40    1.60
 -15 -12  -4    0.90    1.10
 -16 -12  -4   32.90    2.40
 -17 -12  -4   20.30    2.20
 -18 -12  -4   14.10    2.00
 -19 -12  -4    1.00    1.20
  -9  13   4    3.10    1.60
   8 -13  -4    3.00    1.60
  -8  13   4    3.00    1.50
   7 -13  -4    1.40    1.30
  -7  13   4    2.30    1.30
   6 -13  -4  136.09    5.30
  -6  13   4  117.69    5.40
   5 -13  -4   59.29    3.40
   4 -13  -4   37.60    2.80
   3 -13  -4   19.40    2.10
   2 -13  -4    0.20    0.90
   1 -13  -4    4.10    1.00
   1 -13  -4    4.30    1.20
   0 -13  -4    1.90    1.00
   0 -13  -4    2.30    0.80
  -1 -13  -4   64.69    2.60
  -1 -13  -4   61.29    3.00
  -2 -13  -4   89.69    3.30
  -2 -13  -4   94.29    3.70
  -3 -13  -4  271.27    7.20
  -3 -13  -4  276.47    7.60
  -4 -13  -4   27.50    2.00
  -4 -13  -4   27.70    1.80
  -5 -13  -4   18.40    1.80
  -5 -13  -4   23.20    1.70
  -6 -13  -4  116.19    4.00
  -7 -13  -4   73.99    3.10
  -8 -13  -4    5.40    1.10
  -9 -13  -4   86.69    3.40
 -10 -13  -4  112.59    4.10
 -11 -13  -4   23.90    2.10
 -12 -13  -4    0.40    0.90
 -13 -13  -4   -0.60    1.00
 -14 -13  -4   59.69    3.10
 -15 -13  -4   20.90    2.30
 -16 -13  -4    0.20    1.20
 -17 -13  -4   11.40    1.80
 -18 -13  -4   -1.90    1.20
 -19 -13  -4    3.40    1.60
   8 -14  -4   14.00    2.30
   7 -14  -4    1.40    1.30
   6 -14  -4   10.10    1.90
   5 -14  -4   15.20    2.10
   4 -14  -4   70.39    3.70
   3 -14  -4   41.70    2.80
   2 -14  -4   14.00    1.90
   1 -14  -4   16.00    1.90
   0 -14  -4    0.70    1.10
   0 -14  -4    0.70    0.80
  -1 -14  -4   27.80    2.10
  -1 -14  -4   31.30    2.00
  -2 -14  -4  117.79    4.10
  -2 -14  -4  123.49    4.40
  -3 -14  -4   96.39    3.50
  -3 -14  -4   94.69    3.80
  -4 -14  -4  168.78    5.10
  -4 -14  -4  169.18    5.50
  -5 -14  -4  123.59    4.10
  -5 -14  -4  117.29    4.30
  -6 -14  -4   45.90    2.40
  -6 -14  -4   47.10    2.70
  -7 -14  -4   38.90    2.30
  -8 -14  -4    8.60    1.40
  -9 -14  -4   34.60    2.30
 -10 -14  -4   37.40    2.40
 -11 -14  -4   48.10    2.80
 -12 -14  -4    1.50    1.20
 -13 -14  -4    0.30    1.10
 -14 -14  -4    3.40    1.30
 -15 -14  -4   12.60    1.90
 -16 -14  -4    1.50    1.30
 -17 -14  -4    8.40    1.70
 -18 -14  -4    6.10    1.60
 -19 -14  -4   12.10    2.00
   6 -15  -4   11.40    2.10
   5 -15  -4   18.80    2.30
   4 -15  -4   19.50    2.30
   3 -15  -4  296.17    8.80
   2 -15  -4   49.99    3.00
   1 -15  -4    5.20    1.40
   0 -15  -4   -0.30    0.90
  -1 -15  -4   20.60    2.10
  -1 -15  -4   20.00    1.80
  -2 -15  -4    0.30    0.90
  -2 -15  -4   -0.20    1.00
  -3 -15  -4    4.90    1.20
  -3 -15  -4    6.10    1.40
  -4 -15  -4   39.40    2.40
  -4 -15  -4   42.70    2.60
  -5 -15  -4   42.80    2.60
  -5 -15  -4   41.40    2.30
  -6 -15  -4   21.80    1.90
  -6 -15  -4   21.50    2.00
  -7 -15  -4   51.29    2.70
  -7 -15  -4   55.39    2.80
  -8 -15  -4   32.70    2.50
  -9 -15  -4    5.20    1.40
 -10 -15  -4   50.79    2.90
 -11 -15  -4   16.00    2.00
 -12 -15  -4    6.10    1.50
 -13 -15  -4    0.20    1.20
 -14 -15  -4   66.89    3.50
 -15 -15  -4   18.40    2.20
 -16 -15  -4    3.30    1.40
 -17 -15  -4    5.20    1.70
 -18 -15  -4    5.40    1.70
   5 -16  -4    0.80    1.30
   4 -16  -4    6.20    1.60
   3 -16  -4    9.00    1.90
   2 -16  -4  155.38    5.70
   1 -16  -4  127.39    5.00
   0 -16  -4    7.60    1.50
  -1 -16  -4   32.90    2.20
  -1 -16  -4   33.10    2.40
  -2 -16  -4    1.30    1.00
  -2 -16  -4    3.20    1.10
  -3 -16  -4   33.40    2.40
  -3 -16  -4   33.30    2.20
  -4 -16  -4   52.39    2.90
  -4 -16  -4   59.09    2.80
  -5 -16  -4   11.40    1.60
  -5 -16  -4    9.90    1.50
  -6 -16  -4   11.00    1.60
  -6 -16  -4   10.00    1.50
  -7 -16  -4  110.49    4.30
  -7 -16  -4  111.29    4.20
  -8 -16  -4   67.49    3.20
  -9 -16  -4    0.80    1.20
 -10 -16  -4   77.29    3.60
 -11 -16  -4   20.90    2.20
 -12 -16  -4    0.10    1.20
 -13 -16  -4    2.80    1.40
 -14 -16  -4   39.40    3.10
 -15 -16  -4    8.10    1.70
 -16 -16  -4   14.30    2.10
 -17 -16  -4    2.20    1.50
 -18 -16  -4   -0.90    1.50
   4 -17  -4    2.40    1.60
   3 -17  -4    2.60    1.50
   2 -17  -4   18.30    2.30
   1 -17  -4   22.50    2.40
   0 -17  -4    3.50    1.40
  -1 -17  -4    1.90    1.20
  -2 -17  -4   60.49    3.10
  -2 -17  -4   56.49    3.20
  -3 -17  -4    5.20    1.20
  -3 -17  -4    6.00    1.40
  -4 -17  -4   27.70    2.50
  -4 -17  -4   27.20    2.30
  -5 -17  -4   17.70    1.90
  -5 -17  -4   15.40    1.90
  -6 -17  -4   41.40    2.70
  -6 -17  -4   48.40    2.80
  -7 -17  -4   16.30    1.90
  -7 -17  -4   18.60    2.00
  -8 -17  -4    5.80    1.30
  -8 -17  -4    3.30    1.20
  -9 -17  -4    5.70    1.40
 -10 -17  -4   47.30    3.00
 -11 -17  -4   96.29    4.20
 -12 -17  -4   23.20    2.40
 -13 -17  -4    2.70    1.40
 -14 -17  -4   30.10    2.90
 -15 -17  -4   -0.50    1.30
 -16 -17  -4    3.80    1.80
 -17 -17  -4    3.30    1.60
   2 -18  -4    2.00    1.30
   1 -18  -4    1.70    1.40
   0 -18  -4    3.90    1.50
  -1 -18  -4   82.99    4.10
  -2 -18  -4   39.40    2.70
  -2 -18  -4   41.80    2.90
  -3 -18  -4    1.10    1.20
  -3 -18  -4    2.70    1.10
  -4 -18  -4   11.00    1.70
  -4 -18  -4   11.60    1.70
  -5 -18  -4    2.20    1.20
  -5 -18  -4    0.50    1.10
  -6 -18  -4   48.90    3.20
  -6 -18  -4   49.80    2.90
  -7 -18  -4    1.60    1.10
  -8 -18  -4   17.60    2.00
  -9 -18  -4   17.90    2.10
 -10 -18  -4   71.19    3.60
 -11 -18  -4   17.50    2.10
 -12 -18  -4   17.40    2.30
 -13 -18  -4   37.80    2.90
 -14 -18  -4   51.19    3.50
 -15 -18  -4    1.10    1.50
 -16 -18  -4    1.20    1.50
   0 -19  -4    3.20    1.40
  -1 -19  -4   43.90    3.10
  -2 -19  -4  129.79    5.30
  -3 -19  -4   29.00    2.60
  -4 -19  -4   11.20    1.80
  -5 -19  -4    1.80    1.30
  -6 -19  -4    1.00    1.10
  -7 -19  -4    9.00    1.60
  -8 -19  -4    4.00    1.40
  -9 -19  -4    0.90    1.20
 -10 -19  -4    2.90    1.30
 -11 -19  -4   27.70    2.60
 -12 -19  -4    7.90    1.80
 -13 -19  -4    5.70    1.60
 -14 -19  -4   46.70    3.50
 -15 -19  -4   14.60    2.30
  -4 -20  -4    3.00    1.30
  -5 -20  -4   14.20    2.00
  -6 -20  -4   24.50    2.50
  -7 -20  -4    2.70    1.30
  -8 -20  -4    6.80    1.60
  -9 -20  -4    5.00    1.50
 -10 -20  -4    0.50    1.20
 -11 -20  -4    2.80    1.30
 -12 -20  -4   14.10    2.20
 -13 -20  -4   10.50    1.90
  -6 -21  -4    4.50    1.60
  -7 -21  -4    1.00    1.20
  -8 -21  -4   26.10    2.70
  -9 -21  -4   41.50    3.20
 -10 -21  -4    0.30    1.20
  -7 -19   5   25.40    3.10
  -6 -19   5    6.50    1.90
  -5 -19   5    0.30    1.40
  -4 -19   5    0.90    1.40
  -3 -19   5   -2.40    1.20
  -2 -19   5   26.50    3.00
 -10 -18   5   16.80    2.40
  -9 -18   5   14.10    2.30
  -8 -18   5    1.10    1.40
  -7 -18   5   34.70    3.20
  -6 -18   5   75.59    4.30
  -5 -18   5   20.20    2.70
  -4 -18   5   11.30    2.20
  -3 -18   5    5.60    1.70
  -2 -18   5   12.50    2.20
  -1 -18   5   30.10    3.10
   0 -18   5    0.50    1.40
   1 -18   5    4.00    1.90
 -12 -17   5   14.90    2.30
 -11 -17   5   72.59    4.10
 -10 -17   5    7.20    1.80
  -9 -17   5   26.00    2.80
  -8 -17   5   -0.50    1.20
  -7 -17   5   41.60    3.20
  -6 -17   5   81.59    4.30
  -5 -17   5   54.19    3.50
  -4 -17   5    9.00    1.90
  -3 -17   5   55.39    3.60
  -2 -17   5   22.10    2.60
  -1 -17   5   21.60    2.60
   0 -17   5   12.60    2.20
   1 -17   5    3.80    1.70
   2 -17   5   61.29    4.10
   3 -17   5  156.98    6.50
 -13 -16   5    6.00    1.70
 -12 -16   5   15.50    2.20
 -11 -16   5    0.70    1.30
 -10 -16   5    2.50    1.50
  -9 -16   5   -0.80    1.00
  -8 -16   5   26.50    2.70
  -7 -16   5    1.20    1.30
  -6 -16   5   44.50    3.10
  -5 -16   5   13.20    2.00
  -4 -16   5    3.90    1.60
  -3 -16   5   51.39    3.30
  -2 -16   5    1.20    1.40
  -1 -16   5    4.10    1.60
   0 -16   5    3.70    1.50
   1 -16   5    0.90    1.30
   2 -16   5   20.90    2.70
   3 -16   5   13.30    2.10
 -14 -15   5    8.30    1.80
 -13 -15   5    1.60    1.30
 -12 -15   5    1.00    1.20
 -11 -15   5   36.60    2.80
 -10 -15   5   98.39    4.50
  -9 -15   5   19.10    2.30
  -8 -15   5   33.30    2.90
  -7 -15   5    6.60    1.50
  -6 -15   5    5.60    1.50
  -5 -15   5   -1.20    0.90
  -4 -15   5   12.40    1.90
  -3 -15   5   99.99    4.50
  -2 -15   5  269.37    8.30
  -1 -15   5   46.30    3.20
   0 -15   5    8.40    1.70
  -1  15  -5    1.20    1.20
   1 -15   5   -0.80    1.10
  -2  15  -5   10.00    1.70
   2 -15   5    8.00    1.80
  -3  15  -5    1.20    1.10
   3 -15   5    0.60    1.40
  -4  15  -5    3.50    1.40
  -5  15  -5   12.70    1.90
  -6  15  -5   92.29    4.40
  -7  15  -5   34.30    3.00
 -14 -14   5   13.00    1.90
 -13 -14   5    0.80    1.10
 -12 -14   5   10.10    1.70
 -11 -14   5    8.80    1.70
 -10 -14   5  118.29    4.80
  -9 -14   5  190.28    6.50
  -8 -14   5    1.30    1.10
  -7 -14   5   20.70    2.20
  -6 -14   5   25.80    2.50
  -5 -14   5    2.70    1.30
   4  14  -5    0.00    1.10
  -4 -14   5    0.40    1.00
   3  14  -5   24.30    2.10
  -3 -14   5   21.40    2.20
   2  14  -5  264.57    7.40
  -2 -14   5  238.88    7.70
   1  14  -5  631.34   15.40
  -1 -14   5  643.14   16.00
   0  14  -5    7.50    1.40
   0 -14   5    3.60    1.40
  -1  14  -5   10.40    1.60
   1 -14   5   10.80    1.90
  -2  14  -5   24.30    2.20
   2 -14   5   15.70    2.10
  -3  14  -5   25.50    2.30
   3 -14   5   28.00    2.80
  -4  14  -5   15.10    1.90
  -5  14  -5   -0.30    1.10
  -6  14  -5   27.60    2.60
  -7  14  -5  262.77    8.30
  -8  14  -5    4.00    1.50
 -14 -13   5    1.40    1.10
 -13 -13   5    5.90    1.50
 -12 -13   5    1.70    1.20
 -11 -13   5   55.09    3.10
 -10 -13   5    6.50    1.50
  -9 -13   5   85.99    3.80
  -9 -13   5   85.39    3.80
  -8 -13   5   64.49    3.40
  -8 -13   5   64.29    3.30
  -7 -13   5   44.60    2.70
  -7 -13   5   45.40    2.90
  -6 -13   5   37.50    2.50
  -6 -13   5   43.00    2.70
  -5 -13   5    2.70    1.10
  -5 -13   5    2.80    1.20
   4  13  -5   22.80    2.10
  -4 -13   5   24.80    2.30
   3  13  -5    9.40    1.50
  -3 -13   5    9.20    1.60
   2  13  -5    0.80    1.00
  -2 -13   5   -0.10    0.90
   1  13  -5  101.79    4.00
  -1 -13   5  106.29    4.30
   0  13  -5   73.09    3.30
   0 -13   5   69.49    3.50
  -1  13  -5  106.29    4.00
   1 -13   5  102.39    4.40
  -2  13  -5    4.60    1.20
   2 -13   5    1.80    1.30
  -3  13  -5    2.80    1.20
   3 -13   5    5.40    1.50
  -4  13  -5    1.40    1.10
   4 -13   5    2.50    1.30
  -5  13  -5    0.70    1.00
  -6  13  -5    5.80    1.40
  -7  13  -5    5.70    1.60
  -8  13  -5   98.99    4.50
  -9  13  -5    0.40    1.30
 -10  13  -5   -0.80    1.20
 -13 -12   5   21.10    2.10
 -13 -12   5   19.10    2.40
 -12 -12   5    0.50    0.90
 -12 -12   5    1.20    1.10
 -11 -12   5    0.50    1.00
 -11 -12   5    1.10    1.20
 -10 -12   5    5.30    1.30
 -10 -12   5    7.70    1.40
  -9 -12   5    8.00    1.50
  -9 -12   5   10.90    1.60
  -8 -12   5    4.50    1.20
  -8 -12   5    6.90    1.40
  -7 -12   5  108.49    4.20
  -7 -12   5  106.19    4.20
  -6 -12   5  140.59    4.90
  -6 -12   5  139.79    4.90
  -5 -12   5    2.60    1.00
  -5 -12   5    1.80    0.90
  -4 -12   5   40.00    2.50
   3  12  -5   42.40    2.50
  -3 -12   5   41.00    2.50
  -2 -12   5   26.90    2.30
   1  12  -5    2.10    1.00
  -1 -12   5    4.40    1.20
   0  12  -5   12.90    1.50
   0 -12   5   13.80    1.80
  -1  12  -5   72.49    3.20
   1 -12   5   67.79    3.40
  -2  12  -5  121.29    4.50
   2 -12   5  133.69    4.90
  -3  12  -5   28.90    2.10
   3 -12   5   27.00    2.50
  -4  12  -5    2.10    1.10
   4 -12   5    0.00    1.00
  -5  12  -5    7.20    1.50
  -6  12  -5   10.10    1.60
  -7  12  -5    3.10    1.20
  -8  12  -5   13.10    2.00
  -9  12  -5    0.30    1.10
 -10  12  -5    1.80    1.50
 -11  12  -5   -0.50    1.40
 -16 -11   5    1.60    1.50
 -15 -11   5    0.40    1.30
 -14 -11   5   22.70    2.60
 -13 -11   5   64.69    3.70
 -13 -11   5   55.49    3.00
 -12 -11   5    3.50    1.40
 -12 -11   5    0.20    1.00
 -11 -11   5   69.89    3.20
 -11 -11   5   65.59    3.50
 -10 -11   5   38.40    2.70
 -10 -11   5   43.00    2.60
  -9 -11   5    5.60    1.40
  -9 -11   5    5.10    1.20
  -8 -11   5   13.00    1.70
  -8 -11   5   15.30    1.80
  -7 -11   5   11.10    1.50
  -7 -11   5    9.90    1.40
  -6 -11   5  240.28    7.00
  -6 -11   5  234.28    6.90
  -5 -11   5  165.48    5.30
  -5 -11   5  165.18    5.30
  -4 -11   5   60.89    2.90
  -4 -11   5   67.39    3.10
   3  11  -5   32.40    2.10
  -3 -11   5   29.90    2.20
   2  11  -5  163.68    5.20
  -2 -11   5  169.08    5.40
   1  11  -5    2.00    0.90
  -1 -11   5    3.90    1.10
   0  11  -5    3.30    1.00
   0 -11   5    2.00    1.00
  -1  11  -5    6.60    1.30
   1 -11   5    6.90    1.30
  -2  11  -5  397.46   10.30
   2 -11   5  404.66   10.70
  -3  11  -5  224.58    6.70
   3 -11   5  225.18    7.00
  -4  11  -5   -0.60    0.90
   4 -11   5   -0.50    0.80
  -5  11  -5    2.10    1.00
  -6  11  -5   47.00    2.70
  -7  11  -5   24.90    2.30
  -8  11  -5    0.90    1.10
  -9  11  -5    1.80    1.40
 -10  11  -5   25.30    2.70
 -11  11  -5    9.90    2.00
 -12  11  -5   -0.60    1.30
 -16 -10   5   -0.40    1.30
 -15 -10   5   -0.70    1.20
 -14 -10   5    6.60    1.80
 -13 -10   5    9.80    1.90
 -12 -10   5    7.50    1.70
 -12 -10   5    8.40    1.40
 -11 -10   5   52.89    3.00
 -11 -10   5   51.59    2.70
 -10 -10   5    0.60    1.00
 -10 -10   5   -0.40    0.80
  -9 -10   5   11.90    1.60
  -9 -10   5   13.20    1.60
  -8 -10   5   23.50    2.10
  -8 -10   5   20.50    1.90
  -7 -10   5   20.70    1.90
  -7 -10   5   20.70    1.90
  -6 -10   5   28.50    2.00
  -6 -10   5   21.20    1.90
  -5 -10   5  164.48    5.30
  -5 -10   5  175.28    5.30
  -4 -10   5    6.00    1.20
  -4 -10   5    8.60    1.30
  -3 -10   5  174.78    5.40
  -3 -10   5  179.68    5.40
   2  10  -5   31.20    2.00
  -2 -10   5   30.60    2.00
   1  10  -5  304.97    8.30
  -1 -10   5  324.77    8.50
   0  10  -5   34.80    2.10
   0 -10   5   37.40    2.20
  -1  10  -5   28.60    2.00
   1 -10   5   35.20    2.20
  -2  10  -5    7.10    1.20
   2 -10   5    6.80    1.20
  -3  10  -5  124.39    4.30
   3 -10   5  127.09    4.60
  -4  10  -5   49.90    2.60
   4 -10   5   50.89    2.80
  -5  10  -5   35.90    2.30
  -6  10  -5    0.00    0.90
  -7  10  -5  133.59    4.90
  -8  10  -5    4.00    1.30
  -9  10  -5    2.90    1.40
 -10  10  -5   -1.10    1.00
 -11  10  -5   -0.20    1.20
 -12  10  -5    5.80    1.80
 -13  10  -5   -0.30    1.40
 -16  -9   5   17.30    2.50
 -15  -9   5   22.20    2.70
 -14  -9   5   36.20    3.20
 -13  -9   5   37.10    2.80
 -12  -9   5    6.60    1.20
 -12  -9   5    7.00    1.60
 -11  -9   5  294.77    8.60
 -11  -9   5  288.27    7.90
 -10  -9   5   13.00    1.50
 -10  -9   5   17.40    2.00
  -9  -9   5    6.40    1.20
  -9  -9   5    6.90    1.40
  -8  -9   5   10.90    1.30
  -8  -9   5    6.40    1.20
  -7  -9   5   89.79    3.40
  -7  -9   5   89.69    3.60
  -6  -9   5   81.89    3.40
  -6  -9   5   89.09    3.30
  -5  -9   5   71.79    2.90
  -5  -9   5   68.69    3.00
  -4  -9   5    1.00    0.70
  -4  -9   5    2.40    0.90
  -3  -9   5   18.90    1.70
  -3  -9   5   23.30    1.90
  -2  -9   5  329.47    8.60
  -2  -9   5  332.67    8.60
   1   9  -5   19.50    1.70
  -1  -9   5   17.20    1.60
   0   9  -5   19.40    1.70
   0  -9   5   17.40    1.60
  -1   9  -5   -0.10    0.70
   1  -9   5    0.80    0.70
  -2   9  -5  179.08    5.30
   2  -9   5  172.38    5.50
  -3   9  -5   69.69    2.90
   3  -9   5   64.59    3.10
  -4   9  -5    4.30    1.10
  -5   9  -5    6.90    1.30
  -6   9  -5  114.39    4.20
  -7   9  -5    4.30    1.30
  -8   9  -5   52.49    2.90
  -9   9  -5   15.10    1.90
 -10   9  -5    2.00    1.20
 -11   9  -5    6.20    1.70
 -12   9  -5    7.50    1.80
 -13   9  -5   -1.50    1.20
 -14   9  -5   -0.10    1.40
 -16  -8   5   -0.10    1.40
 -15  -8   5    1.90    1.40
 -14  -8   5    7.10    1.80
 -13  -8   5    1.70    1.20
 -12  -8   5   29.10    2.70
 -11  -8   5   15.20    2.00
 -11  -8   5   17.60    1.70
 -10  -8   5  247.28    7.40
 -10  -8   5  246.48    6.80
  -9  -8   5   94.39    3.90
  -9  -8   5   97.59    3.50
  -8  -8   5  106.29    3.70
  -8  -8   5  109.89    4.10
  -7  -8   5  125.59    4.40
  -7  -8   5  123.09    4.10
  -6  -8   5  105.79    3.80
  -6  -8   5  103.69    3.60
  -5  -8   5   -0.10    0.70
  -5  -8   5   -0.20    0.60
  -4  -8   5  145.79    4.60
  -4  -8   5  141.69    4.50
  -3  -8   5    1.70    0.70
  -3  -8   5    2.70    0.90
  -2  -8   5  692.93   16.20
  -2  -8   5  715.73   16.20
   1   8  -5   87.69    3.20
  -1  -8   5   89.69    3.30
   0   8  -5   45.90    2.20
   0  -8   5   45.00    2.20
  -1   8  -5  470.75   11.60
   1  -8   5  490.95   11.80
  -2   8  -5   39.00    2.00
   2  -8   5   36.20    2.10
  -3   8  -5   21.00    1.60
   3  -8   5   20.40    1.80
  -4   8  -5   10.60    1.40
  -5   8  -5   11.30    1.50
  -6   8  -5    5.10    1.10
  -7   8  -5   71.79    3.20
  -8   8  -5   19.30    1.90
  -9   8  -5   66.59    3.30
 -10   8  -5    4.10    1.30
 -11   8  -5    1.50    1.20
 -12   8  -5   -2.00    1.00
 -13   8  -5    1.00    1.40
 -14   8  -5   34.50    3.20
 -17  -7   5    8.80    2.10
 -16  -7   5   22.50    2.80
 -15  -7   5   -1.10    1.20
 -14  -7   5   69.29    4.00
 -13  -7   5    2.20    1.30
 -12  -7   5   41.20    3.00
 -11  -7   5    0.70    0.70
 -11  -7   5    0.50    1.10
 -10  -7   5   44.10    2.20
 -10  -7   5   45.70    2.80
  -9  -7   5    4.70    0.90
  -9  -7   5    4.20    1.20
  -8  -7   5   42.40    2.10
  -8  -7   5   45.60    2.50
  -7  -7   5    1.50    0.80
  -7  -7   5    0.30    0.70
  -6  -7   5   69.19    2.60
  -6  -7   5   67.99    2.90
  -5  -7   5  631.04   14.60
  -5  -7   5  640.44   14.90
  -4  -7   5    1.80    0.70
  -4  -7   5    1.90    0.80
  -3  -7   5  121.09    3.90
  -3  -7   5  116.59    3.80
  -2  -7   5    9.50    1.20
  -2  -7   5    9.60    1.20
  -1  -7   5   16.90    1.50
  -1  -7   5   18.40    1.40
   0   7  -5    6.40    1.00
   0  -7   5    7.20    1.00
  -1   7  -5   22.60    1.60
   1  -7   5   25.50    1.60
  -2   7  -5  168.18    4.90
   2  -7   5  165.58    5.00
  -3   7  -5  364.76    9.20
   3  -7   5  376.96    9.40
  -4   7  -5   49.60    2.40
  -5   7  -5   82.09    3.30
  -6   7  -5  258.27    7.20
  -7   7  -5    0.40    0.80
  -8   7  -5    6.10    1.40
  -9   7  -5   15.40    1.80
 -10   7  -5   58.29    3.10
 -11   7  -5    0.90    1.30
 -12   7  -5    9.70    1.90
 -13   7  -5   15.10    2.20
 -14   7  -5    1.50    1.40
 -15   7  -5   48.80    3.60
 -17  -6   5   19.10    2.80
 -16  -6   5   31.80    3.30
 -15  -6   5   28.70    3.10
 -14  -6   5    3.50    1.60
 -13  -6   5    1.20    1.20
 -12  -6   5   66.39    3.60
 -11  -6   5   42.60    2.70
 -10  -6   5    5.50    0.90
 -10  -6   5    7.70    1.50
  -9  -6   5    0.60    0.80
  -9  -6   5    1.00    0.70
  -8  -6   5    0.20    0.60
  -8  -6   5    0.90    0.90
  -7  -6   5   68.89    3.00
  -7  -6   5   71.49    2.60
  -6  -6   5   10.30    1.10
  -6  -6   5    9.00    1.30
  -5  -6   5    1.20    0.70
  -5  -6   5    0.80    0.70
  -4  -6   5   30.90    1.80
  -4  -6   5   28.40    1.60
  -3  -6   5  148.69    4.30
  -3  -6   5  144.59    4.40
  -2  -6   5  117.89    3.70
  -2  -6   5  121.99    3.80
  -1  -6   5    5.60    0.90
  -1  -6   5    5.60    0.90
   0  -6   5  131.69    4.00
  -1   6  -5    8.60    1.00
   1  -6   5   10.70    1.20
  -2   6  -5  117.89    3.80
   2  -6   5  117.69    3.80
  -3   6  -5  437.86   10.60
   3  -6   5  439.46   10.70
  -4   6  -5  307.37    7.90
  -5   6  -5   46.50    2.30
  -6   6  -5  235.78    6.60
  -7   6  -5   21.10    1.90
  -8   6  -5   59.69    2.80
  -9   6  -5    5.60    1.20
 -10   6  -5    2.40    1.10
 -11   6  -5   32.60    2.40
 -12   6  -5   40.90    2.80
 -13   6  -5    1.30    1.20
 -14   6  -5   38.10    3.30
 -15   6  -5    0.90    1.40
 -16   6  -5   27.50    3.10
 -17  -5   5    1.00    1.60
 -16  -5   5   32.50    3.40
 -15  -5   5   66.69    4.20
 -14  -5   5  131.39    5.50
 -13  -5   5    2.50    1.30
 -12  -5   5    2.70    1.30
 -11  -5   5   82.69    3.80
 -10  -5   5    3.70    0.90
 -10  -5   5    4.00    1.20
  -9  -5   5    1.90    0.70
  -9  -5   5    3.70    1.10
  -8  -5   5   36.00    2.30
  -8  -5   5   39.80    1.80
  -7  -5   5    0.10    0.50
  -7  -5   5    1.00    0.80
  -6  -5   5   82.79    3.20
  -6  -5   5   85.69    2.80
  -5  -5   5  224.58    6.10
  -5  -5   5  212.88    5.60
  -4  -5   5  122.09    3.90
  -4  -5   5  121.39    3.60
  -3  -5   5   99.19    3.10
  -3  -5   5   93.09    3.20
  -2  -5   5  603.74   13.80
  -2  -5   5  593.84   13.50
  -1  -5   5    5.20    0.80
  -1  -5   5    8.20    1.00
   0  -5   5  324.27    7.90
   0  -5   5  313.27    7.80
  -1   5  -5   73.39    2.70
   1  -5   5   78.89    2.80
  -2   5  -5    5.80    0.90
   2  -5   5    5.20    0.90
  -3   5  -5  207.98    5.60
  -4   5  -5    6.10    1.00
  -5   5  -5    4.60    0.90
  -6   5  -5  373.96    9.40
  -7   5  -5  181.88    5.40
  -8   5  -5   -0.40    0.70
  -9   5  -5   -0.50    0.80
 -10   5  -5    1.00    0.90
 -11   5  -5    6.50    1.50
 -12   5  -5    1.60    1.10
 -13   5  -5    2.80    1.30
 -14   5  -5    1.40    1.40
 -15   5  -5    6.40    1.70
 -16   5  -5   10.90    2.10
 -17  -4   5    2.50    1.60
 -16  -4   5   -1.60    1.30
 -15  -4   5    6.90    1.80
 -14  -4   5   55.19    3.60
 -13  -4   5   57.99    3.50
 -12  -4   5   55.29    3.20
 -11  -4   5    9.10    1.60
 -10  -4   5  222.98    6.90
  -9  -4   5   94.09    3.80
  -9  -4   5   94.89    3.00
  -8  -4   5  141.39    3.90
  -8  -4   5  142.89    4.80
  -7  -4   5   31.50    2.00
  -7  -4   5   30.20    1.50
  -6  -4   5   42.20    2.20
  -6  -4   5   43.00    1.80
  -5  -4   5    3.80    0.80
  -5  -4   5    7.90    0.80
  -4  -4   5    6.80    0.80
  -4  -4   5    8.00    1.10
  -3  -4   5   69.59    2.60
  -3  -4   5   65.29    2.30
  -2  -4   5  149.09    4.10
  -2  -4   5  152.28    4.40
  -1  -4   5  489.55   11.30
  -1  -4   5  504.45   11.50
   0  -4   5  236.68    6.10
   0  -4   5  238.28    6.00
   1  -4   5   76.09    2.60
  -2   4  -5   22.10    1.40
   2  -4   5   19.60    1.30
  -3   4  -5    8.40    1.00
  -4   4  -5   88.99    3.00
  -5   4  -5    7.70    1.10
  -6   4  -5   49.50    2.20
  -7   4  -5  392.86    9.80
  -8   4  -5  299.77    7.90
  -9   4  -5    7.40    1.20
 -10   4  -5   21.20    2.00
 -11   4  -5  412.66   10.80
 -12   4  -5    0.50    1.00
 -13   4  -5   29.90    2.60
 -14   4  -5    1.10    1.10
 -15   4  -5   10.00    1.90
 -16   4  -5    4.50    1.60
 -17   4  -5    2.60    1.60
 -16  -3   5    6.50    1.90
 -15  -3   5   12.60    2.30
 -14  -3   5    1.70    1.40
 -13  -3   5   80.09    4.10
 -12  -3   5   58.69    3.40
 -11  -3   5   13.50    1.90
 -10  -3   5   20.70    2.10
  -9  -3   5   20.40    2.00
  -8  -3   5   39.40    2.30
  -8  -3   5   39.10    1.60
  -7  -3   5   27.10    1.30
  -7  -3   5   25.10    1.90
  -6  -3   5    0.80    0.40
  -6  -3   5    0.60    0.70
  -5  -3   5    1.70    0.70
  -5  -3   5    1.40    0.50
  -4  -3   5  203.58    5.70
  -4  -3   5  213.68    5.20
  -3  -3   5   52.39    1.80
  -3  -3   5   53.69    2.20
  -2  -3   5    5.70    0.80
  -2  -3   5    5.30    0.70
  -1  -3   5  178.68    4.70
  -1  -3   5  189.68    5.00
   0  -3   5   14.60    1.00
   0  -3   5   15.90    1.10
   1  -3   5   11.20    1.00
   1  -3   5   11.80    1.10
  -2   3  -5    9.30    1.00
  -3   3  -5   98.49    3.10
  -4   3  -5  100.09    3.20
  -5   3  -5   35.30    1.80
  -6   3  -5    8.00    1.00
  -7   3  -5  683.23   15.70
  -8   3  -5    5.30    1.00
  -9   3  -5   11.40    1.40
 -10   3  -5    8.60    1.30
 -11   3  -5  123.89    4.50
 -12   3  -5  345.57    9.40
 -13   3  -5   11.10    1.70
 -14   3  -5   13.50    2.00
 -15   3  -5   19.10    2.30
 -16   3  -5   -1.20    1.10
 -17   3  -5    2.00    1.40
 -16  -2   5    3.50    1.90
 -15  -2   5   15.70    2.50
 -14  -2   5   45.40    3.30
 -13  -2   5    7.20    1.80
 -12  -2   5   53.79    3.30
 -11  -2   5   15.90    2.00
 -10  -2   5  354.16    9.80
  -9  -2   5   19.30    1.90
  -8  -2   5   20.40    1.10
  -8  -2   5   20.20    1.90
  -7  -2   5  181.48    5.40
  -7  -2   5  172.18    4.30
  -6  -2   5  316.37    8.20
  -6  -2   5  311.57    7.20
  -5  -2   5   33.20    1.80
  -5  -2   5   33.80    1.30
  -4  -2   5   57.89    2.30
  -4  -2   5   54.59    1.80
   3   2  -5    3.30    0.40
  -3  -2   5    1.80    0.60
  -3  -2   5    2.70    0.50
   2   2  -5  108.39    2.60
  -2  -2   5  106.29    2.90
  -2  -2   5  112.69    3.40
   1   2  -5   83.49    2.00
  -1  -2   5   78.89    2.40
  -1  -2   5   83.29    2.70
   0  -2   5  261.67    6.30
   0  -2   5  247.58    6.10
   1  -2   5   28.50    1.40
  -2   2  -5 2943.11   62.49
  -3   2  -5   56.69    2.10
  -4   2  -5  395.46    9.30
  -5   2  -5  538.25   12.30
  -6   2  -5  151.78    4.40
  -7   2  -5   24.70    1.60
  -8   2  -5    2.30    0.70
  -9   2  -5   69.79    2.80
 -10   2  -5  141.69    4.60
 -11   2  -5    1.00    0.80
 -12   2  -5  284.17    8.00
 -13   2  -5    0.00    0.90
 -14   2  -5   40.00    2.80
 -15   2  -5    6.00    1.50
 -16   2  -5    2.30    1.30
 -17   2  -5   26.60    2.80
 -18   2  -5    3.90    1.70
 -16  -1   5    8.10    2.10
 -15  -1   5   88.19    4.70
 -14  -1   5   53.39    3.60
 -13  -1   5   55.59    3.60
 -12  -1   5    5.20    1.40
 -11  -1   5   22.60    2.30
 -10  -1   5    8.40    1.50
  -9  -1   5   17.50    1.80
  -8  -1   5  136.29    4.70
  -7  -1   5   79.99    2.20
  -7  -1   5   78.59    3.20
  -6  -1   5  446.96    9.80
  -6  -1   5  453.15   11.00
  -5  -1   5  246.78    5.60
  -5  -1   5  247.18    6.60
   4   1  -5   56.79    1.90
  -4  -1   5   56.59    2.30
  -4  -1   5   58.69    1.70
   3   1  -5    2.40    0.40
  -3  -1   5    2.80    0.40
  -3  -1   5    1.80    0.60
   2   1  -5   49.90    1.50
  -2  -1   5   51.19    1.60
  -2  -1   5   50.69    2.00
   1   1  -5  121.79    2.90
  -1  -1   5  115.09    3.10
  -1  -1   5  115.69    3.40
   0  -1   5  800.22   17.50
   1  -1   5  892.31   19.40
   2  -1   5 1487.15   31.60
  -3   1  -5  918.21   19.90
  -4   1  -5  115.59    3.30
  -5   1  -5    1.30    0.50
  -6   1  -5  486.95   11.20
  -7   1  -5  715.73   16.10
  -8   1  -5   13.80    1.30
  -9   1  -5   46.50    2.20
 -10   1  -5    0.80    0.70
 -11   1  -5  404.56   10.20
 -12   1  -5   74.89    3.30
 -13   1  -5    2.70    1.20
 -14   1  -5  144.89    5.20
 -15   1  -5  285.17    8.50
 -16   1  -5   12.00    2.00
 -17   1  -5   23.00    2.50
 -18   1  -5    9.40    1.90
 -16   0   5    5.10    1.90
 -15   0   5   37.30    3.40
 -14   0   5    7.40    2.00
 -13   0   5   33.00    3.10
 -12   0   5   78.19    4.00
 -11   0   5   62.69    3.40
 -10   0   5   14.30    1.90
  -9   0   5    1.20    0.90
  -8   0   5   67.29    3.10
  -7   0   5   54.29    2.60
  -6   0   5  104.39    3.70
  -6   0   5  103.49    2.50
   5   0  -5  226.28    5.60
  -5   0   5  217.18    4.90
  -5   0   5  220.88    6.10
   4   0  -5   35.80    1.50
  -4   0   5   36.90    1.80
  -4   0   5   36.90    1.10
   3   0  -5  232.78    5.60
  -3   0   5  232.38    6.00
  -3   0   5  236.48    5.30
   2   0  -5   55.09    1.70
  -2   0   5   51.19    2.00
   1   0  -5 1259.77   26.00
  -1   0   5 1206.28   26.40
   0   0  -5    0.70    0.30
   0   0   5    0.00    0.40
   1   0   5    7.80    0.80
   2   0   5  248.38    6.00
  -3   0  -5  792.42   17.20
  -4   0  -5  128.79    3.50
  -5   0  -5   26.80    1.30
  -6   0  -5   14.10    1.00
  -7   0  -5  162.08    4.50
  -8   0  -5  400.46    9.60
  -9   0  -5    1.00    0.60
 -10   0  -5   32.20    1.80
 -11   0  -5   31.70    1.90
 -12   0  -5  281.37    7.70
 -13   0  -5    0.40    0.70
 -13   0  -5   -0.60    0.90
 -14   0  -5   15.40    1.70
 -14   0  -5   16.60    1.90
 -15   0  -5  119.19    4.70
 -16   0  -5  173.58    6.10
 -17   0  -5   15.10    2.10
 -18   0  -5    3.40    1.60
 -19   0  -5    0.40    1.40
 -15   1   5   18.60    2.60
 -14   1   5   52.99    4.10
 -13   1   5    7.00    1.70
 -12   1   5   12.10    1.90
 -11   1   5   77.69    3.90
 -10   1   5  276.57    8.20
  -9   1   5    7.40    1.40
  -8   1   5    7.20    1.20
  -7   1   5   34.40    2.20
   6  -1  -5  291.97    7.20
  -6   1   5  284.07    7.60
   5  -1  -5    1.60    0.60
  -5   1   5    2.20    0.70
   4  -1  -5   16.50    1.10
  -4   1   5   17.70    1.30
   3  -1  -5  825.12   17.90
  -3   1   5  822.62   18.30
   2  -1  -5  550.24   12.00
  -2   1   5  537.05   12.30
   1  -1  -5   57.49    1.80
   0  -1  -5  207.88    4.90
   0   1   5  203.08    5.10
   1   1   5    8.70    0.80
   2   1   5   28.50    1.20
  -3  -1  -5  270.47    6.30
  -4  -1  -5   53.19    1.80
  -5  -1  -5   71.69    2.20
  -6  -1  -5  243.98    5.90
  -7  -1  -5   31.70    1.50
  -8  -1  -5  122.99    3.60
  -9  -1  -5    1.00    0.60
 -10  -1  -5    5.40    0.90
 -11  -1  -5    6.80    1.00
 -12  -1  -5    2.60    1.00
 -12  -1  -5    4.10    1.10
 -13  -1  -5   70.49    3.10
 -13  -1  -5   69.59    3.10
 -14  -1  -5   21.10    2.00
 -14  -1  -5   21.80    1.90
 -15  -1  -5    8.00    1.50
 -15  -1  -5    4.30    1.20
 -16  -1  -5   50.09    3.10
 -17  -1  -5   25.60    2.50
 -18  -1  -5   10.00    2.00
 -19  -1  -5   11.00    2.10
 -15   2   5   39.60    3.60
 -14   2   5    1.80    1.50
 -13   2   5    2.20    1.40
 -12   2   5   18.90    2.30
 -11   2   5   91.19    4.20
 -10   2   5  196.38    6.50
  -9   2   5   89.99    3.90
  -8   2   5  216.68    6.60
   7  -2  -5   28.80    1.70
  -7   2   5   30.10    2.00
   6  -2  -5   32.20    1.70
  -6   2   5   29.20    1.90
   5  -2  -5   33.30    1.70
  -5   2   5   36.20    1.90
   4  -2  -5    8.40    0.90
  -4   2   5   10.60    1.20
   3  -2  -5    2.90    0.60
  -3   2   5    2.60    0.60
   2  -2  -5  149.88    3.90
  -2   2   5  146.69    4.10
   1  -2  -5   87.49    2.60
  -1   2   5   84.39    2.60
   0  -2  -5  154.38    4.00
   0   2   5  159.68    4.10
   1   2   5   30.90    1.30
   2   2   5   42.70    1.50
   3   2   5   23.70    1.10
  -4  -2  -5  218.28    5.20
  -5  -2  -5    2.50    0.50
  -6  -2  -5  110.29    3.00
  -7  -2  -5   16.70    1.10
  -8  -2  -5  418.36    9.70
  -9  -2  -5    1.10    0.60
 -10  -2  -5  756.72   17.40
 -10  -2  -5  793.72   17.70
 -11  -2  -5  485.55   11.60
 -11  -2  -5  493.45   11.80
 -12  -2  -5   57.39    2.60
 -12  -2  -5   59.29    2.60
 -13  -2  -5   24.50    1.90
 -13  -2  -5   22.80    1.80
 -14  -2  -5    0.90    0.90
 -14  -2  -5    0.60    0.90
 -15  -2  -5    7.60    1.40
 -15  -2  -5    5.00    1.10
 -16  -2  -5   11.40    1.80
 -16  -2  -5   11.50    1.70
 -17  -2  -5   -1.90    0.90
 -18  -2  -5   22.00    2.50
 -19  -2  -5  157.98    6.20
 -15   3   5   23.90    3.00
 -14   3   5   11.00    2.20
 -13   3   5   -0.20    1.40
 -12   3   5    6.10    1.70
 -11   3   5   13.80    2.00
 -10   3   5   58.89    3.30
  -9   3   5  137.39    5.10
  -8   3   5   81.49    3.60
   7  -3  -5   26.00    1.80
  -7   3   5   25.70    1.90
   6  -3  -5  158.38    4.70
  -6   3   5  156.68    5.00
   5  -3  -5  154.38    4.60
  -5   3   5  164.68    4.90
   4  -3  -5    1.90    0.60
  -4   3   5    1.80    0.70
   3  -3  -5  178.38    4.80
  -3   3   5  177.18    4.90
   2  -3  -5   40.90    1.70
  -2   3   5   36.10    1.60
   1  -3  -5  323.17    7.70
   1  -3  -5  327.27    7.00
  -1   3   5  326.67    7.70
   0  -3  -5  261.67    5.70
   0  -3  -5  252.77    6.20
   0   3   5  249.58    6.10
  -1  -3  -5    9.00    0.60
   1   3   5   10.10    0.70
  -2  -3  -5  140.69    3.60
   2   3   5  146.99    3.60
  -3  -3  -5 1095.19   23.60
   3   3   5 1125.19   23.40
  -4  -3  -5    3.00    0.40
  -4  -3  -5    3.10    0.50
  -5  -3  -5  355.26    8.30
  -5  -3  -5  347.47    7.80
  -6  -3  -5   52.69    2.00
  -6  -3  -5   53.29    1.70
  -7  -3  -5  322.37    7.60
  -7  -3  -5  335.47    8.00
  -8  -3  -5   41.90    1.70
  -8  -3  -5   40.00    1.90
  -9  -3  -5    0.50    0.60
  -9  -3  -5   -0.60    0.40
 -10  -3  -5  211.08    5.60
 -10  -3  -5  213.58    5.90
 -11  -3  -5  564.24   13.20
 -11  -3  -5  564.64   13.30
 -12  -3  -5   22.20    1.70
 -12  -3  -5   24.60    1.70
 -13  -3  -5   27.00    1.90
 -13  -3  -5   29.70    1.90
 -14  -3  -5   11.60    1.50
 -14  -3  -5   10.00    1.40
 -15  -3  -5    9.40    1.40
 -15  -3  -5   10.40    1.60
 -16  -3  -5   10.70    1.50
 -16  -3  -5   10.60    1.70
 -17  -3  -5    9.60    1.70
 -18  -3  -5   22.00    2.40
 -19  -3  -5  100.99    4.70
 -20  -3  -5  121.49    5.40
 -14   4   5   13.30    2.30
 -13   4   5    6.20    1.90
 -12   4   5    3.60    1.50
 -11   4   5   15.30    2.10
 -10   4   5   28.20    2.60
  -9   4   5   -0.30    0.90
   8  -4  -5   10.30    1.40
  -8   4   5    9.30    1.50
   7  -4  -5  535.15   13.00
  -7   4   5  543.95   13.30
   6  -4  -5  350.66    8.80
  -6   4   5  343.17    9.10
   5  -4  -5  181.38    5.20
  -5   4   5  186.78    5.50
   4  -4  -5   50.89    2.20
  -4   4   5   52.49    2.40
   3  -4  -5  353.16    8.60
  -3   4   5  352.66    8.60
   2  -4  -5  290.57    6.00
   2  -4  -5  276.37    7.00
  -2   4   5  279.27    7.00
   1  -4  -5   -0.30    0.40
   1  -4  -5    0.20    0.20
  -1   4   5    0.70    0.40
   0  -4  -5    1.90    0.30
   0  -4  -5    2.10    0.60
   0   4   5    2.40    0.50
  -1  -4  -5  737.23   15.50
  -1  -4  -5  714.13   16.00
   1   4   5  723.53   15.60
  -2  -4  -5  200.68    4.80
   2   4   5  200.98    4.70
  -3  -4  -5  187.18    4.70
   3   4   5  193.98    4.40
  -4  -4  -5  152.98    4.10
  -4  -4  -5  161.58    3.70
  -5  -4  -5    0.10    0.40
  -5  -4  -5    0.20    0.20
  -6  -4  -5   18.30    1.10
  -6  -4  -5   19.50    0.90
  -7  -4  -5    1.50    0.40
  -7  -4  -5    1.70    0.60
  -8  -4  -5  100.89    2.90
  -8  -4  -5  102.49    3.30
  -9  -4  -5   14.30    1.00
  -9  -4  -5   11.80    1.20
 -10  -4  -5   89.59    2.90
 -10  -4  -5   86.89    3.10
 -11  -4  -5  161.38    4.90
 -11  -4  -5  163.98    4.70
 -12  -4  -5  173.28    5.10
 -12  -4  -5  179.18    5.30
 -13  -4  -5    5.30    1.10
 -13  -4  -5    3.20    0.90
 -14  -4  -5   22.60    1.90
 -14  -4  -5   23.70    2.00
 -15  -4  -5    8.00    1.30
 -15  -4  -5    6.60    1.30
 -16  -4  -5   35.70    2.40
 -16  -4  -5   33.80    2.30
 -17  -4  -5    7.90    1.50
 -17  -4  -5    6.80    1.50
 -18  -4  -5    4.60    1.50
 -19  -4  -5    0.20    1.40
 -20  -4  -5   36.20    3.30
 -14   5   5  207.68    7.90
 -13   5   5    6.80    2.00
 -12   5   5    3.70    1.70
 -11   5   5  101.19    4.60
 -10   5   5    1.70    1.20
  -9   5   5   72.49    3.60
   8  -5  -5   35.60    2.30
  -8   5   5   33.00    2.30
   7  -5  -5   96.09    3.70
  -7   5   5   96.19    3.80
   6  -5  -5  421.96   10.60
  -6   5   5  426.46   10.80
   5  -5  -5   48.10    2.20
  -5   5   5   40.10    2.20
   4  -5  -5   71.49    2.80
  -4   5   5   73.59    2.90
   3  -5  -5  283.57    6.10
   3  -5  -5  291.47    7.30
  -3   5   5  276.97    7.20
   2  -5  -5  367.76    7.70
   2  -5  -5  358.96    8.70
  -2   5   5  349.27    8.60
   1  -5  -5   97.59    2.30
   1  -5  -5   96.59    3.10
  -1   5   5   87.59    2.80
   0  -5  -5   78.69    2.00
   0  -5  -5   74.59    2.60
   0   5   5   75.89    2.30
  -1  -5  -5   12.10    0.70
  -1  -5  -5   12.60    1.10
   1   5   5   13.00    0.80
  -2  -5  -5   72.89    2.10
   2   5   5   69.59    2.00
  -3  -5  -5  564.54   12.60
   3   5   5  580.24   12.20
  -4  -5  -5   27.40    0.80
  -4  -5  -5   25.00    1.20
  -5  -5  -5   56.29    2.00
  -5  -5  -5   56.19    1.50
  -6  -5  -5  113.09    2.80
  -6  -5  -5  115.59    3.40
  -7  -5  -5  326.17    7.20
  -7  -5  -5  314.07    7.80
  -8  -5  -5   51.19    1.70
  -8  -5  -5   50.39    2.10
  -9  -5  -5  204.18    5.10
  -9  -5  -5  202.18    5.60
 -10  -5  -5   14.10    1.20
 -10  -5  -5   14.50    1.40
 -11  -5  -5   76.49    2.70
 -11  -5  -5   71.29    2.90
 -12  -5  -5   62.49    2.50
 -12  -5  -5   57.49    2.60
 -13  -5  -5   20.30    1.70
 -13  -5  -5   19.90    1.80
 -14  -5  -5   14.00    1.60
 -14  -5  -5   15.00    1.50
 -15  -5  -5  118.19    4.20
 -15  -5  -5  110.29    4.10
 -16  -5  -5   21.20    2.00
 -16  -5  -5   23.30    2.20
 -17  -5  -5    1.70    1.10
 -17  -5  -5    2.00    1.10
 -18  -5  -5   63.59    3.60
 -19  -5  -5    1.50    1.30
 -20  -5  -5    1.00    1.50
 -13   6   5   51.59    3.80
 -12   6   5   12.30    2.20
 -11   6   5   37.00    3.10
 -10   6   5   25.00    2.50
  -9   6   5    9.00    1.70
   8  -6  -5    1.40    1.00
  -8   6   5    2.40    1.10
   7  -6  -5   48.40    2.60
  -7   6   5   50.49    2.80
   6  -6  -5    4.20    1.00
  -6   6   5    2.80    1.00
   5  -6  -5  628.04   14.80
  -5   6   5  628.04   14.90
   4  -6  -5    2.40    0.80
  -4   6   5    2.10    0.80
   3  -6  -5   13.60    1.30
   3  -6  -5   10.70    0.60
  -3   6   5   11.50    1.20
   2  -6  -5 1058.89   22.10
   2  -6  -5 1051.99   23.20
  -2   6   5 1044.50   23.00
   1  -6  -5  534.45   11.30
   1  -6  -5  526.05   12.20
  -1   6   5  512.55   11.90
   0  -6  -5   45.90    2.00
   0  -6  -5   42.70    1.40
   0   6   5   40.20    1.60
  -1  -6  -5   59.69    1.80
  -1  -6  -5   61.99    2.40
   1   6   5   60.19    1.90
  -2  -6  -5   44.10    1.60
   2   6   5   46.50    1.40
  -3  -6  -5    4.40    0.60
   3   6   5    3.70    0.40
  -4  -6  -5   20.00    1.10
  -5  -6  -5   44.40    1.80
  -5  -6  -5   44.20    1.10
  -6  -6  -5  204.18    5.30
  -6  -6  -5  205.58    4.60
  -7  -6  -5   35.00    1.70
  -7  -6  -5   34.50    1.20
  -8  -6  -5    6.40    0.90
  -8  -6  -5    7.60    0.70
  -9  -6  -5   11.90    1.20
  -9  -6  -5   11.70    0.90
 -10  -6  -5   65.79    2.60
 -10  -6  -5   66.49    2.30
 -11  -6  -5    6.70    0.90
 -11  -6  -5    9.30    1.30
 -12  -6  -5   81.89    2.90
 -12  -6  -5   78.49    3.20
 -13  -6  -5   32.50    2.00
 -13  -6  -5   29.70    1.80
 -14  -6  -5   47.00    2.50
 -14  -6  -5   43.10    2.30
 -15  -6  -5   48.50    2.60
 -15  -6  -5   54.99    2.80
 -16  -6  -5  138.79    4.80
 -16  -6  -5  134.59    4.80
 -17  -6  -5    1.10    1.00
 -17  -6  -5    2.00    1.20
 -18  -6  -5    9.30    1.80
 -18  -6  -5    8.80    1.60
 -19  -6  -5   32.10    2.90
 -20  -6  -5   -0.40    1.30
 -13   7   5    2.80    1.70
 -12   7   5   33.40    3.30
 -11   7   5  181.48    6.80
 -10   7   5   16.70    2.30
  -9   7   5    7.00    1.60
   8  -7  -5   17.60    1.90
  -8   7   5   19.90    2.10
   7  -7  -5    1.00    1.10
  -7   7   5    2.30    1.10
   6  -7  -5   26.80    2.00
  -6   7   5   30.40    2.20
   5  -7  -5    2.40    0.90
  -5   7   5    4.20    1.10
   4  -7  -5    2.00    0.90
  -4   7   5    0.00    0.60
   3  -7  -5  107.39    3.70
   3  -7  -5  108.19    3.00
  -3   7   5  107.99    3.60
   2  -7  -5  232.98    5.30
   2  -7  -5  225.58    6.30
  -2   7   5  227.78    6.00
   1  -7  -5  359.46    7.90
   1  -7  -5  355.76    8.80
  -1   7   5  339.67    8.40
   0  -7  -5  238.08    6.40
   0  -7  -5  237.98    5.60
   0   7   5  241.38    5.90
  -1  -7  -5  708.23   15.50
  -1  -7  -5  702.83   16.20
   1   7   5  738.33   15.50
  -2  -7  -5   71.09    2.20
  -2  -7  -5   73.49    2.70
   2   7   5   72.89    2.00
  -3  -7  -5  439.66   10.10
   3   7   5  450.85    9.50
  -4  -7  -5    2.20    0.50
  -5  -7  -5    2.90    0.60
  -6  -7  -5   47.60    1.90
  -7  -7  -5  174.98    4.80
  -7  -7  -5  173.78    4.00
  -8  -7  -5   72.29    2.00
  -8  -7  -5   67.99    2.60
  -9  -7  -5   40.90    2.00
  -9  -7  -5   40.20    1.50
 -10  -7  -5   -0.30    0.60
 -10  -7  -5    0.20    0.50
 -11  -7  -5   25.80    1.70
 -11  -7  -5   26.60    1.40
 -12  -7  -5  126.69    4.20
 -12  -7  -5  128.09    3.90
 -13  -7  -5   35.60    2.10
 -13  -7  -5   37.80    2.00
 -14  -7  -5    3.20    1.00
 -14  -7  -5    3.60    1.20
 -15  -7  -5   57.19    2.70
 -15  -7  -5   56.69    2.90
 -16  -7  -5   74.29    3.40
 -16  -7  -5   78.19    3.50
 -17  -7  -5    0.00    0.90
 -17  -7  -5    0.50    1.00
 -18  -7  -5    1.10    1.20
 -18  -7  -5    2.40    1.20
 -19  -7  -5    5.50    1.60
 -20  -7  -5   23.20    2.60
 -12   8   5    2.40    1.70
 -11   8   5  127.59    5.60
 -10   8   5  150.68    5.90
   9  -8  -5   10.50    1.70
  -9   8   5   12.00    1.90
   8  -8  -5    0.70    1.00
  -8   8   5    0.00    1.00
   7  -8  -5   41.10    2.60
  -7   8   5   41.20    2.70
   6  -8  -5    4.40    1.20
  -6   8   5    3.10    1.10
   5  -8  -5   11.60    1.50
  -5   8   5   10.20    1.40
   4  -8  -5   60.89    2.80
  -4   8   5   64.49    2.80
   3  -8  -5   19.10    1.70
  -3   8   5   22.70    1.60
   2  -8  -5   58.09    1.90
   2  -8  -5   55.99    2.60
  -2   8   5   58.99    2.40
   1  -8  -5   34.30    2.00
   1  -8  -5   36.50    1.40
  -1   8   5   38.30    1.70
   0  -8  -5    1.90    0.50
   0  -8  -5    1.10    0.70
   0   8   5    2.10    0.60
  -1  -8  -5  145.59    3.80
  -1  -8  -5  146.49    4.50
   1   8   5  148.89    3.80
  -2  -8  -5  906.91   19.60
  -2  -8  -5  893.71   20.30
   2   8   5  926.91   19.30
  -3  -8  -5   43.90    1.80
   3   8   5   45.80    1.30
  -4  -8  -5   18.00    1.20
  -5  -8  -5  120.79    3.60
  -6  -8  -5   18.80    1.30
  -7  -8  -5    0.50    0.20
  -7  -8  -5    0.40    0.50
  -8  -8  -5    2.20    0.70
  -8  -8  -5    3.50    0.40
  -9  -8  -5  148.89    4.50
  -9  -8  -5  146.59    3.70
 -10  -8  -5  562.74   13.40
 -10  -8  -5  587.74   12.80
 -11  -8  -5  120.79    4.10
 -11  -8  -5  126.19    3.60
 -12  -8  -5    7.20    1.00
 -12  -8  -5    6.80    1.10
 -13  -8  -5    4.90    0.90
 -13  -8  -5    6.10    1.10
 -14  -8  -5   61.19    2.80
 -14  -8  -5   55.79    2.60
 -15  -8  -5  102.19    3.80
 -15  -8  -5   97.09    3.80
 -16  -8  -5    1.20    1.00
 -16  -8  -5    1.50    1.10
 -17  -8  -5    9.10    1.60
 -17  -8  -5    9.50    1.60
 -18  -8  -5   25.40    2.30
 -19  -8  -5   11.50    1.80
 -11   9   5    1.10    1.50
 -10   9   5  125.89    5.40
   9  -9  -5   36.50    3.00
  -9   9   5   40.50    3.00
   8  -9  -5    2.00    1.30
  -8   9   5    4.30    1.30
   7  -9  -5   33.90    2.50
  -7   9   5   32.80    2.40
   6  -9  -5   46.20    2.70
  -6   9   5   51.99    2.90
   5  -9  -5   69.29    3.20
  -5   9   5   65.99    3.10
   4  -9  -5   70.09    3.10
  -4   9   5   66.49    3.00
   3  -9  -5   39.70    2.30
  -3   9   5   37.00    2.10
   2  -9  -5    4.70    1.10
   2  -9  -5    4.80    0.70
  -2   9   5    4.80    0.90
   1  -9  -5  102.99    3.70
   1  -9  -5  105.79    3.00
  -1   9   5  104.49    3.30
   0  -9  -5   45.60    2.30
   0  -9  -5   44.20    1.70
   0   9   5   46.00    1.90
  -1  -9  -5   10.70    1.30
  -1  -9  -5   11.60    1.00
   1   9   5   11.30    0.90
  -2  -9  -5 1316.17   28.20
  -2  -9  -5 1300.27   28.90
   2   9   5 1333.87   27.80
  -3  -9  -5  787.82   18.30
  -3  -9  -5  800.82   17.70
   3   9   5  834.92   17.10
  -4  -9  -5    9.10    0.90
  -5  -9  -5   86.39    2.90
  -6  -9  -5   46.60    2.00
  -7  -9  -5    4.40    0.90
  -8  -9  -5   21.60    0.80
  -8  -9  -5   23.10    1.50
  -9  -9  -5    1.90    0.40
  -9  -9  -5    1.40    0.70
 -10  -9  -5  205.68    5.80
 -10  -9  -5  204.78    5.00
 -11  -9  -5  116.79    4.00
 -11  -9  -5  117.79    3.40
 -12  -9  -5   16.00    1.60
 -12  -9  -5   16.00    1.70
 -13  -9  -5    4.30    1.10
 -14  -9  -5    2.70    1.10
 -15  -9  -5   37.20    2.50
 -16  -9  -5   46.70    2.70
 -17  -9  -5   10.90    1.70
 -18  -9  -5   21.60    2.30
 -19  -9  -5   20.20    2.30
 -11  10   5    7.30    1.90
 -10  10   5   44.00    3.40
   9 -10  -5   10.80    1.90
  -9  10   5    9.40    1.90
   8 -10  -5    0.00    1.10
  -8  10   5    1.10    1.10
   7 -10  -5  233.48    7.40
  -7  10   5  242.78    7.40
   6 -10  -5   12.00    1.80
  -6  10   5    9.10    1.50
   5 -10  -5  250.37    7.50
  -5  10   5  254.97    7.30
   4 -10  -5   22.80    2.10
  -4  10   5   21.10    1.90
   3 -10  -5   28.70    2.10
  -3  10   5   31.20    2.00
   2 -10  -5    1.80    0.90
  -2  10   5    2.30    0.80
   1 -10  -5    7.10    1.20
   1 -10  -5    6.30    0.80
  -1  10   5    4.90    0.90
   0 -10  -5   46.00    1.80
   0 -10  -5   43.00    2.30
   0  10   5   41.20    1.80
  -1 -10  -5   54.39    2.00
  -1 -10  -5   51.59    2.60
   1  10   5   52.59    1.90
  -2 -10  -5   19.10    1.30
  -2 -10  -5   23.10    1.90
   2  10   5   20.00    1.00
  -3 -10  -5  650.73   14.90
  -3 -10  -5  649.93   15.50
   3  10   5  688.93   14.20
  -4 -10  -5  667.23   15.00
  -5 -10  -5   38.70    1.80
  -6 -10  -5   40.40    1.90
  -7 -10  -5  342.17    8.50
  -8 -10  -5   10.60    1.20
  -9 -10  -5    7.50    1.10
 -10 -10  -5    0.60    0.80
 -11 -10  -5    5.10    1.10
 -12 -10  -5    1.50    0.90
 -13 -10  -5    0.20    0.80
 -14 -10  -5   17.10    1.90
 -15 -10  -5  212.58    6.50
 -16 -10  -5   16.30    1.90
 -17 -10  -5   45.00    2.80
 -18 -10  -5   17.30    2.10
 -19 -10  -5   20.40    2.30
 -20 -10  -5    8.30    1.80
 -10  11   5   27.70    3.00
   9 -11  -5   20.90    2.50
  -9  11   5   19.70    2.40
   8 -11  -5    0.50    1.20
  -8  11   5    0.70    1.30
   7 -11  -5   42.30    3.00
  -7  11   5   44.20    3.00
   6 -11  -5  150.28    5.50
  -6  11   5  136.69    5.20
   5 -11  -5    1.30    1.20
  -5  11   5    1.60    1.10
   4 -11  -5    0.90    1.00
  -4  11   5    0.70    0.90
   3 -11  -5   14.50    1.70
  -3  11   5   14.40    1.60
   2 -11  -5  177.08    5.60
  -2  11   5  164.88    5.00
   1 -11  -5   -0.10    0.50
   1 -11  -5    0.70    0.80
  -1  11   5    0.10    0.60
   0 -11  -5    2.20    0.60
   0 -11  -5    3.90    1.10
   0  11   5    2.10    0.70
  -1 -11  -5   88.89    2.90
  -1 -11  -5   89.29    3.50
   1  11   5   82.29    3.00
  -2 -11  -5    0.60    0.60
  -2 -11  -5    1.40    0.90
  -3 -11  -5    2.20    0.90
  -3 -11  -5    1.40    0.60
  -4 -11  -5   43.70    2.30
  -4 -11  -5   40.40    1.90
  -5 -11  -5  316.07    7.90
  -6 -11  -5  401.96    9.70
  -7 -11  -5    4.50    0.90
  -8 -11  -5   86.69    3.20
  -9 -11  -5    1.00    0.80
 -10 -11  -5  234.08    6.60
 -11 -11  -5    0.40    0.90
 -12 -11  -5  147.89    4.90
 -13 -11  -5   48.40    2.60
 -14 -11  -5    7.90    1.40
 -15 -11  -5    1.40    1.10
 -16 -11  -5   37.00    2.70
 -17 -11  -5   16.30    2.10
 -18 -11  -5   18.10    2.20
 -19 -11  -5    1.00    1.40
 -20 -11  -5    2.30    1.40
  -9  12   5   17.70    2.40
   8 -12  -5    2.50    1.40
  -8  12   5   -0.20    1.20
   7 -12  -5   11.80    2.00
  -7  12   5    6.30    1.60
   6 -12  -5   -2.10    1.20
  -6  12   5    0.70    1.10
   5 -12  -5   40.70    2.80
  -5  12   5   35.10    2.50
   4 -12  -5    0.00    1.00
  -4  12   5    0.10    0.80
   3 -12  -5   90.49    3.80
  -3  12   5   83.39    3.40
   2 -12  -5    3.40    1.10
   1 -12  -5   85.19    3.60
   0 -12  -5    7.90    1.30
   0 -12  -5    7.80    1.00
  -1 -12  -5    0.00    0.60
  -1 -12  -5    0.30    0.80
  -2 -12  -5  341.67    9.10
  -2 -12  -5  337.57    8.40
  -3 -12  -5   -0.10    0.60
  -3 -12  -5   -0.10    0.80
  -4 -12  -5   74.89    2.80
  -4 -12  -5   71.79    3.10
  -5 -12  -5   70.19    2.80
  -6 -12  -5  354.56    8.90
  -7 -12  -5  398.56    9.80
  -8 -12  -5   81.09    3.20
  -9 -12  -5    7.10    1.20
 -10 -12  -5  287.47    7.70
 -11 -12  -5    4.80    1.10
 -12 -12  -5    2.10    1.00
 -13 -12  -5    0.40    1.00
 -14 -12  -5   18.60    2.00
 -15 -12  -5   67.39    3.30
 -16 -12  -5    5.20    1.40
 -17 -12  -5    9.20    1.70
 -18 -12  -5   50.09    3.10
 -19 -12  -5    2.50    1.40
 -20 -12  -5    6.60    1.70
   8 -13  -5    2.30    1.50
   7 -13  -5   17.50    2.30
   6 -13  -5    1.10    1.30
   5 -13  -5   10.90    1.80
   4 -13  -5   -0.60    1.10
   3 -13  -5    5.50    1.50
   2 -13  -5    7.00    1.50
   1 -13  -5   39.40    2.60
   0 -13  -5    0.60    0.70
   0 -13  -5   -0.50    0.90
  -1 -13  -5   61.69    2.50
  -1 -13  -5   58.69    3.00
  -2 -13  -5   70.79    3.20
  -2 -13  -5   66.69    2.60
  -3 -13  -5    7.20    1.10
  -3 -13  -5   10.70    1.60
  -4 -13  -5   75.99    3.30
  -4 -13  -5   74.49    2.90
  -5 -13  -5    0.70    0.90
  -5 -13  -5   -0.10    0.70
  -6 -13  -5  123.59    4.10
  -7 -13  -5   46.60    2.50
  -8 -13  -5  354.56    9.10
  -9 -13  -5    5.40    1.20
 -10 -13  -5    3.00    1.00
 -11 -13  -5  132.59    4.60
 -12 -13  -5   15.70    1.80
 -13 -13  -5    0.60    1.00
 -14 -13  -5    1.50    1.10
 -15 -13  -5   16.30    1.90
 -16 -13  -5   21.80    2.30
 -17 -13  -5    5.80    1.50
 -18 -13  -5   -0.10    1.10
 -19 -13  -5   21.60    2.40
   7 -14  -5  103.29    4.90
   6 -14  -5   10.10    1.90
   5 -14  -5   13.60    2.10
   4 -14  -5    0.60    1.30
   3 -14  -5    9.90    1.70
   2 -14  -5    7.90    1.70
   1 -14  -5   13.40    1.90
   0 -14  -5    6.70    1.40
  -1 -14  -5   35.00    2.00
  -1 -14  -5   30.90    2.30
  -2 -14  -5   18.30    1.60
  -2 -14  -5   17.10    1.90
  -3 -14  -5   14.40    1.70
  -3 -14  -5   16.50    1.60
  -4 -14  -5   45.90    2.40
  -4 -14  -5   43.30    2.50
  -5 -14  -5   -0.90    0.70
  -5 -14  -5    0.40    0.90
  -6 -14  -5   19.80    1.90
  -6 -14  -5   18.00    1.70
  -7 -14  -5   20.50    1.90
  -8 -14  -5   84.29    3.40
  -9 -14  -5    2.50    1.10
 -10 -14  -5   17.80    1.90
 -11 -14  -5    8.10    1.40
 -12 -14  -5   94.39    3.90
 -13 -14  -5   15.00    1.80
 -14 -14  -5   16.60    1.90
 -15 -14  -5   -0.40    1.20
 -16 -14  -5    1.90    1.30
 -17 -14  -5    5.60    1.60
 -18 -14  -5    2.70    1.40
 -19 -14  -5    2.30    1.60
   6 -15  -5  136.59    5.70
   5 -15  -5   47.80    3.30
   4 -15  -5   -2.00    1.00
   3 -15  -5    8.60    1.70
   2 -15  -5   66.69    3.50
   1 -15  -5   50.49    3.10
   0 -15  -5    7.60    1.60
  -1 -15  -5    6.20    1.20
  -1 -15  -5    7.50    1.50
  -2 -15  -5  171.08    5.20
  -2 -15  -5  172.18    5.80
  -3 -15  -5   36.00    2.40
  -3 -15  -5   38.20    2.20
  -4 -15  -5    3.10    1.00
  -4 -15  -5    1.20    1.00
  -5 -15  -5   79.09    3.60
  -5 -15  -5   83.99    3.40
  -6 -15  -5  115.09    4.40
  -6 -15  -5  112.49    4.10
  -7 -15  -5    5.40    1.20
  -8 -15  -5   15.30    1.80
  -9 -15  -5   12.90    1.80
 -10 -15  -5   92.69    3.80
 -11 -15  -5   87.49    3.80
 -12 -15  -5   13.30    1.80
 -13 -15  -5    0.70    1.10
 -14 -15  -5  124.69    4.80
 -15 -15  -5    4.20    1.40
 -16 -15  -5    2.70    1.50
 -17 -15  -5    0.30    1.40
 -18 -15  -5    9.80    2.00
 -19 -15  -5   15.90    2.30
   5 -16  -5   60.09    3.80
   4 -16  -5    2.90    1.50
   3 -16  -5   -0.60    1.20
   2 -16  -5    2.80    1.40
   1 -16  -5  106.49    4.60
   0 -16  -5    0.70    1.10
  -1 -16  -5    7.30    1.50
  -2 -16  -5    0.20    0.90
  -2 -16  -5    1.30    1.20
  -3 -16  -5   53.59    2.80
  -3 -16  -5   56.49    3.10
  -4 -16  -5   14.20    1.90
  -4 -16  -5   13.30    1.60
  -5 -16  -5    8.00    1.60
  -5 -16  -5   14.20    1.70
  -6 -16  -5   54.79    3.00
  -6 -16  -5   48.70    2.70
  -7 -16  -5   75.09    3.40
  -7 -16  -5   69.79    3.50
  -8 -16  -5    1.60    1.10
  -9 -16  -5    0.30    1.00
 -10 -16  -5   20.50    2.10
 -11 -16  -5    4.60    1.40
 -12 -16  -5    5.40    1.50
 -13 -16  -5   25.70    2.50
 -14 -16  -5   54.59    3.40
 -15 -16  -5   93.59    4.40
 -16 -16  -5    2.60    1.40
 -17 -16  -5    4.90    1.70
 -18 -16  -5   -1.30    1.40
   3 -17  -5   22.30    2.50
   2 -17  -5   -0.30    1.20
   1 -17  -5   12.40    2.00
   0 -17  -5    0.10    1.30
  -1 -17  -5   15.80    2.10
  -2 -17  -5    8.60    1.80
  -2 -17  -5   13.00    1.70
  -3 -17  -5   10.70    1.50
  -3 -17  -5   10.30    1.70
  -4 -17  -5   71.69    3.30
  -4 -17  -5   67.19    3.40
  -5 -17  -5    1.60    1.20
  -5 -17  -5    3.90    1.20
  -6 -17  -5    0.30    1.10
  -6 -17  -5    3.30    1.20
  -7 -17  -5    8.10    1.60
  -7 -17  -5    9.20    1.60
  -8 -17  -5  161.98    5.70
  -8 -17  -5  161.68    5.50
  -9 -17  -5   19.40    2.00
 -10 -17  -5   43.20    2.80
 -11 -17  -5    7.60    1.60
 -12 -17  -5   -0.40    1.40
 -13 -17  -5    3.30    1.60
 -14 -17  -5    1.20    1.30
 -15 -17  -5    4.90    1.80
 -16 -17  -5    3.40    1.60
 -17 -17  -5   -1.30    1.30
   2 -18  -5   82.39    4.30
   1 -18  -5    3.60    1.60
   0 -18  -5   15.10    2.10
  -1 -18  -5   54.19    3.30
  -2 -18  -5  141.49    5.40
  -3 -18  -5    0.80    1.20
  -3 -18  -5    0.40    1.10
  -4 -18  -5    2.50    1.20
  -4 -18  -5    3.20    1.30
  -5 -18  -5   -1.40    1.00
  -5 -18  -5    0.20    0.90
  -6 -18  -5   39.20    2.80
  -6 -18  -5   47.90    2.70
  -7 -18  -5    5.70    1.50
  -7 -18  -5    5.20    1.30
  -8 -18  -5    5.50    1.40
  -8 -18  -5    6.80    1.50
  -9 -18  -5   61.59    3.40
  -9 -18  -5   60.59    3.40
 -10 -18  -5   54.89    3.10
 -11 -18  -5   14.50    2.00
 -12 -18  -5    2.60    1.40
 -13 -18  -5   -1.20    1.20
 -14 -18  -5    0.00    1.40
 -15 -18  -5    3.30    1.60
 -16 -18  -5    1.50    1.50
   0 -19  -5    0.00    1.30
  -1 -19  -5    2.20    1.40
  -2 -19  -5   55.19    3.50
  -3 -19  -5   97.79    4.50
  -4 -19  -5   19.50    2.20
  -4 -19  -5   16.20    2.20
  -5 -19  -5    6.60    1.50
  -5 -19  -5    7.30    1.60
  -6 -19  -5   -0.80    1.20
  -6 -19  -5    0.20    1.20
  -7 -19  -5   57.59    3.30
  -8 -19  -5   13.00    1.80
  -9 -19  -5    0.30    1.10
 -10 -19  -5   43.10    2.90
 -11 -19  -5    4.50    1.50
 -12 -19  -5   10.10    2.00
 -13 -19  -5    1.50    1.40
 -14 -19  -5   -0.80    1.30
 -15 -19  -5    0.90    1.50
  -2 -20  -5    2.80    1.60
  -4 -20  -5    6.70    1.70
  -5 -20  -5    9.20    1.80
  -6 -20  -5    2.30    1.20
  -7 -20  -5    2.10    1.20
  -8 -20  -5    1.50    1.20
  -9 -20  -5    7.10    1.60
 -10 -20  -5    9.80    1.90
 -11 -20  -5    1.50    1.30
 -12 -20  -5   37.60    3.10
 -13 -20  -5    2.80    1.50
  -6 -21  -5   90.89    4.30
  -7 -21  -5    4.60    1.40
  -8 -21  -5    2.60    1.50
  -9 -21  -5    1.30    1.30
 -10 -21  -5    1.10    1.30
  -8 -18   6    6.50    2.00
  -7 -18   6   15.60    2.40
  -6 -18   6    2.40    1.50
  -5 -18   6   15.30    2.40
  -4 -18   6    3.90    1.60
  -3 -18   6   13.80    2.40
  -2 -18   6    5.20    1.90
  -1 -18   6   78.89    4.50
   0 -18   6   14.90    2.50
 -10 -17   6    8.00    2.00
  -9 -17   6   57.49    3.90
  -8 -17   6   18.20    2.50
  -7 -17   6   25.20    2.80
  -6 -17   6    0.30    1.30
  -5 -17   6    8.70    1.90
  -4 -17   6    0.00    1.30
  -3 -17   6   17.00    2.40
  -2 -17   6   27.40    3.10
  -1 -17   6   27.30    2.90
   0 -17   6    7.90    2.00
   1 -17   6    0.10    1.30
   2 -17   6    8.20    2.00
   3 -17   6   43.00    3.80
 -12 -16   6    4.30    1.50
 -11 -16   6    6.00    1.70
 -10 -16   6   40.70    3.10
  -9 -16   6    4.50    1.60
  -8 -16   6   -0.10    1.40
  -7 -16   6   56.69    3.50
  -6 -16   6   27.20    2.90
  -5 -16   6    6.30    1.80
  -4 -16   6   30.40    2.90
  -3 -16   6    7.60    1.80
  -2 -16   6    1.60    1.40
  -1 -16   6   50.49    3.50
   0 -16   6   11.20    2.00
   1 -16   6   -0.30    1.40
   2 -16   6   39.80    3.50
   3 -16   6   -0.30    1.30
 -13 -15   6   17.10    2.30
 -12 -15   6    4.00    1.60
 -11 -15   6    0.20    1.20
 -10 -15   6   23.60    2.60
  -9 -15   6    5.60    1.60
  -8 -15   6    1.00    1.20
  -7 -15   6    7.50    1.70
  -6 -15   6  139.99    5.50
  -5 -15   6   81.09    4.00
  -4 -15   6    1.00    1.20
  -3 -15   6   33.60    2.90
  -2 -15   6   49.50    3.20
  -1 -15   6   17.00    2.30
   0  15  -6    3.10    1.30
   0 -15   6    4.60    1.70
  -1  15  -6    2.00    1.20
   1 -15   6    2.10    1.40
  -2  15  -6    1.20    1.20
   2 -15   6    0.80    1.30
  -3  15  -6   79.49    3.90
   3 -15   6   82.69    4.30
  -4  15  -6   33.80    2.90
  -5  15  -6   10.70    1.90
  -6  15  -6   39.40    2.90
  -7  15  -6   63.49    3.80
 -13 -14   6   36.30    3.10
 -12 -14   6    2.70    1.40
 -11 -14   6    5.20    1.50
 -10 -14   6   21.00    2.40
  -9 -14   6   -1.50    1.10
  -8 -14   6   11.90    1.90
  -7 -14   6  118.19    4.80
  -6 -14   6   14.30    2.00
  -6 -14   6   16.40    2.10
   5  14  -6   42.10    2.80
  -5 -14   6   50.39    3.10
   4  14  -6   88.49    3.90
  -4 -14   6   92.79    4.20
   3  14  -6    7.70    1.50
  -3 -14   6    7.30    1.60
   2  14  -6    5.40    1.30
  -2 -14   6    5.40    1.60
   1  14  -6   93.59    3.90
  -1 -14   6   85.89    4.20
   0  14  -6    7.60    1.50
   0 -14   6    7.00    1.70
  -1  14  -6   26.10    2.40
   1 -14   6   22.30    2.50
  -2  14  -6   36.50    2.70
   2 -14   6   38.80    3.30
  -3  14  -6   -0.50    1.10
   3 -14   6   -0.50    1.10
  -4  14  -6   28.10    2.60
  -5  14  -6    3.10    1.40
  -6  14  -6   13.20    2.00
  -7  14  -6   77.39    4.00
  -8  14  -6  120.09    5.20
 -13 -13   6    0.70    1.20
 -12 -13   6   14.30    2.00
 -11 -13   6    0.30    1.20
 -10 -13   6   84.09    4.00
 -10 -13   6   95.29    4.30
  -9 -13   6    0.30    1.00
  -9 -13   6    0.80    1.20
  -8 -13   6   11.40    1.70
  -8 -13   6    9.00    1.60
  -7 -13   6    1.20    1.20
  -7 -13   6    1.10    1.10
  -6 -13   6  282.87    8.30
  -6 -13   6  299.07    8.60
  -5 -13   6    0.00    0.90
  -5 -13   6   -0.30    1.00
   4  13  -6   16.30    1.90
  -4 -13   6   14.70    1.90
   3  13  -6    0.40    1.00
  -3 -13   6    0.20    1.00
   2  13  -6   43.30    2.70
  -2 -13   6   46.80    2.90
   1  13  -6   -0.50    0.90
  -1 -13   6    0.20    1.00
   0  13  -6   81.39    3.60
   0 -13   6   73.79    3.70
  -1  13  -6   28.70    2.40
   1 -13   6   30.00    2.80
  -2  13  -6    2.10    1.20
   2 -13   6    2.40    1.30
  -3  13  -6   73.09    3.40
   3 -13   6   67.29    3.70
  -4  13  -6   59.09    3.20
  -5  13  -6   23.80    2.40
  -6  13  -6   19.60    2.20
  -7  13  -6   39.10    3.00
  -8  13  -6  153.68    5.80
  -9  13  -6    6.90    1.80
 -14 -12   6    1.00    1.40
 -13 -12   6    1.30    1.70
 -13 -12   6    2.10    1.40
 -12 -12   6   -0.40    1.00
 -12 -12   6    0.60    1.30
 -11 -12   6   19.50    2.20
 -11 -12   6   11.80    1.90
 -10 -12   6  130.29    4.90
 -10 -12   6  130.89    5.10
  -9 -12   6  180.08    6.00
  -9 -12   6  179.78    6.10
  -8 -12   6   84.39    3.80
  -8 -12   6   72.79    3.50
  -7 -12   6    4.80    1.30
  -7 -12   6    5.70    1.40
  -6 -12   6  160.88    5.60
  -6 -12   6  168.18    5.60
  -5 -12   6   27.50    2.10
  -5 -12   6   25.90    2.30
  -4 -12   6   36.20    2.50
  -4 -12   6   33.50    2.40
   3  12  -6   54.09    2.90
  -3 -12   6   54.79    3.10
   2  12  -6   73.19    3.40
  -2 -12   6   75.69    3.60
   1  12  -6  144.89    4.90
  -1 -12   6  135.69    5.10
   0  12  -6   47.10    2.60
   0 -12   6   54.29    3.00
  -1  12  -6   31.80    2.30
   1 -12   6   37.60    2.60
  -2  12  -6  469.15   12.10
   2 -12   6  484.05   12.60
  -3  12  -6  103.09    4.20
   3 -12   6  101.49    4.50
  -4  12  -6    4.60    1.20
  -5  12  -6    6.00    1.40
  -6  12  -6    1.20    1.20
  -7  12  -6   12.90    1.90
  -8  12  -6   25.20    2.60
  -9  12  -6   13.50    2.10
 -10  12  -6  105.99    4.90
 -11  12  -6   59.19    3.80
 -15 -11   6    3.90    1.70
 -14 -11   6    1.10    1.50
 -13 -11   6   -0.10    1.20
 -12 -11   6   11.10    1.60
 -12 -11   6   12.00    2.00
 -11 -11   6   71.29    3.40
 -11 -11   6   63.89    3.60
 -10 -11   6   31.60    2.70
 -10 -11   6   33.80    2.30
  -9 -11   6  189.98    6.30
  -9 -11   6  187.58    6.00
  -8 -11   6  123.49    4.80
  -8 -11   6  129.09    4.60
  -7 -11   6   34.40    2.30
  -7 -11   6   31.90    2.30
  -6 -11   6  111.59    4.20
  -6 -11   6  105.69    4.10
  -5 -11   6   82.09    3.50
  -5 -11   6   79.99    3.50
  -4 -11   6   57.39    2.90
  -4 -11   6   47.10    2.70
  -3 -11   6   68.79    3.20
   2  11  -6   13.30    1.70
  -2 -11   6   10.80    1.60
   1  11  -6   28.30    2.20
  -1 -11   6   33.40    2.30
   0  11  -6    3.10    1.10
   0 -11   6    2.30    1.10
  -1  11  -6   34.70    2.20
   1 -11   6   35.60    2.40
  -2  11  -6   31.30    2.20
   2 -11   6   31.90    2.40
  -3  11  -6  792.42   18.50
   3 -11   6  779.02   18.90
  -4  11  -6  150.78    5.20
  -5  11  -6   14.90    1.80
  -6  11  -6    1.60    1.10
  -7  11  -6    5.40    1.40
  -8  11  -6    0.20    1.10
  -9  11  -6   -0.60    1.30
 -10  11  -6   19.90    2.40
 -11  11  -6  178.08    6.60
 -12  11  -6   87.39    4.70
 -15 -10   6   47.50    3.50
 -14 -10   6   11.30    2.20
 -13 -10   6   17.50    2.30
 -12 -10   6   28.30    2.60
 -12 -10   6   25.90    2.60
 -11 -10   6   39.00    3.10
 -11 -10   6   38.50    2.30
 -10 -10   6    2.90    1.10
 -10 -10   6    3.20    1.30
  -9 -10   6   44.00    2.80
  -9 -10   6   46.40    2.60
  -8 -10   6    0.90    1.00
  -8 -10   6    0.30    0.80
  -7 -10   6   25.70    2.20
  -7 -10   6   27.30    2.00
  -6 -10   6   55.59    2.80
  -6 -10   6   53.59    2.90
  -5 -10   6  182.28    5.70
  -5 -10   6  167.88    5.50
  -4 -10   6  412.46   10.70
  -4 -10   6  423.46   10.70
  -3 -10   6   -0.40    0.70
  -3 -10   6   -0.30    0.80
  -2 -10   6  330.97    8.90
   1  10  -6  113.69    4.10
  -1 -10   6  114.19    4.20
   0  10  -6   30.80    2.20
   0 -10   6   30.50    2.10
  -1  10  -6    8.80    1.30
   1 -10   6   11.50    1.50
  -2  10  -6   26.10    1.90
   2 -10   6   22.40    2.10
  -3  10  -6   33.00    2.20
   3 -10   6   33.60    2.30
  -4  10  -6  310.07    8.50
  -5  10  -6   19.40    2.00
  -6  10  -6   28.30    2.20
  -7  10  -6   59.79    3.20
  -8  10  -6   17.70    2.10
  -9  10  -6    4.90    1.40
 -10  10  -6   -0.80    1.10
 -11  10  -6    0.90    1.30
 -12  10  -6  159.58    6.20
 -13  10  -6   35.90    3.40
 -16  -9   6    0.80    1.60
 -15  -9   6    0.40    1.30
 -14  -9   6   14.40    2.20
 -13  -9   6   69.09    4.00
 -12  -9   6    0.90    1.20
 -11  -9   6   51.39    2.60
 -11  -9   6   49.80    3.20
 -10  -9   6  146.49    4.90
 -10  -9   6  148.99    5.50
  -9  -9   6    3.90    1.10
  -9  -9   6    3.00    0.90
  -8  -9   6    9.80    1.40
  -8  -9   6    7.00    1.40
  -7  -9   6    8.10    1.30
  -7  -9   6    7.80    1.40
  -6  -9   6   47.50    2.60
  -6  -9   6   43.60    2.40
  -5  -9   6  149.29    4.80
  -5  -9   6  147.59    4.90
  -4  -9   6   22.20    1.90
  -4  -9   6   23.90    1.80
  -3  -9   6  128.89    4.40
  -3  -9   6  123.19    4.30
  -2  -9   6  602.94   14.40
  -2  -9   6  599.14   14.30
   1   9  -6    0.20    0.70
  -1  -9   6    1.20    0.90
   0   9  -6   88.09    3.50
   0  -9   6   97.49    3.70
  -1   9  -6   51.59    2.60
   1  -9   6   51.69    2.60
  -2   9  -6   52.49    2.60
   2  -9   6   54.49    2.80
  -3   9  -6   70.99    3.10
   3  -9   6   65.89    3.20
  -4   9  -6   30.90    2.20
  -5   9  -6   58.89    2.90
  -6   9  -6  449.76   11.60
  -7   9  -6    1.00    1.00
  -8   9  -6    3.50    1.20
  -9   9  -6   10.40    1.70
 -10   9  -6    4.10    1.40
 -11   9  -6    1.50    1.40
 -12   9  -6    1.70    1.50
 -13   9  -6   30.90    3.00
 -16  -8   6   10.50    2.30
 -15  -8   6   11.40    2.20
 -14  -8   6    1.60    1.50
 -13  -8   6   71.49    4.00
 -12  -8   6    9.00    1.80
 -11  -8   6   33.80    3.30
 -11  -8   6   41.20    2.80
 -10  -8   6   40.70    2.30
 -10  -8   6   44.50    2.80
  -9  -8   6    1.90    1.10
  -9  -8   6    1.00    0.90
  -8  -8   6   -0.30    0.70
  -8  -8   6    0.30    0.70
  -7  -8   6   10.50    1.50
  -7  -8   6    8.70    1.30
  -6  -8   6   31.10    1.90
  -6  -8   6   34.90    2.30
  -5  -8   6   80.29    3.30
  -5  -8   6   76.59    3.10
  -4  -8   6  160.28    4.90
  -4  -8   6  156.38    5.00
  -3  -8   6    0.20    0.70
  -3  -8   6    0.20    0.70
  -2  -8   6  592.84   13.90
  -2  -8   6  576.34   13.90
  -1  -8   6  310.07    8.30
  -1  -8   6  322.87    8.40
   0   8  -6    0.60    0.70
   0  -8   6   -0.40    0.60
  -1   8  -6   32.70    2.00
   1  -8   6   33.80    2.00
  -2   8  -6    6.20    1.10
   2  -8   6    7.00    1.20
  -3   8  -6    1.00    0.80
   3  -8   6   -0.10    0.70
  -4   8  -6    5.90    1.20
  -5   8  -6  155.18    5.10
  -6   8  -6  170.38    5.50
  -7   8  -6  616.44   15.00
  -8   8  -6  200.18    6.30
  -9   8  -6   24.10    2.30
 -10   8  -6    0.50    1.20
 -11   8  -6   19.70    2.30
 -12   8  -6   -1.00    1.10
 -13   8  -6   -0.80    1.20
 -14   8  -6   11.00    2.10
 -16  -7   6    1.40    1.60
 -15  -7   6    0.20    1.40
 -14  -7   6    1.80    1.60
 -13  -7   6    4.50    1.50
 -12  -7   6    6.70    1.70
 -11  -7   6   50.49    3.20
 -10  -7   6   11.30    1.30
 -10  -7   6    9.70    1.70
  -9  -7   6    6.20    1.30
  -9  -7   6    7.10    1.10
  -8  -7   6   21.80    1.50
  -8  -7   6   20.60    2.00
  -7  -7   6  113.79    4.10
  -7  -7   6  101.19    3.60
  -6  -7   6   65.49    3.00
  -6  -7   6   62.59    2.60
  -5  -7   6   12.30    1.60
  -5  -7   6   15.50    1.40
  -4  -7   6   42.40    2.10
  -4  -7   6   45.00    2.40
  -3  -7   6  130.89    4.40
  -3  -7   6  134.89    4.20
  -2  -7   6    3.80    0.90
  -2  -7   6    2.80    0.90
  -1  -7   6  467.45   11.40
  -1  -7   6  472.85   11.40
   0   7  -6 1046.50   23.40
   0  -7   6 1048.40   23.40
  -1   7  -6    2.50    0.90
   1  -7   6    3.30    0.90
  -2   7  -6   12.60    1.40
   2  -7   6    9.60    1.20
  -3   7  -6  432.06   10.70
   3  -7   6  428.66   10.80
  -4   7  -6   73.59    3.10
  -5   7  -6   74.19    3.10
  -6   7  -6   21.20    1.90
  -7   7  -6  490.25   12.20
  -8   7  -6  486.45   12.30
  -9   7  -6   41.50    2.60
 -10   7  -6    1.40    1.10
 -11   7  -6   44.10    2.90
 -12   7  -6   17.80    2.20
 -13   7  -6    4.40    1.50
 -14   7  -6    0.10    1.30
 -15   7  -6   26.30    3.00
 -16  -6   6    1.40    1.70
 -15  -6   6   41.50    3.60
 -14  -6   6    7.40    1.80
 -13  -6   6    1.40    1.30
 -12  -6   6    8.20    1.70
 -11  -6   6    6.90    1.50
 -10  -6   6   40.40    2.70
  -9  -6   6   30.10    2.20
  -9  -6   6   24.40    1.60
  -8  -6   6   36.70    1.90
  -8  -6   6   35.70    2.40
  -7  -6   6    1.60    0.80
  -7  -6   6    1.50    0.70
  -6  -6   6  486.45   11.40
  -6  -6   6  473.95   11.90
  -5  -6   6   25.00    1.90
  -5  -6   6   23.10    1.50
  -4  -6   6    0.40    0.70
  -4  -6   6    1.40    0.70
  -3  -6   6    0.00    0.50
  -3  -6   6    0.30    0.70
  -2  -6   6  134.29    4.20
  -2  -6   6  137.99    4.30
  -1  -6   6   16.50    1.40
  -1  -6   6   16.80    1.50
   0  -6   6  203.88    5.70
   0  -6   6  197.98    5.70
  -1   6  -6    0.70    0.70
   1  -6   6    1.70    0.70
  -2   6  -6  290.67    7.60
   2  -6   6  294.47    7.70
  -3   6  -6  206.38    5.80
  -4   6  -6  210.18    6.00
  -5   6  -6   26.00    1.80
  -6   6  -6   11.00    1.40
  -7   6  -6    9.90    1.40
  -8   6  -6  115.09    4.20
  -9   6  -6  134.19    4.80
 -10   6  -6   78.29    3.60
 -11   6  -6   85.89    3.90
 -12   6  -6   30.50    2.80
 -13   6  -6    4.40    1.50
 -14   6  -6   12.80    2.10
 -15   6  -6    2.30    1.50
 -16   6  -6   -0.10    1.50
 -16  -5   6    1.50    1.50
 -15  -5   6   15.20    2.40
 -14  -5   6  103.79    5.10
 -13  -5   6   18.50    2.50
 -12  -5   6   37.50    2.90
 -11  -5   6   30.50    2.60
 -10  -5   6   44.90    2.80
  -9  -5   6   44.20    2.80
  -9  -5   6   49.80    2.10
  -8  -5   6    4.50    1.10
  -8  -5   6    4.70    0.80
  -7  -5   6   16.00    1.70
  -7  -5   6   15.70    1.30
  -6  -5   6  205.48    5.50
  -6  -5   6  211.68    6.20
  -5  -5   6  442.66   11.10
  -5  -5   6  448.46   10.50
  -4  -5   6   21.50    1.60
  -4  -5   6   23.90    1.40
  -3  -5   6   66.99    2.80
  -3  -5   6   74.79    2.60
  -2  -5   6   38.10    1.80
  -2  -5   6   38.20    2.00
  -1  -5   6   27.60    1.60
  -1  -5   6   25.50    1.70
   0  -5   6    2.10    0.80
   0  -5   6    3.20    0.70
   1  -5   6    6.00    0.90
  -2   5  -6  238.88    6.50
   2  -5   6  245.48    6.50
  -3   5  -6  967.60   21.50
  -4   5  -6    2.80    0.80
  -5   5  -6  105.79    3.60
  -6   5  -6    3.70    1.00
  -7   5  -6   21.00    1.90
  -8   5  -6   70.19    3.10
  -9   5  -6  168.08    5.40
 -10   5  -6    7.80    1.40
 -11   5  -6  112.59    4.50
 -12   5  -6   68.59    3.50
 -13   5  -6    1.50    1.30
 -14   5  -6   15.70    2.20
 -15   5  -6    4.90    1.60
 -16   5  -6    1.40    1.40
 -16  -4   6    3.40    1.90
 -15  -4   6   17.70    2.70
 -14  -4   6    1.70    1.60
 -13  -4   6  110.59    5.00
 -12  -4   6   34.40    3.00
 -11  -4   6    0.10    1.10
 -10  -4   6    0.50    1.00
  -9  -4   6   27.60    2.40
  -8  -4   6    5.40    0.80
  -8  -4   6    6.20    1.30
  -7  -4   6   38.50    1.70
  -7  -4   6   36.20    2.30
  -6  -4   6    0.30    0.70
  -6  -4   6   -0.10    0.50
  -5  -4   6  729.43   16.80
  -5  -4   6  721.03   16.10
  -4  -4   6  165.58    4.90
  -4  -4   6  155.78    4.30
  -3  -4   6   35.40    1.60
  -3  -4   6   35.40    1.90
  -2  -4   6  223.08    6.10
  -2  -4   6  228.98    5.80
  -1  -4   6   36.20    1.80
  -1  -4   6   29.80    1.60
   0  -4   6    5.20    0.90
   0  -4   6    6.30    0.90
   1  -4   6   43.30    2.00
   1  -4   6   42.90    1.90
  -2   4  -6  139.69    4.20
  -3   4  -6  696.83   15.80
  -4   4  -6  832.52   18.70
  -5   4  -6   10.40    1.20
  -6   4  -6  231.08    6.40
  -7   4  -6  298.37    7.90
  -8   4  -6    9.10    1.30
  -9   4  -6  116.19    4.10
 -10   4  -6    6.60    1.20
 -11   4  -6   20.20    2.00
 -12   4  -6  112.09    4.50
 -13   4  -6   12.40    1.90
 -14   4  -6   42.90    3.10
 -15   4  -6   48.30    3.30
 -16   4  -6    2.90    1.70
 -17   4  -6    6.20    1.80
 -16  -3   6    5.80    2.10
 -15  -3   6    1.50    1.50
 -14  -3   6   21.50    2.70
 -13  -3   6    2.10    1.30
 -12  -3   6   -0.10    1.10
 -11  -3   6  145.29    5.50
 -10  -3   6   44.60    2.80
  -9  -3   6   27.30    2.40
  -8  -3   6   25.60    1.50
  -8  -3   6   28.00    2.10
  -7  -3   6    1.30    0.90
  -7  -3   6    1.30    0.50
  -6  -3   6   46.70    2.40
  -6  -3   6   49.10    1.80
  -5  -3   6   -0.20    0.70
  -5  -3   6    0.70    0.40
  -4  -3   6   17.00    1.50
  -4  -3   6   18.20    1.10
  -3  -3   6  118.49    3.40
  -3  -3   6  122.09    3.90
   2   3  -6  178.08    4.00
  -2  -3   6  174.68    5.00
  -2  -3   6  183.38    4.70
   1   3  -6   71.99    1.70
  -1  -3   6   71.49    2.40
  -1  -3   6   71.89    2.70
   0  -3   6  307.87    7.60
   0  -3   6  302.47    7.40
   1  -3   6   26.80    1.40
   1  -3   6   30.70    1.60
  -2   3  -6    1.70    0.60
  -3   3  -6  453.55   10.70
  -4   3  -6  356.36    8.70
  -5   3  -6   51.09    2.20
  -6   3  -6   78.09    2.90
  -7   3  -6   28.40    1.70
  -8   3  -6  315.67    8.20
  -9   3  -6   31.90    2.00
 -10   3  -6   50.39    2.60
 -11   3  -6    3.90    1.10
 -12   3  -6   48.10    2.80
 -13   3  -6   39.50    2.70
 -14   3  -6    5.90    1.50
 -15   3  -6   -1.10    1.20
 -16   3  -6    6.70    1.70
 -17   3  -6    0.80    1.40
 -16  -2   6    0.30    1.60
 -15  -2   6   27.10    3.10
 -14  -2   6   42.50    3.60
 -13  -2   6   17.70    2.40
 -12  -2   6   12.20    2.00
 -11  -2   6   92.49    4.30
 -10  -2   6  369.76   10.30
  -9  -2   6    1.60    1.00
  -8  -2   6   -1.10    0.70
  -7  -2   6  117.69    3.20
  -7  -2   6  120.69    4.30
  -6  -2   6   28.70    1.90
  -6  -2   6   27.80    1.30
  -5  -2   6   14.80    1.50
  -5  -2   6   12.30    0.90
   4   2  -6    0.00    0.30
  -4  -2   6    1.30    0.70
  -4  -2   6    0.70    0.40
   3   2  -6   24.10    1.00
  -3  -2   6   24.40    1.50
  -3  -2   6   23.50    1.20
   2   2  -6  599.34   12.80
  -2  -2   6  599.84   13.80
  -2  -2   6  594.04   13.20
   1   2  -6   59.79    1.60
  -1  -2   6   57.99    2.30
  -1  -2   6   56.09    2.00
   0  -2   6    0.30    0.40
   0  -2   6   -0.10    0.40
   1  -2   6    9.40    1.00
   2  -2   6    8.60    1.00
  -3   2  -6  309.57    7.60
  -4   2  -6  172.88    4.80
  -5   2  -6    2.20    0.70
  -6   2  -6  319.27    8.00
  -7   2  -6  676.53   15.50
  -8   2  -6    5.50    1.00
  -9   2  -6   76.99    3.10
 -10   2  -6   12.10    1.40
 -11   2  -6   88.29    3.60
 -12   2  -6   22.30    2.00
 -13   2  -6   43.70    2.70
 -14   2  -6   23.00    2.30
 -15   2  -6   22.40    2.50
 -16   2  -6   42.10    3.00
 -17   2  -6   -0.40    1.20
 -18   2  -6    1.40    1.50
 -16  -1   6   -0.70    1.40
 -15  -1   6    4.70    1.80
 -14  -1   6   14.50    2.30
 -13  -1   6    0.10    1.20
 -12  -1   6    8.70    1.80
 -11  -1   6   67.29    3.60
 -10  -1   6   34.70    2.60
  -9  -1   6  379.06   10.30
  -8  -1   6  245.08    7.30
  -7  -1   6   53.89    2.70
  -6  -1   6  154.58    4.90
  -6  -1   6  152.28    3.80
   5   1  -6  101.49    3.00
  -5  -1   6  101.69    3.60
  -5  -1   6   99.59    2.70
   4   1  -6   22.00    1.10
  -4  -1   6   18.40    0.90
  -4  -1   6   20.20    1.50
   3   1  -6   11.50    0.70
  -3  -1   6    9.10    1.10
  -3  -1   6   12.10    0.80
   2   1  -6   19.90    0.90
  -2  -1   6   19.50    1.00
  -2  -1   6   17.80    1.30
   1   1  -6  345.57    7.60
  -1  -1   6  341.97    8.40
   0   1  -6  881.81   18.20
   0  -1   6  836.42   18.90
   1  -1   6    5.00    0.80
   2  -1   6   47.60    1.90
  -3   1  -6 1245.08   26.90
  -4   1  -6  332.27    8.00
  -5   1  -6   -0.20    0.40
  -6   1  -6  179.98    4.90
  -7   1  -6   19.20    1.30
  -8   1  -6  928.01   20.60
  -9   1  -6   43.90    2.10
 -10   1  -6    4.10    0.90
 -11   1  -6  507.75   12.40
 -12   1  -6   90.09    3.60
 -13   1  -6   35.10    2.40
 -14   1  -6    1.50    1.10
 -15   1  -6   15.00    2.00
 -16   1  -6    0.00    1.20
 -17   1  -6    1.50    1.30
 -18   1  -6    8.30    1.90
 -15   0   6   13.90    2.60
 -14   0   6   29.30    3.10
 -13   0   6    2.40    1.50
 -12   0   6   -0.20    1.20
 -11   0   6    2.70    1.30
 -10   0   6   18.70    2.10
  -9   0   6  112.19    4.40
  -8   0   6  112.59    4.30
  -7   0   6  111.09    4.10
   6   0  -6  216.98    5.80
  -6   0   6  229.08    6.50
   5   0  -6   29.40    1.50
  -5   0   6   29.80    1.10
  -5   0   6   29.60    1.80
   4   0  -6   -0.30    0.40
  -4   0   6    0.20    0.60
  -4   0   6    0.70    0.30
   3   0  -6  188.28    4.70
  -3   0   6  186.68    5.20
   2   0  -6    8.80    0.70
  -2   0   6    8.80    1.00
   1   0  -6  332.77    7.50
  -1   0   6  330.37    8.10
   0   0  -6   92.69    2.50
   0   0   6   95.59    3.00
   1   0   6  187.58    4.90
   2   0   6  434.96   10.00
  -4   0  -6   83.99    2.70
  -5   0  -6   90.09    2.80
  -6   0  -6    8.40    0.90
  -7   0  -6  391.36    9.30
  -8   0  -6   21.80    1.40
  -9   0  -6   18.80    1.50
 -10   0  -6    1.40    0.70
 -11   0  -6    2.20    0.80
 -12   0  -6   55.19    2.70
 -13   0  -6   -0.10    0.80
 -14   0  -6    4.60    1.30
 -15   0  -6    1.10    1.20
 -15   0  -6    1.80    1.00
 -16   0  -6   91.39    4.20
 -17   0  -6    3.50    1.50
 -18   0  -6   35.40    3.10
 -19   0  -6   11.30    2.20
 -15   1   6   41.40    3.80
 -14   1   6  185.38    7.20
 -13   1   6    5.80    1.70
 -12   1   6    5.00    1.60
 -11   1   6   41.40    2.90
 -10   1   6   30.00    2.70
  -9   1   6   75.39    3.60
  -8   1   6   78.69    3.50
   7  -1  -6  116.19    3.70
  -7   1   6  110.79    4.20
   6  -1  -6  907.11   20.20
  -6   1   6  924.71   20.90
   5  -1  -6   10.20    1.00
  -5   1   6    9.50    1.30
   4  -1  -6   19.60    1.20
  -4   1   6   23.30    1.60
   3  -1  -6   67.79    2.20
  -3   1   6   65.69    2.60
   2  -1  -6    2.00    0.50
  -2   1   6    1.80    0.60
   1  -1  -6  220.18    5.30
  -1   1   6  218.28    5.70
   0  -1  -6  264.87    6.20
   0   1   6  267.07    6.60
   1   1   6   30.20    1.40
   2   1   6 1135.29   24.40
   3   1   6  439.46   10.00
  -4  -1  -6    6.60    0.70
  -5  -1  -6    0.80    0.50
  -6  -1  -6  175.08    4.60
  -7  -1  -6   63.79    2.30
  -8  -1  -6   48.70    2.00
  -9  -1  -6   -0.90    0.40
 -10  -1  -6    7.30    1.00
 -11  -1  -6   31.80    1.90
 -12  -1  -6   49.20    2.50
 -13  -1  -6    5.30    1.20
 -13  -1  -6    1.90    0.90
 -14  -1  -6   43.80    2.60
 -14  -1  -6   40.20    2.50
 -15  -1  -6   19.20    1.90
 -15  -1  -6   20.80    2.10
 -16  -1  -6    0.60    1.00
 -16  -1  -6    0.20    1.00
 -17  -1  -6   94.29    4.30
 -18  -1  -6    0.00    1.30
 -19  -1  -6    1.40    1.40
 -15   2   6   15.50    2.60
 -14   2   6   50.19    3.70
 -13   2   6   26.80    2.90
 -12   2   6    5.40    1.60
 -11   2   6   29.60    2.80
 -10   2   6   26.80    2.50
  -9   2   6  104.49    4.30
  -8   2   6    2.10    1.10
   7  -2  -6   15.50    1.50
  -7   2   6   13.80    1.70
   6  -2  -6   53.69    2.30
  -6   2   6   54.99    2.70
   5  -2  -6  168.08    4.70
  -5   2   6  166.38    5.10
   4  -2  -6  140.69    3.90
  -4   2   6  130.99    4.20
   3  -2  -6   36.00    1.60
  -3   2   6   37.80    1.90
   2  -2  -6  142.39    3.90
  -2   2   6  137.39    4.10
   1  -2  -6  958.00   20.60
  -1   2   6  946.51   20.80
   0  -2  -6    2.30    0.50
   0   2   6    1.90    0.50
   1   2   6  676.73   14.90
   2   2   6  403.76    9.20
   3   2   6  154.58    4.00
  -4  -2  -6  147.39    3.80
  -5  -2  -6    0.70    0.40
  -6  -2  -6  345.37    8.00
  -7  -2  -6  954.30   20.70
  -8  -2  -6   -0.50    0.50
  -9  -2  -6    4.00    0.80
 -10  -2  -6   69.89    2.70
 -11  -2  -6   25.80    1.80
 -11  -2  -6   31.10    1.80
 -12  -2  -6   -0.50    0.70
 -12  -2  -6    0.00    0.80
 -13  -2  -6   41.00    2.30
 -13  -2  -6   40.30    2.30
 -14  -2  -6   31.50    2.20
 -14  -2  -6   32.00    2.20
 -15  -2  -6  147.59    5.00
 -15  -2  -6  141.79    5.10
 -16  -2  -6   61.59    3.30
 -16  -2  -6   65.09    3.20
 -17  -2  -6   40.50    2.90
 -18  -2  -6    0.40    1.20
 -19  -2  -6    5.10    1.70
 -14   3   6   74.89    4.70
 -13   3   6   35.10    3.30
 -12   3   6    6.70    1.70
 -11   3   6   66.49    3.70
 -10   3   6   42.40    2.90
  -9   3   6  133.69    5.10
   8  -3  -6   69.19    3.10
  -8   3   6   70.99    3.40
   7  -3  -6   62.49    2.70
  -7   3   6   63.09    3.00
   6  -3  -6    2.50    0.90
  -6   3   6    1.80    0.90
   5  -3  -6  101.49    3.40
  -5   3   6  104.49    3.80
   4  -3  -6   32.50    1.70
  -4   3   6   36.40    2.00
   3  -3  -6  190.48    5.10
  -3   3   6  189.68    5.30
   2  -3  -6  418.56    8.70
   2  -3  -6  410.06    9.70
  -2   3   6  410.96    9.80
   1  -3  -6  720.53   16.00
   1  -3  -6  735.33   15.30
  -1   3   6  712.73   16.10
   0  -3  -6  311.37    6.80
   0  -3  -6  297.87    7.30
   0   3   6  312.57    7.30
   1   3   6  130.69    3.50
   2   3   6  136.59    3.60
   3   3   6    5.40    0.60
  -4  -3  -6   95.49    2.60
  -5  -3  -6   71.39    2.10
  -6  -3  -6   24.10    1.10
  -7  -3  -6  170.08    4.40
  -8  -3  -6 1477.65   31.60
  -8  -3  -6 1488.85   32.10
  -9  -3  -6   26.70    1.40
  -9  -3  -6   26.60    1.70
 -10  -3  -6  142.49    4.10
 -10  -3  -6  140.19    4.40
 -11  -3  -6   10.30    1.10
 -11  -3  -6    8.90    1.30
 -12  -3  -6    2.30    0.90
 -12  -3  -6    2.50    0.80
 -13  -3  -6   13.90    1.60
 -13  -3  -6   12.70    1.40
 -14  -3  -6    9.30    1.40
 -14  -3  -6    9.70    1.40
 -15  -3  -6    9.70    1.50
 -15  -3  -6    9.90    1.50
 -16  -3  -6  135.89    4.80
 -16  -3  -6  124.89    4.80
 -17  -3  -6   27.20    2.30
 -17  -3  -6   23.60    2.40
 -18  -3  -6    0.50    1.10
 -19  -3  -6    8.00    1.80
 -20  -3  -6   56.79    3.90
 -14   4   6   13.70    2.60
 -13   4   6    4.10    1.70
 -12   4   6   12.20    2.20
 -11   4   6   27.50    2.80
 -10   4   6  316.17    9.40
  -9   4   6   39.00    2.80
   8  -4  -6    5.90    1.20
  -8   4   6    7.00    1.40
   7  -4  -6  184.98    5.70
  -7   4   6  196.58    6.10
   6  -4  -6   65.39    2.80
  -6   4   6   60.19    2.90
   5  -4  -6    2.50    0.80
  -5   4   6    0.30    0.70
   4  -4  -6   39.10    1.90
  -4   4   6   38.60    2.10
   3  -4  -6   41.50    2.00
  -3   4   6   47.50    2.20
   2  -4  -6  386.86    9.20
   2  -4  -6  392.86    8.10
  -2   4   6  373.66    9.20
   1  -4  -6  595.84   13.40
   1  -4  -6  598.34   12.50
  -1   4   6  570.94   13.30
   0  -4  -6  299.07    7.20
   0  -4  -6  292.97    6.50
   0   4   6  290.27    7.00
  -1  -4  -6   68.49    2.00
  -1  -4  -6   66.29    2.40
   1   4   6   66.79    2.20
  -2  -4  -6  554.04   12.30
   2   4   6  573.74   12.40
  -3  -4  -6   21.40    1.10
   3   4   6   20.20    1.00
  -4  -4  -6  136.59    3.80
  -4  -4  -6  143.69    3.50
  -5  -4  -6    5.90    0.70
  -5  -4  -6    5.70    0.60
  -6  -4  -6  244.08    6.10
  -6  -4  -6  237.08    5.60
  -7  -4  -6    0.30    0.40
  -7  -4  -6    0.10    0.50
  -8  -4  -6   20.50    1.50
  -8  -4  -6   25.90    1.20
  -9  -4  -6   50.19    1.90
  -9  -4  -6   44.40    2.10
 -10  -4  -6    2.40    0.60
 -10  -4  -6    1.50    0.80
 -11  -4  -6   51.29    2.20
 -11  -4  -6   52.09    2.50
 -12  -4  -6    0.30    0.70
 -12  -4  -6    0.40    0.60
 -13  -4  -6  165.98    5.30
 -13  -4  -6  169.28    5.10
 -14  -4  -6    5.20    1.10
 -14  -4  -6    5.20    1.20
 -15  -4  -6   36.80    2.30
 -15  -4  -6   29.90    2.10
 -16  -4  -6    4.90    1.30
 -16  -4  -6    1.40    1.10
 -17  -4  -6   50.49    2.90
 -17  -4  -6   52.29    3.00
 -18  -4  -6   10.90    1.90
 -19  -4  -6    4.50    1.60
 -20  -4  -6   20.10    2.60
 -13   5   6    1.50    1.60
 -12   5   6   86.39    4.50
 -11   5   6   44.50    3.20
 -10   5   6    8.60    1.80
  -9   5   6  143.49    5.40
   8  -5  -6   15.80    1.70
  -8   5   6   16.00    1.90
   7  -5  -6    3.10    1.00
  -7   5   6    2.40    1.00
   6  -5  -6   57.89    2.70
  -6   5   6   60.29    2.90
   5  -5  -6  146.39    4.50
  -5   5   6  135.89    4.60
   4  -5  -6   26.50    1.70
  -4   5   6   23.30    1.70
   3  -5  -6   34.90    1.90
  -3   5   6   37.40    1.90
   2  -5  -6   53.79    2.30
   2  -5  -6   62.39    1.50
  -2   5   6   60.99    2.40
   1  -5  -6  415.96    9.90
   1  -5  -6  425.26    9.00
  -1   5   6  405.06    9.70
   0  -5  -6  357.36    7.70
   0  -5  -6  339.47    8.50
   0   5   6  349.37    8.20
  -1  -5  -6   36.20    1.70
  -1  -5  -6   35.00    1.30
   1   5   6   34.50    1.40
  -2  -5  -6  661.23   14.50
   2   5   6  675.93   14.50
  -3  -5  -6  279.87    6.60
   3   5   6  275.67    6.30
  -4  -5  -6   20.80    1.10
  -5  -5  -6   27.20    1.00
  -5  -5  -6   26.80    1.30
  -6  -5  -6   61.29    1.80
  -6  -5  -6   59.49    2.20
  -7  -5  -6   59.59    1.90
  -7  -5  -6   66.69    2.40
  -8  -5  -6   40.60    1.90
  -8  -5  -6   41.50    1.50
  -9  -5  -6   91.79    3.20
  -9  -5  -6   88.19    2.70
 -10  -5  -6  266.67    7.10
 -10  -5  -6  273.17    6.60
 -11  -5  -6  435.06   10.00
 -11  -5  -6  403.66   10.30
 -12  -5  -6    2.60    0.90
 -12  -5  -6    4.00    0.80
 -13  -5  -6   23.00    1.70
 -13  -5  -6   21.50    1.90
 -14  -5  -6   50.09    2.60
 -14  -5  -6   53.59    2.60
 -15  -5  -6  119.39    4.30
 -15  -5  -6  122.99    4.40
 -16  -5  -6   70.49    3.30
 -16  -5  -6   74.89    3.40
 -17  -5  -6   10.40    1.70
 -17  -5  -6   12.40    1.80
 -18  -5  -6   29.70    2.50
 -18  -5  -6   34.70    2.80
 -19  -5  -6   36.10    2.80
 -20  -5  -6    6.90    1.90
 -13   6   6    7.80    2.20
 -12   6   6    5.90    1.90
 -11   6   6   85.39    4.40
 -10   6   6  174.48    6.50
   9  -6  -6    1.50    1.10
  -9   6   6    3.30    1.30
   8  -6  -6   53.79    3.00
  -8   6   6   51.29    3.20
   7  -6  -6   27.00    2.00
  -7   6   6   24.10    2.20
   6  -6  -6  117.79    4.20
  -6   6   6  119.19    4.40
   5  -6  -6  344.67    9.00
  -5   6   6  347.77    9.20
   4  -6  -6  179.38    5.40
  -4   6   6  190.18    5.60
   3  -6  -6   17.90    1.60
  -3   6   6   18.30    1.60
   2  -6  -6    6.40    1.00
   2  -6  -6    5.50    0.40
  -2   6   6    4.90    0.90
   1  -6  -6  196.68    5.50
   1  -6  -6  198.18    4.50
  -1   6   6  195.78    5.20
   0  -6  -6  179.58    5.20
   0  -6  -6  188.78    4.40
   0   6   6  185.68    4.80
  -1  -6  -6  118.59    3.70
  -1  -6  -6  118.39    3.10
   1   6   6  117.99    3.20
  -2  -6  -6    3.50    0.50
   2   6   6    3.20    0.50
  -3  -6  -6 1236.88   26.50
   3   6   6 1249.18   26.10
  -4  -6  -6   47.90    1.80
   4   6   6   47.30    1.40
  -5  -6  -6    2.20    0.30
  -5  -6  -6    1.50    0.50
  -6  -6  -6  145.19    4.10
  -6  -6  -6  144.59    3.40
  -7  -6  -6   79.99    2.10
  -7  -6  -6   80.79    2.80
  -8  -6  -6  152.18    3.80
  -8  -6  -6  153.08    4.50
  -9  -6  -6    1.80    0.50
  -9  -6  -6    0.70    0.70
 -10  -6  -6  142.89    3.90
 -10  -6  -6  143.19    4.40
 -11  -6  -6  231.48    6.50
 -11  -6  -6  232.88    5.90
 -12  -6  -6   42.70    2.40
 -12  -6  -6   41.80    2.00
 -13  -6  -6   32.80    1.90
 -13  -6  -6   32.40    2.20
 -14  -6  -6  108.49    3.80
 -14  -6  -6  116.89    4.20
 -15  -6  -6  140.69    4.70
 -15  -6  -6  134.79    4.80
 -16  -6  -6  179.28    5.80
 -16  -6  -6  192.98    6.00
 -17  -6  -6    5.10    1.40
 -17  -6  -6    4.60    1.40
 -18  -6  -6   52.19    3.10
 -18  -6  -6   55.49    3.10
 -19  -6  -6   14.00    2.10
 -20  -6  -6    3.40    1.50
 -12   7   6    3.00    1.60
 -11   7   6   83.99    4.60
 -10   7   6    3.20    1.50
   9  -7  -6    7.80    1.60
  -9   7   6   13.20    2.00
   8  -7  -6    1.20    1.00
  -8   7   6    1.60    1.10
   7  -7  -6   12.80    1.70
  -7   7   6   14.00    1.80
   6  -7  -6  120.99    4.40
  -6   7   6  117.79    4.50
   5  -7  -6   11.20    1.50
  -5   7   6   14.50    1.70
   4  -7  -6  149.99    4.80
  -4   7   6  146.69    4.70
   3  -7  -6  106.39    3.80
  -3   7   6  104.19    3.70
   2  -7  -6  232.68    5.30
   2  -7  -6  236.98    6.50
  -2   7   6  232.48    6.20
   1  -7  -6  190.18    4.50
   1  -7  -6  189.98    5.50
  -1   7   6  190.08    5.10
   0  -7  -6  159.68    4.80
   0  -7  -6  158.38    3.90
   0   7   6  153.58    4.20
  -1  -7  -6   88.69    3.20
  -1  -7  -6   91.19    2.50
   1   7   6   84.99    2.60
  -2  -7  -6   16.80    1.00
  -2  -7  -6   19.10    1.60
   2   7   6   17.30    0.90
  -3  -7  -6   61.99    2.10
   3   7   6   60.99    1.80
  -4  -7  -6  442.26   10.30
   4   7   6  458.15    9.60
  -5  -7  -6  145.49    4.10
  -6  -7  -6   34.00    1.60
  -6  -7  -6   32.80    0.90
  -7  -7  -6    8.20    1.00
  -7  -7  -6    8.30    0.50
  -8  -7  -6  370.66    8.20
  -8  -7  -6  372.96    9.10
  -9  -7  -6    7.80    0.70
  -9  -7  -6    8.40    1.10
 -10  -7  -6   21.00    1.20
 -10  -7  -6   21.60    1.60
 -11  -7  -6   37.50    1.70
 -11  -7  -6   34.10    2.10
 -12  -7  -6   76.39    3.20
 -12  -7  -6   88.79    2.90
 -13  -7  -6    1.50    0.90
 -13  -7  -6    1.10    0.70
 -14  -7  -6    0.10    0.80
 -14  -7  -6   -0.20    0.70
 -15  -7  -6    2.40    1.00
 -15  -7  -6    3.70    1.10
 -16  -7  -6  117.89    4.40
 -16  -7  -6  111.89    4.20
 -17  -7  -6   46.90    2.70
 -17  -7  -6   42.10    2.80
 -18  -7  -6    3.70    1.30
 -18  -7  -6    0.40    1.10
 -19  -7  -6    3.10    1.40
 -19  -7  -6    1.10    1.20
 -12   8   6    0.50    1.40
 -11   8   6   23.40    2.80
 -10   8   6  416.56   12.00
   9  -8  -6   83.59    4.10
  -9   8   6   79.99    4.20
   8  -8  -6    1.00    1.00
  -8   8   6    2.10    1.30
   7  -8  -6   12.20    1.70
  -7   8   6   11.40    1.70
   6  -8  -6   64.59    3.20
  -6   8   6   66.29    3.30
   5  -8  -6   30.60    2.10
  -5   8   6   30.50    2.10
   4  -8  -6    5.30    1.10
  -4   8   6    4.20    1.00
   3  -8  -6   14.00    1.60
  -3   8   6   14.70    1.50
   2  -8  -6 1380.46   30.20
  -2   8   6 1362.06   29.80
   1  -8  -6  840.12   17.90
   1  -8  -6  828.72   19.10
  -1   8   6  839.32   18.60
   0  -8  -6   51.79    1.80
   0  -8  -6   50.29    2.40
   0   8   6   49.50    2.00
  -1  -8  -6  114.19    3.80
  -1  -8  -6  112.79    3.10
   1   8   6  110.99    3.20
  -2  -8  -6    1.20    0.80
  -2  -8  -6    0.40    0.40
   2   8   6    1.10    0.40
  -3  -8  -6  116.49    3.30
   3   8   6  118.59    2.90
  -4  -8  -6   94.89    3.00
   4   8   6   96.89    2.40
  -5  -8  -6    3.70    0.70
  -6  -8  -6  553.34   12.70
  -7  -8  -6  590.84   13.60
  -7  -8  -6  602.84   12.50
  -8  -8  -6   23.60    1.50
  -8  -8  -6   23.60    0.90
  -9  -8  -6  147.79    3.60
  -9  -8  -6  140.19    4.40
 -10  -8  -6    1.90    0.50
 -10  -8  -6    1.80    0.80
 -11  -8  -6   69.19    3.00
 -11  -8  -6   73.69    2.40
 -12  -8  -6   78.79    3.30
 -12  -8  -6   85.29    2.80
 -13  -8  -6    3.50    1.00
 -13  -8  -6    4.00    0.90
 -14  -8  -6   16.30    1.50
 -14  -8  -6   15.80    1.80
 -15  -8  -6  136.59    4.80
 -15  -8  -6  130.09    4.40
 -16  -8  -6    8.90    1.50
 -16  -8  -6    9.00    1.60
 -17  -8  -6    1.60    1.20
 -18  -8  -6   46.50    2.90
 -19  -8  -6    1.90    1.30
 -11   9   6   -0.20    1.50
 -10   9   6    7.10    1.90
   9  -9  -6  240.48    7.90
  -9   9   6  260.17    8.20
   8  -9  -6   11.50    1.80
  -8   9   6   14.10    2.00
   7  -9  -6    8.90    1.70
  -7   9   6   12.00    1.80
   6  -9  -6  376.16   10.20
  -6   9   6  373.66   10.20
   5  -9  -6    4.00    1.20
  -5   9   6    4.60    1.20
   4  -9  -6    0.50    0.90
  -4   9   6   -1.50    0.70
   3  -9  -6   21.20    2.00
  -3   9   6   22.30    1.90
   2  -9  -6   35.20    2.20
  -2   9   6   28.80    1.80
   1  -9  -6 1092.29   24.90
   1  -9  -6 1123.79   23.70
  -1   9   6 1114.39   24.30
   0  -9  -6   67.79    2.90
   0  -9  -6   66.79    2.20
   0   9   6   72.59    2.50
  -1  -9  -6    1.00    0.50
  -1  -9  -6    1.90    0.90
   1   9   6    1.00    0.50
  -2  -9  -6  217.58    5.60
  -2  -9  -6  226.08    6.40
   2   9   6  232.08    5.40
  -3  -9  -6  329.37    8.70
  -3  -9  -6  339.37    8.10
   3   9   6  355.16    7.60
  -4  -9  -6    5.40    0.80
  -5  -9  -6   74.59    2.60
  -6  -9  -6    4.00    0.80
  -7  -9  -6  130.99    4.00
  -8  -9  -6   11.00    1.20
  -9  -9  -6    5.50    1.00
 -10  -9  -6  185.08    5.40
 -11  -9  -6    0.90    0.80
 -12  -9  -6   12.30    1.50
 -13  -9  -6    4.20    1.10
 -14  -9  -6   19.10    1.90
 -15  -9  -6    7.40    1.40
 -16  -9  -6   15.60    1.90
 -17  -9  -6   66.39    3.30
 -18  -9  -6   16.50    2.00
 -19  -9  -6   37.00    2.90
 -20  -9  -6   75.79    3.80
 -10  10   6   45.70    3.70
   9 -10  -6   14.60    2.10
  -9  10   6   11.70    2.00
   8 -10  -6   15.70    2.10
  -8  10   6   11.90    1.90
   7 -10  -6  105.29    4.50
  -7  10   6  112.39    4.70
   6 -10  -6    2.60    1.20
  -6  10   6    2.20    1.10
   5 -10  -6   74.69    3.50
  -5  10   6   77.79    3.50
   4 -10  -6   -1.00    0.80
  -4  10   6   -1.30    0.80
   3 -10  -6    4.30    1.20
  -3  10   6    4.80    1.10
   2 -10  -6    0.60    0.80
  -2  10   6    0.40    0.70
   1 -10  -6    2.60    0.90
   1 -10  -6    1.70    0.90
  -1  10   6    3.60    0.80
   0 -10  -6  296.27    7.00
   0 -10  -6  277.37    7.90
   0  10   6  291.37    7.20
  -1 -10  -6   25.40    1.90
  -1 -10  -6   27.70    1.50
   1  10   6   27.90    1.40
  -2 -10  -6   10.50    1.10
  -2 -10  -6   11.10    1.40
   2  10   6   11.40    0.90
  -3 -10  -6   45.70    2.40
  -3 -10  -6   47.60    1.90
  -4 -10  -6  288.17    7.10
  -5 -10  -6    7.70    1.00
  -6 -10  -6   11.30    1.20
  -7 -10  -6   91.79    3.20
  -8 -10  -6   17.40    1.50
  -9 -10  -6  106.89    3.70
 -10 -10  -6    1.00    0.80
 -11 -10  -6   59.99    2.70
 -12 -10  -6  101.59    3.80
 -13 -10  -6    6.30    1.20
 -14 -10  -6   30.50    2.20
 -15 -10  -6    9.50    1.50
 -16 -10  -6    3.80    1.40
 -17 -10  -6    0.10    1.00
 -18 -10  -6   -0.50    1.20
 -19 -10  -6   19.40    2.30
 -20 -10  -6   10.90    1.90
 -10  11   6    4.60    1.80
   9 -11  -6    6.00    1.70
  -9  11   6    4.40    1.60
   8 -11  -6   11.50    1.90
  -8  11   6    7.50    1.80
   7 -11  -6   58.09    3.50
  -7  11   6   52.69    3.30
   6 -11  -6  423.06   11.50
  -6  11   6  420.36   11.30
   5 -11  -6  152.58    5.50
  -5  11   6  160.48    5.50
   4 -11  -6   23.70    2.30
  -4  11   6   28.70    2.10
   3 -11  -6    2.20    1.20
  -3  11   6    4.90    1.20
   2 -11  -6   21.90    2.10
  -2  11   6   18.80    1.70
   1 -11  -6   10.60    1.60
  -1  11   6    7.40    1.10
   0 -11  -6   41.80    1.80
   0 -11  -6   39.90    2.40
   0  11   6   43.00    2.10
  -1 -11  -6    9.60    1.00
  -1 -11  -6   13.00    1.60
  -2 -11  -6  284.67    7.10
  -2 -11  -6  284.67    7.90
  -3 -11  -6  591.24   13.50
  -3 -11  -6  589.74   14.20
  -4 -11  -6    1.70    0.70
  -4 -11  -6    2.00    0.90
  -5 -11  -6  140.29    4.20
  -6 -11  -6  431.36   10.40
  -7 -11  -6   62.79    2.60
  -8 -11  -6   82.79    3.10
  -9 -11  -6    0.90    0.70
 -10 -11  -6   59.59    2.70
 -11 -11  -6   81.49    3.30
 -12 -11  -6    3.70    1.10
 -13 -11  -6    5.70    1.30
 -14 -11  -6   40.50    2.50
 -15 -11  -6  128.09    4.70
 -16 -11  -6    6.10    1.40
 -17 -11  -6    2.00    1.30
 -18 -11  -6    1.50    1.20
 -19 -11  -6   11.60    2.00
 -20 -11  -6    6.90    1.80
   9 -12  -6   11.70    2.10
  -9  12   6   11.40    2.10
   8 -12  -6    0.20    1.40
  -8  12   6    0.70    1.20
   7 -12  -6    0.80    1.20
  -7  12   6   -0.60    1.20
   6 -12  -6  134.19    5.40
  -6  12   6  142.69    5.40
   5 -12  -6  245.58    7.60
  -5  12   6  234.38    7.30
   4 -12  -6   39.80    2.70
  -4  12   6   35.80    2.60
   3 -12  -6    1.70    1.10
   2 -12  -6  232.78    7.10
   1 -12  -6    0.70    1.00
   0 -12  -6   26.00    2.30
   0 -12  -6   26.10    1.80
  -1 -12  -6    0.30    0.90
  -1 -12  -6    3.00    0.80
  -2 -12  -6  229.78    5.90
  -2 -12  -6  216.98    6.60
  -3 -12  -6  202.98    5.60
  -3 -12  -6  214.48    6.40
  -4 -12  -6  162.08    5.30
  -4 -12  -6  170.78    4.80
  -5 -12  -6    0.90    0.80
  -6 -12  -6  101.79    3.50
  -7 -12  -6  446.76   10.80
  -8 -12  -6   29.60    2.00
  -9 -12  -6   14.30    1.50
 -10 -12  -6  129.29    4.40
 -11 -12  -6    3.40    1.10
 -12 -12  -6    3.70    1.10
 -13 -12  -6    0.80    1.00
 -14 -12  -6    2.30    1.20
 -15 -12  -6   86.69    3.80
 -16 -12  -6   25.60    2.40
 -17 -12  -6    5.30    1.40
 -18 -12  -6    7.10    1.60
 -19 -12  -6   15.70    2.20
 -20 -12  -6    2.80    1.40
   8 -13  -6    0.60    1.50
   7 -13  -6    7.00    1.90
   6 -13  -6    0.20    1.20
   5 -13  -6  152.98    5.80
   4 -13  -6   96.39    4.30
   3 -13  -6   81.89    3.90
   2 -13  -6    3.80    1.30
   1 -13  -6  162.68    5.60
   0 -13  -6    0.80    1.00
  -1 -13  -6   17.80    2.00
  -1 -13  -6   14.50    1.40
  -2 -13  -6    1.30    1.10
  -2 -13  -6    0.70    0.70
  -3 -13  -6   31.60    1.90
  -3 -13  -6   29.80    2.20
  -4 -13  -6  176.68    5.10
  -4 -13  -6  179.68    5.70
  -5 -13  -6   19.50    2.00
  -5 -13  -6   19.20    1.70
  -6 -13  -6   28.70    1.90
  -7 -13  -6  205.88    5.90
  -8 -13  -6   97.29    3.60
  -9 -13  -6   12.70    1.50
 -10 -13  -6   14.70    1.70
 -11 -13  -6   -0.20    0.80
 -12 -13  -6    1.50    1.00
 -13 -13  -6   79.49    3.50
 -14 -13  -6   -0.30    1.00
 -15 -13  -6   42.10    2.90
 -16 -13  -6   76.79    3.80
 -17 -13  -6    7.70    1.70
 -18 -13  -6    4.70    1.60
 -19 -13  -6    4.80    1.60
 -20 -13  -6   12.60    2.10
   7 -14  -6   -0.10    1.40
   6 -14  -6    0.00    1.30
   5 -14  -6   22.50    2.70
   4 -14  -6    1.10    1.20
   3 -14  -6    9.80    1.80
   2 -14  -6  342.87    9.80
   1 -14  -6  306.37    8.90
   0 -14  -6   60.49    3.30
  -1 -14  -6   -0.50    1.00
  -1 -14  -6    1.30    0.90
  -2 -14  -6   73.79    3.50
  -2 -14  -6   70.59    2.90
  -3 -14  -6    0.70    1.00
  -3 -14  -6    2.80    0.90
  -4 -14  -6   14.10    1.80
  -4 -14  -6   13.50    1.50
  -5 -14  -6   11.10    1.60
  -5 -14  -6    9.40    1.30
  -6 -14  -6   23.10    2.10
  -6 -14  -6   22.90    1.90
  -7 -14  -6  310.07    8.30
  -8 -14  -6   43.30    2.40
  -9 -14  -6   96.29    3.70
 -10 -14  -6  103.69    4.00
 -11 -14  -6    2.30    1.10
 -12 -14  -6   88.89    3.70
 -13 -14  -6    1.10    1.10
 -14 -14  -6    0.10    1.00
 -15 -14  -6    0.50    1.10
 -16 -14  -6    0.30    1.20
 -17 -14  -6   30.90    2.70
 -18 -14  -6    6.60    1.80
 -19 -14  -6    3.10    1.50
   6 -15  -6   37.10    3.40
   5 -15  -6   -1.40    1.40
   4 -15  -6    1.40    1.30
   3 -15  -6    1.70    1.40
   2 -15  -6   42.10    3.30
   1 -15  -6  165.48    5.90
   0 -15  -6   36.90    2.70
  -1 -15  -6    8.40    1.60
  -2 -15  -6   56.69    2.70
  -2 -15  -6   53.19    3.20
  -3 -15  -6   35.40    2.50
  -3 -15  -6   33.40    2.00
  -4 -15  -6    2.50    1.10
  -4 -15  -6    1.50    0.80
  -5 -15  -6    1.20    0.90
  -5 -15  -6   -0.20    0.90
  -6 -15  -6    1.90    1.10
  -6 -15  -6    1.60    1.00
  -7 -15  -6   28.90    2.30
  -8 -15  -6    0.70    1.00
  -9 -15  -6   30.70    2.20
 -10 -15  -6   48.10    2.70
 -11 -15  -6  275.97    7.90
 -12 -15  -6   33.60    2.50
 -13 -15  -6   61.49    3.20
 -14 -15  -6    0.30    1.10
 -15 -15  -6   10.00    1.80
 -16 -15  -6    0.40    1.40
 -17 -15  -6    9.50    1.90
 -18 -15  -6    5.90    1.80
 -19 -15  -6   11.90    2.10
   4 -16  -6    0.70    1.40
   3 -16  -6    7.90    1.80
   2 -16  -6    1.50    1.30
   1 -16  -6   29.70    2.80
   0 -16  -6   23.90    2.50
  -1 -16  -6    1.60    1.40
  -2 -16  -6    4.80    1.40
  -3 -16  -6   31.50    2.00
  -3 -16  -6   28.10    2.50
  -4 -16  -6   70.09    3.60
  -4 -16  -6   64.29    3.00
  -5 -16  -6   47.20    2.90
  -5 -16  -6   46.80    2.60
  -6 -16  -6   10.20    1.70
  -6 -16  -6   12.10    1.60
  -7 -16  -6   31.60    2.70
  -7 -16  -6   27.40    2.30
  -8 -16  -6   23.40    2.20
  -9 -16  -6   24.60    2.20
 -10 -16  -6    7.80    1.50
 -11 -16  -6  140.09    5.10
 -12 -16  -6  164.88    5.70
 -13 -16  -6    0.20    1.10
 -14 -16  -6    0.50    1.10
 -15 -16  -6   14.00    2.00
 -16 -16  -6    0.40    1.30
 -17 -16  -6    0.00    1.40
 -18 -16  -6    3.10    1.70
   3 -17  -6    7.80    2.00
   2 -17  -6   20.30    2.40
   1 -17  -6   31.80    3.00
   0 -17  -6    0.20    1.30
  -1 -17  -6    1.70    1.50
  -2 -17  -6   54.99    3.30
  -3 -17  -6   91.69    4.20
  -3 -17  -6   81.89    3.50
  -4 -17  -6   59.19    3.00
  -4 -17  -6   56.79    3.30
  -5 -17  -6    1.00    1.00
  -5 -17  -6    0.80    1.20
  -6 -17  -6   68.49    3.60
  -6 -17  -6   73.99    3.30
  -7 -17  -6    4.90    1.40
  -7 -17  -6    4.00    1.30
  -8 -17  -6    1.00    1.20
  -8 -17  -6    1.80    1.20
  -9 -17  -6   30.00    2.60
 -10 -17  -6    0.60    1.10
 -11 -17  -6   16.10    2.00
 -12 -17  -6   23.60    2.40
 -13 -17  -6  102.89    4.50
 -14 -17  -6   17.40    2.20
 -15 -17  -6    4.60    1.60
 -16 -17  -6   25.10    2.60
 -17 -17  -6    1.10    1.60
   1 -18  -6   30.20    2.90
   0 -18  -6    7.50    1.70
  -1 -18  -6    0.00    1.40
  -2 -18  -6   13.70    2.20
  -3 -18  -6   64.29    3.60
  -4 -18  -6   12.70    2.00
  -4 -18  -6   11.50    1.70
  -5 -18  -6    0.90    1.10
  -5 -18  -6    3.60    1.20
  -6 -18  -6   62.19    3.50
  -6 -18  -6   62.59    3.20
  -7 -18  -6   28.10    2.70
  -7 -18  -6   29.30    2.50
  -8 -18  -6    0.90    1.20
  -8 -18  -6   -0.10    1.10
  -9 -18  -6    1.60    1.30
  -9 -18  -6    0.50    1.30
 -10 -18  -6   -0.50    1.20
 -11 -18  -6   -0.10    1.30
 -12 -18  -6    4.90    1.50
 -13 -18  -6    2.50    1.40
 -14 -18  -6    7.00    1.70
 -15 -18  -6   21.60    2.50
 -16 -18  -6   25.20    2.70
   0 -19  -6   23.20    2.70
  -1 -19  -6    0.40    1.40
  -2 -19  -6    4.20    1.60
  -3 -19  -6   16.80    2.30
  -4 -19  -6   10.80    2.00
  -4 -19  -6    9.60    1.70
  -5 -19  -6   14.30    2.10
  -5 -19  -6   16.90    2.00
  -6 -19  -6    1.20    1.20
  -6 -19  -6    0.70    1.20
  -7 -19  -6   18.30    2.00
  -7 -19  -6   26.10    2.60
  -8 -19  -6   19.20    2.20
  -8 -19  -6   18.30    2.10
  -9 -19  -6    2.80    1.40
  -9 -19  -6    0.70    1.10
 -10 -19  -6   -0.20    1.30
 -11 -19  -6  105.69    4.60
 -12 -19  -6    1.40    1.50
 -13 -19  -6   27.60    2.80
 -14 -19  -6   12.80    2.10
 -15 -19  -6   64.29    4.00
  -3 -20  -6    2.10    1.60
  -4 -20  -6    7.50    1.80
  -5 -20  -6    1.20    1.40
  -5 -20  -6    2.60    1.30
  -6 -20  -6    7.10    1.50
  -6 -20  -6    4.70    1.70
  -7 -20  -6    4.00    1.40
  -8 -20  -6    3.30    1.30
  -9 -20  -6    3.30    1.30
 -10 -20  -6   28.10    2.60
 -11 -20  -6   10.70    1.90
 -12 -20  -6   19.70    2.40
 -13 -20  -6   -0.40    1.40
 -14 -20  -6    3.20    1.70
  -7 -21  -6    2.80    1.30
  -8 -21  -6    9.00    1.90
  -9 -21  -6    8.90    1.70
 -10 -21  -6   17.60    2.30
  -6 -18   7   -0.80    1.50
  -5 -18   7   78.49    4.50
  -4 -18   7   24.60    2.90
  -3 -18   7    1.80    1.60
  -2 -18   7   50.89    3.80
  -1 -18   7   59.99    4.30
  -9 -17   7    4.40    1.80
  -8 -17   7    5.60    1.80
  -7 -17   7   -0.30    1.40
  -6 -17   7   13.00    2.20
  -5 -17   7   -0.60    1.50
  -4 -17   7   50.99    3.60
  -3 -17   7    8.80    2.00
  -2 -17   7   13.20    2.40
  -1 -17   7   12.00    2.30
   0 -17   7   64.29    4.10
   1 -17   7    9.90    2.20
   2 -17   7    9.20    2.30
 -11 -16   7    5.30    1.60
 -10 -16   7   28.90    3.00
  -9 -16   7   11.00    2.10
  -8 -16   7    2.20    1.40
  -7 -16   7   -0.70    1.20
  -6 -16   7    3.50    1.50
  -5 -16   7    3.40    1.70
  -4 -16   7    5.10    1.70
  -3 -16   7    7.10    1.90
  -2 -16   7   65.29    4.00
  -1 -16   7   61.19    3.90
   0 -16   7   -0.60    1.40
   1 -16   7   66.89    4.30
   2 -16   7    3.80    1.50
  -4  16  -7    1.20    2.10
  -5  16  -7   23.80    2.60
 -12 -15   7    2.00    1.50
 -11 -15   7   50.29    3.30
 -10 -15   7    2.20    1.40
  -9 -15   7  206.08    7.20
  -8 -15   7   57.29    3.50
  -7 -15   7    1.20    1.30
  -6 -15   7   36.80    3.10
  -5 -15   7   60.79    3.80
  -4 -15   7   10.90    1.90
  -3 -15   7   20.60    2.40
   2  15  -7    4.70    1.60
  -2 -15   7    6.30    1.80
   1  15  -7  252.07    7.70
  -1 -15   7  255.87    8.40
   0  15  -7   46.70    3.00
   0 -15   7   38.50    3.40
  -1  15  -7   -1.40    1.10
   1 -15   7    3.80    1.60
  -2  15  -7   24.10    2.40
   2 -15   7   21.20    2.70
  -3  15  -7   69.39    3.70
   3 -15   7   69.09    4.10
  -4  15  -7   68.89    3.70
  -5  15  -7    3.80    1.50
  -6  15  -7    0.70    1.40
 -13 -14   7    0.40    1.10
 -12 -14   7    0.00    1.10
 -11 -14   7    6.50    1.60
 -10 -14   7    5.60    1.60
  -9 -14   7    1.60    1.30
  -8 -14   7   21.70    2.50
  -7 -14   7    0.60    1.20
  -7 -14   7    1.10    1.30
  -6 -14   7    1.70    1.30
  -6 -14   7   -0.20    1.10
  -5 -14   7   26.20    2.60
   4  14  -7   41.30    2.80
  -4 -14   7   43.00    3.20
   3  14  -7    5.60    1.40
  -3 -14   7    9.30    1.80
   2  14  -7   41.10    2.80
  -2 -14   7   38.00    2.90
   1  14  -7    0.70    1.10
  -1 -14   7   -1.50    0.90
   0  14  -7   18.80    2.10
   0 -14   7   21.90    2.50
  -1  14  -7   61.99    3.40
   1 -14   7   60.99    3.70
  -2  14  -7   10.90    1.80
   2 -14   7   17.50    2.40
  -3  14  -7   56.19    3.20
   3 -14   7   65.59    3.90
  -4  14  -7  173.58    6.20
  -5  14  -7    3.80    1.30
  -6  14  -7    4.60    1.50
  -7  14  -7    0.80    1.40
  -8  14  -7    8.60    1.90
 -12 -13   7    4.60    1.40
 -11 -13   7   10.10    1.90
 -11 -13   7   10.10    1.80
 -10 -13   7    1.70    1.30
 -10 -13   7    0.40    1.10
  -9 -13   7   16.10    2.10
  -9 -13   7   11.40    1.90
  -8 -13   7   -1.10    1.10
  -8 -13   7    0.10    1.00
  -7 -13   7    4.90    1.50
  -7 -13   7    3.30    1.30
  -6 -13   7   34.80    2.70
  -6 -13   7   36.60    2.60
  -5 -13   7   20.00    2.20
  -5 -13   7   20.80    2.20
  -4 -13   7  138.39    5.30
   3  13  -7    2.10    1.10
  -3 -13   7    1.60    1.20
   2  13  -7   13.60    1.80
  -2 -13   7   11.60    1.90
   1  13  -7   30.30    2.30
  -1 -13   7   36.20    2.70
   0  13  -7    0.90    1.00
   0 -13   7   -0.30    1.20
  -1  13  -7   11.70    1.70
   1 -13   7   15.60    2.10
  -2  13  -7   16.80    2.00
   2 -13   7   18.90    2.30
  -3  13  -7   62.99    3.40
   3 -13   7   53.09    3.40
  -4  13  -7   21.90    2.30
  -5  13  -7    4.10    1.40
  -6  13  -7    6.60    1.50
  -7  13  -7   16.30    2.10
  -8  13  -7    4.80    1.60
  -9  13  -7   19.00    2.40
 -14 -12   7   25.60    2.90
 -13 -12   7   35.40    3.30
 -12 -12   7   -0.70    1.20
 -12 -12   7    0.80    1.10
 -11 -12   7    4.40    1.30
 -11 -12   7    3.30    1.50
 -10 -12   7  165.58    5.80
 -10 -12   7  169.38    6.20
  -9 -12   7  146.19    5.50
  -9 -12   7  144.29    5.30
  -8 -12   7    7.30    1.70
  -8 -12   7   11.80    1.70
  -7 -12   7    6.40    1.50
  -7 -12   7    4.10    1.30
  -6 -12   7    0.40    1.10
  -6 -12   7    3.20    1.20
  -5 -12   7  122.39    4.80
  -5 -12   7  123.99    4.80
  -4 -12   7    6.20    1.50
  -4 -12   7    6.80    1.50
   3  12  -7    3.00    1.20
  -3 -12   7    2.20    1.10
   2  12  -7  148.69    5.20
  -2 -12   7  148.69    5.40
   1  12  -7  396.66   10.50
  -1 -12   7  389.96   10.80
   0  12  -7   64.09    3.20
   0 -12   7   65.99    3.50
  -1  12  -7    1.30    1.10
   1 -12   7    0.10    1.00
  -2  12  -7   28.60    2.50
   2 -12   7   28.60    2.60
  -3  12  -7   77.89    3.70
   3 -12   7   79.69    4.00
  -4  12  -7   75.79    3.60
  -5  12  -7   47.00    2.90
  -6  12  -7   19.20    2.20
  -7  12  -7   72.69    3.80
  -8  12  -7   42.70    3.00
  -9  12  -7    4.70    1.60
 -10  12  -7    1.50    1.60
 -14 -11   7   44.90    3.50
 -13 -11   7   12.80    2.20
 -12 -11   7    6.60    1.60
 -11 -11   7   12.70    2.00
 -11 -11   7   10.00    1.60
 -10 -11   7   19.10    2.10
 -10 -11   7   17.20    2.30
  -9 -11   7  117.59    4.90
  -9 -11   7  113.39    4.50
  -8 -11   7   15.10    1.80
  -8 -11   7   12.00    1.80
  -7 -11   7    5.20    1.40
  -7 -11   7    4.00    1.30
  -6 -11   7    7.60    1.40
  -6 -11   7    5.90    1.30
  -5 -11   7    5.70    1.30
  -5 -11   7    4.80    1.30
  -4 -11   7    2.80    1.10
  -4 -11   7    3.30    1.20
  -3 -11   7    6.10    1.30
  -3 -11   7    9.20    1.50
   2  11  -7    2.70    1.10
  -2 -11   7    3.50    1.20
   1  11  -7   64.59    3.10
  -1 -11   7   61.39    3.20
   0  11  -7  221.98    6.80
   0 -11   7  224.28    7.00
  -1  11  -7   20.10    2.00
   1 -11   7   15.80    2.00
  -2  11  -7    7.80    1.50
   2 -11   7    6.50    1.50
  -3  11  -7   19.90    2.10
   3 -11   7   24.30    2.40
  -4  11  -7    0.50    1.10
  -5  11  -7   95.29    4.00
  -6  11  -7   10.90    1.70
  -7  11  -7    7.00    1.50
  -8  11  -7  235.58    7.50
  -9  11  -7   63.19    3.60
 -10  11  -7    8.10    1.80
 -11  11  -7   49.90    3.90
 -15 -10   7    5.80    1.80
 -14 -10   7   -0.70    1.40
 -13 -10   7    1.60    1.50
 -12 -10   7   15.40    2.30
 -11 -10   7    6.50    1.30
 -11 -10   7   10.90    1.90
 -10 -10   7   90.79    3.80
 -10 -10   7   89.19    4.30
  -9 -10   7   12.60    1.90
  -9 -10   7   14.50    1.80
  -8 -10   7   29.80    2.40
  -8 -10   7   26.40    2.40
  -7 -10   7    2.70    1.10
  -7 -10   7    4.90    1.20
  -6 -10   7    0.60    1.00
  -6 -10   7    1.50    1.00
  -5 -10   7    2.10    1.00
  -5 -10   7    4.00    1.10
  -4 -10   7    4.70    1.20
  -4 -10   7    5.20    1.20
  -3 -10   7   67.09    3.20
  -3 -10   7   73.89    3.30
  -2 -10   7  118.79    4.40
  -2 -10   7  120.59    4.50
   1  10  -7  169.08    5.50
  -1 -10   7  158.68    5.40
   0  10  -7  109.99    4.20
   0 -10   7  101.49    4.10
  -1  10  -7   34.00    2.30
   1 -10   7   34.70    2.40
  -2  10  -7   21.80    2.00
   2 -10   7   20.70    2.10
  -3  10  -7    4.20    1.20
   3 -10   7    3.60    1.20
  -4  10  -7    5.30    1.20
  -5  10  -7    1.50    1.10
  -6  10  -7   25.30    2.30
  -7  10  -7    9.00    1.60
  -8  10  -7   25.70    2.50
  -9  10  -7    7.50    1.70
 -10  10  -7    1.00    1.20
 -11  10  -7    2.20    1.50
 -12  10  -7   50.49    3.70
 -15  -9   7   10.20    2.20
 -14  -9   7   21.90    2.70
 -13  -9   7    1.90    1.40
 -12  -9   7    2.20    1.40
 -11  -9   7   19.60    2.40
 -10  -9   7   28.30    2.60
 -10  -9   7   37.00    2.40
  -9  -9   7   53.49    3.10
  -9  -9   7   57.39    2.80
  -8  -9   7   34.00    2.20
  -8  -9   7   34.80    2.60
  -7  -9   7    7.70    1.30
  -7  -9   7    9.00    1.60
  -6  -9   7  164.38    5.20
  -6  -9   7  158.98    5.50
  -5  -9   7  449.86   11.50
  -5  -9   7  461.35   11.70
  -4  -9   7   64.99    3.00
  -4  -9   7   63.79    3.10
  -3  -9   7   57.79    2.90
  -3  -9   7   62.79    3.00
  -2  -9   7    7.00    1.20
  -2  -9   7    5.40    1.10
  -1  -9   7  217.48    6.50
   0   9  -7   33.40    2.20
   0  -9   7   33.10    2.20
  -1   9  -7    1.70    0.90
   1  -9   7    4.50    1.10
  -2   9  -7   92.99    3.70
   2  -9   7   97.49    3.90
  -3   9  -7  361.86    9.50
   3  -9   7  353.46    9.70
  -4   9  -7   41.60    2.50
  -5   9  -7   27.10    2.30
  -6   9  -7    2.90    1.20
  -7   9  -7   21.60    2.20
  -8   9  -7   80.49    3.80
  -9   9  -7   10.80    1.70
 -10   9  -7    4.40    1.50
 -11   9  -7   71.19    4.00
 -12   9  -7    0.60    1.30
 -13   9  -7   19.30    2.50
 -15  -8   7    0.00    1.50
 -14  -8   7    1.40    1.40
 -13  -8   7    1.60    1.40
 -12  -8   7   15.80    2.20
 -11  -8   7   40.70    3.10
 -10  -8   7   29.30    2.00
 -10  -8   7   26.60    2.60
  -9  -8   7    0.60    0.80
  -9  -8   7   -0.30    1.10
  -8  -8   7    6.50    1.40
  -8  -8   7    4.10    1.00
  -7  -8   7   25.40    1.80
  -7  -8   7   23.90    2.20
  -6  -8   7   22.60    2.10
  -6  -8   7   20.90    1.80
  -5  -8   7  428.36   10.70
  -5  -8   7  422.76   11.00
  -4  -8   7  416.86   10.60
  -4  -8   7  430.36   10.90
  -3  -8   7    1.80    0.90
  -3  -8   7    1.20    0.90
  -2  -8   7  112.79    4.00
  -2  -8   7  117.49    4.20
  -1  -8   7  315.97    8.60
  -1  -8   7  333.17    8.70
   0   8  -7   49.00    2.60
   0  -8   7   40.20    2.30
  -1   8  -7    6.30    1.20
   1  -8   7    5.60    1.20
  -2   8  -7   43.00    2.50
   2  -8   7   44.70    2.50
  -3   8  -7  234.28    6.80
   3  -8   7  240.68    7.00
  -4   8  -7  298.07    8.20
  -5   8  -7    8.30    1.30
  -6   8  -7    5.40    1.30
  -7   8  -7  245.18    7.30
  -8   8  -7  470.05   12.20
  -9   8  -7   12.10    1.80
 -10   8  -7    4.90    1.40
 -11   8  -7    0.70    1.20
 -12   8  -7  123.89    5.30
 -13   8  -7    2.00    1.50
 -14   8  -7   20.30    2.70
 -15  -7   7    8.60    2.00
 -14  -7   7   31.20    3.20
 -13  -7   7   43.30    3.30
 -12  -7   7   46.60    3.40
 -11  -7   7   -0.30    1.20
 -10  -7   7    8.70    1.60
  -9  -7   7   22.20    1.70
  -9  -7   7   28.30    2.50
  -8  -7   7    6.70    1.10
  -8  -7   7    3.50    1.20
  -7  -7   7    9.00    1.50
  -7  -7   7   10.30    1.30
  -6  -7   7  109.79    4.20
  -6  -7   7  120.19    4.00
  -5  -7   7   19.90    2.00
  -5  -7   7   16.30    1.60
  -4  -7   7  581.84   14.10
  -4  -7   7  581.54   13.70
  -3  -7   7    5.90    1.10
  -3  -7   7    7.00    1.10
  -2  -7   7  174.18    5.30
  -2  -7   7  167.78    5.10
  -1  -7   7    1.70    0.80
  -1  -7   7    0.70    0.70
   0  -7   7   20.00    1.80
   0  -7   7   23.60    1.80
  -1   7  -7    4.40    1.00
   1  -7   7    4.60    1.00
  -2   7  -7  203.48    6.00
   2  -7   7  199.48    6.00
  -3   7  -7  177.18    5.40
  -4   7  -7   52.09    2.60
  -5   7  -7  121.79    4.30
  -6   7  -7   12.10    1.50
  -7   7  -7    8.80    1.40
  -8   7  -7  324.37    8.90
  -9   7  -7   19.00    2.00
 -10   7  -7    1.50    1.20
 -11   7  -7   20.40    2.20
 -12   7  -7    5.90    1.60
 -13   7  -7   -1.10    1.30
 -14   7  -7    7.90    2.00
 -15   7  -7    3.60    1.60
 -15  -6   7   11.70    2.30
 -14  -6   7    1.80    1.50
 -13  -6   7   52.49    3.70
 -12  -6   7   13.80    2.10
 -11  -6   7    5.00    1.50
 -10  -6   7  150.68    5.60
  -9  -6   7   40.90    2.70
  -9  -6   7   39.80    2.10
  -8  -6   7    0.10    0.90
  -8  -6   7    0.00    0.60
  -7  -6   7    3.60    1.10
  -7  -6   7    4.40    0.90
  -6  -6   7   12.50    1.30
  -6  -6   7   12.40    1.60
  -5  -6   7  110.39    4.10
  -5  -6   7  105.49    3.60
  -4  -6   7   17.90    1.40
  -4  -6   7   18.70    1.70
  -3  -6   7    1.10    0.80
  -3  -6   7    0.20    0.70
  -2  -6   7  339.37    8.80
  -2  -6   7  338.17    8.60
  -1  -6   7  540.55   12.90
  -1  -6   7  546.35   13.10
   0  -6   7  106.19    3.70
   0  -6   7  104.79    3.70
  -1   6  -7   43.20    2.20
   1  -6   7   42.60    2.30
  -2   6  -7   67.29    2.90
   2  -6   7   60.09    2.70
  -3   6  -7  248.48    6.90
  -4   6  -7  157.48    4.90
  -5   6  -7   66.89    2.90
  -6   6  -7    9.00    1.30
  -7   6  -7   26.40    2.00
  -8   6  -7  159.28    5.30
  -9   6  -7   93.09    3.90
 -10   6  -7   10.90    1.60
 -11   6  -7    1.10    1.20
 -12   6  -7  146.09    5.50
 -13   6  -7   43.00    3.00
 -14   6  -7    3.60    1.50
 -15   6  -7    2.90    1.60
 -16   6  -7    0.00    1.40
 -15  -5   7    8.00    2.00
 -14  -5   7   10.00    2.10
 -13  -5   7   24.40    2.80
 -12  -5   7   12.60    2.20
 -11  -5   7   15.10    2.10
 -10  -5   7   11.00    1.90
  -9  -5   7    1.90    1.10
  -8  -5   7  143.29    5.10
  -8  -5   7  129.79    4.00
  -7  -5   7   11.80    1.60
  -7  -5   7   14.50    1.30
  -6  -5   7   79.59    2.80
  -6  -5   7   70.89    3.20
  -5  -5   7  134.89    4.10
  -5  -5   7  137.79    4.70
  -4  -5   7    5.90    0.90
  -4  -5   7    4.20    1.00
  -3  -5   7    3.60    0.80
  -3  -5   7    3.20    1.00
  -2  -5   7   27.60    1.80
  -2  -5   7   29.70    1.70
  -1  -5   7  503.35   12.20
  -1  -5   7  509.55   12.00
   0  -5   7  354.76    8.90
   0  -5   7  344.17    8.70
   1  -5   7    8.30    1.10
   1  -5   7   12.20    1.40
  -2   5  -7   13.70    1.40
  -3   5  -7  466.85   11.40
  -4   5  -7   28.80    1.80
  -5   5  -7  166.58    5.10
  -6   5  -7    6.50    1.20
  -7   5  -7   35.80    2.20
  -8   5  -7   44.50    2.50
  -9   5  -7    8.70    1.40
 -10   5  -7   18.70    1.90
 -11   5  -7  402.46   10.80
 -12   5  -7  226.68    7.20
 -13   5  -7    0.80    1.10
 -14   5  -7   10.50    2.00
 -15   5  -7    3.90    1.50
 -16   5  -7    9.60    2.10
 -15  -4   7    2.90    1.70
 -14  -4   7    7.70    2.00
 -13  -4   7   -0.20    1.30
 -12  -4   7   30.20    2.90
 -11  -4   7    6.90    1.60
 -10  -4   7    5.50    1.40
  -9  -4   7    4.00    1.20
  -8  -4   7  108.99    4.30
  -7  -4   7   10.80    1.10
  -7  -4   7    8.80    1.40
  -6  -4   7   49.50    2.60
  -6  -4   7   56.29    2.20
  -5  -4   7   34.20    1.60
  -5  -4   7   27.00    1.90
  -4  -4   7   30.90    1.60
  -4  -4   7   33.50    2.10
  -3  -4   7   18.40    1.60
  -3  -4   7   18.40    1.20
  -2  -4   7   26.10    1.70
  -2  -4   7   23.70    1.50
  -1  -4   7   74.39    2.90
  -1  -4   7   76.49    2.70
   0  -4   7  400.96    9.70
   0  -4   7  398.56    9.90
   1  -4   7   57.29    2.40
   1  -4   7   57.59    2.50
  -2   4  -7  265.57    7.00
  -3   4  -7  281.17    7.40
  -4   4  -7 1201.28   26.40
  -5   4  -7   58.79    2.60
  -6   4  -7   47.40    2.30
  -7   4  -7  311.07    8.20
  -8   4  -7    4.20    1.00
  -9   4  -7   30.90    2.10
 -10   4  -7   11.60    1.60
 -11   4  -7  104.09    4.10
 -12   4  -7  866.61   20.50
 -13   4  -7  176.88    6.10
 -14   4  -7   22.60    2.40
 -15   4  -7   -1.00    1.10
 -16   4  -7    0.20    1.30
 -17   4  -7    4.10    1.60
 -15  -3   7    1.30    1.50
 -14  -3   7   22.60    2.80
 -13  -3   7   30.20    3.10
 -12  -3   7    0.50    1.30
 -11  -3   7    6.10    1.60
 -10  -3   7   -0.40    1.00
  -9  -3   7    0.10    1.00
  -8  -3   7    2.70    1.10
  -7  -3   7   97.39    3.00
  -7  -3   7  111.29    4.10
  -6  -3   7  180.08    4.80
  -6  -3   7  184.68    5.70
  -5  -3   7  209.78    5.40
  -5  -3   7  209.48    6.20
  -4  -3   7   23.00    1.90
  -4  -3   7   18.70    1.20
  -3  -3   7   13.40    1.50
  -3  -3   7   14.30    1.10
   2   3  -7    7.50    0.50
  -2  -3   7    7.10    0.90
  -2  -3   7    7.50    1.00
   1   3  -7   10.20    0.50
  -1  -3   7    9.70    1.10
  -1  -3   7   11.50    1.20
   0   3  -7    0.30    0.20
   0  -3   7    1.00    0.60
   0  -3   7   -0.30    0.50
   1  -3   7   -0.10    0.50
   2  -3   7   83.29    3.00
  -3   3  -7  396.36    9.70
  -4   3  -7   13.10    1.30
  -5   3  -7  161.48    4.80
  -6   3  -7   29.00    1.80
  -7   3  -7   16.20    1.50
  -8   3  -7  372.06    9.50
  -9   3  -7   17.40    1.70
 -10   3  -7   51.19    2.60
 -11   3  -7   17.00    1.80
 -12   3  -7    6.60    1.40
 -13   3  -7  224.08    7.00
 -14   3  -7   37.20    2.80
 -15   3  -7   55.89    3.50
 -16   3  -7  104.59    4.80
 -17   3  -7   16.20    2.40
 -15  -2   7   11.30    2.30
 -14  -2   7   24.80    2.90
 -13  -2   7  112.29    5.20
 -12  -2   7    8.30    1.80
 -11  -2   7    5.50    1.50
 -10  -2   7    9.10    1.70
  -9  -2   7   18.70    2.10
  -8  -2   7   97.19    4.10
  -7  -2   7   28.20    2.20
  -6  -2   7  139.49    3.70
  -6  -2   7  138.69    4.80
  -5  -2   7   38.80    2.20
  -5  -2   7   38.00    1.60
   4   2  -7    9.50    0.80
  -4  -2   7    8.40    0.80
  -4  -2   7    9.70    1.30
   3   2  -7   14.60    0.80
  -3  -2   7   19.80    1.50
  -3  -2   7   16.10    1.10
   2   2  -7    0.50    0.30
  -2  -2   7    0.20    0.60
  -2  -2   7    0.50    0.50
   1   2  -7 1231.38   25.60
  -1  -2   7 1200.58   26.70
  -1  -2   7 1222.18   26.20
   0   2  -7  301.37    6.60
   0  -2   7  298.17    7.60
   1  -2   7    1.80    0.70
   2  -2   7    2.50    0.70
  -3   2  -7  402.26    9.70
  -4   2  -7  256.57    6.70
  -5   2  -7   12.80    1.30
  -6   2  -7    0.40    0.60
  -7   2  -7  734.33   16.80
  -8   2  -7  144.09    4.50
  -9   2  -7  270.17    7.30
 -10   2  -7   -0.80    0.70
 -11   2  -7    3.70    1.10
 -12   2  -7    2.90    1.10
 -13   2  -7    2.10    1.10
 -14   2  -7    4.60    1.30
 -15   2  -7   86.69    4.10
 -16   2  -7   64.79    3.70
 -17   2  -7    7.10    1.90
 -18   2  -7    4.60    1.80
 -15  -1   7   16.80    2.80
 -14  -1   7    9.20    2.10
 -13  -1   7   20.40    2.60
 -12  -1   7   73.99    4.10
 -11  -1   7   18.90    2.40
 -10  -1   7  182.38    6.40
  -9  -1   7   96.39    4.20
  -8  -1   7   11.60    1.70
  -7  -1   7    2.20    1.00
  -6  -1   7   36.10    2.30
   5   1  -7  283.27    6.80
  -5  -1   7  279.57    6.50
  -5  -1   7  275.67    7.60
   4   1  -7  161.28    4.20
  -4  -1   7  160.08    4.10
  -4  -1   7  161.88    5.00
   3   1  -7    0.00    0.30
  -3  -1   7    0.30    0.70
  -3  -1   7    0.80    0.40
   2   1  -7   25.30    1.10
  -2  -1   7   25.10    1.60
   1   1  -7   65.29    1.90
  -1  -1   7   65.89    2.60
   0   1  -7  280.37    6.30
   0  -1   7  275.77    7.10
   1  -1   7  104.39    3.30
   2  -1   7   43.40    1.90
  -4   1  -7    5.80    0.90
  -5   1  -7   35.40    1.80
  -6   1  -7   40.20    1.90
  -7   1  -7  449.56   10.70
  -8   1  -7  193.18    5.50
  -9   1  -7   32.20    1.90
 -10   1  -7   90.29    3.40
 -11   1  -7   52.49    2.60
 -12   1  -7   88.29    3.70
 -13   1  -7    0.30    1.10
 -14   1  -7  153.18    5.40
 -15   1  -7   57.99    3.20
 -16   1  -7  190.48    6.60
 -17   1  -7   97.09    4.70
 -18   1  -7    1.40    1.50
 -15   0   7    3.40    1.80
 -14   0   7   21.60    2.90
 -13   0   7    2.80    1.60
 -12   0   7   37.30    3.30
 -11   0   7   10.20    1.90
 -10   0   7    3.20    1.30
  -9   0   7   21.40    2.20
  -8   0   7   45.50    2.70
  -7   0   7   -0.10    0.80
   6   0  -7    5.70    0.90
  -6   0   7    4.00    1.10
   5   0  -7   19.90    1.30
  -5   0   7   20.00    1.80
   4   0  -7    0.30    0.40
  -4   0   7    0.10    0.60
   3   0  -7    1.90    0.50
  -3   0   7    2.10    0.80
   2   0  -7   31.50    1.30
  -2   0   7   35.20    1.80
   1   0  -7  102.99    2.80
  -1   0   7   96.69    3.30
   0   0  -7   22.90    1.10
   0   0   7   22.60    1.40
   1   0   7   23.90    1.40
   2   0   7   24.10    1.40
   3   0   7  512.35   11.80
  -4   0  -7  173.38    4.70
  -5   0  -7   91.59    3.00
  -6   0  -7   27.10    1.50
  -7   0  -7   52.09    2.20
  -8   0  -7  498.75   11.70
  -9   0  -7   90.89    3.20
 -10   0  -7   11.10    1.30
 -11   0  -7   31.10    2.00
 -12   0  -7  187.78    5.70
 -13   0  -7    0.30    0.90
 -14   0  -7   16.90    2.00
 -15   0  -7    1.80    1.10
 -15   0  -7    1.10    1.10
 -16   0  -7   37.00    2.50
 -16   0  -7   36.90    3.00
 -17   0  -7   72.29    3.80
 -18   0  -7   23.00    2.60
 -19   0  -7   -1.60    1.20
 -14   1   7   21.60    3.00
 -13   1   7   11.30    2.10
 -12   1   7    1.90    1.50
 -11   1   7   -0.30    1.10
 -10   1   7   23.30    2.40
  -9   1   7   62.69    3.50
  -8   1   7   21.90    2.20
   7  -1  -7   48.40    2.20
  -7   1   7   47.00    2.70
   6  -1  -7  811.02   18.00
  -6   1   7  787.02   18.70
   5  -1  -7  257.47    6.50
  -5   1   7  246.08    7.00
   4  -1  -7   26.30    1.40
  -4   1   7   26.20    1.80
   3  -1  -7    0.50    0.50
  -3   1   7    0.70    0.60
   2  -1  -7   52.09    1.90
  -2   1   7   51.39    2.30
   1  -1  -7   41.20    1.60
  -1   1   7   38.30    1.90
   0  -1  -7  143.89    3.80
   0   1   7  146.39    4.20
   1   1   7    0.50    0.50
   2   1   7   56.19    2.10
   3   1   7 1096.59   23.70
  -4  -1  -7   96.89    3.00
  -5  -1  -7   74.59    2.50
  -6  -1  -7   12.50    1.10
  -7  -1  -7    3.60    0.70
  -8  -1  -7    0.40    0.60
  -9  -1  -7  123.99    3.90
 -10  -1  -7   21.40    1.50
 -11  -1  -7  307.67    8.00
 -12  -1  -7  344.67    9.00
 -13  -1  -7  320.97    8.60
 -14  -1  -7   40.70    2.60
 -14  -1  -7   39.00    2.40
 -15  -1  -7    5.80    1.40
 -15  -1  -7    7.20    1.50
 -16  -1  -7   49.70    2.90
 -16  -1  -7   40.60    2.90
 -17  -1  -7   52.29    3.30
 -18  -1  -7   18.10    2.30
 -19  -1  -7    0.60    1.50
 -14   2   7   59.99    4.20
 -13   2   7   47.00    3.60
 -12   2   7    2.60    1.40
 -11   2   7    1.10    1.30
 -10   2   7    6.70    1.60
  -9   2   7   41.00    2.80
  -8   2   7   62.39    3.30
   7  -2  -7    7.90    1.10
  -7   2   7    6.90    1.40
   6  -2  -7   10.10    1.20
  -6   2   7    9.60    1.40
   5  -2  -7  410.56   10.00
  -5   2   7  420.26   10.60
   4  -2  -7  186.18    5.00
  -4   2   7  183.68    5.50
   3  -2  -7    8.90    1.00
  -3   2   7    7.70    1.10
   2  -2  -7   13.10    1.10
  -2   2   7   15.30    1.40
   1  -2  -7   66.69    2.30
  -1   2   7   65.29    2.50
   0  -2  -7  383.76    8.90
   0   2   7  383.66    9.10
   1   2   7    0.20    0.50
   2   2   7    2.60    0.60
   3   2   7  987.60   21.40
  -4  -2  -7 1228.18   26.30
  -5  -2  -7   21.20    1.20
  -6  -2  -7   25.00    1.30
  -7  -2  -7    0.90    0.60
  -8  -2  -7   31.40    1.60
  -9  -2  -7  191.18    5.20
 -10  -2  -7   87.89    3.10
 -11  -2  -7  291.87    7.60
 -12  -2  -7  439.36   10.80
 -13  -2  -7  140.99    4.60
 -13  -2  -7  132.69    4.70
 -14  -2  -7    4.10    1.10
 -14  -2  -7    4.30    1.10
 -15  -2  -7    0.20    0.90
 -15  -2  -7    0.80    1.00
 -16  -2  -7   33.30    2.70
 -16  -2  -7   34.40    2.50
 -17  -2  -7   31.40    2.70
 -17  -2  -7   33.30    2.50
 -18  -2  -7   32.80    2.80
 -19  -2  -7    9.90    1.80
 -14   3   7   48.40    4.20
 -13   3   7    0.10    1.30
 -12   3   7   24.10    2.90
 -11   3   7    1.70    1.30
 -10   3   7   16.30    2.30
  -9   3   7   11.30    1.90
   8  -3  -7  204.38    6.20
  -8   3   7  215.88    6.80
   7  -3  -7   10.90    1.40
  -7   3   7   14.70    1.80
   6  -3  -7   96.19    3.50
  -6   3   7   97.49    3.90
   5  -3  -7    3.10    0.80
  -5   3   7    3.10    1.00
   4  -3  -7  176.68    5.00
  -4   3   7  182.38    5.50
   3  -3  -7  375.06    9.00
  -3   3   7  367.46    9.30
   2  -3  -7  153.88    3.50
   2  -3  -7  156.68    4.40
  -2   3   7  157.48    4.60
   1  -3  -7    4.10    0.70
  -1   3   7    2.80    0.70
   0  -3  -7   97.89    3.10
   0   3   7  103.39    3.20
  -1  -3  -7   -0.20    0.40
   1   3   7    0.10    0.40
   2   3   7  510.75   11.50
   3   3   7    6.60    0.70
   4   3   7    2.20    0.50
  -5  -3  -7  179.68    4.60
  -6  -3  -7  241.08    5.90
  -7  -3  -7    6.30    0.80
  -8  -3  -7  310.07    7.50
  -9  -3  -7  115.39    3.40
 -10  -3  -7   16.20    1.20
 -10  -3  -7   17.30    1.60
 -11  -3  -7   31.80    1.70
 -11  -3  -7   29.60    2.00
 -12  -3  -7   49.99    2.60
 -12  -3  -7   48.60    2.30
 -13  -3  -7  394.06   10.10
 -13  -3  -7  379.76    9.70
 -14  -3  -7    1.60    1.00
 -14  -3  -7    2.00    1.00
 -15  -3  -7    0.50    0.90
 -15  -3  -7    0.30    0.90
 -16  -3  -7  223.98    6.80
 -16  -3  -7  207.58    6.60
 -17  -3  -7   32.60    2.50
 -17  -3  -7   29.00    2.50
 -18  -3  -7   31.80    2.80
 -19  -3  -7   26.50    2.70
 -20  -3  -7    0.10    1.30
 -13   4   7   36.40    3.50
 -12   4   7    0.20    1.40
 -11   4   7   17.20    2.30
 -10   4   7   14.50    2.20
  -9   4   7   94.69    4.30
   8  -4  -7  100.79    4.00
  -8   4   7  108.69    4.40
   7  -4  -7    8.30    1.30
  -7   4   7    9.30    1.50
   6  -4  -7    3.30    0.90
  -6   4   7    6.70    1.30
   5  -4  -7  119.89    3.90
  -5   4   7  114.89    4.20
   4  -4  -7    8.10    1.10
  -4   4   7    8.60    1.30
   3  -4  -7  162.08    4.70
  -3   4   7  159.38    4.80
   2  -4  -7  293.77    7.70
   2  -4  -7  314.07    6.60
  -2   4   7  309.77    7.80
   1  -4  -7 1284.67   26.30
   1  -4  -7 1257.87   27.30
  -1   4   7 1227.08   27.20
   0  -4  -7    1.60    0.60
   0  -4  -7    1.60    0.30
   0   4   7    1.00    0.50
  -1  -4  -7    0.20    0.30
  -1  -4  -7    0.20    0.50
   1   4   7    0.50    0.50
  -2  -4  -7   12.80    0.80
   2   4   7   12.90    0.90
  -3  -4  -7   31.90    1.40
   3   4   7   30.90    1.40
  -4  -4  -7   32.70    1.50
   4   4   7   30.40    1.30
  -5  -4  -7    0.20    0.40
  -5  -4  -7    0.30    0.40
  -6  -4  -7    2.10    0.50
  -6  -4  -7    0.80    0.50
  -7  -4  -7   24.20    1.50
  -7  -4  -7   24.70    1.20
  -8  -4  -7   12.40    1.30
  -8  -4  -7   12.60    1.00
  -9  -4  -7  232.88    5.90
  -9  -4  -7  234.98    6.40
 -10  -4  -7   45.00    2.30
 -10  -4  -7   44.70    2.00
 -11  -4  -7   95.29    3.20
 -11  -4  -7   91.59    3.50
 -12  -4  -7   96.69    3.40
 -12  -4  -7   98.19    3.70
 -13  -4  -7   16.90    1.60
 -13  -4  -7   19.00    1.80
 -14  -4  -7    1.20    1.00
 -14  -4  -7    1.60    0.90
 -15  -4  -7    7.60    1.30
 -15  -4  -7    5.30    1.30
 -16  -4  -7   16.80    1.90
 -16  -4  -7   16.90    1.90
 -17  -4  -7   50.09    3.00
 -17  -4  -7   55.19    3.10
 -18  -4  -7    5.90    1.40
 -18  -4  -7    5.00    1.40
 -19  -4  -7   42.90    3.10
 -20  -4  -7    0.00    1.40
 -13   5   7   27.70    3.20
 -12   5   7   23.10    2.80
 -11   5   7   37.90    3.30
 -10   5   7  132.99    5.50
   9  -5  -7  315.07    8.90
  -9   5   7  316.77    9.40
   8  -5  -7    4.70    1.30
  -8   5   7    6.00    1.40
   7  -5  -7    0.90    0.90
  -7   5   7    1.50    1.00
   6  -5  -7    7.80    1.30
  -6   5   7    6.10    1.30
   5  -5  -7   86.39    3.30
  -5   5   7   80.19    3.50
   4  -5  -7   76.49    3.00
  -4   5   7   71.99    3.10
   3  -5  -7    2.00    0.80
  -3   5   7    1.50    0.80
   2  -5  -7  167.38    4.90
   2  -5  -7  174.28    3.80
  -2   5   7  171.48    5.00
   1  -5  -7 1675.43   34.40
   1  -5  -7 1627.84   35.50
  -1   5   7 1640.64   35.30
   0  -5  -7  501.15   10.80
   0  -5  -7  505.25   11.70
   0   5   7  487.75   11.40
  -1  -5  -7   31.90    1.70
  -1  -5  -7   30.00    1.20
   1   5   7   31.00    1.50
  -2  -5  -7   86.59    2.50
   2   5   7   85.49    2.60
  -3  -5  -7    5.70    0.70
   3   5   7    6.90    0.70
  -4  -5  -7    3.00    0.60
   4   5   7    3.40    0.50
  -5  -5  -7   -0.10    0.30
  -5  -5  -7    0.30    0.50
  -6  -5  -7   93.99    2.60
  -6  -5  -7   95.29    3.10
  -7  -5  -7  693.53   15.80
  -7  -5  -7  707.63   15.20
  -8  -5  -7  202.28    5.60
  -8  -5  -7  206.98    5.00
  -9  -5  -7   98.49    3.50
  -9  -5  -7   99.99    2.90
 -10  -5  -7   44.30    2.30
 -10  -5  -7   45.40    1.90
 -11  -5  -7  375.46    9.50
 -11  -5  -7  361.46    8.80
 -12  -5  -7  231.28    6.20
 -12  -5  -7  233.58    6.70
 -13  -5  -7    1.50    0.90
 -13  -5  -7    1.00    0.70
 -14  -5  -7    1.80    0.90
 -14  -5  -7    1.00    0.80
 -15  -5  -7   61.69    2.90
 -15  -5  -7   63.29    3.10
 -16  -5  -7   26.70    2.30
 -16  -5  -7   24.90    2.20
 -17  -5  -7    1.10    1.10
 -17  -5  -7    2.50    1.20
 -18  -5  -7   23.30    2.30
 -18  -5  -7   23.50    2.30
 -19  -5  -7    4.90    1.40
 -19  -5  -7    3.60    1.50
 -20  -5  -7   24.40    2.60
 -12   6   7    1.20    1.50
 -11   6   7    6.00    1.80
 -10   6   7   50.59    3.60
   9  -6  -7   84.79    3.90
  -9   6   7   85.79    4.20
   8  -6  -7   97.69    4.10
  -8   6   7  108.09    4.50
   7  -6  -7   46.50    2.60
  -7   6   7   42.60    2.70
   6  -6  -7   20.10    1.90
  -6   6   7   24.20    2.20
   5  -6  -7   72.69    3.20
  -5   6   7   78.59    3.40
   4  -6  -7   82.69    3.30
  -4   6   7   77.99    3.30
   3  -6  -7   12.50    1.40
  -3   6   7   15.00    1.50
   2  -6  -7    1.10    0.70
  -2   6   7    1.50    0.70
   1  -6  -7  274.47    6.10
   1  -6  -7  272.07    7.20
  -1   6   7  269.17    6.90
   0  -6  -7  234.98    6.30
   0  -6  -7  234.38    5.40
   0   6   7  229.38    5.90
  -1  -6  -7   18.40    0.90
  -1  -6  -7   17.50    1.50
   1   6   7   17.50    1.10
  -2  -6  -7   19.50    1.40
  -2  -6  -7   21.00    1.10
   2   6   7   20.40    1.10
  -3  -6  -7   28.50    1.30
   3   6   7   27.70    1.20
  -4  -6  -7  146.79    4.00
   4   6   7  148.79    3.60
  -5  -6  -7   14.40    1.10
  -5  -6  -7   14.00    0.80
  -6  -6  -7  180.58    4.20
  -6  -6  -7  178.98    4.90
  -7  -6  -7    1.80    0.40
  -7  -6  -7    1.80    0.60
  -8  -6  -7  104.49    2.90
  -8  -6  -7  110.49    3.50
  -9  -6  -7  203.68    5.80
  -9  -6  -7  210.48    5.10
 -10  -6  -7   74.09    2.40
 -10  -6  -7   73.69    2.90
 -11  -6  -7    5.40    0.80
 -11  -6  -7    5.40    1.10
 -12  -6  -7  442.86   11.20
 -12  -6  -7  452.65   10.60
 -13  -6  -7   78.29    2.90
 -13  -6  -7   78.29    3.30
 -14  -6  -7   33.00    2.00
 -14  -6  -7   29.70    2.10
 -15  -6  -7    5.70    1.30
 -15  -6  -7    7.00    1.20
 -16  -6  -7    1.70    0.90
 -16  -6  -7    2.10    1.20
 -17  -6  -7   80.29    3.80
 -17  -6  -7   83.89    3.70
 -18  -6  -7   35.70    2.70
 -18  -6  -7   38.40    2.80
 -19  -6  -7   -0.70    1.10
 -19  -6  -7   -0.90    1.00
 -20  -6  -7   65.39    3.70
 -12   7   7   -2.00    1.30
 -11   7   7    1.30    1.50
 -10   7   7   84.39    4.40
   9  -7  -7  104.39    4.40
  -9   7   7  100.99    4.60
   8  -7  -7   79.09    3.80
  -8   7   7   73.29    3.80
   7  -7  -7   55.19    3.10
  -7   7   7   60.79    3.30
   6  -7  -7  153.88    5.20
  -6   7   7  160.08    5.50
   5  -7  -7   72.39    3.10
  -5   7   7   64.89    3.10
   4  -7  -7   35.70    2.20
  -4   7   7   36.10    2.30
   3  -7  -7   14.50    1.60
  -3   7   7   16.50    1.60
   2  -7  -7  104.59    3.70
  -2   7   7   98.89    3.50
   1  -7  -7   51.69    2.50
   1  -7  -7   55.89    1.70
  -1   7   7   52.49    2.30
   0  -7  -7  380.06    8.40
   0  -7  -7  376.06    9.50
   0   7   7  379.26    9.00
  -1  -7  -7   26.20    1.20
  -1  -7  -7   25.70    1.70
   1   7   7   24.60    1.30
  -2  -7  -7  357.46    8.10
  -2  -7  -7  347.37    8.80
   2   7   7  349.96    8.10
  -3  -7  -7   52.89    1.90
   3   7   7   48.60    1.70
  -4  -7  -7    0.90    0.50
   4   7   7    1.20    0.30
  -5  -7  -7    0.50    0.30
  -5  -7  -7    0.70    0.50
  -6  -7  -7  109.49    2.70
  -6  -7  -7  114.49    3.50
  -7  -7  -7    0.60    0.60
  -7  -7  -7    0.00    0.30
  -8  -7  -7    3.50    0.80
  -8  -7  -7    5.00    0.50
  -9  -7  -7    1.40    0.40
  -9  -7  -7    1.60    0.70
 -10  -7  -7    3.40    0.60
 -10  -7  -7    2.50    0.90
 -11  -7  -7   16.40    1.10
 -11  -7  -7   15.90    1.60
 -12  -7  -7   16.50    1.70
 -12  -7  -7   18.40    1.30
 -13  -7  -7  117.79    4.30
 -13  -7  -7  118.29    3.70
 -14  -7  -7    2.50    0.90
 -14  -7  -7    1.10    0.90
 -15  -7  -7    7.90    1.40
 -15  -7  -7    8.40    1.30
 -16  -7  -7   16.00    1.70
 -16  -7  -7   16.00    1.90
 -17  -7  -7    5.40    1.30
 -17  -7  -7    7.70    1.60
 -18  -7  -7   11.70    1.90
 -18  -7  -7   12.60    1.80
 -19  -7  -7    1.00    1.20
 -20  -7  -7   11.20    2.90
 -11   8   7   -0.40    1.30
 -10   8   7   46.90    3.50
   9  -8  -7    4.50    1.40
  -9   8   7    5.10    1.60
   8  -8  -7   47.70    3.00
  -8   8   7   43.80    3.00
   7  -8  -7   43.00    2.70
  -7   8   7   39.40    2.90
   6  -8  -7   30.50    2.30
  -6   8   7   32.00    2.40
   5  -8  -7 1055.19   24.10
  -5   8   7 1056.89   24.20
   4  -8  -7   33.90    2.20
  -4   8   7   32.30    2.10
   3  -8  -7    0.80    0.80
  -3   8   7    0.60    0.80
   2  -8  -7  107.19    4.00
  -2   8   7  108.29    3.70
   1  -8  -7   65.79    2.90
   1  -8  -7   57.89    1.90
  -1   8   7   63.69    2.50
   0  -8  -7   50.29    2.50
   0  -8  -7   55.19    1.80
   0   8   7   54.89    2.20
  -1  -8  -7    0.70    0.70
  -1  -8  -7   -0.30    0.40
   1   8   7    0.30    0.50
  -2  -8  -7   26.00    1.80
  -2  -8  -7   23.30    1.20
   2   8   7   22.60    1.20
  -3  -8  -7  475.95   10.90
   3   8   7  488.15   10.60
  -4  -8  -7  705.73   15.70
   4   8   7  709.33   15.00
  -5  -8  -7    5.80    0.80
  -5  -8  -7    6.20    0.40
  -6  -8  -7  114.79    3.60
  -7  -8  -7  253.97    5.50
  -7  -8  -7  251.67    6.60
  -8  -8  -7   11.10    0.60
  -8  -8  -7    9.50    1.10
  -9  -8  -7   11.60    1.30
  -9  -8  -7    8.00    0.60
 -10  -8  -7   18.40    1.70
 -10  -8  -7   17.70    1.00
 -11  -8  -7  126.59    4.30
 -11  -8  -7  131.39    3.60
 -12  -8  -7   79.29    3.30
 -12  -8  -7   83.19    2.70
 -13  -8  -7   45.80    2.50
 -13  -8  -7   43.30    2.00
 -14  -8  -7   -0.50    0.80
 -14  -8  -7   -0.60    0.70
 -15  -8  -7   58.39    3.10
 -16  -8  -7  112.69    4.50
 -17  -8  -7    4.20    1.40
 -18  -8  -7    1.90    1.20
 -19  -8  -7    0.30    1.20
 -20  -8  -7    6.70    1.70
 -11   9   7    0.90    1.40
 -10   9   7   17.30    2.50
   9  -9  -7    1.40    1.30
  -9   9   7    1.70    1.40
   8  -9  -7    0.60    1.10
  -8   9   7    0.40    1.30
   7  -9  -7   36.70    2.60
  -7   9   7   28.10    2.70
   6  -9  -7   10.10    1.70
  -6   9   7    7.00    1.50
   5  -9  -7    6.40    1.40
  -5   9   7    6.90    1.40
   4  -9  -7  251.07    7.30
  -4   9   7  238.88    7.10
   3  -9  -7    9.60    1.50
  -3   9   7    9.40    1.40
   2  -9  -7    8.40    1.30
  -2   9   7   10.10    1.30
   1  -9  -7  187.28    5.70
  -1   9   7  174.28    5.10
   0  -9  -7  110.49    3.10
   0  -9  -7  105.79    4.00
   0   9   7  116.09    3.50
  -1  -9  -7   12.50    1.50
  -1  -9  -7   13.50    1.00
   1   9   7   11.40    1.00
  -2  -9  -7   97.09    3.60
  -2  -9  -7   91.89    2.80
   2   9   7   90.79    2.70
  -3  -9  -7   77.39    2.50
  -3  -9  -7   76.49    3.10
   3   9   7   74.09    2.20
  -4  -9  -7   65.79    2.40
   4   9   7   67.69    1.80
  -5  -9  -7  307.57    7.60
  -6  -9  -7   50.09    2.10
  -7  -9  -7  425.26   10.20
  -8  -9  -7  531.55   12.50
  -9  -9  -7    2.60    0.80
 -10  -9  -7  300.57    7.90
 -11  -9  -7    5.80    1.10
 -12  -9  -7    4.20    1.10
 -13  -9  -7   40.40    2.40
 -14  -9  -7    0.30    0.90
 -15  -9  -7   97.69    4.10
 -16  -9  -7  224.98    6.90
 -17  -9  -7   82.39    3.80
 -18  -9  -7   11.00    1.80
 -19  -9  -7    1.90    1.40
 -20  -9  -7   26.00    2.60
 -10  10   7   83.49    4.70
   9 -10  -7   14.60    2.10
  -9  10   7   15.70    2.20
   8 -10  -7    4.40    1.50
  -8  10   7    5.00    1.60
   7 -10  -7   11.20    1.90
  -7  10   7   13.20    2.10
   6 -10  -7   33.30    2.80
  -6  10   7   30.10    2.70
   5 -10  -7  174.58    5.90
  -5  10   7  176.48    5.90
   4 -10  -7    2.20    1.10
  -4  10   7    1.90    1.00
   3 -10  -7    1.50    1.00
  -3  10   7    1.40    0.90
   2 -10  -7  105.39    4.20
  -2  10   7  110.59    3.90
   1 -10  -7   16.70    1.80
  -1  10   7   19.30    1.60
   0 -10  -7    1.50    0.50
   0 -10  -7    0.10    0.80
   0  10   7    0.30    0.60
  -1 -10  -7   77.49    3.40
  -1 -10  -7   77.89    2.60
   1  10   7   81.39    2.70
  -2 -10  -7   19.80    1.30
  -2 -10  -7   21.20    1.90
   2  10   7   20.10    1.30
  -3 -10  -7  295.87    7.10
  -3 -10  -7  283.97    7.90
  -4 -10  -7    6.80    0.90
  -5 -10  -7   26.10    1.50
  -6 -10  -7   79.89    2.80
  -7 -10  -7   12.60    1.30
  -8 -10  -7  471.05   11.30
  -9 -10  -7    6.20    1.00
 -10 -10  -7   38.30    2.10
 -11 -10  -7   98.29    3.70
 -12 -10  -7   39.40    2.30
 -13 -10  -7   25.20    2.10
 -14 -10  -7    1.50    1.10
 -15 -10  -7    0.10    1.00
 -16 -10  -7  112.59    4.50
 -17 -10  -7   51.89    3.20
 -18 -10  -7    3.20    1.30
 -19 -10  -7    5.30    1.50
 -20 -10  -7    1.30    1.30
   9 -11  -7  119.99    5.40
  -9  11   7  122.99    5.60
   8 -11  -7    3.90    1.60
  -8  11   7    2.00    1.30
   7 -11  -7    1.70    1.20
  -7  11   7    0.40    1.20
   6 -11  -7   87.69    4.20
  -6  11   7   89.89    4.20
   5 -11  -7   72.39    3.70
  -5  11   7   70.89    3.50
   4 -11  -7   43.30    2.80
  -4  11   7   46.60    2.70
   3 -11  -7    0.20    1.00
  -3  11   7    0.70    0.90
   2 -11  -7   54.79    3.00
  -2  11   7   50.49    2.60
   1 -11  -7  811.02   19.20
  -1  11   7  812.42   19.10
   0 -11  -7    9.00    1.40
  -1 -11  -7   17.70    1.80
  -1 -11  -7   15.20    1.20
  -2 -11  -7  207.78    5.50
  -2 -11  -7  218.38    6.40
  -3 -11  -7   80.59    3.40
  -3 -11  -7   83.29    2.80
  -4 -11  -7    0.90    0.90
  -4 -11  -7    1.30    0.60
  -5 -11  -7    6.80    1.00
  -6 -11  -7   49.99    2.20
  -7 -11  -7  144.59    4.40
  -8 -11  -7   73.39    2.90
  -9 -11  -7    0.20    0.70
 -10 -11  -7   18.00    1.70
 -11 -11  -7   19.60    1.90
 -12 -11  -7    3.10    1.00
 -13 -11  -7   18.50    1.90
 -14 -11  -7    3.00    1.20
 -15 -11  -7    1.30    1.20
 -16 -11  -7    3.70    1.30
 -17 -11  -7    4.70    1.40
 -18 -11  -7    6.30    1.70
 -19 -11  -7    3.40    1.40
 -20 -11  -7    9.90    1.90
   8 -12  -7   18.10    2.40
  -8  12   7   17.50    2.40
   7 -12  -7    6.40    1.60
  -7  12   7    3.40    1.50
   6 -12  -7   19.20    2.40
  -6  12   7   18.10    2.50
   5 -12  -7  230.38    7.50
   4 -12  -7   34.50    2.80
   3 -12  -7   33.90    2.90
   2 -12  -7    9.40    1.60
   1 -12  -7   42.10    2.70
   0 -12  -7   25.10    2.30
  -1 -12  -7   42.50    1.90
  -1 -12  -7   36.90    2.50
  -2 -12  -7    2.10    0.70
  -2 -12  -7    0.40    0.80
  -3 -12  -7  352.86    9.40
  -3 -12  -7  337.87    8.40
  -4 -12  -7  320.17    8.10
  -4 -12  -7  330.97    8.90
  -5 -12  -7    0.70    0.70
  -6 -12  -7   21.60    1.70
  -7 -12  -7   14.60    1.40
  -8 -12  -7   20.30    1.70
  -9 -12  -7  119.99    4.10
 -10 -12  -7    1.50    1.00
 -11 -12  -7   34.30    2.20
 -12 -12  -7  215.28    6.50
 -13 -12  -7   37.60    2.40
 -14 -12  -7    3.70    1.20
 -15 -12  -7    7.10    1.50
 -16 -12  -7    0.70    1.10
 -17 -12  -7   56.49    3.30
 -18 -12  -7    3.10    1.40
 -19 -12  -7    0.60    1.30
 -20 -12  -7   27.70    2.70
   7 -13  -7    2.50    1.50
   6 -13  -7   36.00    3.10
   5 -13  -7   58.59    3.70
   4 -13  -7  104.49    4.60
   3 -13  -7    2.80    1.40
   2 -13  -7    1.00    1.20
   1 -13  -7  404.06   11.00
   0 -13  -7   18.70    2.10
  -1 -13  -7   54.19    3.00
  -2 -13  -7    5.60    1.00
  -2 -13  -7    6.00    1.40
  -3 -13  -7    1.00    0.80
  -3 -13  -7    0.70    1.10
  -4 -13  -7  337.27    9.30
  -4 -13  -7  334.97    8.40
  -5 -13  -7   32.80    2.30
  -5 -13  -7   26.20    1.90
  -6 -13  -7    5.30    1.10
  -7 -13  -7   27.50    1.80
  -8 -13  -7   16.10    1.60
  -9 -13  -7   15.30    1.60
 -10 -13  -7   16.10    1.70
 -11 -13  -7   10.80    1.50
 -12 -13  -7  188.48    5.90
 -13 -13  -7   39.80    2.70
 -14 -13  -7    8.00    1.50
 -15 -13  -7    0.10    1.00
 -16 -13  -7    1.60    1.20
 -17 -13  -7   39.60    3.00
 -18 -13  -7    6.90    1.70
 -19 -13  -7    8.30    1.90
 -20 -13  -7    4.20    1.70
   6 -14  -7   39.40    3.50
   5 -14  -7  131.79    5.50
   4 -14  -7    6.10    1.60
   3 -14  -7   -1.10    1.10
   2 -14  -7   70.89    3.80
   1 -14  -7   56.59    3.30
   0 -14  -7   62.09    3.40
  -1 -14  -7   19.00    2.20
  -2 -14  -7   36.20    2.60
  -2 -14  -7   39.10    2.10
  -3 -14  -7  133.39    5.00
  -3 -14  -7  127.39    4.10
  -4 -14  -7   89.09    3.90
  -4 -14  -7  102.29    3.60
  -5 -14  -7  107.09    3.80
  -5 -14  -7  105.59    4.30
  -6 -14  -7  169.98    5.70
  -6 -14  -7  159.68    5.00
  -7 -14  -7   88.49    3.50
  -8 -14  -7   15.10    1.60
  -9 -14  -7   39.60    2.30
 -10 -14  -7   34.00    2.40
 -11 -14  -7    3.00    1.10
 -12 -14  -7   27.10    2.30
 -13 -14  -7    3.20    1.20
 -14 -14  -7   19.40    2.10
 -15 -14  -7   32.40    2.70
 -16 -14  -7    4.70    1.50
 -17 -14  -7    1.40    1.30
 -18 -14  -7    0.90    1.40
 -19 -14  -7    4.50    1.70
   5 -15  -7   41.60    3.50
   4 -15  -7   48.30    3.40
   3 -15  -7    3.20    1.50
   2 -15  -7   98.09    4.50
   1 -15  -7  345.27   10.00
   0 -15  -7  147.89    5.70
  -1 -15  -7    0.50    1.10
  -2 -15  -7    1.10    1.30
  -3 -15  -7    9.80    1.30
  -3 -15  -7    9.60    1.70
  -4 -15  -7    3.20    1.40
  -4 -15  -7    0.10    0.80
  -5 -15  -7   -1.50    0.70
  -5 -15  -7   -0.70    0.90
  -6 -15  -7   48.30    2.90
  -6 -15  -7   47.10    2.60
  -7 -15  -7  223.18    6.40
  -7 -15  -7  217.18    6.90
  -8 -15  -7  394.16   10.20
  -9 -15  -7    0.70    1.00
 -10 -15  -7   84.89    3.70
 -11 -15  -7   51.49    2.90
 -12 -15  -7   83.99    3.70
 -13 -15  -7   12.60    1.90
 -14 -15  -7    6.20    1.50
 -15 -15  -7   38.20    2.70
 -16 -15  -7  106.89    4.60
 -17 -15  -7    5.50    1.70
 -18 -15  -7   -0.30    1.20
 -19 -15  -7    9.80    2.10
   4 -16  -7    3.40    1.60
   3 -16  -7    1.60    1.50
   2 -16  -7   11.30    2.00
   1 -16  -7   12.30    2.00
   0 -16  -7  232.68    7.60
  -1 -16  -7   23.00    2.50
  -2 -16  -7   99.89    4.50
  -3 -16  -7  264.67    7.10
  -3 -16  -7  243.58    7.80
  -4 -16  -7   42.70    2.90
  -4 -16  -7   39.90    2.30
  -5 -16  -7    4.70    1.10
  -5 -16  -7    5.70    1.60
  -6 -16  -7   11.70    1.60
  -6 -16  -7    9.70    1.70
  -7 -16  -7  134.99    4.70
  -7 -16  -7  141.89    5.30
  -8 -16  -7  128.39    4.60
  -9 -16  -7   48.80    2.80
 -10 -16  -7   10.00    1.60
 -11 -16  -7   15.50    1.90
 -12 -16  -7  109.39    4.40
 -13 -16  -7    6.10    1.50
 -14 -16  -7    5.20    1.50
 -15 -16  -7   26.30    2.60
 -16 -16  -7    7.10    1.60
 -17 -16  -7    6.80    1.70
 -18 -16  -7    0.20    1.30
   3 -17  -7    0.20    1.30
   2 -17  -7   29.00    2.90
   1 -17  -7   55.09    3.50
   0 -17  -7   13.60    2.20
  -1 -17  -7   29.50    2.80
  -2 -17  -7   58.09    3.50
  -3 -17  -7   72.49    3.90
  -4 -17  -7   61.79    3.00
  -4 -17  -7   58.19    3.50
  -5 -17  -7   15.20    1.70
  -5 -17  -7   13.00    2.00
  -6 -17  -7    1.40    1.00
  -6 -17  -7    2.20    1.20
  -7 -17  -7    0.10    1.10
  -7 -17  -7    0.30    1.20
  -8 -17  -7    4.20    1.30
  -8 -17  -7    6.80    1.60
  -9 -17  -7   30.50    2.60
 -10 -17  -7    0.50    1.10
 -11 -17  -7   17.60    2.20
 -12 -17  -7   11.30    1.90
 -13 -17  -7    5.90    1.60
 -14 -17  -7   -1.20    1.20
 -15 -17  -7    3.90    1.50
 -16 -17  -7   10.30    2.00
 -17 -17  -7   26.90    2.80
 -18 -17  -7   11.80    2.10
   1 -18  -7   -0.40    1.50
   0 -18  -7   12.50    2.10
  -1 -18  -7    3.70    1.60
  -2 -18  -7   16.50    2.20
  -3 -18  -7  251.07    8.10
  -4 -18  -7  137.89    5.60
  -5 -18  -7    2.00    1.30
  -5 -18  -7    2.80    1.10
  -6 -18  -7    5.10    1.60
  -6 -18  -7    7.20    1.50
  -7 -18  -7   16.70    2.10
  -7 -18  -7   17.20    1.90
  -8 -18  -7    2.20    1.20
  -8 -18  -7    1.40    1.20
  -9 -18  -7   53.29    3.20
  -9 -18  -7   51.59    3.40
 -10 -18  -7    1.30    1.30
 -11 -18  -7   26.10    2.60
 -12 -18  -7  119.09    4.90
 -13 -18  -7    0.80    1.50
 -14 -18  -7    0.40    1.30
 -15 -18  -7   41.60    3.10
 -16 -18  -7    8.10    1.90
 -17 -18  -7   18.30    2.50
  -1 -19  -7    3.80    1.60
  -2 -19  -7    4.80    1.80
  -3 -19  -7   40.60    3.40
  -4 -19  -7   48.60    3.50
  -5 -19  -7   12.80    2.10
  -5 -19  -7   12.90    1.80
  -6 -19  -7    3.20    1.30
  -6 -19  -7    2.00    1.30
  -7 -19  -7   53.69    3.50
  -7 -19  -7   55.49    3.00
  -8 -19  -7   58.99    3.20
  -8 -19  -7   61.79    3.70
  -9 -19  -7    7.30    1.70
  -9 -19  -7    7.00    1.70
 -10 -19  -7   -0.80    1.00
 -10 -19  -7    1.10    1.30
 -11 -19  -7    6.90    1.80
 -12 -19  -7   39.40    3.20
 -13 -19  -7    8.70    1.90
 -14 -19  -7   -1.80    1.30
 -15 -19  -7    5.60    1.80
  -3 -20  -7    9.00    1.90
  -4 -20  -7   26.20    2.70
  -5 -20  -7   10.50    2.10
  -6 -20  -7    3.10    1.20
  -6 -20  -7    2.60    1.60
  -7 -20  -7    4.30    1.70
  -7 -20  -7    9.70    1.70
  -8 -20  -7    8.40    1.60
  -8 -20  -7    7.50    1.90
  -9 -20  -7   61.69    3.50
  -9 -20  -7   59.89    3.70
 -10 -20  -7    6.20    1.70
 -11 -20  -7    4.30    1.50
 -12 -20  -7   -0.40    1.30
 -13 -20  -7   16.50    2.30
 -14 -20  -7    1.70    1.70
  -8 -21  -7  159.38    5.90
  -9 -21  -7    2.30    1.30
 -10 -21  -7    2.10    1.30
  -7 -17   8   29.70    3.20
  -6 -17   8   13.80    2.40
  -5 -17   8    9.50    2.10
  -4 -17   8   17.40    2.60
  -3 -17   8   22.20    2.90
  -2 -17   8   -0.10    1.30
  -1 -17   8    5.10    1.80
   0 -17   8    0.00    1.50
   1 -17   8    8.80    2.20
  -9 -16   8    8.00    1.90
  -8 -16   8    2.30    1.50
  -7 -16   8    7.20    1.90
  -6 -16   8    1.30    1.40
  -5 -16   8    4.50    1.60
  -4 -16   8    5.40    1.80
  -3 -16   8    1.00    1.40
  -2 -16   8   -0.20    1.30
  -1 -16   8   50.79    3.70
   0 -16   8    3.60    1.70
   1 -16   8    2.20    1.80
   2 -16   8    7.30    2.20
  -3  16  -8    0.60    1.50
  -4  16  -8    1.60    1.50
 -11 -15   8   -2.00    1.00
 -10 -15   8   -0.70    1.30
  -9 -15   8   25.40    2.70
  -8 -15   8   43.70    3.20
  -7 -15   8    0.40    1.40
  -6 -15   8    4.70    1.60
  -5 -15   8    8.30    1.90
  -4 -15   8   19.90    2.50
   3  15  -8    2.40    1.40
  -3 -15   8    1.80    1.50
   2  15  -8   12.30    1.90
  -2 -15   8    9.60    2.00
   1  15  -8   20.20    2.30
  -1 -15   8   18.70    2.50
   0  15  -8  119.99    5.00
   0 -15   8  118.39    5.50
  -1  15  -8   11.80    2.00
   1 -15   8   14.00    2.30
  -2  15  -8    0.80    1.30
   2 -15   8   -0.10    1.50
  -3  15  -8   29.60    2.80
  -4  15  -8    0.40    1.20
  -5  15  -8    2.60    1.40
  -6  15  -8    2.70    1.60
 -12 -14   8    0.40    1.30
 -11 -14   8    3.10    1.50
 -10 -14   8    2.40    1.40
  -9 -14   8    1.60    1.40
  -8 -14   8   13.70    2.10
  -8 -14   8    9.60    1.90
  -7 -14   8    7.70    1.70
  -7 -14   8   10.80    1.90
  -6 -14   8    8.10    1.70
  -6 -14   8    8.30    1.80
  -5 -14   8    2.70    1.40
   4  14  -8    6.00    1.50
  -4 -14   8    5.00    1.60
   3  14  -8    6.70    1.60
  -3 -14   8    3.70    1.40
   2  14  -8    2.70    1.30
  -2 -14   8    2.00    1.30
   1  14  -8   19.90    2.30
  -1 -14   8   16.50    2.20
   0  14  -8  137.79    5.20
   0 -14   8  132.79    5.60
  -1  14  -8  100.19    4.40
   1 -14   8   98.59    4.80
  -2  14  -8    3.20    1.30
   2 -14   8    2.30    1.60
  -3  14  -8   38.60    2.80
  -4  14  -8   51.09    3.30
  -5  14  -8    2.20    1.40
  -6  14  -8    5.80    1.70
  -7  14  -8    0.00    1.40
 -12 -13   8    2.00    1.50
 -11 -13   8   17.50    2.20
 -10 -13   8   -0.80    1.10
 -10 -13   8    2.00    1.50
  -9 -13   8  112.69    4.80
  -9 -13   8  119.59    5.10
  -8 -13   8    0.80    1.10
  -8 -13   8    0.60    1.30
  -7 -13   8   28.80    2.80
  -7 -13   8   20.20    2.40
  -6 -13   8   61.29    3.50
  -6 -13   8   70.79    3.70
  -5 -13   8    0.70    1.20
  -5 -13   8    5.30    1.60
  -4 -13   8    3.30    1.30
   3  13  -8    2.20    1.20
  -3 -13   8    1.00    1.10
   2  13  -8    2.30    1.10
  -2 -13   8    3.20    1.40
   1  13  -8   13.70    1.90
  -1 -13   8   16.10    2.10
   0  13  -8    7.60    1.60
   0 -13   8    6.40    1.70
  -1  13  -8   40.00    2.80
   1 -13   8   36.30    3.20
  -2  13  -8    0.90    1.10
   2 -13   8   -0.20    1.20
  -3  13  -8   63.39    3.40
  -4  13  -8    8.20    1.70
  -5  13  -8   15.90    2.10
  -6  13  -8    7.00    1.70
  -7  13  -8   15.40    2.20
  -8  13  -8    2.70    1.50
  -9  13  -8   20.30    2.50
 -13 -12   8   35.90    3.40
 -12 -12   8   15.60    2.30
 -11 -12   8   31.60    3.10
 -11 -12   8   27.10    2.60
 -10 -12   8    3.50    1.30
 -10 -12   8    2.20    1.40
  -9 -12   8   74.59    4.00
  -9 -12   8   76.89    3.80
  -8 -12   8   33.50    2.60
  -8 -12   8   29.50    2.80
  -7 -12   8    4.90    1.50
  -7 -12   8    4.20    1.30
  -6 -12   8   20.50    2.30
  -6 -12   8   17.60    2.10
  -5 -12   8   58.29    3.30
  -5 -12   8   52.79    3.20
  -4 -12   8  190.28    6.40
  -4 -12   8  205.88    6.70
  -3 -12   8   31.00    2.70
   2  12  -8    5.00    1.30
  -2 -12   8    2.70    1.20
   1  12  -8    4.90    1.40
  -1 -12   8    2.90    1.20
   0  12  -8   24.00    2.30
   0 -12   8   23.20    2.40
  -1  12  -8    3.10    1.30
   1 -12   8    1.40    1.20
  -2  12  -8    5.40    1.50
   2 -12   8    5.70    1.70
  -3  12  -8  185.98    6.20
   3 -12   8  176.18    6.50
  -4  12  -8  150.38    5.60
  -5  12  -8   27.80    2.60
  -6  12  -8    8.30    1.70
  -7  12  -8    3.40    1.50
  -8  12  -8   28.20    2.80
  -9  12  -8    0.10    1.30
 -10  12  -8    3.00    1.60
 -14 -11   8   15.10    2.50
 -13 -11   8   13.20    2.40
 -12 -11   8   64.49    3.90
 -11 -11   8   28.10    2.90
 -11 -11   8   32.70    3.40
 -10 -11   8    0.80    1.00
 -10 -11   8    1.80    1.30
  -9 -11   8   52.09    3.40
  -9 -11   8   60.79    3.20
  -8 -11   8   -0.60    1.10
  -8 -11   8    1.20    1.00
  -7 -11   8    1.90    1.30
  -7 -11   8    3.90    1.20
  -6 -11   8   90.19    3.90
  -6 -11   8   77.29    3.80
  -5 -11   8    6.60    1.50
  -5 -11   8    6.50    1.50
  -4 -11   8   79.89    3.80
  -4 -11   8   90.99    3.90
  -3 -11   8  140.59    5.20
  -3 -11   8  146.99    5.30
   2  11  -8   -0.20    1.00
  -2 -11   8   -0.40    0.90
   1  11  -8   19.80    2.10
  -1 -11   8   17.40    2.00
   0  11  -8  159.18    5.50
   0 -11   8  156.48    5.70
  -1  11  -8    0.10    1.00
   1 -11   8    0.50    1.00
  -2  11  -8    0.30    0.90
   2 -11   8    1.40    1.20
  -3  11  -8   11.50    1.80
   3 -11   8    6.00    1.50
  -4  11  -8  208.08    6.70
  -5  11  -8  119.79    4.80
  -6  11  -8    2.70    1.40
  -7  11  -8   55.29    3.30
  -8  11  -8  178.68    6.40
  -9  11  -8   58.89    3.60
 -10  11  -8    4.20    1.50
 -11  11  -8   -0.90    1.40
 -14 -10   8    6.60    2.00
 -13 -10   8    5.10    1.70
 -12 -10   8   -0.20    1.40
 -11 -10   8    3.90    1.50
 -10 -10   8   10.80    1.60
 -10 -10   8   12.90    2.10
  -9 -10   8   76.89    3.50
  -9 -10   8   79.29    4.00
  -8 -10   8   -0.20    0.80
  -8 -10   8   -0.40    1.00
  -7 -10   8   14.80    1.90
  -7 -10   8   14.40    2.00
  -6 -10   8   19.50    2.10
  -6 -10   8   17.80    2.00
  -5 -10   8   16.80    1.90
  -5 -10   8   21.40    2.20
  -4 -10   8    3.40    1.20
  -4 -10   8    1.70    1.00
  -3 -10   8   10.40    1.60
  -3 -10   8   11.60    1.70
  -2 -10   8   14.40    1.80
  -2 -10   8   13.00    1.80
   1  10  -8   23.70    2.20
  -1 -10   8   23.30    2.20
   0  10  -8  119.69    4.50
   0 -10   8  106.69    4.50
  -1  10  -8    6.20    1.30
   1 -10   8    6.50    1.40
  -2  10  -8   13.00    1.70
   2 -10   8   13.80    1.80
  -3  10  -8   76.79    3.60
  -4  10  -8   25.30    2.30
  -5  10  -8   -0.20    1.10
  -6  10  -8   24.10    2.30
  -7  10  -8   27.40    2.50
  -8  10  -8   46.90    3.20
  -9  10  -8  111.79    4.80
 -10  10  -8    8.00    1.90
 -11  10  -8   61.39    3.70
 -12  10  -8   32.30    3.20
 -14  -9   8    7.60    2.10
 -13  -9   8    4.90    1.80
 -12  -9   8    4.00    1.70
 -11  -9   8    4.00    1.50
 -10  -9   8   76.09    3.90
 -10  -9   8   78.29    4.20
  -9  -9   8  380.06   10.10
  -9  -9   8  391.36   10.90
  -8  -9   8    2.70    1.10
  -8  -9   8    2.40    1.20
  -7  -9   8   16.30    2.10
  -7  -9   8   13.60    1.60
  -6  -9   8   10.30    1.50
  -6  -9   8   11.90    1.70
  -5  -9   8   41.70    2.50
  -5  -9   8   42.00    2.60
  -4  -9   8   21.00    2.10
  -4  -9   8   17.50    1.90
  -3  -9   8    4.00    1.10
  -3  -9   8    2.30    1.10
  -2  -9   8   11.20    1.60
  -2  -9   8    8.00    1.40
  -1  -9   8  104.39    4.20
  -1  -9   8  113.89    4.30
   0   9  -8  424.06   11.20
   0  -9   8  438.66   11.30
  -1   9  -8   40.30    2.60
   1  -9   8   36.50    2.50
  -2   9  -8   10.30    1.50
   2  -9   8    9.60    1.60
  -3   9  -8   30.60    2.30
  -4   9  -8   35.30    2.40
  -5   9  -8    5.30    1.40
  -6   9  -8    1.30    1.20
  -7   9  -8   76.09    3.60
  -8   9  -8  322.87    9.20
  -9   9  -8   20.20    2.30
 -10   9  -8   11.90    2.00
 -11   9  -8   24.20    2.60
 -12   9  -8   30.30    3.10
 -13   9  -8    2.70    1.50
 -15  -8   8    5.10    1.80
 -14  -8   8    7.10    2.10
 -13  -8   8   26.80    3.10
 -12  -8   8   34.50    3.20
 -11  -8   8    9.00    2.00
 -10  -8   8   35.70    3.10
  -9  -8   8    2.40    1.30
  -9  -8   8    2.80    1.00
  -8  -8   8  283.27    7.90
  -8  -8   8  295.77    8.70
  -7  -8   8   12.50    1.50
  -7  -8   8    9.40    1.70
  -6  -8   8   59.69    2.90
  -6  -8   8   63.19    3.20
  -5  -8   8  259.97    7.70
  -5  -8   8  265.77    7.40
  -4  -8   8  193.88    5.90
  -4  -8   8  191.38    6.10
  -3  -8   8   10.50    1.40
  -3  -8   8   11.60    1.60
  -2  -8   8  131.59    4.60
  -2  -8   8  126.59    4.50
  -1  -8   8    1.20    0.90
  -1  -8   8    3.10    1.00
   0   8  -8  321.87    8.80
   0  -8   8  323.37    8.80
  -1   8  -8   94.39    3.80
   1  -8   8   97.99    3.90
  -2   8  -8    3.00    1.10
   2  -8   8    1.90    1.00
  -3   8  -8   60.09    2.90
  -4   8  -8  210.98    6.40
  -5   8  -8  132.39    4.80
  -6   8  -8   11.00    1.60
  -7   8  -8    3.60    1.20
  -8   8  -8  148.39    5.40
  -9   8  -8  232.48    7.30
 -10   8  -8   -1.10    1.00
 -11   8  -8   10.80    1.90
 -12   8  -8   44.00    3.20
 -13   8  -8  142.59    5.80
 -14   8  -8   24.80    2.80
 -15  -7   8    4.90    1.90
 -14  -7   8    3.40    1.70
 -13  -7   8   -1.50    1.20
 -12  -7   8   -0.80    1.20
 -11  -7   8   27.10    2.80
 -10  -7   8   31.10    3.00
  -9  -7   8   30.90    2.70
  -8  -7   8   49.40    3.00
  -8  -7   8   41.70    2.30
  -7  -7   8   35.70    2.20
  -7  -7   8   39.90    2.60
  -6  -7   8    1.20    0.70
  -6  -7   8    0.70    0.90
  -5  -7   8   10.20    1.40
  -5  -7   8   11.10    1.60
  -4  -7   8    6.20    1.20
  -4  -7   8   10.50    1.60
  -3  -7   8   16.00    1.70
  -3  -7   8   13.00    1.50
  -2  -7   8   17.60    1.80
  -2  -7   8   15.50    1.70
  -1  -7   8    0.90    0.80
  -1  -7   8    0.40    0.80
   0  -7   8    2.10    0.90
   0  -7   8    0.70    0.80
  -1   7  -8   -0.20    0.70
   1  -7   8    1.30    0.90
  -2   7  -8    1.20    1.00
   2  -7   8    0.60    0.90
  -3   7  -8    2.40    1.00
  -4   7  -8   48.90    2.60
  -5   7  -8  282.57    7.90
  -6   7  -8    8.00    1.50
  -7   7  -8   12.30    1.60
  -8   7  -8    0.40    1.00
  -9   7  -8    3.30    1.20
 -10   7  -8   26.50    2.50
 -11   7  -8    9.30    1.70
 -12   7  -8    8.00    1.80
 -13   7  -8  102.19    4.70
 -14   7  -8   23.30    2.70
 -15   7  -8   14.00    2.30
 -15  -6   8    4.20    1.80
 -14  -6   8   11.00    2.30
 -13  -6   8   43.80    3.70
 -12  -6   8   99.89    4.80
 -11  -6   8   39.50    3.00
 -10  -6   8   11.80    1.90
  -9  -6   8    0.80    1.10
  -8  -6   8   85.69    4.00
  -8  -6   8   83.89    3.20
  -7  -6   8   36.90    2.10
  -7  -6   8   39.90    2.60
  -6  -6   8    1.90    0.80
  -6  -6   8    1.00    1.00
  -5  -6   8  621.94   14.60
  -5  -6   8  623.24   15.20
  -4  -6   8  183.78    5.40
  -4  -6   8  189.08    5.90
  -3  -6   8    1.80    0.90
  -3  -6   8    0.80    0.70
  -2  -6   8  225.78    6.70
  -2  -6   8  229.08    6.40
  -1  -6   8   41.80    2.20
  -1  -6   8   45.70    2.40
   0  -6   8    0.70    0.70
   0  -6   8    2.00    0.90
   1  -6   8   10.60    1.40
  -2   6  -8    1.80    0.90
  -3   6  -8   -0.10    0.80
  -4   6  -8  162.58    5.20
  -5   6  -8  123.49    4.30
  -6   6  -8    9.60    1.40
  -7   6  -8  333.37    9.00
  -8   6  -8    7.40    1.40
  -9   6  -8    0.60    0.90
 -10   6  -8   13.60    1.80
 -11   6  -8   -0.50    1.00
 -12   6  -8   19.00    2.30
 -13   6  -8    0.30    1.20
 -14   6  -8    7.40    1.80
 -15   6  -8   62.59    3.80
 -16   6  -8   19.00    2.60
 -15  -5   8    1.20    1.60
 -14  -5   8   -0.20    1.40
 -13  -5   8   35.50    3.40
 -12  -5   8   70.29    4.10
 -11  -5   8   -0.50    1.10
 -10  -5   8   10.40    1.90
  -9  -5   8   14.40    1.90
  -8  -5   8   58.19    3.30
  -7  -5   8    2.20    1.10
  -7  -5   8    0.90    0.70
  -6  -5   8   -0.50    0.80
  -6  -5   8   -0.30    0.60
  -5  -5   8    6.30    1.00
  -5  -5   8    4.10    1.20
  -4  -5   8  207.58    5.70
  -4  -5   8  195.68    6.10
  -3  -5   8   83.09    3.10
  -3  -5   8   84.09    3.40
  -2  -5   8   86.19    3.40
  -2  -5   8   83.09    3.10
  -1  -5   8 1092.59   24.30
  -1  -5   8 1101.09   24.60
   0  -5   8 1858.01   39.90
   0  -5   8 1838.92   40.10
   1  -5   8   63.29    2.70
   1  -5   8   59.39    2.70
  -2   5  -8    3.30    0.90
  -3   5  -8    4.20    1.00
  -4   5  -8  214.18    6.20
  -5   5  -8   97.09    3.70
  -6   5  -8    8.00    1.30
  -7   5  -8  457.15   11.50
  -8   5  -8  989.30   22.60
  -9   5  -8   34.00    2.30
 -10   5  -8    0.50    1.00
 -11   5  -8    8.00    1.50
 -12   5  -8    2.70    1.30
 -13   5  -8   31.90    2.90
 -14   5  -8    5.10    1.50
 -15   5  -8   10.30    2.00
 -16   5  -8   82.19    4.60
 -15  -4   8    2.20    1.70
 -14  -4   8   -1.10    1.50
 -13  -4   8    9.90    2.10
 -12  -4   8   44.70    3.70
 -11  -4   8   10.60    1.90
 -10  -4   8  167.38    6.20
  -9  -4   8   27.40    2.60
  -8  -4   8  120.99    4.80
  -7  -4   8   12.80    1.20
  -7  -4   8    9.50    1.50
  -6  -4   8   36.90    1.80
  -6  -4   8   31.60    2.30
  -5  -4   8    6.30    1.20
  -5  -4   8    6.20    0.90
  -4  -4   8   36.50    2.20
  -4  -4   8   37.10    1.90
  -3  -4   8   11.20    1.40
  -3  -4   8    9.30    1.10
  -2  -4   8  103.59    3.50
  -2  -4   8  112.69    4.00
  -1  -4   8   43.90    2.10
  -1  -4   8   43.60    2.40
   0   4  -8  446.36    9.30
   0  -4   8  445.86   10.90
   0  -4   8  425.76   10.60
   1  -4   8  466.35   11.40
  -3   4  -8  309.97    8.20
  -4   4  -8   55.39    2.60
  -5   4  -8   49.40    2.40
  -6   4  -8    5.20    1.10
  -7   4  -8   65.09    2.90
  -8   4  -8  132.69    4.50
  -9   4  -8  386.66   10.10
 -10   4  -8   25.50    2.20
 -11   4  -8   47.50    2.80
 -12   4  -8    9.30    1.60
 -13   4  -8  107.69    4.60
 -14   4  -8   42.90    3.10
 -15   4  -8    7.90    1.90
 -16   4  -8    1.10    1.50
 -17   4  -8   68.69    4.20
 -15  -3   8    0.70    1.50
 -14  -3   8    0.80    1.50
 -13  -3   8    0.30    1.30
 -12  -3   8   60.69    3.90
 -11  -3   8   -0.80    1.10
 -10  -3   8   24.00    2.50
  -9  -3   8   92.19    4.20
  -8  -3   8   15.70    1.90
  -7  -3   8    8.90    1.50
  -6  -3   8    0.50    0.80
  -6  -3   8    1.80    0.60
  -5  -3   8   91.49    3.00
  -5  -3   8   98.59    3.80
  -4  -3   8   36.80    2.20
  -4  -3   8   35.10    1.70
   3   3  -8    0.60    0.30
  -3  -3   8    0.90    0.80
  -3  -3   8    0.50    0.60
   2   3  -8    2.30    0.40
  -2  -3   8    3.10    0.70
  -2  -3   8    2.70    0.90
   1   3  -8  407.66    8.70
  -1  -3   8  397.46    9.60
  -1  -3   8  398.86   10.10
   0   3  -8  192.08    4.30
   0  -3   8  191.88    5.60
   1  -3   8   89.29    3.30
   2  -3   8   31.90    2.00
  -3   3  -8  139.19    4.40
  -4   3  -8   25.20    1.70
  -5   3  -8   87.49    3.20
  -6   3  -8   26.40    1.80
  -7   3  -8    8.80    1.20
  -8   3  -8  123.19    4.30
  -9   3  -8   43.40    2.40
 -10   3  -8   70.09    3.20
 -11   3  -8   17.50    1.90
 -12   3  -8   30.80    2.60
 -13   3  -8   22.10    2.20
 -14   3  -8   -0.30    1.00
 -15   3  -8    9.10    1.80
 -16   3  -8    3.40    1.60
 -17   3  -8   25.80    2.80
 -15  -2   8   12.20    2.50
 -14  -2   8    2.10    1.60
 -13  -2   8   10.60    2.40
 -12  -2   8   36.30    3.40
 -11  -2   8    8.10    1.90
 -10  -2   8   38.60    2.90
  -9  -2   8   80.89    3.90
  -8  -2   8  270.47    8.10
  -7  -2   8   11.40    1.60
  -6  -2   8   60.69    3.10
  -5  -2   8   86.19    2.80
  -5  -2   8   99.99    3.80
   4   2  -8   86.29    2.60
  -4  -2   8   85.19    3.40
  -4  -2   8   86.49    2.80
   3   2  -8   26.00    1.10
  -3  -2   8   24.60    1.90
  -3  -2   8   26.20    1.40
   2   2  -8    0.70    0.30
  -2  -2   8    0.70    0.50
  -2  -2   8    1.10    0.70
   1   2  -8    3.30    0.40
  -1  -2   8    1.00    0.70
   0   2  -8   81.79    2.30
   0  -2   8   88.19    3.20
   1  -2   8  291.17    7.60
   2  -2   8   55.59    2.40
  -4   2  -8 2144.99   45.90
  -5   2  -8   87.89    3.20
  -6   2  -8  231.28    6.30
  -7   2  -8  179.18    5.30
  -8   2  -8  170.68    5.20
  -9   2  -8  103.19    3.80
 -10   2  -8   44.10    2.40
 -11   2  -8   22.80    2.00
 -12   2  -8  250.37    7.40
 -13   2  -8  112.19    4.50
 -14   2  -8    3.70    1.30
 -15   2  -8   49.10    3.10
 -16   2  -8   22.20    2.40
 -17   2  -8   22.50    2.60
 -18   2  -8   23.50    2.80
 -14  -1   8   -0.70    1.60
 -13  -1   8   14.70    2.60
 -12  -1   8    2.20    1.40
 -11  -1   8    5.10    1.60
 -10  -1   8    1.40    1.20
  -9  -1   8   23.60    2.50
  -8  -1   8   40.60    2.70
  -7  -1   8   20.40    2.10
  -6  -1   8   10.00    1.50
   5   1  -8   18.70    1.20
  -5  -1   8   19.80    1.10
   4   1  -8    7.50    0.80
  -4  -1   8    5.90    1.10
   3   1  -8   33.60    1.40
  -3  -1   8   32.70    2.00
   2   1  -8    3.40    0.50
  -2  -1   8    3.20    0.90
   1   1  -8  294.77    6.80
  -1  -1   8  291.87    7.70
   0   1  -8    0.30    0.40
   0  -1   8   -0.40    0.50
   1  -1   8  151.38    4.50
   2  -1   8   61.39    2.50
   3  -1   8   43.90    2.10
  -4   1  -8 1407.66   30.60
  -5   1  -8 1166.38   25.60
  -6   1  -8    3.10    0.80
  -7   1  -8   16.50    1.50
  -8   1  -8   42.40    2.20
  -9   1  -8   77.99    3.10
 -10   1  -8   57.89    2.70
 -11   1  -8    0.60    0.80
 -12   1  -8   84.79    3.50
 -13   1  -8  278.87    8.10
 -14   1  -8    0.70    1.10
 -15   1  -8   16.70    2.10
 -16   1  -8   86.59    4.10
 -17   1  -8  178.88    6.50
 -18   1  -8    2.20    1.50
 -14   0   8   17.50    2.70
 -13   0   8   27.50    3.10
 -12   0   8    5.70    1.80
 -11   0   8    1.10    1.40
 -10   0   8   47.70    3.30
  -9   0   8    1.30    1.10
  -8   0   8   76.49    3.70
  -7   0   8   28.00    2.40
   6   0  -8   46.20    2.10
  -6   0   8   47.00    2.70
   5   0  -8   20.80    1.30
  -5   0   8   19.30    1.90
   4   0  -8   27.20    1.40
  -4   0   8   28.60    2.00
   3   0  -8    9.10    0.90
  -3   0   8    9.10    1.20
   2   0  -8  132.59    3.60
  -2   0   8  126.49    4.20
   1   0  -8   14.90    1.00
  -1   0   8   13.70    1.40
   0   0  -8   21.40    1.10
   0   0   8   19.70    1.50
   1   0   8   35.50    1.80
   2   0   8   32.30    1.80
   3   0   8   72.59    2.70
  -4   0  -8  332.47    8.20
  -5   0  -8  403.36    9.70
  -6   0  -8   10.40    1.20
  -7   0  -8  570.14   13.20
  -8   0  -8    1.00    0.70
  -9   0  -8  202.28    5.70
 -10   0  -8   93.49    3.40
 -11   0  -8   41.80    2.30
 -12   0  -8   43.60    2.40
 -13   0  -8    9.30    1.50
 -14   0  -8   43.00    2.70
 -15   0  -8   36.20    2.50
 -16   0  -8    5.90    1.40
 -16   0  -8    3.50    1.30
 -17   0  -8  104.59    4.70
 -17   0  -8  109.99    4.70
 -18   0  -8   73.09    4.10
 -19   0  -8    4.70    1.80
 -14   1   8   21.40    3.10
 -13   1   8   28.00    3.20
 -12   1   8   19.70    2.70
 -11   1   8    4.30    1.60
 -10   1   8    3.50    1.40
  -9   1   8  156.18    5.80
  -8   1   8  280.47    8.40
   7  -1  -8    8.00    1.20
  -7   1   8    7.10    1.40
   6  -1  -8   13.90    1.40
  -6   1   8   11.90    1.70
   5  -1  -8   11.40    1.20
  -5   1   8   11.00    1.50
   4  -1  -8   78.19    2.70
  -4   1   8   75.99    3.20
   3  -1  -8   12.40    1.10
  -3   1   8   10.90    1.30
   2  -1  -8    6.70    0.80
  -2   1   8    6.60    1.00
   1  -1  -8  378.06    8.70
  -1   1   8  369.46    9.30
   0  -1  -8   49.00    1.80
   0   1   8   45.70    2.10
   1   1   8   74.49    2.70
   2   1   8   16.50    1.20
   3   1   8  144.69    4.20
  -5  -1  -8  217.68    5.70
  -6  -1  -8   -0.40    0.50
  -7  -1  -8  374.16    9.10
  -8  -1  -8 1060.69   23.30
  -9  -1  -8   52.59    2.40
 -10  -1  -8  184.38    5.30
 -11  -1  -8   41.70    2.20
 -12  -1  -8   36.90    2.30
 -13  -1  -8  171.58    5.50
 -14  -1  -8   65.09    3.10
 -15  -1  -8   22.70    2.20
 -15  -1  -8   15.60    2.00
 -16  -1  -8   35.70    2.60
 -16  -1  -8   39.30    2.80
 -17  -1  -8   23.40    2.40
 -17  -1  -8   31.60    2.80
 -18  -1  -8   53.79    3.40
 -19  -1  -8    5.00    1.70
 -14   2   8    6.30    2.10
 -13   2   8   32.90    3.40
 -12   2   8   28.10    3.20
 -11   2   8   12.60    2.20
 -10   2   8   35.40    3.20
  -9   2   8   39.30    2.90
   8  -2  -8   90.39    3.50
  -8   2   8   99.49    4.40
   7  -2  -8   97.29    3.60
  -7   2   8  105.59    4.30
   6  -2  -8  108.39    3.70
  -6   2   8  105.19    4.20
   5  -2  -8  357.36    8.80
  -5   2   8  353.06    9.50
   4  -2  -8   35.00    1.80
  -4   2   8   35.40    2.20
   3  -2  -8    1.30    0.60
  -3   2   8    2.20    0.90
   2  -2  -8   38.90    1.80
  -2   2   8   36.50    2.10
   1  -2  -8   22.90    1.30
  -1   2   8   23.10    1.50
   0  -2  -8   73.89    2.50
   0   2   8   71.89    2.70
  -1  -2  -8    2.80    0.60
   1   2   8    3.70    0.80
   2   2   8    5.60    0.80
   3   2   8    2.00    0.60
   4   2   8  847.92   18.70
  -5  -2  -8  106.29    3.30
  -6  -2  -8   15.10    1.10
  -7  -2  -8  110.69    3.40
  -8  -2  -8  284.77    7.20
  -9  -2  -8  732.13   16.50
 -10  -2  -8  228.58    6.20
 -11  -2  -8    8.20    1.10
 -12  -2  -8  317.07    8.30
 -13  -2  -8   85.19    3.50
 -14  -2  -8  153.18    5.30
 -14  -2  -8  158.28    5.20
 -15  -2  -8    0.30    1.00
 -15  -2  -8    0.70    0.90
 -16  -2  -8   -0.10    1.00
 -16  -2  -8    1.20    1.20
 -17  -2  -8   21.60    2.40
 -17  -2  -8   19.70    2.20
 -18  -2  -8   17.30    2.10
 -18  -2  -8   19.90    2.30
 -19  -2  -8   -1.70    1.10
 -13   3   8   22.60    3.10
 -12   3   8   41.20    3.60
 -11   3   8    1.60    1.40
 -10   3   8   33.00    3.00
  -9   3   8   15.70    2.20
   8  -3  -8    1.10    0.90
  -8   3   8    0.30    1.20
   7  -3  -8   43.30    2.40
  -7   3   8   44.90    2.80
   6  -3  -8    1.10    0.80
  -6   3   8    1.20    1.00
   5  -3  -8  304.07    7.90
  -5   3   8  308.87    8.50
   4  -3  -8    9.10    1.20
  -4   3   8   10.40    1.40
   3  -3  -8    4.30    0.80
  -3   3   8    6.60    1.20
   2  -3  -8   76.79    2.00
   2  -3  -8   81.69    2.90
  -2   3   8   82.69    3.10
   1  -3  -8  274.67    7.00
  -1   3   8  282.37    7.30
   0  -3  -8   21.70    1.30
   0   3   8   17.30    1.40
  -1  -3  -8   25.20    1.50
   1   3   8   25.60    1.50
   2   3   8   32.00    1.60
   3   3   8  181.38    4.80
   4   3   8    2.00    0.60
  -5  -3  -8  136.59    3.80
  -6  -3  -8  138.99    3.90
  -7  -3  -8    6.70    0.80
  -8  -3  -8   72.09    2.50
  -9  -3  -8  182.28    5.00
 -10  -3  -8   64.89    2.50
 -11  -3  -8   60.09    2.50
 -12  -3  -8  288.67    8.10
 -12  -3  -8  290.27    7.60
 -13  -3  -8   85.39    3.40
 -13  -3  -8   88.69    3.70
 -14  -3  -8    7.20    1.40
 -14  -3  -8   11.80    1.50
 -15  -3  -8    2.20    1.10
 -15  -3  -8    3.10    1.00
 -16  -3  -8   11.30    1.70
 -16  -3  -8   13.70    1.70
 -17  -3  -8   28.60    2.50
 -17  -3  -8   27.80    2.60
 -18  -3  -8    6.10    1.40
 -18  -3  -8    9.40    1.80
 -19  -3  -8    8.50    1.80
 -20  -3  -8   35.50    3.20
 -13   4   8   82.19    4.90
 -12   4   8   13.50    2.30
 -11   4   8    1.30    1.50
 -10   4   8    0.70    1.20
  -9   4   8   30.30    2.80
   8  -4  -8   11.30    1.60
  -8   4   8   10.90    1.80
   7  -4  -8    0.60    0.90
  -7   4   8    1.50    1.10
   6  -4  -8   32.70    2.00
  -6   4   8   31.50    2.60
   5  -4  -8   30.50    2.00
  -5   4   8   29.10    2.10
   4  -4  -8  204.28    5.80
  -4   4   8  208.88    6.20
   3  -4  -8    0.40    0.60
  -3   4   8    1.10    0.70
   2  -4  -8  180.08    4.00
   2  -4  -8  169.58    5.00
  -2   4   8  180.78    5.30
   1  -4  -8  177.68    4.90
   1  -4  -8  173.38    4.10
  -1   4   8  169.68    5.00
   0  -4  -8    2.20    0.70
   0  -4  -8    3.60    0.50
   0   4   8    2.20    0.70
  -1  -4  -8   -0.20    0.30
  -1  -4  -8    0.30    0.50
   1   4   8    0.60    0.50
  -2  -4  -8    7.00    0.70
   2   4   8    6.00    0.80
   3   4   8    4.50    0.70
   4   4   8   23.20    1.20
  -5  -4  -8    0.60    0.40
  -6  -4  -8    0.80    0.40
  -7  -4  -8  131.09    3.60
  -8  -4  -8    0.50    0.60
  -8  -4  -8    2.10    0.60
  -9  -4  -8  264.87    7.10
  -9  -4  -8  258.77    6.50
 -10  -4  -8  116.39    3.50
 -10  -4  -8  113.49    4.00
 -11  -4  -8    3.30    1.00
 -11  -4  -8    3.50    0.80
 -12  -4  -8  270.07    7.20
 -12  -4  -8  281.67    7.80
 -13  -4  -8   52.19    2.80
 -13  -4  -8   54.09    2.50
 -14  -4  -8    5.00    1.10
 -14  -4  -8    3.40    1.10
 -15  -4  -8   27.40    2.10
 -15  -4  -8   29.30    2.50
 -16  -4  -8   12.30    1.60
 -16  -4  -8   12.50    1.80
 -17  -4  -8   13.40    1.90
 -17  -4  -8   13.10    1.90
 -18  -4  -8   86.99    4.00
 -18  -4  -8   77.79    3.90
 -19  -4  -8    1.20    1.30
 -19  -4  -8   -1.20    1.10
 -20  -4  -8    6.60    1.70
 -12   5   8   65.69    4.20
 -11   5   8    6.70    1.80
 -10   5   8   -0.90    1.10
   9  -5  -8    2.20    1.20
  -9   5   8    2.30    1.40
   8  -5  -8    2.80    1.10
  -8   5   8    3.30    1.50
   7  -5  -8    7.40    1.40
  -7   5   8    5.30    1.40
   6  -5  -8   20.30    1.90
  -6   5   8   18.00    2.00
   5  -5  -8  220.08    6.30
  -5   5   8  221.98    6.70
   4  -5  -8  106.19    3.80
  -4   5   8  106.29    4.00
   3  -5  -8    8.70    1.20
  -3   5   8    9.00    1.30
   2  -5  -8   82.69    3.10
  -2   5   8   82.69    3.10
   1  -5  -8    6.80    1.00
   1  -5  -8    9.80    0.60
  -1   5   8    9.70    1.20
   0  -5  -8  162.48    4.00
   0  -5  -8  166.38    4.80
   0   5   8  166.78    4.70
  -1  -5  -8  134.99    3.50
  -1  -5  -8  131.79    4.10
   1   5   8  133.09    3.90
  -2  -5  -8  168.18    4.30
   2   5   8  167.88    4.50
  -3  -5  -8  211.28    5.30
   3   5   8  213.88    5.30
  -4  -5  -8   18.90    1.20
   4   5   8   19.00    1.10
  -5  -5  -8   10.80    0.90
  -5  -5  -8    8.20    0.90
  -6  -5  -8   17.50    1.20
  -6  -5  -8   15.70    1.00
  -7  -5  -8   51.79    2.20
  -7  -5  -8   50.69    1.80
  -8  -5  -8 1078.99   24.00
  -8  -5  -8 1087.49   23.20
  -9  -5  -8  249.97    6.70
  -9  -5  -8  240.58    6.00
 -10  -5  -8   34.10    1.60
 -10  -5  -8   34.60    2.10
 -11  -5  -8    0.20    0.80
 -11  -5  -8    0.90    0.60
 -12  -5  -8  101.49    3.40
 -12  -5  -8   98.29    3.80
 -13  -5  -8   41.70    2.50
 -13  -5  -8   36.30    2.00
 -14  -5  -8    1.20    1.10
 -14  -5  -8    0.80    0.80
 -15  -5  -8   16.30    1.70
 -15  -5  -8   16.00    1.90
 -16  -5  -8   37.30    2.60
 -16  -5  -8   35.20    2.40
 -17  -5  -8  126.99    4.80
 -17  -5  -8  132.39    5.00
 -18  -5  -8   64.49    3.50
 -18  -5  -8   59.79    3.30
 -19  -5  -8    6.40    1.70
 -19  -5  -8    2.50    1.20
 -20  -5  -8    1.10    1.40
 -12   6   8   28.70    3.30
 -11   6   8   11.60    2.30
 -10   6   8   27.10    3.00
   9  -6  -8    9.00    1.70
  -9   6   8    8.70    1.80
   8  -6  -8    2.40    1.20
  -8   6   8    1.90    1.20
   7  -6  -8   40.10    2.50
  -7   6   8   40.10    2.70
   6  -6  -8   24.00    2.10
  -6   6   8   23.80    2.30
   5  -6  -8   29.50    2.10
  -5   6   8   30.70    2.30
   4  -6  -8   31.00    2.00
  -4   6   8   28.10    2.00
   3  -6  -8  201.58    5.90
  -3   6   8  203.28    6.00
   2  -6  -8  147.69    4.60
  -2   6   8  143.69    4.60
   1  -6  -8  101.39    2.60
   1  -6  -8   98.19    3.60
  -1   6   8  106.99    3.50
   0  -6  -8  286.67    7.50
   0  -6  -8  283.27    6.40
   0   6   8  280.77    7.20
  -1  -6  -8  165.48    4.10
  -1  -6  -8  169.08    5.00
   1   6   8  163.38    4.60
  -2  -6  -8    0.90    0.70
  -2  -6  -8    1.30    0.50
   2   6   8   -0.10    0.50
  -3  -6  -8  174.08    4.60
   3   6   8  181.68    4.60
  -4  -6  -8   16.90    1.10
   4   6   8   20.20    1.10
  -5  -6  -8   94.09    3.00
  -6  -6  -8   22.90    1.40
  -6  -6  -8   21.50    1.00
  -7  -6  -8    5.20    0.90
  -7  -6  -8    6.30    0.60
  -8  -6  -8  104.09    2.90
  -8  -6  -8  109.79    3.60
  -9  -6  -8  688.33   16.30
  -9  -6  -8  722.53   15.40
 -10  -6  -8    7.90    1.20
 -10  -6  -8    8.20    0.90
 -11  -6  -8    3.40    0.70
 -11  -6  -8    2.10    0.90
 -12  -6  -8    5.80    0.90
 -12  -6  -8    5.70    1.20
 -13  -6  -8  170.68    5.50
 -13  -6  -8  168.28    4.90
 -14  -6  -8   11.50    1.60
 -14  -6  -8   11.00    1.30
 -15  -6  -8    7.10    1.40
 -15  -6  -8    8.90    1.30
 -16  -6  -8  123.49    4.70
 -16  -6  -8  113.69    4.30
 -17  -6  -8  191.98    6.10
 -17  -6  -8  200.78    6.50
 -18  -6  -8   31.20    2.60
 -18  -6  -8   28.20    2.60
 -19  -6  -8    1.80    1.40
 -19  -6  -8    0.80    1.10
 -20  -6  -8   13.20    2.10
 -20  -6  -8   12.90    2.10
 -11   7   8   14.40    2.50
 -10   7   8   47.30    3.60
   9  -7  -8  190.98    6.50
  -9   7   8  182.18    6.80
   8  -7  -8   58.59    3.40
  -8   7   8   61.39    3.60
   7  -7  -8    1.90    1.10
  -7   7   8    1.70    1.20
   6  -7  -8    3.60    1.20
  -6   7   8    3.50    1.20
   5  -7  -8    0.10    0.80
  -5   7   8    0.40    0.90
   4  -7  -8   40.00    2.40
  -4   7   8   39.80    2.40
   3  -7  -8   56.49    2.70
  -3   7   8   58.49    2.80
   2  -7  -8   20.00    1.80
  -2   7   8   22.70    1.70
   1  -7  -8   34.10    2.00
  -1   7   8   30.70    1.80
   0  -7  -8  182.48    4.40
   0  -7  -8  178.08    5.40
   0   7   8  177.68    5.00
  -1  -7  -8    2.60    0.50
  -1  -7  -8    3.00    0.90
   1   7   8    3.20    0.70
  -2  -7  -8    1.60    0.50
  -2  -7  -8    1.70    0.80
   2   7   8    1.30    0.50
  -3  -7  -8  800.22   17.50
   3   7   8  797.22   17.40
  -4  -7  -8   27.10    1.40
   4   7   8   25.10    1.20
  -5  -7  -8   37.80    1.70
  -6  -7  -8   74.79    2.00
  -6  -7  -8   70.49    2.60
  -7  -7  -8  137.39    3.40
  -7  -7  -8  133.29    4.10
  -8  -7  -8   27.00    1.70
  -8  -7  -8   28.70    1.10
  -9  -7  -8    1.30    0.40
  -9  -7  -8    1.60    0.70
 -10  -7  -8   16.40    1.00
 -10  -7  -8   14.60    1.50
 -11  -7  -8  181.08    4.70
 -11  -7  -8  176.58    5.50
 -12  -7  -8    0.60    0.60
 -12  -7  -8    1.00    0.90
 -13  -7  -8  191.78    5.90
 -13  -7  -8  182.68    5.20
 -14  -7  -8   71.89    2.80
 -14  -7  -8   73.49    3.40
 -15  -7  -8   18.40    1.70
 -15  -7  -8   14.00    1.80
 -16  -7  -8    5.00    1.40
 -16  -7  -8    4.00    1.10
 -17  -7  -8    0.40    1.10
 -17  -7  -8    1.20    1.00
 -18  -7  -8   10.40    1.80
 -19  -7  -8   18.20    2.20
 -20  -7  -8    2.70    1.30
 -11   8   8   13.10    2.40
 -10   8   8   12.90    2.20
   9  -8  -8   89.79    4.30
  -9   8   8   86.29    4.40
   8  -8  -8  132.99    5.20
  -8   8   8  135.39    5.50
   7  -8  -8    3.20    1.30
  -7   8   8    3.80    1.40
   6  -8  -8   12.80    1.80
  -6   8   8   13.00    1.90
   5  -8  -8   31.90    2.60
  -5   8   8   31.10    2.40
   4  -8  -8   41.70    2.50
  -4   8   8   35.70    2.40
   3  -8  -8    7.00    1.40
  -3   8   8    5.70    1.20
   2  -8  -8   40.30    2.40
  -2   8   8   45.00    2.30
   1  -8  -8   80.79    3.30
  -1   8   8   74.89    2.90
   0  -8  -8   93.99    3.60
   0  -8  -8   96.79    2.70
   0   8   8   96.39    3.30
  -1  -8  -8    1.60    0.50
  -1  -8  -8    1.40    0.80
   1   8   8    1.70    0.60
  -2  -8  -8  149.88    4.80
  -2  -8  -8  148.29    4.00
   2   8   8  153.48    4.10
  -3  -8  -8  216.88    6.30
  -3  -8  -8  224.28    5.50
   3   8   8  217.98    5.40
  -4  -8  -8  712.23   15.80
   4   8   8  715.23   15.40
  -5  -8  -8   61.99    2.30
   5   8   8   57.39    1.70
  -6  -8  -8  129.29    3.00
  -6  -8  -8  126.09    3.90
  -7  -8  -8   31.80    1.80
  -7  -8  -8   35.50    1.10
  -8  -8  -8   76.49    2.00
  -8  -8  -8   76.59    2.90
  -9  -8  -8    6.60    1.10
  -9  -8  -8    9.00    0.70
 -10  -8  -8   40.50    2.20
 -10  -8  -8   38.50    1.50
 -11  -8  -8   45.30    1.80
 -11  -8  -8   48.70    2.50
 -12  -8  -8  234.08    6.90
 -12  -8  -8  247.98    6.70
 -13  -8  -8    0.20    1.00
 -14  -8  -8   53.99    2.90
 -15  -8  -8    0.50    1.00
 -16  -8  -8   80.29    3.70
 -17  -8  -8    1.50    1.20
 -18  -8  -8    7.70    1.80
 -19  -8  -8    1.30    1.20
 -20  -8  -8   11.40    1.90
 -10   9   8    0.60    1.40
   9  -9  -8    7.00    1.70
  -9   9   8    4.90    1.60
   8  -9  -8   12.60    2.00
  -8   9   8   10.80    1.90
   7  -9  -8   31.20    2.80
  -7   9   8   26.30    2.70
   6  -9  -8   22.40    2.30
  -6   9   8   16.70    2.10
   5  -9  -8  124.69    4.80
  -5   9   8  138.89    5.00
   4  -9  -8  151.38    5.30
  -4   9   8  160.58    5.40
   3  -9  -8  116.09    4.40
  -3   9   8  116.39    4.30
   2  -9  -8   37.00    2.40
  -2   9   8   39.40    2.20
   1  -9  -8   91.49    3.70
  -1   9   8   90.89    3.30
   0  -9  -8   27.90    2.00
   0   9   8   32.60    1.80
  -1  -9  -8   94.49    2.80
  -1  -9  -8   91.39    3.60
   1   9   8   93.59    3.00
  -2  -9  -8   22.00    1.30
  -2  -9  -8   25.10    2.10
   2   9   8   20.30    1.20
  -3  -9  -8   32.30    1.50
  -3  -9  -8   31.70    2.10
   3   9   8   31.60    1.40
  -4  -9  -8  759.92   16.90
   4   9   8  761.32   16.60
  -5  -9  -8  301.27    7.50
  -6  -9  -8    0.80    0.60
  -7  -9  -8    3.90    0.80
  -8  -9  -8   24.20    1.60
  -9  -9  -8   42.00    2.20
 -10  -9  -8    0.10    0.70
 -11  -9  -8   17.10    1.70
 -12  -9  -8  143.79    4.80
 -13  -9  -8  143.59    5.00
 -14  -9  -8  151.98    5.20
 -15  -9  -8    7.00    1.50
 -16  -9  -8   28.10    2.60
 -17  -9  -8    3.50    1.40
 -18  -9  -8    0.50    1.10
 -19  -9  -8   -0.20    1.20
 -20  -9  -8   26.50    2.60
   9 -10  -8    2.40    1.50
  -9  10   8    3.70    1.60
   8 -10  -8    0.70    1.20
  -8  10   8    0.90    1.20
   7 -10  -8    3.80    1.50
  -7  10   8    5.20    1.60
   6 -10  -8   15.50    2.10
  -6  10   8   16.30    2.10
   5 -10  -8  221.48    7.10
  -5  10   8  227.68    7.10
   4 -10  -8   17.90    2.00
  -4  10   8   12.50    1.70
   3 -10  -8    5.80    1.40
  -3  10   8    5.10    1.20
   2 -10  -8  160.08    5.50
  -2  10   8  166.78    5.20
   1 -10  -8   30.70    2.20
  -1  10   8   29.90    1.90
   0 -10  -8   12.00    1.60
   0  10   8   10.40    1.20
  -1 -10  -8    5.50    0.80
  -1 -10  -8    5.60    1.20
   1  10   8    6.70    1.00
  -2 -10  -8   13.10    1.10
  -2 -10  -8   13.30    1.60
  -3 -10  -8   36.50    2.30
  -3 -10  -8   34.10    1.60
  -4 -10  -8  130.49    3.80
  -5 -10  -8   85.99    2.90
  -6 -10  -8   63.49    2.50
  -7 -10  -8   51.59    2.30
  -8 -10  -8   95.69    3.40
  -9 -10  -8    2.20    0.80
 -10 -10  -8   16.20    1.60
 -11 -10  -8   59.49    2.80
 -12 -10  -8    1.10    0.90
 -13 -10  -8   25.00    2.20
 -14 -10  -8   44.00    2.60
 -15 -10  -8    3.50    1.20
 -16 -10  -8   70.49    3.50
 -17 -10  -8   65.09    3.40
 -18 -10  -8    6.60    1.60
 -19 -10  -8    8.40    1.70
 -20 -10  -8   -0.20    1.20
   9 -11  -8   11.60    2.10
  -9  11   8   11.40    2.20
   8 -11  -8    5.00    1.70
  -8  11   8    2.80    1.50
   7 -11  -8    6.00    1.70
  -7  11   8    7.60    1.70
   6 -11  -8    6.40    1.60
  -6  11   8    8.90    1.70
   5 -11  -8   77.99    3.90
  -5  11   8   76.49    3.80
   4 -11  -8  223.68    7.00
  -4  11   8  196.18    6.50
   3 -11  -8    9.00    1.60
  -3  11   8    6.10    1.30
   2 -11  -8   10.90    1.70
   1 -11  -8  129.79    4.80
   0 -11  -8  113.99    4.40
  -1 -11  -8   10.10    1.50
  -1 -11  -8    8.60    1.10
  -2 -11  -8    7.30    1.30
  -2 -11  -8    6.00    0.90
  -3 -11  -8    1.10    1.00
  -3 -11  -8    0.80    0.60
  -4 -11  -8  453.75   11.50
  -4 -11  -8  445.36   10.60
  -5 -11  -8   20.80    1.50
  -6 -11  -8    0.70    0.70
  -7 -11  -8  350.46    8.80
  -8 -11  -8  153.08    4.80
  -9 -11  -8  151.68    4.80
 -10 -11  -8    3.50    1.00
 -11 -11  -8   30.30    2.10
 -12 -11  -8    3.30    1.10
 -13 -11  -8   16.80    1.90
 -14 -11  -8    0.40    1.00
 -15 -11  -8    0.70    1.20
 -16 -11  -8   36.50    2.60
 -17 -11  -8    2.10    1.30
 -18 -11  -8   42.70    3.10
 -19 -11  -8   -0.50    1.20
 -20 -11  -8   19.60    2.40
   8 -12  -8   35.60    3.40
   7 -12  -8    6.10    1.70
   6 -12  -8    1.70    1.40
   5 -12  -8   43.70    3.10
   4 -12  -8   13.20    2.00
   3 -12  -8   62.49    3.40
   2 -12  -8   10.60    1.70
   1 -12  -8   63.69    3.30
   0 -12  -8  588.44   14.70
  -1 -12  -8  234.98    7.20
  -2 -12  -8    4.70    1.20
  -2 -12  -8    3.10    0.80
  -3 -12  -8    0.60    0.90
  -3 -12  -8    0.90    0.70
  -4 -12  -8    1.90    1.00
  -4 -12  -8    1.70    0.80
  -5 -12  -8   77.79    2.90
  -5 -12  -8   73.69    3.40
  -6 -12  -8    9.00    1.20
  -7 -12  -8    0.60    0.80
  -8 -12  -8  552.44   13.20
  -9 -12  -8  492.75   12.00
 -10 -12  -8   19.60    1.80
 -11 -12  -8   13.80    1.60
 -12 -12  -8   60.49    3.00
 -13 -12  -8   -0.20    0.90
 -14 -12  -8   16.30    1.90
 -15 -12  -8   12.60    1.80
 -16 -12  -8   74.79    3.70
 -17 -12  -8   45.90    3.00
 -18 -12  -8   20.20    2.40
 -19 -12  -8    6.40    1.70
 -20 -12  -8   26.70    2.80
   7 -13  -8    1.00    1.60
   6 -13  -8   12.40    2.10
   5 -13  -8    0.00    1.20
   4 -13  -8    0.20    1.20
   3 -13  -8    1.50    1.20
   2 -13  -8    0.00    1.10
   1 -13  -8   29.50    2.70
   0 -13  -8    0.10    1.10
  -1 -13  -8  199.98    6.50
  -2 -13  -8  124.19    4.30
  -2 -13  -8  121.69    4.70
  -3 -13  -8   52.69    3.00
  -3 -13  -8   52.69    2.40
  -4 -13  -8    9.90    1.60
  -4 -13  -8    6.70    1.10
  -5 -13  -8   29.20    2.50
  -5 -13  -8   32.40    2.00
  -6 -13  -8   80.79    3.10
  -7 -13  -8   39.40    2.20
  -8 -13  -8  155.68    4.90
  -9 -13  -8   10.40    1.50
 -10 -13  -8   -0.20    0.80
 -11 -13  -8   24.90    2.10
 -12 -13  -8    4.60    1.20
 -13 -13  -8  189.08    6.10
 -14 -13  -8    6.40    1.50
 -15 -13  -8  127.09    5.00
 -16 -13  -8    5.90    1.60
 -17 -13  -8   -0.80    1.10
 -18 -13  -8   -0.80    1.30
 -19 -13  -8    7.50    1.90
 -20 -13  -8   -0.50    1.30
   6 -14  -8   20.70    2.60
   5 -14  -8  124.09    5.40
   4 -14  -8   10.20    1.90
   3 -14  -8   -0.90    1.10
   2 -14  -8   -0.40    1.10
   1 -14  -8    5.50    1.50
   0 -14  -8   40.90    3.00
  -1 -14  -8    0.80    1.30
  -2 -14  -8   35.40    2.60
  -3 -14  -8  171.38    5.00
  -3 -14  -8  170.18    5.90
  -4 -14  -8   66.89    3.50
  -4 -14  -8   62.29    2.70
  -5 -14  -8    1.20    1.10
  -5 -14  -8   -0.30    0.70
  -6 -14  -8   45.60    2.80
  -6 -14  -8   43.30    2.40
  -7 -14  -8  123.29    4.20
  -8 -14  -8   27.40    2.00
  -9 -14  -8    1.10    0.90
 -10 -14  -8    1.20    1.00
 -11 -14  -8  101.69    4.00
 -12 -14  -8   12.90    1.70
 -13 -14  -8   -0.20    1.20
 -14 -14  -8    1.40    1.10
 -15 -14  -8   14.30    2.00
 -16 -14  -8   25.20    2.60
 -17 -14  -8   14.40    2.20
 -18 -14  -8   11.00    2.00
 -19 -14  -8    0.20    1.40
   5 -15  -8   67.19    4.10
   4 -15  -8  170.28    6.50
   3 -15  -8    5.30    1.60
   2 -15  -8   24.00    2.60
   1 -15  -8   73.59    3.90
   0 -15  -8   57.19    3.40
  -1 -15  -8   21.70    2.40
  -2 -15  -8    1.40    1.20
  -3 -15  -8  100.59    4.40
  -4 -15  -8  644.54   16.20
  -4 -15  -8  656.33   15.20
  -5 -15  -8   66.79    3.50
  -5 -15  -8   72.89    3.00
  -6 -15  -8    6.10    1.50
  -6 -15  -8    7.90    1.40
  -7 -15  -8    9.90    1.80
  -7 -15  -8   13.00    1.60
  -8 -15  -8   23.70    2.10
  -9 -15  -8    8.00    1.40
 -10 -15  -8   48.50    2.70
 -11 -15  -8    0.10    1.00
 -12 -15  -8  107.19    4.30
 -13 -15  -8  166.18    5.70
 -14 -15  -8    4.40    1.40
 -15 -15  -8   28.50    2.60
 -16 -15  -8   29.30    2.70
 -17 -15  -8    4.40    1.50
 -18 -15  -8    0.60    1.40
 -19 -15  -8    4.20    1.70
   3 -16  -8    9.80    2.00
   2 -16  -8    6.20    1.80
   1 -16  -8    4.70    1.60
   0 -16  -8   65.79    3.80
  -1 -16  -8   20.40    2.40
  -2 -16  -8   -0.10    1.10
  -3 -16  -8    4.00    1.60
  -4 -16  -8   10.20    1.90
  -4 -16  -8   10.60    1.50
  -5 -16  -8   80.39    3.40
  -5 -16  -8   76.09    3.90
  -6 -16  -8   -0.10    1.00
  -6 -16  -8    1.40    1.20
  -7 -16  -8   17.40    2.20
  -7 -16  -8   20.80    1.90
  -8 -16  -8   51.09    2.80
  -9 -16  -8   14.80    1.80
 -10 -16  -8   -0.30    1.00
 -11 -16  -8    0.90    1.10
 -12 -16  -8   13.20    1.90
 -13 -16  -8   -0.60    1.20
 -14 -16  -8   61.09    3.40
 -15 -16  -8    6.10    1.60
 -16 -16  -8    1.30    1.30
 -17 -16  -8   30.30    2.90
 -18 -16  -8    2.70    1.70
   2 -17  -8    5.10    1.70
   1 -17  -8   72.09    4.10
   0 -17  -8   33.20    3.20
  -1 -17  -8    5.70    1.70
  -2 -17  -8   19.80    2.40
  -3 -17  -8    0.90    1.30
  -4 -17  -8   71.19    3.80
  -5 -17  -8   37.50    3.10
  -5 -17  -8   33.90    2.30
  -6 -17  -8    5.60    1.70
  -6 -17  -8    6.10    1.30
  -7 -17  -8    0.20    1.30
  -7 -17  -8    0.10    1.00
  -8 -17  -8   52.59    2.90
  -8 -17  -8   47.00    3.10
  -9 -17  -8   10.10    1.70
 -10 -17  -8    9.30    1.70
 -11 -17  -8   31.50    2.70
 -12 -17  -8    0.10    1.20
 -13 -17  -8    2.50    1.40
 -14 -17  -8   -0.60    1.20
 -15 -17  -8    6.80    1.80
 -16 -17  -8    6.50    1.90
 -17 -17  -8   23.50    2.60
 -18 -17  -8   -0.70    1.40
   0 -18  -8  145.09    5.90
  -1 -18  -8    8.40    1.90
  -2 -18  -8   -1.00    1.30
  -3 -18  -8   88.99    4.40
  -4 -18  -8  101.79    4.70
  -5 -18  -8   33.70    2.40
  -5 -18  -8   31.00    3.00
  -6 -18  -8    4.40    1.60
  -6 -18  -8    7.90    1.50
  -7 -18  -8    0.60    1.40
  -7 -18  -8   -0.40    1.10
  -8 -18  -8  211.48    7.10
  -8 -18  -8  214.08    6.70
  -9 -18  -8   50.99    3.40
  -9 -18  -8   55.39    3.10
 -10 -18  -8    0.40    1.20
 -11 -18  -8   55.19    3.20
 -12 -18  -8   92.49    4.20
 -13 -18  -8    2.00    1.40
 -14 -18  -8   11.10    2.00
 -15 -18  -8   12.80    2.10
 -16 -18  -8    8.20    1.80
 -17 -18  -8    2.40    1.50
  -1 -19  -8   26.40    2.90
  -2 -19  -8   18.40    2.50
  -3 -19  -8    8.40    2.00
  -4 -19  -8  115.29    5.20
  -5 -19  -8   93.09    4.60
  -6 -19  -8   -0.50    1.40
  -6 -19  -8    2.80    1.20
  -7 -19  -8   11.70    1.70
  -7 -19  -8    7.20    1.80
  -8 -19  -8    2.40    1.20
  -8 -19  -8    0.80    1.30
  -9 -19  -8   19.70    2.30
  -9 -19  -8   23.20    2.60
 -10 -19  -8   -0.50    1.10
 -10 -19  -8    2.10    1.40
 -11 -19  -8    0.40    1.30
 -12 -19  -8   45.10    3.10
 -13 -19  -8  105.39    4.80
 -14 -19  -8    0.20    1.60
 -15 -19  -8   18.10    2.50
  -4 -20  -8    5.10    1.70
  -5 -20  -8   54.09    3.80
  -6 -20  -8   -1.30    1.30
  -7 -20  -8   37.20    3.20
  -7 -20  -8   41.00    2.70
  -8 -20  -8   64.99    3.90
  -8 -20  -8   72.09    3.60
  -9 -20  -8   12.50    2.00
  -9 -20  -8   10.50    2.00
 -10 -20  -8   11.70    1.90
 -10 -20  -8    7.80    1.90
 -11 -20  -8    0.50    1.30
 -11 -20  -8   -0.70    1.30
 -12 -20  -8    8.40    1.80
 -13 -20  -8    2.30    1.50
  -5 -17   9    1.00    1.50
  -4 -17   9   -0.40    1.60
  -3 -17   9    2.00    1.60
  -2 -17   9    2.40    1.80
  -1 -17   9   33.70    3.50
  -8 -16   9   27.90    3.10
  -7 -16   9   10.90    2.20
  -6 -16   9   -0.30    1.30
  -5 -16   9   16.80    2.50
  -4 -16   9    4.50    1.70
  -3 -16   9   14.90    2.40
  -2 -16   9    4.00    1.70
  -1 -16   9   14.70    2.40
   0 -16   9    4.90    1.90
  -1  16  -9   -0.30    1.50
   1 -16   9   -2.00    1.40
  -2  16  -9    8.30    2.00
   2 -16   9   10.60    2.30
  -3  16  -9    9.40    2.10
 -10 -15   9    3.40    1.50
  -9 -15   9   -1.70    1.10
  -8 -15   9    0.40    1.40
  -7 -15   9   15.00    2.20
  -6 -15   9    0.60    1.30
  -5 -15   9    3.50    1.50
   4  15  -9   19.30    2.40
  -4 -15   9   19.90    2.70
   3  15  -9   22.30    2.50
  -3 -15   9   23.30    2.80
   2  15  -9   -0.20    1.30
  -2 -15   9    2.00    1.60
   1  15  -9    3.80    1.50
  -1 -15   9    0.20    1.40
   0  15  -9    8.50    1.70
   0 -15   9   10.30    2.10
  -1  15  -9    3.30    1.50
   1 -15   9    1.80    1.70
  -2  15  -9   14.00    2.10
   2 -15   9   15.90    2.50
  -3  15  -9   11.60    2.10
  -4  15  -9   46.90    3.50
  -5  15  -9  132.79    5.70
 -11 -14   9   14.00    2.20
 -10 -14   9    5.50    1.60
  -9 -14   9    1.40    1.40
  -9 -14   9    0.80    1.40
  -8 -14   9    1.30    1.40
  -8 -14   9   -1.10    1.10
  -7 -14   9   -0.80    1.20
  -7 -14   9    1.80    1.40
  -6 -14   9    3.40    1.50
  -6 -14   9    5.70    1.70
  -5 -14   9    0.50    1.30
  -5 -14   9    1.80    1.30
   4  14  -9   58.39    3.50
  -4 -14   9   54.49    3.60
   3  14  -9   51.79    3.30
  -3 -14   9   49.30    3.40
   2  14  -9   19.00    2.30
  -2 -14   9   21.10    2.60
   1  14  -9    6.20    1.50
  -1 -14   9    5.00    1.60
   0  14  -9    6.60    1.60
   0 -14   9    8.10    1.90
  -1  14  -9   13.00    2.00
   1 -14   9   17.10    2.50
  -2  14  -9    6.20    1.60
   2 -14   9    4.90    1.80
  -3  14  -9    4.30    1.60
  -4  14  -9    3.20    1.40
  -5  14  -9   37.30    3.20
  -6  14  -9   20.20    2.50
  -7  14  -9    2.40    1.50
 -12 -13   9    4.20    1.90
 -11 -13   9    0.60    1.30
 -11 -13   9    5.70    1.60
 -10 -13   9    3.40    1.60
 -10 -13   9    2.00    1.30
  -9 -13   9   77.39    4.10
  -9 -13   9   69.89    4.10
  -8 -13   9  114.99    4.90
  -8 -13   9  107.69    5.00
  -7 -13   9    2.90    1.50
  -7 -13   9    4.70    1.60
  -6 -13   9    3.30    1.40
  -6 -13   9    1.30    1.40
  -5 -13   9   10.20    1.90
  -5 -13   9    9.70    1.80
  -4 -13   9    8.10    1.70
  -4 -13   9    5.00    1.50
   3  13  -9   15.60    2.00
  -3 -13   9   11.60    1.90
   2  13  -9    4.50    1.50
  -2 -13   9    4.30    1.50
   1  13  -9    0.80    1.20
  -1 -13   9    1.70    1.30
   0  13  -9    2.80    1.30
   0 -13   9    3.70    1.40
  -1  13  -9   18.60    2.20
   1 -13   9   20.40    2.50
  -2  13  -9   18.60    2.30
   2 -13   9   17.40    2.40
  -3  13  -9   15.10    2.10
  -4  13  -9   39.20    3.20
  -5  13  -9    6.70    1.60
  -6  13  -9    9.10    1.80
  -7  13  -9    1.40    1.30
  -8  13  -9   33.80    3.10
 -12 -12   9   -0.40    1.30
 -11 -12   9    3.30    1.50
 -10 -12   9    1.80    1.20
 -10 -12   9    4.40    1.70
  -9 -12   9   18.00    2.20
  -9 -12   9   14.30    2.10
  -8 -12   9  161.08    5.90
  -8 -12   9  152.38    5.90
  -7 -12   9   53.29    3.50
  -7 -12   9   59.19    3.50
  -6 -12   9   15.50    2.20
  -6 -12   9   17.70    2.20
  -5 -12   9   -1.40    1.10
  -5 -12   9    0.20    1.00
  -4 -12   9   27.50    2.60
  -4 -12   9   26.70    2.60
  -3 -12   9   11.00    1.80
   2  12  -9    0.10    1.20
  -2 -12   9    1.40    1.20
   1  12  -9   49.40    3.00
  -1 -12   9   45.30    3.10
   0  12  -9   47.60    3.00
   0 -12   9   48.20    3.20
  -1  12  -9    0.30    1.20
   1 -12   9    4.10    1.40
  -2  12  -9    2.00    1.30
   2 -12   9    0.80    1.20
  -3  12  -9   39.10    3.00
  -4  12  -9  107.79    4.60
  -5  12  -9   11.90    1.90
  -6  12  -9    1.20    1.40
  -7  12  -9   -1.80    1.20
  -8  12  -9   21.20    2.60
  -9  12  -9    5.30    1.80
 -10  12  -9   12.10    2.20
 -13 -11   9   -1.50    1.30
 -12 -11   9   -0.30    1.30
 -11 -11   9    3.60    1.60
 -10 -11   9    1.90    1.50
 -10 -11   9    2.70    1.20
  -9 -11   9   22.30    2.30
  -9 -11   9   22.50    2.60
  -8 -11   9   17.40    2.40
  -8 -11   9   15.70    2.00
  -7 -11   9   30.00    2.80
  -7 -11   9   33.20    2.50
  -6 -11   9   37.90    2.80
  -6 -11   9   36.80    3.10
  -5 -11   9   29.10    2.60
  -5 -11   9   28.20    2.60
  -4 -11   9   22.40    2.40
  -4 -11   9   25.10    2.40
  -3 -11   9    1.10    1.10
  -3 -11   9    2.10    1.30
  -2 -11   9   18.90    2.20
   1  11  -9    1.20    1.20
  -1 -11   9   -0.30    1.00
   0  11  -9  152.08    5.50
   0 -11   9  150.78    5.70
  -1  11  -9   43.40    2.80
   1 -11   9   42.60    2.90
  -2  11  -9   28.40    2.50
   2 -11   9   36.20    2.70
  -3  11  -9   15.00    1.90
  -4  11  -9    1.60    1.30
  -5  11  -9  175.78    6.20
  -6  11  -9   41.20    3.00
  -7  11  -9    0.70    1.20
  -8  11  -9    0.00    1.30
  -9  11  -9   38.50    3.30
 -10  11  -9    2.30    1.50
 -11  11  -9   -1.10    1.40
 -13 -10   9    4.50    1.90
 -12 -10   9    0.80    1.50
 -11 -10   9   -0.20    1.40
 -10 -10   9    4.10    1.60
  -9 -10   9    1.50    1.40
  -9 -10   9    1.80    1.20
  -8 -10   9    3.20    1.40
  -8 -10   9    2.40    1.20
  -7 -10   9   -1.60    1.00
  -7 -10   9   -0.30    1.10
  -6 -10   9    8.00    1.60
  -6 -10   9    7.30    1.50
  -5 -10   9   38.40    2.60
  -5 -10   9   41.60    2.90
  -4 -10   9   95.09    4.10
  -4 -10   9   93.69    4.10
  -3 -10   9   40.70    2.80
  -3 -10   9   40.40    2.80
  -2 -10   9   34.40    2.50
  -2 -10   9   29.60    2.60
   1  10  -9  117.99    4.60
  -1 -10   9  109.59    4.50
   0  10  -9   45.20    2.90
   0 -10   9   41.00    2.80
  -1  10  -9   20.50    2.10
   1 -10   9   19.60    2.20
  -2  10  -9   18.80    2.10
   2 -10   9   20.40    2.30
  -3  10  -9   45.30    2.80
  -4  10  -9   56.99    3.20
  -5  10  -9   22.30    2.30
  -6  10  -9   82.99    3.90
  -7  10  -9    7.90    1.60
  -8  10  -9   65.29    3.80
  -9  10  -9    1.10    1.40
 -10  10  -9    0.30    1.40
 -11  10  -9    1.40    1.40
 -12  10  -9   23.80    2.90
 -14  -9   9   21.50    3.00
 -13  -9   9    0.00    1.60
 -12  -9   9   81.79    4.70
 -11  -9   9   28.10    2.90
 -10  -9   9    6.60    1.70
  -9  -9   9   46.70    3.40
  -9  -9   9   49.70    2.80
  -8  -9   9   10.10    1.60
  -8  -9   9    8.70    1.70
  -7  -9   9   32.70    2.80
  -7  -9   9   30.10    2.50
  -6  -9   9   88.29    4.10
  -5  -9   9   63.29    3.20
  -5  -9   9   58.09    3.30
  -4  -9   9  510.85   12.90
  -4  -9   9  506.55   13.20
  -3  -9   9   70.19    3.30
  -3  -9   9   62.69    3.30
  -2  -9   9    2.90    1.20
  -2  -9   9    2.20    1.10
  -1  -9   9    6.80    1.40
  -1  -9   9    6.30    1.30
   0   9  -9   32.00    2.40
   0  -9   9   38.40    2.50
  -1   9  -9  135.39    4.90
   1  -9   9  129.89    5.00
  -2   9  -9    0.50    1.00
   2  -9   9    0.70    1.00
  -3   9  -9    1.20    1.00
  -4   9  -9    2.50    1.10
  -5   9  -9   64.79    3.30
  -6   9  -9  124.19    4.80
  -7   9  -9   11.60    1.90
  -8   9  -9  218.88    7.20
  -9   9  -9   47.60    3.10
 -10   9  -9    0.30    1.20
 -11   9  -9    2.50    1.40
 -12   9  -9    9.90    2.10
 -13   9  -9    2.90    1.60
 -14  -8   9   21.50    2.90
 -13  -8   9   31.70    3.30
 -12  -8   9   28.00    3.10
 -11  -8   9  103.89    5.10
 -10  -8   9    6.50    1.70
  -9  -8   9   45.80    3.30
  -8  -8   9    3.70    1.00
  -8  -8   9    5.10    1.60
  -7  -8   9   13.60    2.00
  -7  -8   9   14.20    1.60
  -6  -8   9    5.90    1.40
  -6  -8   9   10.70    1.50
  -5  -8   9    0.30    1.10
  -5  -8   9    0.50    0.80
  -4  -8   9  145.99    5.40
  -4  -8   9  155.58    5.20
  -3  -8   9  574.24   14.30
  -3  -8   9  557.14   13.90
  -2  -8   9   20.50    2.00
  -2  -8   9   19.90    2.00
  -1  -8   9    2.20    1.00
  -1  -8   9    3.30    1.20
   0  -8   9  201.08    6.40
  -1   8  -9   48.70    2.80
   1  -8   9   51.39    2.80
  -2   8  -9   88.69    3.80
  -3   8  -9    6.80    1.40
  -4   8  -9  112.79    4.40
  -5   8  -9    4.00    1.20
  -6   8  -9   12.80    1.80
  -7   8  -9   61.49    3.30
  -8   8  -9  108.59    4.60
  -9   8  -9  118.49    4.90
 -10   8  -9   85.29    4.10
 -11   8  -9    0.00    1.20
 -12   8  -9   20.40    2.50
 -13   8  -9    7.00    1.80
 -14   8  -9    2.20    1.70
 -14  -7   9    7.40    2.20
 -13  -7   9    3.20    1.80
 -12  -7   9    5.60    1.90
 -11  -7   9   -0.10    1.40
 -10  -7   9   13.10    2.10
  -9  -7   9   40.10    3.00
  -8  -7   9    7.30    1.70
  -8  -7   9    6.40    1.20
  -7  -7   9    2.70    1.00
  -7  -7   9    5.20    1.40
  -6  -7   9   26.70    2.50
  -6  -7   9   24.50    1.80
  -5  -7   9   18.80    1.80
  -5  -7   9   18.00    2.10
  -4  -7   9    7.70    1.30
  -4  -7   9    7.70    1.40
  -3  -7   9   69.89    3.10
  -3  -7   9   76.19    3.50
  -2  -7   9    3.00    1.20
  -2  -7   9    3.30    1.10
  -1  -7   9   48.50    2.70
  -1  -7   9   55.29    2.80
   0  -7   9    0.00    0.90
   0  -7   9    1.40    0.90
  -1   7  -9   93.79    3.80
   1  -7   9   95.99    3.80
  -2   7  -9   38.90    2.40
  -3   7  -9  365.26    9.80
  -4   7  -9    1.10    1.00
  -5   7  -9   61.09    3.00
  -6   7  -9   70.69    3.30
  -7   7  -9    0.70    1.00
  -8   7  -9   -1.30    0.90
  -9   7  -9  136.89    5.20
 -10   7  -9    5.10    1.40
 -11   7  -9   21.40    2.30
 -12   7  -9    6.40    1.70
 -13   7  -9   37.60    3.20
 -14   7  -9    5.80    1.70
 -15   7  -9    0.30    1.40
 -14  -6   9    2.50    1.80
 -13  -6   9   11.50    2.20
 -12  -6   9   -0.70    1.40
 -11  -6   9   10.40    2.20
 -10  -6   9   30.30    3.00
  -9  -6   9    8.60    1.80
  -8  -6   9   -0.30    1.00
  -7  -6   9    0.80    1.00
  -7  -6   9    2.30    0.90
  -6  -6   9    1.20    1.00
  -6  -6   9    1.00    0.70
  -5  -6   9  238.08    7.40
  -5  -6   9  256.97    6.90
  -4  -6   9  362.06    9.30
  -4  -6   9  356.66    9.80
  -3  -6   9    0.80    0.90
  -3  -6   9    2.20    0.90
  -2  -6   9   22.60    1.90
  -2  -6   9   22.90    2.10
  -1  -6   9    8.80    1.30
  -1  -6   9    9.10    1.40
   0  -6   9  177.48    5.50
   0  -6   9  166.98    5.50
   1  -6   9    4.00    1.10
   1  -6   9    2.60    1.00
  -2   6  -9    0.70    0.80
  -3   6  -9   44.40    2.50
  -4   6  -9  133.69    4.70
  -5   6  -9   22.80    2.00
  -6   6  -9   28.00    2.10
  -7   6  -9    6.20    1.30
  -8   6  -9   34.00    2.40
  -9   6  -9    0.70    1.00
 -10   6  -9    9.70    1.70
 -11   6  -9    0.10    1.10
 -12   6  -9  200.58    6.80
 -13   6  -9    1.90    1.40
 -14   6  -9   21.60    2.60
 -15   6  -9    6.70    1.80
 -14  -5   9   21.30    2.90
 -13  -5   9    2.00    1.60
 -12  -5   9   92.49    4.80
 -11  -5   9    1.40    1.40
 -10  -5   9   21.40    2.60
  -9  -5   9   29.40    2.80
  -8  -5   9   11.00    1.80
  -7  -5   9   29.60    2.60
  -7  -5   9   31.10    2.10
  -6  -5   9   10.50    1.60
  -6  -5   9    7.80    1.10
  -5  -5   9   14.00    1.40
  -5  -5   9   14.30    1.90
  -4  -5   9  780.02   18.50
  -4  -5   9  778.32   17.80
  -3  -5   9  231.38    6.30
  -3  -5   9  218.38    6.70
  -2  -5   9    8.80    1.20
  -2  -5   9    8.60    1.40
  -1  -5   9    0.20    0.80
  -1  -5   9   -0.20    0.70
   0  -5   9  346.37    9.20
   0  -5   9  343.27    8.90
   1  -5   9  108.79    4.00
  -2   5  -9   26.00    1.90
  -3   5  -9   24.00    2.00
  -4   5  -9  137.29    4.70
  -5   5  -9  520.85   12.80
  -6   5  -9   30.60    2.10
  -7   5  -9  117.99    4.30
  -8   5  -9   50.79    2.80
  -9   5  -9    1.10    0.90
 -10   5  -9    0.10    0.90
 -11   5  -9    5.30    1.40
 -12   5  -9   27.80    2.60
 -13   5  -9  299.47    9.00
 -14   5  -9   55.79    3.50
 -15   5  -9    2.10    1.50
 -16   5  -9    4.70    1.80
 -14  -4   9   -0.10    1.70
 -13  -4   9   19.90    2.80
 -12  -4   9   -1.10    1.30
 -11  -4   9    1.80    1.50
 -10  -4   9    2.70    1.40
  -9  -4   9    0.70    1.20
  -8  -4   9   64.69    3.50
  -7  -4   9   34.10    2.50
  -6  -4   9    1.50    1.00
  -6  -4   9    1.80    0.70
  -5  -4   9  194.48    5.40
  -5  -4   9  192.58    6.20
  -4  -4   9  101.89    3.40
  -4  -4   9   99.39    4.00
  -3  -4   9  423.56   10.20
  -3  -4   9  406.46   10.70
  -2  -4   9    1.50    0.80
  -2  -4   9    2.00    0.70
  -1  -4   9  109.59    3.70
  -1  -4   9  104.99    4.00
   0  -4   9   62.39    2.90
   1  -4   9   38.30    2.20
   2  -4   9    1.20    0.80
  -3   4  -9   79.09    3.30
  -4   4  -9   36.60    2.30
  -5   4  -9  109.99    4.00
  -6   4  -9  231.78    6.70
  -7   4  -9    3.70    1.00
  -8   4  -9   10.70    1.50
  -9   4  -9   39.60    2.40
 -10   4  -9    1.00    0.90
 -11   4  -9    7.70    1.50
 -12   4  -9   16.50    2.00
 -13   4  -9   76.39    3.80
 -14   4  -9   69.29    3.80
 -15   4  -9   -0.60    1.10
 -16   4  -9   14.10    2.20
 -17   4  -9   27.70    3.00
 -14  -3   9   -0.60    1.60
 -13  -3   9   22.50    3.00
 -12  -3   9   94.59    4.90
 -11  -3   9   21.70    2.70
 -10  -3   9    0.30    1.20
  -9  -3   9    1.00    1.20
  -8  -3   9    7.70    1.60
  -7  -3   9   18.30    2.10
  -6  -3   9   26.70    2.40
  -5  -3   9    3.50    1.10
  -5  -3   9    4.70    0.90
  -4  -3   9  143.99    5.10
  -4  -3   9  161.88    4.50
   3   3  -9    7.40    0.60
  -3  -3   9    8.10    1.40
  -3  -3   9    6.60    1.00
   2   3  -9   44.20    1.40
  -2  -3   9   44.10    2.40
  -2  -3   9   46.60    2.10
   1   3  -9   35.50    1.20
  -1  -3   9   36.90    2.20
   0   3  -9  242.38    5.30
   0  -3   9  220.68    6.60
   1  -3   9    0.60    0.80
   2  -3   9   13.70    1.50
  -3   3  -9  223.18    6.40
  -4   3  -9   90.39    3.50
  -5   3  -9   89.09    3.50
  -6   3  -9    1.70    0.80
  -7   3  -9  146.89    4.80
  -8   3  -9    4.10    1.10
  -9   3  -9    4.30    1.10
 -10   3  -9   19.20    1.90
 -11   3  -9    2.30    1.10
 -12   3  -9   24.70    2.30
 -13   3  -9   50.09    3.10
 -14   3  -9    4.30    1.60
 -15   3  -9    1.30    1.30
 -16   3  -9    1.80    1.40
 -17   3  -9   -0.20    1.30
 -14  -2   9   44.50    4.20
 -13  -2   9    1.00    1.50
 -12  -2   9  130.59    5.80
 -11  -2   9   25.10    2.80
 -10  -2   9   14.40    2.20
  -9  -2   9   14.70    2.10
  -8  -2   9  124.49    5.00
  -7  -2   9   65.99    3.50
  -6  -2   9  113.59    4.40
   5   2  -9  166.78    4.40
  -5  -2   9  169.18    5.60
  -5  -2   9  159.18    4.50
   4   2  -9    0.10    0.40
  -4  -2   9    0.70    0.50
  -4  -2   9    1.50    0.90
   3   2  -9  181.48    4.50
  -3  -2   9  186.68    5.80
   2   2  -9    4.60    0.60
  -2  -2   9    4.30    1.00
   1   2  -9  173.18    4.10
  -1  -2   9  163.08    5.20
   0   2  -9 1512.95   31.10
   0  -2   9 1438.26   32.30
   1  -2   9  302.57    8.00
   2  -2   9   17.70    1.60
   3  -2   9   21.60    1.70
  -4   2  -9   59.29    2.60
  -5   2  -9    2.10    0.80
  -6   2  -9   56.89    2.60
  -7   2  -9    8.10    1.20
  -8   2  -9  207.78    6.10
  -9   2  -9  219.28    6.40
 -10   2  -9   83.59    3.50
 -11   2  -9    6.60    1.30
 -12   2  -9  259.17    7.60
 -13   2  -9   13.90    1.90
 -14   2  -9   -0.70    1.10
 -15   2  -9   63.79    3.50
 -16   2  -9   32.90    3.00
 -17   2  -9   42.00    3.50
 -18   2  -9    6.50    1.80
 -14  -1   9    1.40    1.60
 -13  -1   9   16.80    2.60
 -12  -1   9    6.60    1.90
 -11  -1   9    0.40    1.40
 -10  -1   9    1.50    1.30
  -9  -1   9   -0.10    1.00
  -8  -1   9   10.70    1.90
  -7  -1   9  159.88    5.70
   6   1  -9    0.80    0.60
  -6  -1   9    0.60    0.90
   5   1  -9   20.00    1.30
  -5  -1   9   18.90    1.90
   4   1  -9  380.76    8.80
  -4  -1   9  371.66    9.90
   3   1  -9  103.39    3.00
  -3  -1   9  104.09    3.90
   2   1  -9    5.00    0.60
  -2  -1   9    3.60    1.00
   1   1  -9    2.00    0.50
  -1  -1   9    2.00    0.80
   0   1  -9    3.70    0.60
   0  -1   9    2.00    0.80
   1  -1   9  671.33   15.60
   2  -1   9  226.78    6.30
   3  -1   9  112.39    3.80
  -4   1  -9  198.58    5.70
  -5   1  -9 1006.10   22.50
  -6   1  -9  229.38    6.30
  -7   1  -9   41.50    2.10
  -8   1  -9    0.50    0.70
  -9   1  -9    6.90    1.20
 -10   1  -9  145.59    4.80
 -11   1  -9   45.30    2.60
 -12   1  -9    1.90    1.00
 -13   1  -9  492.05   12.50
 -14   1  -9   21.30    2.20
 -15   1  -9    1.40    1.10
 -16   1  -9    1.60    1.30
 -17   1  -9   -0.10    1.20
 -18   1  -9   30.50    3.00
 -13   0   9   29.60    3.30
 -12   0   9    0.10    1.40
 -11   0   9    0.40    1.40
 -10   0   9    1.10    1.30
  -9   0   9    7.00    1.60
  -8   0   9   14.60    2.00
  -7   0   9    0.40    1.00
   6   0  -9   11.80    1.20
  -6   0   9   10.50    1.60
   5   0  -9  490.35   11.50
  -5   0   9  494.45   12.50
   4   0  -9    0.40    0.50
  -4   0   9    2.30    1.00
   3   0  -9   61.79    2.20
  -3   0   9   63.29    2.90
   2   0  -9   -0.40    0.40
  -2   0   9   -0.60    0.60
   1   0  -9   64.19    2.20
  -1   0   9   65.89    2.80
   0   0  -9    3.50    0.60
   0   0   9    3.10    0.90
   1   0   9    9.60    1.20
   2   0   9   87.79    3.20
   3   0   9  269.57    7.10
  -5   0  -9  394.56    9.70
  -6   0  -9   26.20    1.70
  -7   0  -9   48.60    2.30
  -8   0  -9   78.19    3.00
  -9   0  -9    7.80    1.20
 -10   0  -9    1.30    0.80
 -11   0  -9    3.00    1.00
 -12   0  -9    3.40    1.10
 -13   0  -9    1.50    1.00
 -14   0  -9   31.00    2.30
 -15   0  -9   47.90    2.90
 -16   0  -9    6.40    1.60
 -17   0  -9    3.50    1.40
 -17   0  -9    1.70    1.30
 -18   0  -9   12.80    2.10
 -19   0  -9    6.40    1.90
 -13   1   9   11.00    2.30
 -12   1   9  147.49    6.40
 -11   1   9   17.10    2.40
 -10   1   9   19.70    2.40
  -9   1   9    4.20    1.50
  -8   1   9   73.79    3.80
   7  -1  -9    6.40    1.10
  -7   1   9    5.40    1.40
   6  -1  -9   19.90    1.60
  -6   1   9   20.40    2.10
   5  -1  -9   46.80    2.20
  -5   1   9   51.49    2.90
   4  -1  -9  562.54   12.70
  -4   1   9  544.15   13.60
   3  -1  -9   72.19    2.60
  -3   1   9   76.59    3.30
   2  -1  -9    5.60    0.80
  -2   1   9    4.90    1.00
   1  -1  -9   99.99    3.00
  -1   1   9   97.19    3.60
   0  -1  -9   76.29    2.50
   0   1   9   70.39    2.90
  -1  -1  -9    3.40    0.70
   1   1   9    2.80    0.80
   2   1   9   20.40    1.40
   3   1   9  228.88    6.20
   4   1   9  793.62   17.90
  -5  -1  -9  339.47    8.50
  -6  -1  -9   92.39    3.20
  -7  -1  -9   13.00    1.30
  -8  -1  -9  348.97    8.70
  -9  -1  -9   63.39    2.70
 -10  -1  -9   91.39    3.40
 -11  -1  -9   23.10    2.00
 -12  -1  -9   21.70    1.90
 -13  -1  -9  151.98    5.10
 -14  -1  -9   25.90    2.20
 -15  -1  -9   15.90    1.90
 -16  -1  -9  101.79    4.40
 -16  -1  -9   95.29    4.20
 -17  -1  -9   54.09    3.40
 -17  -1  -9   44.80    3.10
 -18  -1  -9    1.40    1.50
 -18  -1  -9    4.00    1.50
 -19  -1  -9    0.30    1.30
 -13   2   9    1.80    1.70
 -12   2   9    9.30    2.30
 -11   2   9   10.00    2.20
 -10   2   9   40.40    3.10
  -9   2   9   12.70    2.00
   8  -2  -9   -0.10    0.80
  -8   2   9    1.80    1.20
   7  -2  -9    0.60    0.80
  -7   2   9    0.50    1.10
   6  -2  -9    1.90    0.90
  -6   2   9    3.60    1.20
   5  -2  -9   47.50    2.30
  -5   2   9   50.69    2.80
   4  -2  -9   71.39    2.80
  -4   2   9   77.49    3.30
   3  -2  -9  162.18    4.60
  -3   2   9  160.68    5.20
   2  -2  -9  101.29    3.30
  -2   2   9  100.89    3.70
   1  -2  -9    5.90    0.90
  -1   2   9    5.00    1.00
   0  -2  -9   16.60    1.30
   0   2   9   14.00    1.40
  -1  -2  -9  194.58    5.20
   1   2   9  192.18    5.50
   2   2   9    4.20    0.80
   3   2   9   14.50    1.30
   4   2   9    2.60    0.70
  -5  -2  -9  540.35   12.50
  -6  -2  -9  133.49    4.00
  -7  -2  -9   65.19    2.50
  -8  -2  -9  155.98    4.50
  -9  -2  -9 1112.79   24.50
 -10  -2  -9  112.29    3.80
 -11  -2  -9    5.20    1.00
 -12  -2  -9   48.40    2.40
 -13  -2  -9    7.00    1.30
 -14  -2  -9    0.20    0.90
 -15  -2  -9    6.00    1.30
 -15  -2  -9    8.20    1.60
 -16  -2  -9    8.50    1.60
 -16  -2  -9    7.10    1.50
 -17  -2  -9  183.78    6.40
 -17  -2  -9  175.38    6.20
 -18  -2  -9   21.20    2.40
 -18  -2  -9   23.60    2.40
 -19  -2  -9   11.00    2.10
 -13   3   9   29.70    3.40
 -12   3   9    4.60    1.80
 -11   3   9   57.59    4.00
 -10   3   9    1.30    1.40
  -9   3   9   11.20    2.10
   8  -3  -9   19.00    1.90
  -8   3   9   24.30    2.60
   7  -3  -9   24.60    1.90
  -7   3   9   20.40    2.20
   6  -3  -9   98.99    3.60
  -6   3   9   98.19    4.20
   5  -3  -9    1.30    0.70
  -5   3   9    0.80    0.90
   4  -3  -9  156.28    4.70
  -4   3   9  162.38    5.30
   3  -3  -9  166.18    4.90
  -3   3   9  172.58    5.40
   2  -3  -9   14.60    1.30
  -2   3   9   16.90    1.70
   1  -3  -9  182.08    5.00
  -1   3   9  180.28    5.30
   0  -3  -9   24.40    1.50
   0   3   9   23.50    1.70
  -1  -3  -9  246.58    6.40
   1   3   9  252.27    6.60
   2   3   9   -0.20    0.50
   3   3   9    5.20    0.80
   4   3   9   -0.30    0.50
  -5  -3  -9  104.29    3.30
  -6  -3  -9    1.10    0.50
  -7  -3  -9    2.60    0.70
  -8  -3  -9   19.90    1.40
  -9  -3  -9  500.35   11.70
 -10  -3  -9  655.43   15.00
 -11  -3  -9   49.40    2.30
 -12  -3  -9  160.58    4.90
 -13  -3  -9    1.00    0.90
 -13  -3  -9    1.00    0.80
 -14  -3  -9   13.90    1.90
 -14  -3  -9   12.30    1.60
 -15  -3  -9    1.60    1.10
 -15  -3  -9    1.00    1.00
 -16  -3  -9    8.20    1.70
 -16  -3  -9    8.00    1.40
 -17  -3  -9   42.60    2.80
 -17  -3  -9   49.60    3.00
 -18  -3  -9   68.89    3.70
 -18  -3  -9   70.19    3.80
 -19  -3  -9   24.90    2.60
 -19  -3  -9   22.00    2.50
 -20  -3  -9    1.40    1.30
 -12   4   9    2.80    1.90
 -11   4   9    5.40    1.80
 -10   4   9    8.70    1.90
  -9   4   9   39.90    3.40
   8  -4  -9  181.38    5.80
  -8   4   9  184.68    6.60
   7  -4  -9   69.19    3.20
  -7   4   9   70.59    3.70
   6  -4  -9    2.90    1.00
  -6   4   9    2.70    1.10
   5  -4  -9  182.58    5.50
  -5   4   9  183.88    6.00
   4  -4  -9   13.00    1.50
  -4   4   9   16.40    1.80
   3  -4  -9  185.48    5.40
  -3   4   9  194.38    5.90
   2  -4  -9   99.09    3.40
  -2   4   9   95.39    3.60
   1  -4  -9  223.68    6.10
   1  -4  -9  222.58    5.20
  -1   4   9  221.48    6.20
   0  -4  -9   88.39    3.10
   0  -4  -9   85.09    2.50
   0   4   9   88.59    3.20
  -1  -4  -9  398.06    9.60
   1   4   9  388.16    9.50
   2   4   9  260.67    6.70
   3   4   9  231.48    6.00
   4   4   9  105.29    3.20
  -6  -4  -9    6.30    0.80
  -7  -4  -9   41.50    1.80
  -8  -4  -9   80.39    2.70
  -9  -4  -9  274.57    6.90
 -10  -4  -9   33.00    2.10
 -10  -4  -9   34.90    1.80
 -11  -4  -9   40.40    2.40
 -11  -4  -9   42.80    2.10
 -12  -4  -9  411.46   10.20
 -12  -4  -9  422.26   10.90
 -13  -4  -9  108.19    4.20
 -13  -4  -9  110.29    3.80
 -14  -4  -9   55.99    3.10
 -14  -4  -9   47.00    2.50
 -15  -4  -9   24.10    2.00
 -15  -4  -9   17.80    2.00
 -16  -4  -9   17.50    1.90
 -16  -4  -9   21.80    2.30
 -17  -4  -9   43.10    3.00
 -17  -4  -9   40.90    2.60
 -18  -4  -9    0.10    1.30
 -18  -4  -9    0.80    1.20
 -19  -4  -9    0.10    1.30
 -19  -4  -9    0.70    1.20
 -20  -4  -9   28.90    2.90
 -12   5   9    0.70    1.80
 -11   5   9    1.60    1.50
 -10   5   9    9.30    2.20
   9  -5  -9   83.69    3.90
  -9   5   9   89.29    4.60
   8  -5  -9  173.18    5.80
  -8   5   9  172.28    6.40
   7  -5  -9    1.00    0.90
  -7   5   9   -0.80    0.90
   6  -5  -9    1.20    0.90
  -6   5   9   -0.90    1.00
   5  -5  -9    4.80    1.10
  -5   5   9    4.10    1.30
   4  -5  -9   65.89    2.90
  -4   5   9   66.19    3.10
   3  -5  -9  108.19    3.80
  -3   5   9  114.09    4.10
   2  -5  -9    6.30    1.10
  -2   5   9    7.90    1.20
   1  -5  -9  134.89    4.30
   1  -5  -9  135.59    3.30
  -1   5   9  132.39    4.30
   0  -5  -9  297.67    6.80
   0  -5  -9  303.37    7.80
   0   5   9  300.07    7.70
  -1  -5  -9  180.88    5.20
  -1  -5  -9  172.88    4.40
   1   5   9  175.68    5.00
  -2  -5  -9   19.00    1.10
  -2  -5  -9   19.30    1.60
   2   5   9   18.80    1.30
  -3  -5  -9   22.70    1.20
   3   5   9   23.80    1.40
  -4  -5  -9   41.40    1.80
   4   5   9   40.50    1.70
  -5  -5  -9   64.69    2.40
   5   5   9   60.19    2.20
  -6  -5  -9    2.20    0.70
  -6  -5  -9    1.30    0.50
  -7  -5  -9   15.70    1.00
  -7  -5  -9   17.20    1.50
  -8  -5  -9  154.68    4.20
  -8  -5  -9  157.38    4.80
  -9  -5  -9   18.40    1.20
  -9  -5  -9   21.80    1.80
 -10  -5  -9  183.48    5.00
 -10  -5  -9  185.98    5.60
 -11  -5  -9   23.00    1.50
 -11  -5  -9   21.90    2.00
 -12  -5  -9  311.07    8.40
 -12  -5  -9  295.37    7.70
 -13  -5  -9  547.65   13.10
 -13  -5  -9  562.44   13.80
 -14  -5  -9   10.70    1.70
 -14  -5  -9    9.00    1.30
 -15  -5  -9   12.20    1.80
 -15  -5  -9   14.20    1.60
 -16  -5  -9   75.49    3.70
 -16  -5  -9   75.39    3.30
 -17  -5  -9    1.10    1.10
 -17  -5  -9    2.70    1.20
 -18  -5  -9   38.90    2.80
 -18  -5  -9   32.80    2.50
 -19  -5  -9   26.20    2.50
 -19  -5  -9   24.80    2.60
 -20  -5  -9    4.30    1.70
 -20  -5  -9    4.10    1.50
 -11   6   9    5.20    1.80
 -10   6   9    0.00    1.30
   9  -6  -9   15.40    2.10
  -9   6   9   14.80    2.20
   8  -6  -9   20.90    2.20
  -8   6   9   24.70    2.60
   7  -6  -9  149.39    5.30
  -7   6   9  156.78    5.80
   6  -6  -9    3.50    1.20
  -6   6   9    4.80    1.40
   5  -6  -9   61.49    3.00
  -5   6   9   66.39    3.30
   4  -6  -9    5.30    1.20
  -4   6   9    5.40    1.30
   3  -6  -9   68.09    3.00
  -3   6   9   65.39    3.00
   2  -6  -9   35.70    2.20
  -2   6   9   35.70    2.20
   1  -6  -9  107.09    3.80
  -1   6   9  112.59    3.80
   0  -6  -9  130.49    3.30
   0  -6  -9  120.39    4.10
   0   6   9  127.19    4.00
  -1  -6  -9  216.08    5.30
  -1  -6  -9  230.18    6.20
   1   6   9  215.48    5.90
  -2  -6  -9  207.78    5.20
  -2  -6  -9  212.88    6.00
   2   6   9  212.98    5.60
  -3  -6  -9  348.87    8.20
   3   6   9  347.77    8.30
  -4  -6  -9    1.20    0.60
   4   6   9    1.00    0.50
  -5  -6  -9   12.30    1.10
   5   6   9   13.40    1.00
  -6  -6  -9   33.20    1.40
  -6  -6  -9   33.80    1.70
  -7  -6  -9   -0.10    0.50
  -7  -6  -9    0.70    0.40
  -8  -6  -9    0.90    0.60
  -8  -6  -9    1.50    0.50
  -9  -6  -9   33.40    1.50
  -9  -6  -9   31.50    1.90
 -10  -6  -9    4.70    1.10
 -10  -6  -9    7.20    0.80
 -11  -6  -9   47.60    2.50
 -11  -6  -9   49.90    2.00
 -12  -6  -9   46.50    2.60
 -12  -6  -9   51.89    2.20
 -13  -6  -9    1.40    0.70
 -13  -6  -9    2.20    1.00
 -14  -6  -9  244.08    6.70
 -14  -6  -9  251.17    7.40
 -15  -6  -9  115.09    4.10
 -15  -6  -9  116.89    4.60
 -16  -6  -9    2.10    1.00
 -16  -6  -9    3.40    1.30
 -17  -6  -9   71.89    3.30
 -17  -6  -9   74.29    3.70
 -18  -6  -9   16.40    2.20
 -18  -6  -9   15.60    1.80
 -19  -6  -9   31.50    2.90
 -19  -6  -9   30.40    2.60
 -20  -6  -9    5.30    1.70
 -11   7   9    0.20    1.40
 -10   7   9   30.10    3.20
   9  -7  -9   24.00    2.60
  -9   7   9   28.30    3.00
   8  -7  -9   33.40    2.80
  -8   7   9   29.00    2.80
   7  -7  -9   48.00    2.90
  -7   7   9   54.89    3.30
   6  -7  -9    0.30    1.00
  -6   7   9    1.10    1.10
   5  -7  -9    4.00    1.20
  -5   7   9    3.10    1.20
   4  -7  -9    6.60    1.30
  -4   7   9    5.10    1.30
   3  -7  -9  159.48    5.20
  -3   7   9  160.48    5.30
   2  -7  -9   33.60    2.10
  -2   7   9   35.80    2.20
   1  -7  -9   74.29    3.20
  -1   7   9   79.69    3.10
   0  -7  -9  472.55   11.70
   0  -7  -9  481.25   10.50
   0   7   9  470.65   11.40
  -1  -7  -9   83.69    3.30
  -1  -7  -9   83.99    2.50
   1   7   9   79.39    2.90
  -2  -7  -9   47.30    2.40
  -2  -7  -9   52.09    1.90
   2   7   9   48.80    2.00
  -3  -7  -9   11.50    1.00
   3   7   9   11.80    1.00
  -4  -7  -9    5.80    0.80
   4   7   9    6.40    0.80
  -5  -7  -9  108.39    3.40
   5   7   9  105.59    3.00
  -6  -7  -9    2.80    0.70
  -6  -7  -9    2.00    0.50
  -7  -7  -9   16.80    1.50
  -7  -7  -9   18.90    1.00
  -8  -7  -9  253.37    5.90
  -8  -7  -9  247.98    6.70
  -9  -7  -9   13.40    1.50
  -9  -7  -9   13.00    0.90
 -10  -7  -9   34.70    2.10
 -10  -7  -9   31.80    1.50
 -11  -7  -9  108.89    3.20
 -11  -7  -9  107.49    4.00
 -12  -7  -9   33.50    2.20
 -12  -7  -9   35.30    1.70
 -13  -7  -9   36.80    1.90
 -13  -7  -9   34.20    2.40
 -14  -7  -9    2.70    0.90
 -14  -7  -9    3.90    1.20
 -15  -7  -9    0.00    0.70
 -15  -7  -9    0.80    1.00
 -16  -7  -9   92.49    3.90
 -16  -7  -9   97.49    4.30
 -17  -7  -9   20.90    2.30
 -18  -7  -9   32.60    2.80
 -19  -7  -9    5.60    1.60
 -20  -7  -9   14.70    2.10
 -10   8   9    5.40    1.70
   9  -8  -9   20.60    2.40
  -9   8   9   19.00    2.50
   8  -8  -9   89.19    4.30
  -8   8   9   85.49    4.40
   7  -8  -9    8.90    1.70
  -7   8   9    8.20    1.70
   6  -8  -9   18.10    2.10
  -6   8   9   17.40    2.20
   5  -8  -9   79.09    3.60
  -5   8   9   83.69    3.90
   4  -8  -9   72.89    3.40
  -4   8   9   71.89    3.50
   3  -8  -9    8.70    1.40
  -3   8   9    6.70    1.30
   2  -8  -9   52.69    2.70
  -2   8   9   48.50    2.60
   1  -8  -9    2.20    1.00
  -1   8   9    2.50    0.90
   0  -8  -9  253.77    7.20
   0   8   9  247.48    6.70
  -1  -8  -9  186.38    4.60
  -1  -8  -9  184.68    5.70
   1   8   9  182.98    5.10
  -2  -8  -9    2.90    1.00
  -2  -8  -9    2.80    0.60
   2   8   9    3.00    0.70
  -3  -8  -9   13.10    1.10
  -3  -8  -9   12.50    1.50
   3   8   9   14.00    1.10
  -4  -8  -9   94.89    3.00
   4   8   9   91.19    2.70
  -5  -8  -9    5.80    0.80
   5   8   9    4.50    0.60
  -6  -8  -9   33.30    1.80
  -6  -8  -9   31.70    1.20
  -7  -8  -9    4.90    0.50
  -7  -8  -9    4.30    0.90
  -8  -8  -9   96.59    3.40
  -8  -8  -9   97.89    2.70
  -9  -8  -9  170.68    5.20
 -10  -8  -9    1.40    0.80
 -11  -8  -9    8.90    1.30
 -12  -8  -9   48.30    2.60
 -13  -8  -9  116.79    4.40
 -14  -8  -9   10.40    1.60
 -15  -8  -9    2.30    1.20
 -16  -8  -9   44.70    2.90
 -17  -8  -9  301.67    8.90
 -18  -8  -9    8.30    1.80
 -19  -8  -9    7.70    1.70
 -20  -8  -9   21.40    2.50
   9  -9  -9    3.70    1.50
  -9   9   9    7.40    1.80
   8  -9  -9   27.60    2.80
  -8   9   9   28.00    2.90
   7  -9  -9   46.80    3.10
  -7   9   9   48.40    3.20
   6  -9  -9    3.00    1.30
  -6   9   9    3.00    1.40
   5  -9  -9   58.19    3.30
  -5   9   9   63.49    3.40
   4  -9  -9  126.39    4.80
  -4   9   9  132.99    4.90
   3  -9  -9   48.50    2.90
  -3   9   9   42.10    2.60
   2  -9  -9    8.80    1.40
  -2   9   9    6.90    1.30
   1  -9  -9  249.48    7.30
  -1   9   9  248.28    6.90
   0  -9  -9   43.10    2.50
   0   9   9   46.50    2.20
  -1  -9  -9  226.28    5.60
  -1  -9  -9  227.78    6.70
   1   9   9  230.58    6.10
  -2  -9  -9   30.90    2.10
  -2  -9  -9   34.30    1.50
   2   9   9   31.50    1.70
  -3  -9  -9    4.90    1.10
  -3  -9  -9    6.30    0.80
   3   9   9    4.80    0.70
  -4  -9  -9  335.17    8.10
  -5  -9  -9   89.69    3.00
  -6  -9  -9    0.70    0.60
  -7  -9  -9   25.20    1.60
  -8  -9  -9    4.10    0.90
  -9  -9  -9  101.39    3.60
 -10  -9  -9    2.60    0.90
 -11  -9  -9   -0.50    0.70
 -12  -9  -9   17.10    1.80
 -13  -9  -9   16.50    1.90
 -14  -9  -9   88.59    3.80
 -15  -9  -9    5.10    1.30
 -16  -9  -9   41.50    2.90
 -17  -9  -9   74.09    3.80
 -18  -9  -9  103.49    4.60
 -19  -9  -9   21.00    2.50
 -20  -9  -9    1.10    1.30
   9 -10  -9   38.40    3.40
  -9  10   9   33.40    3.30
   8 -10  -9   32.00    3.00
  -8  10   9   32.50    3.10
   7 -10  -9   45.70    3.10
  -7  10   9   40.40    3.10
   6 -10  -9    7.10    1.70
  -6  10   9    8.90    1.80
   5 -10  -9  112.79    4.70
  -5  10   9  118.29    4.80
   4 -10  -9  114.89    4.60
  -4  10   9  111.89    4.50
   3 -10  -9  166.08    5.80
  -3  10   9  175.18    5.70
   2 -10  -9    0.90    1.00
  -2  10   9    0.10    0.90
   1 -10  -9    3.10    1.30
  -1  10   9    3.00    1.00
   0 -10  -9  148.69    5.20
   0  10   9  149.09    4.60
  -1 -10  -9   15.60    1.80
  -2 -10  -9    1.40    0.60
  -2 -10  -9    1.10    0.90
  -3 -10  -9  197.88    5.20
  -3 -10  -9  194.58    6.10
  -4 -10  -9  164.68    4.50
  -4 -10  -9  157.58    5.30
  -5 -10  -9   14.50    1.30
  -6 -10  -9    0.40    0.70
  -7 -10  -9    9.40    1.10
  -8 -10  -9   80.09    3.10
  -9 -10  -9    2.00    0.80
 -10 -10  -9    0.40    0.80
 -11 -10  -9   40.50    2.40
 -12 -10  -9   45.80    2.60
 -13 -10  -9    2.00    1.10
 -14 -10  -9  301.07    8.60
 -15 -10  -9   28.20    2.50
 -16 -10  -9   10.60    1.80
 -17 -10  -9   35.20    2.90
 -18 -10  -9    1.00    1.30
 -19 -10  -9   -0.20    1.20
 -20 -10  -9   -0.60    1.20
   8 -11  -9   15.60    2.40
  -8  11   9   16.40    2.50
   7 -11  -9   20.10    2.50
  -7  11   9   26.20    2.80
   6 -11  -9    0.80    1.20
  -6  11   9    0.30    1.20
   5 -11  -9   36.00    3.00
  -5  11   9   28.80    2.60
   4 -11  -9  313.97    9.20
  -4  11   9  307.17    9.70
   3 -11  -9  212.78    7.00
   2 -11  -9    1.50    1.10
   1 -11  -9    9.80    1.60
   0 -11  -9    7.40    1.50
  -1 -11  -9  101.49    4.10
  -2 -11  -9    3.80    1.20
  -2 -11  -9    9.70    1.00
  -3 -11  -9   12.80    1.70
  -3 -11  -9   11.70    1.20
  -4 -11  -9  122.69    4.60
  -4 -11  -9  131.69    3.90
  -5 -11  -9  192.48    5.30
  -6 -11  -9    0.60    0.60
  -7 -11  -9   12.30    1.30
  -8 -11  -9  619.14   14.50
  -9 -11  -9    2.80    0.90
 -10 -11  -9   16.40    1.70
 -11 -11  -9   52.89    2.70
 -12 -11  -9   33.90    2.20
 -13 -11  -9    8.00    1.50
 -14 -11  -9    0.80    1.00
 -15 -11  -9    1.20    1.10
 -16 -11  -9  204.78    6.70
 -17 -11  -9   27.80    2.70
 -18 -11  -9   67.69    3.70
 -19 -11  -9   46.80    3.20
 -20 -11  -9    1.80    1.40
   7 -12  -9   14.00    2.30
   6 -12  -9    5.90    1.70
   5 -12  -9    0.30    1.30
   4 -12  -9   86.19    4.30
   3 -12  -9  118.39    4.90
   2 -12  -9    0.10    1.20
   1 -12  -9   23.00    2.40
   0 -12  -9   34.70    2.60
  -1 -12  -9    0.10    1.00
  -2 -12  -9    0.80    1.00
  -3 -12  -9    1.90    1.10
  -3 -12  -9    0.60    0.70
  -4 -12  -9    8.50    1.50
  -4 -12  -9    7.00    1.10
  -5 -12  -9   68.79    2.70
  -5 -12  -9   73.29    3.40
  -6 -12  -9    4.30    1.00
  -7 -12  -9    5.00    1.00
  -8 -12  -9   17.30    1.70
  -9 -12  -9   50.09    2.50
 -10 -12  -9    2.50    1.10
 -11 -12  -9  164.48    5.30
 -12 -12  -9    0.00    0.90
 -13 -12  -9   -0.10    1.00
 -14 -12  -9    7.20    1.50
 -15 -12  -9    0.10    1.10
 -16 -12  -9   65.99    3.50
 -17 -12  -9   83.09    4.00
 -18 -12  -9   11.80    2.10
 -19 -12  -9    0.10    1.40
 -20 -12  -9    8.10    1.90
   6 -13  -9   -1.20    1.40
   5 -13  -9    4.10    1.60
   4 -13  -9    2.10    1.40
   3 -13  -9   37.10    3.10
   2 -13  -9    3.60    1.40
   1 -13  -9  209.38    7.00
   0 -13  -9    2.10    1.30
  -1 -13  -9    4.50    1.40
  -2 -13  -9   15.20    1.90
  -3 -13  -9    8.90    1.60
  -3 -13  -9    8.90    1.20
  -4 -13  -9   27.60    1.80
  -4 -13  -9   22.20    2.20
  -5 -13  -9   23.70    1.70
  -5 -13  -9   21.90    2.20
  -6 -13  -9   14.30    1.50
  -7 -13  -9  146.19    4.60
  -8 -13  -9   15.90    1.70
  -9 -13  -9   45.50    2.50
 -10 -13  -9   15.50    1.70
 -11 -13  -9   26.60    2.20
 -12 -13  -9   39.20    2.50
 -13 -13  -9   28.10    2.40
 -14 -13  -9    2.10    1.20
 -15 -13  -9    0.50    1.10
 -16 -13  -9   37.40    2.80
 -17 -13  -9    5.90    1.60
 -18 -13  -9   54.39    3.40
 -19 -13  -9    5.20    1.70
 -20 -13  -9    0.30    1.50
   5 -14  -9    0.40    1.40
   4 -14  -9    2.20    1.50
   3 -14  -9    3.10    1.50
   2 -14  -9    5.90    1.60
   1 -14  -9   62.49    3.70
   0 -14  -9  329.37    9.70
  -1 -14  -9   50.29    3.20
  -2 -14  -9    3.70    1.40
  -3 -14  -9    7.20    1.60
  -4 -14  -9   23.80    2.40
  -4 -14  -9   27.90    1.90
  -5 -14  -9    0.70    1.10
  -5 -14  -9    0.80    0.80
  -6 -14  -9   21.20    1.80
  -6 -14  -9   22.30    2.30
  -7 -14  -9   38.50    2.30
  -8 -14  -9  127.39    4.40
  -9 -14  -9    1.60    1.00
 -10 -14  -9    4.20    1.30
 -11 -14  -9    0.90    1.00
 -12 -14  -9   67.89    3.30
 -13 -14  -9   24.50    2.30
 -14 -14  -9    0.60    1.20
 -15 -14  -9    1.40    1.20
 -16 -14  -9   47.60    3.10
 -17 -14  -9    3.90    1.50
 -18 -14  -9    8.00    1.90
 -19 -14  -9    2.30    1.50
   4 -15  -9    9.90    2.10
   3 -15  -9    0.40    1.50
   2 -15  -9    0.80    1.30
   1 -15  -9   12.60    2.10
   0 -15  -9  101.59    4.60
  -1 -15  -9  240.98    7.80
  -2 -15  -9    2.60    1.30
  -3 -15  -9    8.20    1.60
  -4 -15  -9   15.80    2.10
  -4 -15  -9   14.90    1.60
  -5 -15  -9   23.50    2.00
  -5 -15  -9   29.90    2.70
  -6 -15  -9   -0.60    1.10
  -6 -15  -9    0.70    1.00
  -7 -15  -9   10.90    1.80
  -7 -15  -9   14.00    1.70
  -8 -15  -9    0.10    0.90
  -9 -15  -9  118.99    4.40
 -10 -15  -9    2.70    1.20
 -11 -15  -9   27.40    2.30
 -12 -15  -9   36.60    2.50
 -13 -15  -9   89.59    4.00
 -14 -15  -9   50.59    3.20
 -15 -15  -9    5.20    1.70
 -16 -15  -9    8.30    1.80
 -17 -15  -9    1.00    1.30
 -18 -15  -9    4.60    1.70
 -19 -15  -9    9.00    2.10
   3 -16  -9    8.70    2.00
   2 -16  -9   -0.40    1.50
   1 -16  -9    0.00    1.40
   0 -16  -9   11.70    2.20
  -1 -16  -9   -0.10    1.20
  -2 -16  -9    9.20    1.90
  -3 -16  -9    4.90    1.60
  -4 -16  -9    4.90    1.40
  -5 -16  -9   93.99    3.70
  -5 -16  -9   96.89    4.50
  -6 -16  -9   46.70    3.10
  -6 -16  -9   56.39    2.80
  -7 -16  -9   27.40    2.70
  -7 -16  -9   30.20    2.30
  -8 -16  -9   19.70    2.00
  -9 -16  -9   48.60    2.70
 -10 -16  -9   25.00    2.20
 -11 -16  -9   -2.10    0.90
 -12 -16  -9    7.80    1.60
 -13 -16  -9  211.68    6.90
 -14 -16  -9   38.20    2.80
 -15 -16  -9    4.90    1.50
 -16 -16  -9   -0.10    1.20
 -17 -16  -9   15.20    2.30
 -18 -16  -9    2.90    1.80
   1 -17  -9   35.00    3.30
   0 -17  -9   -0.20    1.30
  -1 -17  -9    1.20    1.30
  -2 -17  -9   13.10    2.20
  -3 -17  -9   33.20    3.10
  -4 -17  -9   28.00    2.70
  -5 -17  -9    3.60    1.60
  -5 -17  -9    4.00    1.30
  -6 -17  -9    3.20    1.30
  -6 -17  -9    3.50    1.40
  -7 -17  -9  109.89    4.80
  -7 -17  -9  101.79    4.10
  -8 -17  -9   28.70    2.80
  -8 -17  -9   33.50    2.50
  -9 -17  -9    6.30    1.50
 -10 -17  -9   46.70    2.80
 -11 -17  -9   48.00    2.90
 -12 -17  -9   -1.00    1.10
 -13 -17  -9    0.70    1.30
 -14 -17  -9   22.00    2.40
 -15 -17  -9    9.50    2.00
 -16 -17  -9   62.49    3.60
 -17 -17  -9    4.90    1.70
 -18 -17  -9    5.40    1.70
   0 -18  -9  131.99    5.70
  -1 -18  -9    5.10    1.90
  -2 -18  -9    8.20    2.00
  -3 -18  -9    3.50    1.60
  -4 -18  -9   31.80    3.10
  -5 -18  -9   48.30    3.30
  -6 -18  -9    0.00    1.20
  -6 -18  -9    3.30    1.20
  -7 -18  -9   21.50    2.50
  -7 -18  -9   25.90    2.30
  -8 -18  -9   89.29    3.90
  -8 -18  -9   97.49    4.50
  -9 -18  -9   31.30    2.70
  -9 -18  -9   27.60    2.80
 -10 -18  -9    3.60    1.40
 -11 -18  -9    3.10    1.40
 -12 -18  -9    1.30    1.50
 -13 -18  -9   -0.40    1.30
 -14 -18  -9    0.80    1.30
 -15 -18  -9   10.10    2.10
 -16 -18  -9   23.70    2.60
 -17 -18  -9    7.30    2.00
  -2 -19  -9   35.40    3.40
  -3 -19  -9   18.00    2.50
  -4 -19  -9   15.00    2.30
  -5 -19  -9    6.90    1.80
  -6 -19  -9   17.70    2.40
  -7 -19  -9    0.50    1.00
  -7 -19  -9   -1.30    1.20
  -8 -19  -9    9.70    2.00
  -8 -19  -9    9.10    1.70
  -9 -19  -9  115.29    4.70
  -9 -19  -9  125.49    5.30
 -10 -19  -9   99.49    4.80
 -10 -19  -9  112.79    4.60
 -11 -19  -9    1.00    1.40
 -12 -19  -9   -1.30    1.40
 -13 -19  -9   19.40    2.40
 -14 -19  -9   22.00    2.50
 -15 -19  -9    7.80    1.90
  -5 -20  -9   17.00    2.50
  -6 -20  -9    1.10    1.40
  -7 -20  -9    1.60    1.60
  -7 -20  -9    2.10    1.20
  -8 -20  -9    2.30    1.20
  -8 -20  -9    3.80    1.70
  -9 -20  -9    1.70    1.40
  -9 -20  -9    0.00    1.30
 -10 -20  -9   11.70    2.20
 -10 -20  -9    8.90    1.80
 -11 -20  -9    3.30    1.60
 -11 -20  -9    0.50    1.50
 -12 -20  -9   31.40    3.00
 -13 -20  -9   -0.50    1.40
  -6 -16  10    1.70    1.70
  -5 -16  10   -0.20    1.40
  -4 -16  10    6.20    1.90
  -3 -16  10    4.60    2.00
  -2 -16  10    1.40    1.60
  -1 -16  10   41.30    3.90
   0  16 -10   98.99    5.00
   0 -16  10  104.09    5.60
  -1  16 -10   95.49    4.90
   1 -16  10  108.89    5.50
  -8 -15  10   17.90    2.50
  -7 -15  10   41.20    3.60
  -6 -15  10    8.50    1.90
  -6 -15  10    8.20    2.10
   5  15 -10   -0.80    1.30
  -5 -15  10   -1.10    1.20
   4  15 -10    2.20    1.60
  -4 -15  10    3.60    1.60
   3  15 -10   10.10    2.00
  -3 -15  10    6.90    1.90
   2  15 -10    5.20    1.70
  -2 -15  10    4.90    1.70
   1  15 -10    5.70    1.70
  -1 -15  10    4.70    1.90
   0  15 -10   20.60    2.50
   0 -15  10   20.00    2.90
  -1  15 -10   78.19    4.10
   1 -15  10   76.79    4.60
  -2  15 -10   29.90    3.00
  -3  15 -10   -1.10    1.40
  -4  15 -10    6.30    1.90
  -9 -14  10    3.70    1.60
  -9 -14  10    5.00    1.80
  -8 -14  10    3.00    1.50
  -8 -14  10    2.90    1.60
  -7 -14  10    3.20    1.70
  -7 -14  10    6.30    1.70
  -6 -14  10    2.80    1.50
  -6 -14  10    2.90    1.50
  -5 -14  10    1.50    1.30
  -5 -14  10    0.40    1.40
   4  14 -10   28.50    2.90
  -4 -14  10   26.60    2.90
   3  14 -10    6.40    1.70
  -3 -14  10    4.20    1.60
   2  14 -10   11.60    2.10
  -2 -14  10   12.80    2.20
   1  14 -10    0.30    1.30
  -1 -14  10   -0.10    1.50
   0  14 -10    0.30    1.20
   0 -14  10    2.90    1.50
  -1  14 -10    5.40    1.70
   1 -14  10    7.20    1.90
  -2  14 -10   42.60    3.10
  -3  14 -10   11.50    2.10
  -4  14 -10   24.20    2.70
  -5  14 -10   -1.70    1.20
  -6  14 -10   34.60    3.20
 -10 -13  10    2.70    1.60
 -10 -13  10    2.70    1.40
  -9 -13  10    8.00    1.90
  -9 -13  10    7.70    2.00
  -8 -13  10    0.80    1.40
  -8 -13  10    0.20    1.20
  -7 -13  10    4.40    1.60
  -7 -13  10    8.30    1.80
  -6 -13  10   -1.50    1.20
  -6 -13  10   -2.60    1.10
  -5 -13  10    3.90    1.60
  -5 -13  10    4.10    1.60
  -4 -13  10   22.00    2.60
  -4 -13  10   17.30    2.30
   3  13 -10   47.60    3.30
  -3 -13  10   45.90    3.40
   2  13 -10   -0.10    1.10
  -2 -13  10    1.40    1.30
   1  13 -10    0.00    1.20
  -1 -13  10    1.60    1.30
   0  13 -10    1.70    1.20
   0 -13  10    1.50    1.30
  -1  13 -10   13.30    2.00
   1 -13  10   11.50    2.20
  -2  13 -10   13.60    2.00
  -3  13 -10    1.80    1.50
  -4  13 -10  110.19    5.00
  -5  13 -10   39.80    3.40
  -6  13 -10    3.20    1.50
  -7  13 -10    1.10    1.40
  -8  13 -10   34.10    3.30
 -11 -12  10   18.30    2.70
 -10 -12  10   28.60    3.00
  -9 -12  10   38.80    3.40
  -9 -12  10   39.60    2.90
  -8 -12  10   20.50    2.50
  -8 -12  10   18.90    2.40
  -7 -12  10   27.30    2.80
  -7 -12  10   33.10    3.00
  -6 -12  10    7.30    1.70
  -6 -12  10    6.40    1.80
  -5 -12  10   29.20    2.80
  -5 -12  10   26.80    2.80
  -4 -12  10   -0.10    1.10
  -4 -12  10    1.40    1.30
  -3 -12  10   23.10    2.50
  -3 -12  10   23.00    2.60
   2  12 -10   24.10    2.60
  -2 -12  10   23.50    2.60
   1  12 -10    4.60    1.40
  -1 -12  10    2.10    1.30
   0  12 -10   12.10    1.90
   0 -12  10   12.20    2.00
  -1  12 -10   59.59    3.60
   1 -12  10   54.19    3.50
  -2  12 -10   27.60    2.70
  -3  12 -10    8.10    1.70
  -4  12 -10    0.90    1.40
  -5  12 -10   61.49    3.80
  -6  12 -10    0.30    1.30
  -7  12 -10    4.50    1.50
  -8  12 -10   32.80    3.00
  -9  12 -10  244.58    8.20
 -12 -11  10    4.00    1.80
 -11 -11  10   66.69    4.10
 -10 -11  10    1.40    1.40
  -9 -11  10   19.80    2.50
  -9 -11  10   28.20    2.70
  -8 -11  10    0.90    1.30
  -8 -11  10    2.30    1.30
  -7 -11  10    1.40    1.20
  -7 -11  10    2.20    1.30
  -6 -11  10    2.70    1.50
  -6 -11  10    3.50    1.40
  -5 -11  10   -1.30    1.10
  -5 -11  10   -0.90    1.10
  -4 -11  10   66.39    3.60
  -4 -11  10   66.19    3.70
  -3 -11  10   64.29    3.50
  -3 -11  10   60.79    3.50
  -2 -11  10   25.80    2.60
   1  11 -10    1.40    1.30
  -1 -11  10    1.20    1.20
   0  11 -10    1.20    1.20
   0 -11  10    2.40    1.30
  -1  11 -10    3.00    1.40
   1 -11  10    3.00    1.50
  -2  11 -10   53.89    3.20
  -3  11 -10    1.00    1.20
  -4  11 -10   43.80    3.00
  -5  11 -10    1.60    1.20
  -6  11 -10   -0.50    1.10
  -7  11 -10   -2.10    1.20
  -8  11 -10   -0.10    1.20
  -9  11 -10    8.70    1.90
 -10  11 -10  183.18    6.90
 -11  11 -10    0.90    1.40
 -12 -10  10   26.00    3.00
 -11 -10  10    2.00    1.60
 -10 -10  10    0.50    1.50
  -9 -10  10    8.90    1.90
  -8 -10  10  229.18    7.70
  -8 -10  10  226.78    7.20
  -7 -10  10    1.20    1.10
  -7 -10  10    0.40    1.20
  -6 -10  10   49.10    3.30
  -6 -10  10   44.50    2.90
  -5 -10  10    5.30    1.60
  -5 -10  10    5.30    1.50
  -4 -10  10   95.49    4.40
  -4 -10  10  102.79    4.40
  -3 -10  10    5.10    1.40
  -3 -10  10    2.20    1.20
  -2 -10  10    1.70    1.20
  -2 -10  10    1.90    1.10
  -1 -10  10   16.80    2.10
   0  10 -10  127.59    5.10
   0 -10  10  141.49    5.40
  -1  10 -10    0.10    1.00
   1 -10  10    0.10    1.10
  -2  10 -10   62.89    3.40
  -3  10 -10   33.50    2.60
  -4  10 -10   14.90    2.00
  -5  10 -10    6.80    1.60
  -6  10 -10   17.60    2.20
  -7  10 -10    2.40    1.40
  -8  10 -10   13.30    2.20
  -9  10 -10   -0.20    1.20
 -10  10 -10   -1.50    1.20
 -11  10 -10    3.70    1.70
 -12  10 -10    1.80    1.50
 -13  -9  10    2.60    1.80
 -12  -9  10   40.50    3.70
 -11  -9  10   -0.60    1.40
 -10  -9  10   16.30    2.40
  -9  -9  10    2.70    1.60
  -8  -9  10   61.89    3.10
  -8  -9  10   61.69    3.80
  -7  -9  10    9.90    1.80
  -7  -9  10    7.40    1.40
  -6  -9  10    0.00    1.00
  -6  -9  10    0.10    1.00
  -5  -9  10   -0.90    1.00
  -5  -9  10   -0.10    0.90
  -4  -9  10  123.09    4.80
  -4  -9  10  128.99    5.10
  -3  -9  10  167.98    5.80
  -3  -9  10  166.28    5.90
  -2  -9  10   33.60    2.80
  -2  -9  10   33.50    2.80
  -1  -9  10   20.40    2.20
  -1  -9  10   15.60    2.10
   0   9 -10   37.30    2.70
   0  -9  10   36.00    2.60
  -1   9 -10    0.40    1.00
   1  -9  10   -0.70    0.90
  -2   9 -10    7.20    1.60
  -3   9 -10   -0.30    0.90
  -4   9 -10    6.40    1.50
  -5   9 -10   14.70    1.90
  -6   9 -10   49.20    3.00
  -7   9 -10   10.70    1.80
  -8   9 -10   82.19    4.10
  -9   9 -10   20.30    2.40
 -10   9 -10   35.40    3.10
 -11   9 -10    1.80    1.40
 -12   9 -10   28.20    2.90
 -13   9 -10   43.30    3.70
 -13  -8  10   10.10    2.30
 -12  -8  10    8.10    2.20
 -11  -8  10   13.60    2.40
 -10  -8  10    6.60    1.80
  -9  -8  10    2.10    1.40
  -8  -8  10   84.99    4.40
  -7  -8  10   20.50    2.40
  -7  -8  10   17.70    1.90
  -6  -8  10   29.10    2.70
  -6  -8  10   31.90    2.30
  -5  -8  10   33.40    2.30
  -5  -8  10   25.90    2.50
  -4  -8  10    5.40    1.50
  -4  -8  10    3.30    1.20
  -3  -8  10   88.39    4.00
  -3  -8  10   92.49    3.90
  -2  -8  10   60.09    3.30
  -2  -8  10   61.99    3.10
  -1  -8  10   31.50    2.30
  -1  -8  10   33.30    2.70
   0  -8  10    0.40    1.00
   0  -8  10    2.40    1.10
  -1   8 -10   -1.00    0.80
   1  -8  10    0.70    1.00
  -2   8 -10  124.69    4.80
  -3   8 -10   45.00    2.90
  -4   8 -10    0.10    1.00
  -5   8 -10    9.20    1.60
  -6   8 -10    4.30    1.40
  -7   8 -10   28.50    2.50
  -8   8 -10   -0.60    1.20
  -9   8 -10   98.09    4.40
 -10   8 -10   29.10    2.70
 -11   8 -10   18.60    2.30
 -12   8 -10    2.90    1.60
 -13   8 -10   26.80    3.00
 -14   8 -10   46.60    3.60
 -13  -7  10   19.30    2.90
 -12  -7  10   12.70    2.30
 -11  -7  10   28.50    3.20
 -10  -7  10   -2.30    1.10
  -9  -7  10   56.69    3.70
  -8  -7  10   31.30    2.90
  -7  -7  10    3.10    1.30
  -7  -7  10    3.70    1.10
  -6  -7  10   -0.50    0.70
  -6  -7  10   -0.20    1.00
  -5  -7  10    4.30    1.30
  -5  -7  10    5.20    1.20
  -4  -7  10  103.59    3.90
  -4  -7  10   95.89    4.20
  -3  -7  10    6.80    1.50
  -3  -7  10    4.50    1.20
  -2  -7  10   38.90    2.60
  -2  -7  10   38.50    2.50
  -1  -7  10  235.98    7.20
  -1  -7  10  236.88    7.10
   0  -7  10  175.48    5.80
   0  -7  10  182.18    6.00
  -2   7 -10    0.50    0.90
  -3   7 -10   19.10    2.10
  -4   7 -10   16.40    2.00
  -5   7 -10   54.29    3.00
  -6   7 -10   78.59    3.60
  -7   7 -10    4.10    1.30
  -8   7 -10   44.20    3.00
  -9   7 -10   10.70    1.80
 -10   7 -10   44.60    3.10
 -11   7 -10   19.30    2.30
 -12   7 -10   -0.70    1.20
 -13   7 -10    5.80    1.70
 -14   7 -10   20.00    2.60
 -13  -6  10   27.60    3.30
 -12  -6  10   13.10    2.50
 -11  -6  10   87.39    4.70
 -10  -6  10   13.60    2.20
  -9  -6  10   28.80    3.00
  -8  -6  10  175.28    6.40
  -7  -6  10   36.60    3.10
  -6  -6  10    5.50    1.40
  -6  -6  10    6.90    1.20
  -5  -6  10    2.20    1.10
  -5  -6  10    1.40    0.90
  -4  -6  10   28.10    2.20
  -4  -6  10   23.50    2.30
  -3  -6  10    6.50    1.20
  -3  -6  10    7.30    1.50
  -2  -6  10   49.00    2.80
  -2  -6  10   51.29    2.70
  -1  -6  10    2.90    1.00
  -1  -6  10    2.60    1.00
   0  -6  10  356.16    9.50
   0  -6  10  350.16    9.60
   1  -6  10  576.04   14.30
  -2   6 -10    3.30    1.00
  -3   6 -10   10.00    1.50
  -4   6 -10    2.90    1.00
  -5   6 -10   68.99    3.30
  -6   6 -10   82.59    3.60
  -7   6 -10    1.50    1.00
  -8   6 -10    3.20    1.20
  -9   6 -10  109.29    4.50
 -10   6 -10   25.40    2.50
 -11   6 -10   46.50    3.00
 -12   6 -10    1.80    1.40
 -13   6 -10  129.99    5.50
 -14   6 -10   -1.10    1.30
 -15   6 -10    0.10    1.50
 -13  -5  10    1.60    1.60
 -12  -5  10   17.50    2.70
 -11  -5  10   15.20    2.40
 -10  -5  10   36.50    3.30
  -9  -5  10   18.50    2.40
  -8  -5  10    1.50    1.30
  -7  -5  10   72.79    3.80
  -6  -5  10  134.09    4.30
  -6  -5  10  122.39    5.10
  -5  -5  10   23.10    2.30
  -5  -5  10   29.50    1.90
  -4  -5  10  114.09    4.50
  -4  -5  10  113.99    4.00
  -3  -5  10   45.40    2.50
  -3  -5  10   52.99    2.90
  -2  -5  10    2.00    0.90
  -2  -5  10    1.30    1.00
  -1  -5  10   47.50    2.60
  -1  -5  10   39.70    2.30
   0  -5  10    6.60    1.30
   1  -5  10  710.53   17.00
  -3   5 -10   51.29    2.80
  -4   5 -10    5.80    1.30
  -5   5 -10    0.70    0.90
  -6   5 -10   41.50    2.50
  -7   5 -10    6.90    1.40
  -8   5 -10    1.20    1.00
  -9   5 -10    6.30    1.40
 -10   5 -10    2.90    1.30
 -11   5 -10    2.20    1.30
 -12   5 -10   59.69    3.40
 -13   5 -10   94.09    4.40
 -14   5 -10  134.49    5.50
 -15   5 -10    0.60    1.60
 -16   5 -10   11.70    2.20
 -13  -4  10   17.30    2.80
 -12  -4  10   21.40    2.80
 -11  -4  10    1.90    1.50
 -10  -4  10    3.50    1.60
  -9  -4  10   30.90    2.90
  -8  -4  10  124.19    5.20
  -7  -4  10   75.29    3.80
  -6  -4  10  160.68    5.80
  -5  -4  10   15.60    1.90
  -5  -4  10   13.00    1.40
  -4  -4  10   30.80    1.90
  -4  -4  10   29.70    2.30
  -3  -4  10   54.09    2.90
  -3  -4  10   53.99    2.50
  -2  -4  10   12.00    1.60
  -2  -4  10   11.70    1.40
  -1  -4  10    1.70    1.00
   0  -4  10    6.50    1.30
   1  -4  10    0.40    0.90
   2  -4  10  251.17    7.20
  -3   4 -10   65.79    3.10
  -4   4 -10    5.80    1.20
  -5   4 -10  237.48    6.90
  -6   4 -10    1.70    0.90
  -7   4 -10    2.00    1.10
  -8   4 -10   34.10    2.40
  -9   4 -10   47.60    2.70
 -10   4 -10    0.30    1.00
 -11   4 -10    0.00    1.00
 -12   4 -10    3.20    1.30
 -13   4 -10   58.89    3.50
 -14   4 -10   80.49    4.10
 -15   4 -10   11.10    2.10
 -16   4 -10    5.00    1.70
 -17   4 -10    0.10    1.40
 -13  -3  10   57.29    4.20
 -12  -3  10   10.10    2.20
 -11  -3  10   43.00    3.70
 -10  -3  10   22.20    2.70
  -9  -3  10    1.20    1.40
  -8  -3  10   13.00    2.00
  -7  -3  10   93.29    4.30
  -6  -3  10    0.40    1.00
  -5  -3  10   26.10    2.40
  -5  -3  10   29.90    1.70
  -4  -3  10  362.96    9.00
  -4  -3  10  362.26    9.90
  -3  -3  10   83.29    3.60
  -2  -3  10    7.20    1.40
  -1  -3  10   79.39    3.40
   0   3 -10   58.39    1.90
   0  -3  10   60.59    2.90
   1  -3  10   55.79    2.70
   2  -3  10    1.30    0.80
  -4   3 -10  428.96   10.90
  -5   3 -10  240.18    6.90
  -6   3 -10   91.69    3.60
  -7   3 -10    0.00    0.90
  -8   3 -10  282.67    7.90
  -9   3 -10   70.69    3.30
 -10   3 -10   16.50    1.90
 -11   3 -10    0.70    1.00
 -12   3 -10   15.30    1.90
 -13   3 -10   21.50    2.30
 -14   3 -10    7.90    1.70
 -15   3 -10   51.09    3.50
 -16   3 -10   39.80    3.30
 -17   3 -10   43.50    3.30
 -13  -2  10    4.70    1.80
 -12  -2  10   76.89    4.60
 -11  -2  10   28.20    3.20
 -10  -2  10    3.20    1.60
  -9  -2  10    7.20    1.80
  -8  -2  10   14.80    2.10
  -7  -2  10    2.00    1.20
  -6  -2  10    8.80    1.60
   5   2 -10   51.39    2.70
  -5  -2  10   48.90    2.90
   4   2 -10  114.39    3.30
  -4  -2  10  113.19    4.40
   3   2 -10   14.20    0.90
  -3  -2  10   12.20    1.60
   2   2 -10   47.30    1.70
  -2  -2  10   48.30    2.60
   1   2 -10    3.40    0.50
  -1  -2  10    2.30    0.90
   0   2 -10    3.70    0.50
   0  -2  10    4.10    1.00
   1  -2  10  448.86   11.30
   2  -2  10    3.80    1.10
   3  -2  10    5.50    1.10
  -4   2 -10   10.70    1.40
  -5   2 -10  721.73   16.90
  -6   2 -10  445.56   11.10
  -7   2 -10    1.70    0.90
  -8   2 -10    9.30    1.40
  -9   2 -10  239.78    7.00
 -10   2 -10   14.60    1.70
 -11   2 -10    1.90    1.00
 -12   2 -10    9.30    1.70
 -13   2 -10   11.10    1.80
 -14   2 -10   34.00    2.60
 -15   2 -10   15.30    2.20
 -16   2 -10   14.00    2.10
 -17   2 -10  146.29    5.90
 -18   2 -10   38.20    3.40
 -13  -1  10    5.90    1.90
 -12  -1  10    6.00    1.90
 -11  -1  10    1.30    1.50
 -10  -1  10   46.50    3.40
  -9  -1  10   62.29    3.80
  -8  -1  10   89.99    4.30
  -7  -1  10   74.79    3.90
   6   1 -10    2.80    0.80
  -6  -1  10    3.00    1.20
   5   1 -10   18.90    1.30
  -5  -1  10   18.30    2.10
   4   1 -10  183.28    4.90
  -4  -1  10  186.48    6.10
   3   1 -10   67.59    2.30
  -3  -1  10   63.99    3.10
   2   1 -10   48.90    1.80
  -2  -1  10   47.40    2.60
   1   1 -10   37.50    1.50
  -1  -1  10   36.80    2.20
   0   1 -10  103.99    3.00
   0  -1  10  109.99    3.90
   1  -1  10  193.48    5.80
   2  -1  10   97.99    3.60
   3  -1  10   22.20    1.70
  -4   1 -10   18.00    1.60
  -5   1 -10   94.49    3.50
  -6   1 -10   98.89    3.60
  -7   1 -10    6.10    1.10
  -8   1 -10   13.20    1.50
  -9   1 -10   69.49    3.00
 -10   1 -10  116.69    4.20
 -11   1 -10  160.38    5.30
 -12   1 -10   26.50    2.30
 -13   1 -10   71.49    3.50
 -14   1 -10    0.00    1.00
 -15   1 -10    0.50    1.10
 -16   1 -10    8.80    1.80
 -17   1 -10   31.80    2.90
 -18   1 -10  119.59    5.40
 -13   0  10    1.90    1.90
 -12   0  10   10.20    2.30
 -11   0  10   11.60    2.30
 -10   0  10    7.70    2.00
  -9   0  10   58.99    3.70
  -8   0  10  126.39    5.40
   7   0 -10   19.00    1.60
  -7   0  10   17.70    2.20
   6   0 -10   98.89    3.40
  -6   0  10  107.79    4.50
   5   0 -10    7.80    1.00
  -5   0  10    7.00    1.50
   4   0 -10    6.30    0.90
  -4   0  10    5.40    1.20
   3   0 -10   25.90    1.40
  -3   0  10   26.80    2.10
   2   0 -10   19.70    1.20
  -2   0  10   19.10    1.80
   1   0 -10    0.70    0.50
  -1   0  10    0.40    0.80
   0   0 -10  242.38    6.00
   0   0  10  245.88    6.90
  -1   0 -10  234.18    5.80
   1   0  10  232.18    6.60
   2   0  10   51.89    2.50
   3   0  10    3.80    1.00
   4   0  10  122.49    4.10
  -5   0 -10  356.16    9.10
  -6   0 -10    0.70    0.70
  -7   0 -10    0.10    0.70
  -8   0 -10  110.99    3.90
  -9   0 -10   24.90    1.80
 -10   0 -10  112.89    4.10
 -11   0 -10    6.60    1.30
 -12   0 -10  165.28    5.40
 -13   0 -10   68.69    3.20
 -14   0 -10    0.40    1.10
 -15   0 -10   -0.80    1.10
 -16   0 -10    0.30    1.10
 -17   0 -10   -0.60    1.30
 -18   0 -10    2.80    1.60
 -18   0 -10    0.50    1.20
 -19   0 -10    5.30    1.70
 -13   1  10   -0.70    1.50
 -12   1  10    0.60    1.60
 -11   1  10    4.40    1.70
 -10   1  10    2.40    1.50
  -9   1  10    7.80    1.80
  -8   1  10   63.79    3.70
   7  -1 -10  395.16    9.80
  -7   1  10  385.56   11.00
   6  -1 -10    2.70    0.90
  -6   1  10    5.90    1.40
   5  -1 -10   -0.10    0.60
  -5   1  10   -0.20    0.90
   4  -1 -10   37.70    1.90
  -4   1  10   33.60    2.30
   3  -1 -10   32.20    1.70
  -3   1  10   30.20    2.30
   2  -1 -10    0.30    0.50
  -2   1  10    1.10    0.80
   1  -1 -10   44.80    1.90
  -1   1  10   47.90    2.50
   0  -1 -10    1.30    0.60
   0   1  10    2.00    0.80
  -1  -1 -10  364.06    8.50
   1   1  10  344.37    9.10
   2   1  10   42.60    2.20
   3   1  10    8.50    1.10
   4   1  10  621.84   14.50
  -5  -1 -10 1047.20   23.30
  -6  -1 -10   10.20    1.30
  -7  -1 -10   98.69    3.40
  -8  -1 -10    5.80    1.00
  -9  -1 -10  145.39    4.60
 -10  -1 -10    4.70    1.10
 -11  -1 -10   35.60    2.10
 -12  -1 -10  269.77    7.50
 -13  -1 -10  138.99    4.80
 -14  -1 -10    4.70    1.30
 -15  -1 -10   12.50    1.80
 -16  -1 -10    1.40    1.30
 -17  -1 -10    1.40    1.30
 -17  -1 -10   -0.30    1.10
 -18  -1 -10    3.20    1.50
 -18  -1 -10    3.00    1.50
 -19  -1 -10    2.70    1.60
 -12   2  10    1.70    1.80
 -11   2  10    4.60    1.80
 -10   2  10   -0.70    1.20
  -9   2  10   14.90    2.20
   8  -2 -10    7.70    1.30
  -8   2  10    7.00    1.70
   7  -2 -10   96.99    3.70
  -7   2  10   99.29    4.50
   6  -2 -10   32.70    2.10
  -6   2  10   28.30    2.60
   5  -2 -10   20.90    1.70
  -5   2  10   17.00    2.00
   4  -2 -10    2.20    0.80
  -4   2  10    0.90    0.90
   3  -2 -10   69.49    2.70
  -3   2  10   76.09    3.30
   2  -2 -10   86.49    3.00
  -2   2  10   84.59    3.50
   1  -2 -10   38.60    1.90
  -1   2  10   36.00    2.10
   0  -2 -10  386.86    9.10
   0   2  10  371.26    9.60
  -1  -2 -10  111.19    3.50
   1   2  10  110.79    3.80
   2   2  10  183.38    5.30
   3   2  10   27.40    1.70
   4   2  10   47.30    2.20
  -5  -2 -10 1512.65   32.80
  -6  -2 -10  103.19    3.50
  -7  -2 -10   59.79    2.50
  -8  -2 -10  112.19    3.70
  -9  -2 -10   16.90    1.50
 -10  -2 -10    3.40    0.90
 -11  -2 -10    3.60    1.00
 -12  -2 -10   16.50    1.70
 -13  -2 -10  225.18    6.60
 -14  -2 -10   57.29    2.90
 -15  -2 -10    2.60    1.30
 -16  -2 -10   32.90    2.50
 -16  -2 -10   35.90    2.70
 -17  -2 -10    6.30    1.70
 -17  -2 -10    7.00    1.70
 -18  -2 -10   -0.40    1.10
 -18  -2 -10    1.90    1.40
 -19  -2 -10    5.70    1.60
 -19  -2 -10    6.40    1.70
 -12   3  10  132.69    6.30
 -11   3  10   13.30    2.40
 -10   3  10   31.00    3.10
  -9   3  10   50.29    3.50
   8  -3 -10    3.10    1.10
  -8   3  10    6.20    1.70
   7  -3 -10   31.80    2.20
  -7   3  10   31.90    2.80
   6  -3 -10    4.30    1.10
  -6   3  10    4.80    1.40
   5  -3 -10  395.16    9.90
  -5   3  10  391.26   10.70
   4  -3 -10   19.50    1.60
  -4   3  10   20.50    2.00
   3  -3 -10   19.50    1.60
  -3   3  10   23.20    2.10
   2  -3 -10   20.70    1.50
  -2   3  10   20.50    1.80
   1  -3 -10   22.90    1.60
  -1   3  10   20.10    1.90
   0  -3 -10   60.49    2.50
   0   3  10   59.09    2.70
  -1  -3 -10  226.28    6.00
   1   3  10  224.38    6.20
   2   3  10  198.98    5.60
   3   3  10   60.09    2.50
   4   3  10   10.10    1.10
   5   3  10   41.00    2.00
  -6  -3 -10    4.60    0.90
  -7  -3 -10   72.59    2.70
  -8  -3 -10   49.80    2.20
  -9  -3 -10   16.90    1.50
 -10  -3 -10  200.48    5.60
 -11  -3 -10   17.10    1.50
 -12  -3 -10  108.09    3.80
 -13  -3 -10    5.60    1.10
 -14  -3 -10   12.90    1.80
 -14  -3 -10   14.90    1.70
 -15  -3 -10  144.29    5.00
 -15  -3 -10  140.79    5.40
 -16  -3 -10   23.40    2.50
 -16  -3 -10   26.50    2.40
 -17  -3 -10    3.10    1.40
 -17  -3 -10    6.70    1.50
 -18  -3 -10   10.60    1.90
 -18  -3 -10   15.80    2.20
 -19  -3 -10    1.80    1.40
 -19  -3 -10    0.60    1.40
 -20  -3 -10   -0.40    1.40
 -12   4  10   94.29    5.40
 -11   4  10   39.50    3.70
 -10   4  10    1.30    1.40
   9  -4 -10    0.20    1.00
  -9   4  10    2.20    1.40
   8  -4 -10   79.69    3.60
  -8   4  10   80.09    4.20
   7  -4 -10   36.20    2.30
  -7   4  10   41.10    2.90
   6  -4 -10   13.00    1.60
  -6   4  10   10.70    1.80
   5  -4 -10    9.90    1.30
  -5   4  10   10.20    1.70
   4  -4 -10   16.40    1.60
  -4   4  10   13.60    1.70
   3  -4 -10  237.18    6.70
  -3   4  10  246.28    7.10
   2  -4 -10    2.70    0.80
  -2   4  10    1.50    0.80
   1  -4 -10   99.19    3.50
  -1   4  10  104.89    3.80
   0  -4 -10  491.25   11.80
   0  -4 -10  496.65   11.00
   0   4  10  494.85   12.00
  -1  -4 -10  205.98    5.80
   1   4  10  210.78    5.90
   2   4  10    0.30    0.60
   3   4  10   60.89    2.50
   4   4  10    3.80    0.80
   5   4  10  122.69    3.80
  -6  -4 -10   13.80    1.20
  -7  -4 -10    2.70    0.70
  -8  -4 -10  295.87    7.40
  -9  -4 -10  262.47    6.70
 -10  -4 -10   65.09    2.60
 -11  -4 -10   11.80    1.30
 -12  -4 -10    1.30    1.00
 -12  -4 -10    1.10    0.80
 -13  -4 -10   20.40    2.10
 -13  -4 -10   22.80    1.70
 -14  -4 -10   12.40    1.50
 -14  -4 -10   13.50    1.90
 -15  -4 -10   13.40    1.90
 -15  -4 -10   11.80    1.60
 -16  -4 -10   23.30    2.10
 -16  -4 -10   26.10    2.60
 -17  -4 -10   21.00    2.20
 -17  -4 -10   16.70    2.10
 -18  -4 -10   47.00    3.10
 -18  -4 -10   43.50    3.00
 -19  -4 -10    2.00    1.30
 -19  -4 -10    1.50    1.20
 -20  -4 -10    3.10    1.40
 -20  -4 -10    2.90    1.50
 -11   5  10   44.10    4.00
 -10   5  10   11.90    2.20
   9  -5 -10   35.30    2.90
  -9   5  10   28.70    3.00
   8  -5 -10    1.50    1.10
  -8   5  10    2.40    1.40
   7  -5 -10   51.09    3.00
  -7   5  10   59.19    3.40
   6  -5 -10   -0.50    0.80
  -6   5  10   -0.90    1.00
   5  -5 -10   38.50    2.30
  -5   5  10   42.60    2.70
   4  -5 -10   56.69    2.70
  -4   5  10   58.39    3.10
   3  -5 -10  271.27    7.30
  -3   5  10  257.77    7.60
   2  -5 -10  244.08    6.80
  -2   5  10  238.58    7.00
   1  -5 -10    0.30    0.70
  -1   5  10    0.70    0.80
   0  -5 -10   18.60    1.00
   0  -5 -10   21.10    1.80
   0   5  10   18.30    1.60
  -1  -5 -10  375.96    9.50
  -1  -5 -10  384.56    8.80
   1   5  10  380.76    9.50
  -2  -5 -10   51.09    1.90
  -2  -5 -10   49.70    2.30
   2   5  10   51.49    2.30
  -3  -5 -10    5.40    0.80
   3   5  10    6.40    0.90
  -4  -5 -10  638.24   14.30
   4   5  10  616.34   14.20
  -5  -5 -10   78.09    2.80
   5   5  10   74.29    2.60
  -6  -5 -10  198.18    5.30
  -6  -5 -10  207.28    5.70
  -7  -5 -10   14.00    1.40
  -7  -5 -10   15.10    1.10
  -8  -5 -10   31.20    1.60
  -8  -5 -10   26.80    1.80
  -9  -5 -10 1143.59   24.70
  -9  -5 -10 1131.69   25.50
 -10  -5 -10  503.85   11.80
 -10  -5 -10  511.65   12.60
 -11  -5 -10   50.59    2.70
 -11  -5 -10   44.70    2.10
 -12  -5 -10   14.50    1.40
 -12  -5 -10   16.10    1.80
 -13  -5 -10  131.19    4.30
 -13  -5 -10  133.39    4.90
 -14  -5 -10   36.60    2.20
 -14  -5 -10   38.50    2.70
 -15  -5 -10   22.40    2.30
 -15  -5 -10   20.10    1.80
 -16  -5 -10    3.20    1.40
 -16  -5 -10    2.50    1.10
 -17  -5 -10   88.79    3.90
 -17  -5 -10   90.79    4.20
 -18  -5 -10   16.10    2.10
 -18  -5 -10   17.20    2.30
 -19  -5 -10   -0.10    1.20
 -19  -5 -10   -1.00    1.00
 -20  -5 -10    3.70    1.50
 -20  -5 -10    5.80    1.50
 -11   6  10   49.60    4.20
 -10   6  10    3.00    1.90
   9  -6 -10   96.99    4.40
  -9   6  10  100.99    5.10
   8  -6 -10   83.99    4.00
  -8   6  10   73.09    4.20
   7  -6 -10   27.90    2.50
  -7   6  10   24.70    2.70
   6  -6 -10    8.60    1.50
  -6   6  10    8.40    1.70
   5  -6 -10    7.10    1.40
  -5   6  10    8.00    1.60
   4  -6 -10   11.60    1.60
  -4   6  10   15.30    1.90
   3  -6 -10  127.29    4.50
  -3   6  10  129.89    4.70
   2  -6 -10   48.40    2.60
  -2   6  10   56.69    2.80
   1  -6 -10   49.40    2.50
  -1   6  10   44.00    2.40
   0  -6 -10    4.00    1.00
   0   6  10    3.30    0.90
  -1  -6 -10    3.30    0.60
  -1  -6 -10    3.00    0.90
   1   6  10    3.90    0.90
  -2  -6 -10    5.30    0.70
  -2  -6 -10    5.30    1.00
   2   6  10    5.20    0.90
  -3  -6 -10   14.00    1.10
   3   6  10   11.20    1.10
  -4  -6 -10  143.69    4.10
   4   6  10  146.39    4.10
  -5  -6 -10   74.99    2.70
   5   6  10   71.09    2.50
  -6  -6 -10  245.28    6.60
  -6  -6 -10  258.77    6.30
  -7  -6 -10    3.80    0.70
  -7  -6 -10    4.90    1.00
  -8  -6 -10   22.40    1.30
  -8  -6 -10   21.70    1.60
  -9  -6 -10   18.20    1.80
  -9  -6 -10   20.10    1.30
 -10  -6 -10   54.69    2.70
 -10  -6 -10   58.09    2.20
 -11  -6 -10   47.30    2.00
 -11  -6 -10   46.80    2.60
 -12  -6 -10   87.69    3.70
 -12  -6 -10   94.79    3.20
 -13  -6 -10    0.20    0.90
 -13  -6 -10    0.90    0.70
 -14  -6 -10  347.27    9.80
 -14  -6 -10  360.06    9.00
 -15  -6 -10   72.79    3.10
 -15  -6 -10   67.49    3.50
 -16  -6 -10   60.69    3.30
 -16  -6 -10   55.99    2.80
 -17  -6 -10   14.30    1.70
 -17  -6 -10   17.10    2.20
 -18  -6 -10    2.90    1.40
 -18  -6 -10    2.90    1.30
 -19  -6 -10    4.60    1.50
 -20  -6 -10    1.50    1.50
 -10   7  10   -1.10    1.30
   9  -7 -10    4.90    1.50
  -9   7  10    4.80    1.80
   8  -7 -10  235.18    7.50
  -8   7  10  233.78    8.10
   7  -7 -10   21.20    2.20
  -7   7  10   18.80    2.50
   6  -7 -10    7.60    1.60
  -6   7  10    6.00    1.60
   5  -7 -10   22.60    2.20
  -5   7  10   27.10    2.50
   4  -7 -10   14.90    1.90
  -4   7  10   13.30    1.80
   3  -7 -10   49.70    2.80
  -3   7  10   47.20    2.80
   2  -7 -10   36.20    2.30
  -2   7  10   32.60    2.20
   1  -7 -10   -0.40    0.80
  -1   7  10   -0.30    0.60
   0  -7 -10   74.19    3.10
   0   7  10   71.59    3.00
  -1  -7 -10   47.40    2.50
  -1  -7 -10   49.40    1.80
   1   7  10   53.99    2.40
  -2  -7 -10  216.38    5.30
  -2  -7 -10  205.58    6.10
   2   7  10  199.98    5.60
  -3  -7 -10   67.29    2.40
   3   7  10   71.69    2.60
  -4  -7 -10  150.48    4.20
   4   7  10  142.69    4.10
  -5  -7 -10  130.69    3.90
   5   7  10  130.79    3.70
  -6  -7 -10  197.58    5.10
  -6  -7 -10  203.08    5.60
  -7  -7 -10   81.19    3.10
  -7  -7 -10   78.49    2.50
  -8  -7 -10   36.90    2.00
  -8  -7 -10   34.30    1.50
  -9  -7 -10    4.40    1.00
  -9  -7 -10    3.70    0.60
 -10  -7 -10  116.69    3.40
 -10  -7 -10  120.09    4.20
 -11  -7 -10   21.50    1.30
 -11  -7 -10   18.80    1.80
 -12  -7 -10  123.39    3.80
 -12  -7 -10  129.59    4.60
 -13  -7 -10  242.78    7.30
 -13  -7 -10  241.48    6.40
 -14  -7 -10   37.80    2.60
 -14  -7 -10   38.10    2.00
 -15  -7 -10  101.79    4.30
 -16  -7 -10    9.30    1.70
 -17  -7 -10   40.00    2.90
 -18  -7 -10    3.20    1.50
 -19  -7 -10    1.70    1.50
 -20  -7 -10   13.30    2.20
   9  -8 -10    8.70    1.80
  -9   8  10    8.30    1.90
   8  -8 -10    8.50    1.70
  -8   8  10   10.00    2.00
   7  -8 -10   45.10    3.10
  -7   8  10   38.50    3.30
   6  -8 -10    0.50    1.20
  -6   8  10    2.50    1.30
   5  -8 -10    3.60    1.30
  -5   8  10    6.10    1.50
   4  -8 -10  108.79    4.30
  -4   8  10  104.09    4.40
   3  -8 -10  332.37    9.20
  -3   8  10  335.37    9.20
   2  -8 -10    0.90    0.90
  -2   8  10    0.10    0.90
   1  -8 -10    1.90    1.00
  -1   8  10    1.50    0.90
   0  -8 -10  284.17    7.90
   0   8  10  274.67    7.50
  -1  -8 -10  104.59    3.30
  -1  -8 -10  103.49    4.00
   1   8  10  106.19    3.60
  -2  -8 -10   52.09    2.70
  -2  -8 -10   56.59    2.00
   2   8  10   53.89    2.30
  -3  -8 -10    5.60    1.30
  -3  -8 -10    8.60    0.90
   3   8  10    6.70    0.90
  -4  -8 -10  234.48    6.10
   4   8  10  235.38    5.90
  -5  -8 -10  261.67    6.70
   5   8  10  253.67    6.20
  -6  -8 -10  210.48    5.80
  -6  -8 -10  208.78    5.10
  -7  -8 -10   16.00    1.50
  -7  -8 -10   16.90    1.10
  -8  -8 -10  188.78    5.50
  -9  -8 -10  286.07    7.70
 -10  -8 -10   23.60    2.00
 -11  -8 -10   16.50    1.70
 -12  -8 -10  142.99    4.90
 -13  -8 -10  102.29    4.10
 -14  -8 -10  162.08    5.60
 -15  -8 -10   12.50    1.90
 -16  -8 -10   -0.80    1.10
 -17  -8 -10  143.99    5.50
 -18  -8 -10   46.60    3.20
 -19  -8 -10   36.10    3.10
 -20  -8 -10   -0.10    1.40
   9  -9 -10    3.70    1.70
  -9   9  10    6.00    1.90
   8  -9 -10    4.90    1.60
  -8   9  10    6.60    1.90
   7  -9 -10   55.89    3.60
  -7   9  10   61.19    3.80
   6  -9 -10   -0.90    1.00
  -6   9  10    0.80    1.10
   5  -9 -10   61.59    3.40
  -5   9  10   62.79    3.50
   4  -9 -10   -0.30    1.00
  -4   9  10    0.00    0.90
   3  -9 -10   17.80    2.10
  -3   9  10   18.00    2.00
   2  -9 -10   25.70    2.30
  -2   9  10   20.70    2.00
   1  -9 -10    0.10    0.80
  -1   9  10   -0.20    0.80
   0  -9 -10   90.19    3.80
   0   9  10   88.19    3.40
  -1  -9 -10   43.20    2.60
   1   9  10   49.90    2.30
  -2  -9 -10    1.10    0.90
  -2  -9 -10    0.80    0.50
   2   9  10    0.60    0.60
  -3  -9 -10    1.10    0.90
  -3  -9 -10    1.80    0.60
  -4  -9 -10    1.40    0.60
  -5  -9 -10   97.29    3.30
  -6  -9 -10   79.49    3.00
  -7  -9 -10    6.30    1.00
  -8  -9 -10    0.60    0.70
  -9  -9 -10   72.29    3.00
 -10  -9 -10    7.90    1.30
 -11  -9 -10  165.78    5.40
 -12  -9 -10   35.40    2.30
 -13  -9 -10   21.20    2.10
 -14  -9 -10   40.80    2.80
 -15  -9 -10  131.39    5.00
 -16  -9 -10   20.20    2.30
 -17  -9 -10   32.50    2.90
 -18  -9 -10   88.19    4.30
 -19  -9 -10   12.10    2.10
 -20  -9 -10    0.90    1.50
   8 -10 -10   65.19    4.00
  -8  10  10   70.49    4.10
   7 -10 -10   13.30    2.10
  -7  10  10   12.70    2.10
   6 -10 -10    0.70    1.20
  -6  10  10   -0.30    1.20
   5 -10 -10    1.90    1.30
  -5  10  10    4.30    1.40
   4 -10 -10   21.10    2.30
  -4  10  10   21.40    2.30
   3 -10 -10    6.00    1.50
  -3  10  10    4.30    1.30
   2 -10 -10  156.08    5.50
  -2  10  10  145.29    5.10
   1 -10 -10   37.10    2.60
  -1  10  10   41.90    2.40
   0 -10 -10    3.20    1.10
  -1 -10 -10    4.10    1.20
  -2 -10 -10    2.80    0.80
  -2 -10 -10    2.90    1.10
  -3 -10 -10   25.50    1.50
  -3 -10 -10   24.60    2.20
  -4 -10 -10   95.39    3.20
  -4 -10 -10  104.49    4.00
  -5 -10 -10    0.80    0.70
  -6 -10 -10   19.60    1.50
  -7 -10 -10   52.99    2.40
  -8 -10 -10  112.99    3.90
  -9 -10 -10   69.29    3.00
 -10 -10 -10   16.80    1.70
 -11 -10 -10    1.90    1.00
 -12 -10 -10   26.50    2.30
 -13 -10 -10   32.10    2.50
 -14 -10 -10   26.40    2.40
 -15 -10 -10    5.80    1.50
 -16 -10 -10   -1.50    1.20
 -17 -10 -10   10.10    1.80
 -18 -10 -10    2.10    1.60
 -19 -10 -10   31.30    3.10
 -20 -10 -10    0.80    1.40
   7 -11 -10   22.70    2.80
  -7  11  10   21.40    3.20
   6 -11 -10   14.00    2.20
   5 -11 -10    3.20    1.40
   4 -11 -10   12.90    2.00
   3 -11 -10   21.30    2.40
   2 -11 -10   21.10    2.40
   1 -11 -10    5.80    1.50
   0 -11 -10  106.99    4.50
  -1 -11 -10    8.20    1.50
  -2 -11 -10   31.40    2.40
  -3 -11 -10    5.20    1.30
  -3 -11 -10    5.30    0.90
  -4 -11 -10  221.08    6.90
  -4 -11 -10  224.18    5.90
  -5 -11 -10  219.58    5.90
  -6 -11 -10   51.09    2.30
  -7 -11 -10   -0.10    0.70
  -8 -11 -10  174.98    5.30
  -9 -11 -10    0.10    0.90
 -10 -11 -10   46.10    2.50
 -11 -11 -10    3.60    1.10
 -12 -11 -10    0.70    0.90
 -13 -11 -10  281.67    8.10
 -14 -11 -10   19.30    2.10
 -15 -11 -10   -1.20    1.00
 -16 -11 -10    7.90    1.60
 -17 -11 -10    9.90    1.80
 -18 -11 -10   15.50    2.20
 -19 -11 -10    8.10    1.80
 -20 -11 -10    2.60    1.50
   6 -12 -10    6.20    1.80
   5 -12 -10    3.40    1.40
   4 -12 -10    9.50    1.90
   3 -12 -10    0.30    1.20
   2 -12 -10   -0.60    1.30
   1 -12 -10    2.20    1.30
   0 -12 -10  252.17    7.80
  -1 -12 -10  136.99    5.20
  -2 -12 -10   13.80    1.90
  -3 -12 -10    2.30    0.90
  -3 -12 -10    2.30    1.20
  -4 -12 -10   45.20    2.10
  -4 -12 -10   45.00    2.80
  -5 -12 -10   65.29    2.60
  -5 -12 -10   60.29    3.20
  -6 -12 -10  167.68    5.00
  -7 -12 -10    8.90    1.30
  -8 -12 -10   35.80    2.10
  -9 -12 -10  256.67    7.20
 -10 -12 -10    0.30    0.90
 -11 -12 -10    0.20    0.90
 -12 -12 -10    0.50    1.10
 -13 -12 -10   21.80    2.20
 -14 -12 -10  120.69    4.70
 -15 -12 -10   17.20    2.10
 -16 -12 -10   19.90    2.30
 -17 -12 -10    2.70    1.30
 -18 -12 -10    1.00    1.30
 -19 -12 -10   13.20    2.30
 -20 -12 -10    3.00    1.60
   6 -13 -10    1.30    1.40
   5 -13 -10   13.40    2.20
   4 -13 -10  138.79    5.70
   3 -13 -10    1.80    1.40
   2 -13 -10   46.60    3.20
   1 -13 -10    3.70    1.40
   0 -13 -10   69.19    3.70
  -1 -13 -10   63.79    3.50
  -2 -13 -10  131.69    5.20
  -3 -13 -10    0.00    1.10
  -4 -13 -10  255.87    6.70
  -4 -13 -10  244.68    7.70
  -5 -13 -10   -0.10    0.80
  -5 -13 -10   -0.50    1.00
  -6 -13 -10   81.39    3.80
  -6 -13 -10   80.69    3.10
  -7 -13 -10    0.10    0.90
  -8 -13 -10   37.00    2.20
  -9 -13 -10   41.20    2.50
 -10 -13 -10   83.79    3.50
 -11 -13 -10   61.89    3.10
 -12 -13 -10   47.30    2.70
 -13 -13 -10   12.60    1.80
 -14 -13 -10    6.60    1.50
 -15 -13 -10   13.70    2.00
 -16 -13 -10    1.60    1.30
 -17 -13 -10   -0.30    1.20
 -18 -13 -10    6.80    1.70
 -19 -13 -10    7.90    1.90
 -20 -13 -10    6.90    1.90
   5 -14 -10   -0.70    1.30
   4 -14 -10   68.89    4.00
   3 -14 -10   61.39    3.70
   2 -14 -10   -0.40    1.20
   1 -14 -10   20.10    2.50
   0 -14 -10   40.00    3.00
  -1 -14 -10  192.48    6.70
  -2 -14 -10   63.39    3.60
  -3 -14 -10   16.50    2.10
  -4 -14 -10    3.40    1.40
  -4 -14 -10   -0.20    1.40
  -5 -14 -10   85.89    4.10
  -5 -14 -10   90.99    3.40
  -6 -14 -10    9.10    1.70
  -6 -14 -10   10.80    1.40
  -7 -14 -10    7.50    1.30
  -8 -14 -10  241.68    6.90
  -9 -14 -10  105.69    4.10
 -10 -14 -10   20.50    2.00
 -11 -14 -10    0.30    0.90
 -12 -14 -10   -0.60    1.10
 -13 -14 -10   16.00    2.00
 -14 -14 -10   11.50    1.80
 -15 -14 -10   11.90    1.90
 -16 -14 -10   22.30    2.50
 -17 -14 -10   27.50    2.70
 -18 -14 -10   -1.60    1.40
 -19 -14 -10   14.20    2.20
   3 -15 -10   25.30    2.80
   2 -15 -10   11.00    2.20
   1 -15 -10    0.50    1.40
   0 -15 -10   75.89    4.10
  -1 -15 -10   50.19    3.30
  -2 -15 -10   23.90    2.60
  -3 -15 -10    1.40    1.30
  -4 -15 -10   53.89    3.30
  -5 -15 -10   23.70    1.90
  -5 -15 -10   22.00    2.40
  -6 -15 -10    4.40    1.20
  -6 -15 -10    2.90    1.30
  -7 -15 -10   23.60    2.00
  -7 -15 -10   25.40    2.60
  -8 -15 -10    7.70    1.30
  -9 -15 -10    9.20    1.60
 -10 -15 -10  104.89    4.10
 -11 -15 -10   12.50    1.70
 -12 -15 -10    2.00    1.20
 -13 -15 -10   21.80    2.30
 -14 -15 -10    3.20    1.50
 -15 -15 -10   16.60    2.30
 -16 -15 -10   23.40    2.50
 -17 -15 -10   14.50    2.20
 -18 -15 -10    6.70    1.80
 -19 -15 -10    0.70    1.60
   2 -16 -10    4.00    1.60
   1 -16 -10    4.40    1.70
   0 -16 -10   11.70    2.10
  -1 -16 -10    4.50    1.60
  -2 -16 -10   56.49    3.60
  -3 -16 -10   13.90    2.20
  -4 -16 -10  101.59    4.70
  -5 -16 -10   13.50    2.10
  -6 -16 -10   68.09    3.20
  -6 -16 -10   68.89    3.80
  -7 -16 -10    6.20    1.70
  -7 -16 -10    6.00    1.30
  -8 -16 -10   37.40    3.10
  -8 -16 -10   41.50    2.60
  -9 -16 -10   -0.40    0.90
 -10 -16 -10   17.50    2.00
 -11 -16 -10   -1.10    0.90
 -12 -16 -10    1.80    1.20
 -13 -16 -10    0.30    1.30
 -14 -16 -10   12.00    1.90
 -15 -16 -10    1.00    1.30
 -16 -16 -10    2.90    1.50
 -17 -16 -10   -0.80    1.40
 -18 -16 -10   -0.90    1.50
   1 -17 -10   -1.00    1.30
   0 -17 -10   41.10    3.60
  -1 -17 -10   29.80    3.00
  -2 -17 -10    8.70    2.00
  -3 -17 -10    7.10    1.90
  -4 -17 -10  168.18    6.30
  -5 -17 -10   96.99    4.60
  -6 -17 -10  124.59    5.30
  -6 -17 -10  121.29    4.50
  -7 -17 -10    1.50    1.50
  -7 -17 -10    5.20    1.40
  -8 -17 -10    2.80    1.20
  -8 -17 -10    1.60    1.30
  -9 -17 -10    4.60    1.40
 -10 -17 -10   19.70    2.20
 -11 -17 -10   -0.80    1.10
 -12 -17 -10  144.29    5.40
 -13 -17 -10   88.99    4.10
 -14 -17 -10    4.40    1.50
 -15 -17 -10    0.40    1.30
 -16 -17 -10    2.10    1.50
 -17 -17 -10    2.90    1.60
  -1 -18 -10    2.50    1.60
  -2 -18 -10   20.20    2.70
  -3 -18 -10   -0.70    1.40
  -4 -18 -10   28.10    3.00
  -5 -18 -10  266.07    8.70
  -6 -18 -10   53.19    3.50
  -7 -18 -10    1.90    1.30
  -7 -18 -10    3.40    1.50
  -8 -18 -10   11.20    1.70
  -8 -18 -10    8.70    1.90
  -9 -18 -10   -0.30    1.30
  -9 -18 -10    0.60    1.30
 -10 -18 -10    0.50    1.30
 -11 -18 -10   18.00    2.10
 -12 -18 -10    5.20    1.50
 -13 -18 -10   47.30    3.30
 -14 -18 -10   33.70    3.00
 -15 -18 -10   -2.00    1.20
 -16 -18 -10    2.30    1.60
  -3 -19 -10    2.40    1.70
  -4 -19 -10   -0.90    1.30
  -5 -19 -10   18.10    2.40
  -6 -19 -10   44.90    3.40
  -7 -19 -10    0.90    1.50
  -7 -19 -10    1.00    1.40
  -8 -19 -10   22.30    2.30
  -8 -19 -10   16.60    2.50
  -9 -19 -10   -1.00    1.40
  -9 -19 -10    0.20    1.20
 -10 -19 -10    0.40    1.30
 -10 -19 -10    0.80    1.30
 -11 -19 -10    2.50    1.50
 -12 -19 -10   -0.40    1.10
 -13 -19 -10    6.40    1.70
 -14 -19 -10    7.20    2.00
 -15 -19 -10    3.70    1.60
  -6 -20 -10    3.50    1.60
  -7 -20 -10   28.60    3.10
  -8 -20 -10   37.80    2.80
  -8 -20 -10   32.50    3.20
  -9 -20 -10   20.00    2.30
  -9 -20 -10   19.00    2.50
 -10 -20 -10    1.80    1.60
 -10 -20 -10    1.60    1.50
 -11 -20 -10    0.40    1.50
 -11 -20 -10    0.80    1.50
 -12 -20 -10   14.90    2.30
 -13 -20 -10    6.70    1.80
  -6 -15  11   11.90    2.40
  -6 -15  11   11.10    2.30
   5  15 -11    8.20    2.10
  -5 -15  11   13.90    2.40
   4  15 -11   55.59    3.90
  -4 -15  11   51.89    4.30
   3  15 -11    3.60    1.60
  -3 -15  11    3.20    1.80
   2  15 -11   11.30    2.10
  -2 -15  11   16.80    2.60
   1  15 -11    1.40    1.40
  -1 -15  11   -0.80    1.40
   0  15 -11   -1.50    1.20
   0 -15  11    0.30    1.40
  -1  15 -11   62.69    4.10
  -2  15 -11  138.49    6.00
  -3  15 -11    5.80    1.70
  -8 -14  11   39.30    3.60
  -8 -14  11   43.50    3.70
  -7 -14  11   26.30    3.00
  -7 -14  11   16.20    2.60
  -6 -14  11   -0.90    1.30
  -6 -14  11   -0.90    1.30
  -5 -14  11   -0.60    1.50
  -5 -14  11    0.80    1.40
   4  14 -11    2.50    1.50
  -4 -14  11    0.10    1.40
   3  14 -11    2.60    1.60
  -3 -14  11    1.80    1.50
   2  14 -11    3.40    1.50
  -2 -14  11    4.10    1.70
   1  14 -11    6.70    1.80
  -1 -14  11    5.70    2.00
   0  14 -11    0.90    1.50
   0 -14  11    1.70    1.70
  -1  14 -11   45.00    3.50
  -2  14 -11  123.69    5.40
  -3  14 -11   13.80    2.20
  -4  14 -11   34.40    3.30
  -5  14 -11   10.90    2.20
  -9 -13  11    6.90    1.80
  -9 -13  11    7.30    2.00
  -8 -13  11   51.49    3.90
  -8 -13  11   60.29    3.70
  -7 -13  11   73.59    4.20
  -7 -13  11   76.49    4.20
  -6 -13  11    4.60    1.60
  -6 -13  11    6.40    1.70
  -5 -13  11    9.60    2.10
  -5 -13  11   12.30    2.20
  -4 -13  11   14.80    2.30
  -4 -13  11   13.40    2.30
   3  13 -11    0.30    1.30
  -3 -13  11    0.90    1.30
   2  13 -11   42.00    3.50
  -2 -13  11   35.40    3.40
   1  13 -11    1.10    1.30
  -1 -13  11    1.00    1.40
   0  13 -11    4.50    1.70
   0 -13  11    4.00    1.70
  -1  13 -11    1.70    1.40
   1 -13  11    3.70    1.60
  -2  13 -11   10.30    1.90
  -3  13 -11   -1.60    1.30
  -4  13 -11   52.39    3.70
  -5  13 -11  220.98    7.60
  -6  13 -11   18.00    2.40
  -7  13 -11   -0.70    1.30
 -10 -12  11    4.90    1.80
  -9 -12  11    7.00    2.00
  -9 -12  11    3.90    1.50
  -8 -12  11   -0.20    1.50
  -8 -12  11   -0.90    1.00
  -7 -12  11   17.00    2.50
  -7 -12  11   18.60    2.40
  -6 -12  11    0.40    1.40
  -6 -12  11    0.50    1.30
  -5 -12  11   -1.50    1.00
  -5 -12  11   -0.50    1.20
  -4 -12  11   10.10    1.90
  -4 -12  11   11.10    2.10
  -3 -12  11   41.70    3.10
  -3 -12  11   49.80    3.40
   2  12 -11   79.79    4.20
  -2 -12  11   89.69    4.50
   1  12 -11   -0.30    1.20
  -1 -12  11    2.20    1.40
   0  12 -11    8.70    1.80
   0 -12  11   11.80    2.10
  -1  12 -11   36.40    3.20
   1 -12  11   32.70    3.10
  -2  12 -11    0.60    1.40
  -3  12 -11    7.40    1.80
  -4  12 -11   27.10    2.70
  -5  12 -11  216.68    7.50
  -6  12 -11  299.67    9.30
  -7  12 -11    4.50    1.60
  -8  12 -11    2.70    1.50
  -9  12 -11   51.59    3.60
 -11 -11  11    3.30    1.90
 -10 -11  11   16.10    2.60
  -9 -11  11    0.50    1.30
  -8 -11  11   16.50    2.40
  -8 -11  11   15.10    2.10
  -7 -11  11    9.40    2.10
  -7 -11  11    9.70    1.90
  -6 -11  11   28.10    2.80
  -6 -11  11   32.90    3.20
  -5 -11  11    0.70    1.20
  -5 -11  11    0.30    1.10
  -4 -11  11   69.89    3.80
  -4 -11  11   78.29    4.00
  -3 -11  11    4.00    1.50
  -3 -11  11    6.00    1.60
  -2 -11  11    4.50    1.60
  -2 -11  11    5.70    1.60
   1  11 -11   25.10    2.60
  -1 -11  11   29.70    2.90
   0  11 -11    5.50    1.50
   0 -11  11    3.70    1.40
  -1  11 -11    0.30    1.10
   1 -11  11    0.80    1.10
  -2  11 -11   43.10    3.00
  -3  11 -11    2.10    1.40
  -4  11 -11    0.60    1.30
  -5  11 -11    0.60    1.40
  -6  11 -11   94.69    4.50
  -7  11 -11  112.19    5.10
  -8  11 -11    0.20    1.50
  -9  11 -11   -0.50    1.40
 -10  11 -11   57.69    4.00
 -11 -10  11    5.70    2.00
 -10 -10  11    4.00    1.80
  -9 -10  11    0.10    1.40
  -8 -10  11    3.40    1.30
  -8 -10  11    2.00    1.60
  -7 -10  11   49.60    3.00
  -7 -10  11   49.90    3.40
  -6 -10  11    6.70    1.50
  -6 -10  11    5.50    1.60
  -5 -10  11   11.50    1.90
  -5 -10  11    8.60    1.80
  -4 -10  11   30.50    2.80
  -4 -10  11   16.20    2.20
  -3 -10  11  119.49    5.00
  -3 -10  11  111.79    5.00
  -2 -10  11   -1.70    0.90
  -2 -10  11   -0.60    1.20
  -1 -10  11    1.90    1.20
   0  10 -11    0.40    1.00
   0 -10  11    0.90    1.20
  -1  10 -11   10.40    1.90
  -2  10 -11   67.49    3.70
  -3  10 -11    3.60    1.50
  -4  10 -11    3.70    1.40
  -5  10 -11    5.70    1.60
  -6  10 -11    7.60    1.70
  -7  10 -11    8.10    1.80
  -8  10 -11   -0.80    1.20
  -9  10 -11   60.39    3.90
 -10  10 -11   25.10    2.90
 -11  10 -11    0.60    1.40
 -12  -9  11    1.10    1.60
 -11  -9  11    3.40    1.70
 -10  -9  11   36.10    3.50
  -9  -9  11    4.30    1.80
  -8  -9  11   40.00    3.40
  -7  -9  11   69.19    3.90
  -7  -9  11   69.49    3.50
  -6  -9  11   18.90    2.10
  -6  -9  11   18.90    2.40
  -5  -9  11   98.29    4.60
  -5  -9  11   87.39    4.10
  -4  -9  11   29.10    2.60
  -4  -9  11   32.20    3.00
  -3  -9  11    8.30    1.70
  -3  -9  11   10.40    1.80
  -2  -9  11   12.00    1.80
  -2  -9  11   10.60    1.80
  -1  -9  11   20.90    2.20
  -1  -9  11   16.80    2.10
   0   9 -11   -0.40    1.00
   0  -9  11    2.30    1.20
  -1   9 -11   87.79    4.10
  -2   9 -11  120.09    5.00
  -3   9 -11    0.40    1.20
  -4   9 -11    6.10    1.50
  -5   9 -11   69.79    3.70
  -6   9 -11    4.20    1.40
  -7   9 -11    2.60    1.40
  -8   9 -11   10.00    1.90
  -9   9 -11  336.07   10.00
 -10   9 -11  217.28    7.40
 -11   9 -11    2.60    1.60
 -12   9 -11    1.90    1.60
 -12  -8  11    0.60    1.50
 -11  -8  11    3.60    1.70
 -10  -8  11    2.40    1.60
  -9  -8  11    0.10    1.30
  -8  -8  11   28.70    2.90
  -7  -8  11    0.80    1.20
  -7  -8  11    0.80    1.00
  -6  -8  11   19.50    2.10
  -6  -8  11   18.70    2.40
  -5  -8  11    0.80    1.10
  -5  -8  11   -0.10    0.80
  -4  -8  11   13.80    1.80
  -4  -8  11    8.00    1.60
  -3  -8  11   30.80    2.80
  -3  -8  11   31.80    2.40
  -2  -8  11   22.10    2.30
  -2  -8  11   17.60    2.10
  -1  -8  11   16.20    2.00
  -1  -8  11   15.90    1.90
   0  -8  11   22.90    2.40
   0  -8  11   20.10    2.20
  -1   8 -11   69.99    3.60
  -2   8 -11   32.30    2.70
  -3   8 -11    5.90    1.50
  -4   8 -11    4.60    1.40
  -5   8 -11   28.40    2.70
  -6   8 -11  137.09    5.20
  -7   8 -11   44.60    3.00
  -8   8 -11   26.00    2.50
  -9   8 -11    4.70    1.50
 -10   8 -11  159.98    6.10
 -11   8 -11   23.30    2.70
 -12   8 -11    2.20    1.50
 -13   8 -11    1.00    1.40
 -12  -7  11   99.49    5.40
 -11  -7  11    2.40    1.80
 -10  -7  11    3.90    1.80
  -9  -7  11    5.00    1.70
  -8  -7  11   75.49    4.30
  -7  -7  11   11.40    2.10
  -6  -7  11   88.89    3.70
  -6  -7  11   87.99    4.30
  -5  -7  11    0.40    1.20
  -5  -7  11    1.90    0.90
  -4  -7  11   17.40    2.20
  -4  -7  11   17.80    2.00
  -3  -7  11   71.19    3.70
  -3  -7  11   67.19    3.30
  -2  -7  11   29.00    2.50
  -2  -7  11   22.40    2.30
  -1  -7  11   87.39    3.90
  -1  -7  11   88.49    4.10
   0  -7  11   -0.20    1.10
  -2   7 -11   34.00    2.60
  -3   7 -11    1.40    1.10
  -4   7 -11    8.50    1.50
  -5   7 -11   27.90    2.50
  -6   7 -11   29.80    2.60
  -7   7 -11   74.79    3.70
  -8   7 -11    0.50    1.10
  -9   7 -11   63.59    3.50
 -10   7 -11   25.40    2.60
 -11   7 -11   24.50    2.60
 -12   7 -11    6.00    1.80
 -13   7 -11    2.60    1.50
 -14   7 -11    8.90    2.00
 -12  -6  11   20.30    2.90
 -11  -6  11  148.19    6.40
 -10  -6  11  111.99    5.40
  -9  -6  11    1.50    1.50
  -8  -6  11   31.10    3.10
  -7  -6  11    7.00    1.70
  -6  -6  11   35.80    2.30
  -6  -6  11   36.70    3.10
  -5  -6  11   22.90    2.10
  -5  -6  11   23.70    2.50
  -4  -6  11   56.79    2.90
  -4  -6  11   54.49    3.20
  -3  -6  11  714.73   16.80
  -3  -6  11  694.53   17.40
  -2  -6  11  101.99    4.10
  -2  -6  11  103.59    4.40
  -1  -6  11    1.40    0.90
  -1  -6  11    0.80    1.00
   0  -6  11   76.29    3.60
   1  -6  11   75.69    3.60
  -2   6 -11   22.30    2.20
  -3   6 -11    0.70    1.00
  -4   6 -11   -0.30    0.90
  -5   6 -11   42.30    2.70
  -6   6 -11  111.19    4.40
  -7   6 -11    2.10    1.10
  -8   6 -11   25.50    2.40
  -9   6 -11    8.00    1.70
 -10   6 -11   18.70    2.30
 -11   6 -11   15.90    2.10
 -12   6 -11   -0.80    1.10
 -13   6 -11   26.70    2.80
 -14   6 -11   90.69    4.70
 -15   6 -11   20.30    2.60
 -12  -5  11    9.30    2.30
 -11  -5  11    9.60    2.20
 -10  -5  11   23.40    2.90
  -9  -5  11    0.50    1.30
  -8  -5  11    6.00    1.70
  -7  -5  11    2.10    1.40
  -6  -5  11   -0.40    1.00
  -5  -5  11    0.20    0.80
  -5  -5  11    1.50    1.10
  -4  -5  11   34.90    2.20
  -4  -5  11   35.70    2.60
  -3  -5  11    3.30    1.10
  -3  -5  11    4.60    1.30
  -2  -5  11  100.29    4.20
  -2  -5  11   91.49    3.70
  -1  -5  11   26.10    2.30
   0  -5  11   -0.20    0.80
   1  -5  11  151.78    5.30
   2  -5  11   71.69    3.40
  -3   5 -11    4.90    1.30
  -4   5 -11   53.99    2.90
  -5   5 -11    4.40    1.20
  -6   5 -11   91.29    3.90
  -7   5 -11    2.10    1.10
  -8   5 -11   13.70    1.80
  -9   5 -11   33.40    2.50
 -10   5 -11   32.00    2.70
 -11   5 -11    6.60    1.70
 -12   5 -11   17.00    2.20
 -13   5 -11    4.40    1.50
 -14   5 -11   -0.40    1.20
 -15   5 -11   14.50    2.30
 -16   5 -11   -1.10    1.30
 -13  -4  11   -2.50    1.40
 -12  -4  11   15.10    2.70
 -11  -4  11    9.60    2.30
 -10  -4  11   18.00    2.60
  -9  -4  11   25.00    2.80
  -8  -4  11  207.28    7.30
  -7  -4  11   39.50    3.00
  -6  -4  11    4.50    1.40
  -5  -4  11   31.40    2.70
  -5  -4  11   33.60    3.30
  -4  -4  11   48.30    2.40
  -4  -4  11   45.00    2.90
  -3  -4  11  110.59    4.60
  -2  -4  11  121.29    4.70
  -1  -4  11    1.00    1.00
   0  -4  11    0.30    0.90
   1  -4  11   10.30    1.50
   2  -4  11   13.40    1.70
  -3   4 -11  106.69    4.20
  -4   4 -11   32.80    2.40
  -5   4 -11   58.99    3.10
  -6   4 -11    8.40    1.40
  -7   4 -11   60.29    3.00
  -8   4 -11    1.70    1.00
  -9   4 -11    9.80    1.60
 -10   4 -11   20.60    2.20
 -11   4 -11    0.60    1.10
 -12   4 -11    2.00    1.20
 -13   4 -11   74.19    3.80
 -14   4 -11    6.40    1.70
 -15   4 -11    2.80    1.50
 -16   4 -11   13.60    2.30
 -12  -3  11    4.00    2.00
 -11  -3  11    2.00    1.60
 -10  -3  11   -0.90    1.30
  -9  -3  11   -0.50    1.40
  -8  -3  11  110.69    5.00
  -7  -3  11  303.07    9.30
  -6  -3  11   70.79    3.70
  -5  -3  11    2.30    1.30
  -4  -3  11   79.59    3.80
  -3  -3  11  381.26   10.40
  -2  -3  11   16.40    1.90
  -1  -3  11    2.20    1.00
   0  -3  11   88.69    3.80
   1  -3  11  430.86   11.20
   2  -3  11   65.19    3.20
   3  -3  11   48.50    2.70
  -4   3 -11   34.80    2.40
  -5   3 -11  717.23   17.10
  -6   3 -11   55.79    2.90
  -7   3 -11   11.50    1.60
  -8   3 -11   65.89    3.20
  -9   3 -11  124.09    4.70
 -10   3 -11    1.80    1.10
 -11   3 -11   26.80    2.50
 -12   3 -11    1.30    1.20
 -13   3 -11   78.79    3.80
 -14   3 -11   90.19    4.30
 -15   3 -11    2.70    1.50
 -16   3 -11    0.00    1.30
 -17   3 -11    0.20    1.40
 -12  -2  11    0.60    1.60
 -11  -2  11    5.70    1.90
 -10  -2  11   14.30    2.40
  -9  -2  11    5.70    1.70
  -8  -2  11   60.59    3.80
  -7  -2  11  133.39    5.40
  -6  -2  11  105.89    4.60
  -5  -2  11   50.79    3.20
  -4  -2  11   13.90    1.90
  -3  -2  11  178.78    6.00
  -2  -2  11    8.40    1.40
  -1  -2  11   38.50    2.40
   0   2 -11  150.38    3.90
   0  -2  11  150.18    5.10
  -1   2 -11  285.07    6.80
   1  -2  11  291.37    8.10
   2  -2  11    5.30    1.20
   3  -2  11    4.10    1.20
  -4   2 -11   32.10    2.10
  -5   2 -11  518.85   12.80
  -6   2 -11 1249.28   28.00
  -7   2 -11   10.30    1.50
  -8   2 -11   11.80    1.50
  -9   2 -11   68.19    3.20
 -10   2 -11    0.20    0.90
 -11   2 -11   16.30    1.90
 -12   2 -11   24.60    2.30
 -13   2 -11    0.40    1.00
 -14   2 -11    3.60    1.30
 -15   2 -11   10.10    1.80
 -16   2 -11   11.50    2.00
 -17   2 -11    4.40    1.70
 -18   2 -11   44.40    3.70
 -12  -1  11    5.00    2.10
 -11  -1  11    2.00    1.60
 -10  -1  11    6.40    1.90
  -9  -1  11   13.40    2.30
  -8  -1  11    0.10    1.20
  -7  -1  11    6.00    1.60
  -6  -1  11   34.60    2.70
  -5  -1  11    0.70    1.00
   4   1 -11  270.27    6.70
  -4  -1  11  266.87    8.00
   3   1 -11    1.40    0.60
  -3  -1  11    0.90    1.00
   2   1 -11  333.27    7.90
  -2  -1  11  331.67    9.20
   1   1 -11   13.20    1.00
  -1  -1  11   11.80    1.60
   0   1 -11    8.80    0.90
   0  -1  11    9.00    1.50
  -1   1 -11  350.26    8.10
   1  -1  11  340.77    9.20
   2  -1  11  334.57    8.90
   3  -1  11    1.10    0.80
  -5   1 -11   44.50    2.50
  -6   1 -11  185.98    5.70
  -7   1 -11   18.20    1.80
  -8   1 -11   10.70    1.40
  -9   1 -11    9.40    1.40
 -10   1 -11   11.90    1.50
 -11   1 -11    1.60    1.10
 -12   1 -11   91.19    3.90
 -13   1 -11   28.00    2.50
 -14   1 -11    1.70    1.20
 -15   1 -11   25.70    2.60
 -16   1 -11    4.20    1.40
 -17   1 -11    4.40    1.70
 -18   1 -11   29.10    3.00
 -12   0  11    4.50    2.00
 -11   0  11   32.60    3.50
 -10   0  11    1.50    1.50
  -9   0  11   17.60    2.40
  -8   0  11   10.50    2.00
   7   0 -11    3.10    1.00
  -7   0  11    1.90    1.30
   6   0 -11   10.30    1.20
  -6   0  11    9.10    1.70
   5   0 -11    3.70    0.90
  -5   0  11    1.90    1.10
   4   0 -11  129.59    4.00
  -4   0  11  143.39    5.20
   3   0 -11  280.87    7.00
  -3   0  11  276.47    8.10
   2   0 -11   13.60    1.10
  -2   0  11   15.10    1.80
   1   0 -11    1.30    0.60
  -1   0  11    0.30    0.80
   0   0 -11   35.40    1.60
   0   0  11   36.60    2.30
  -1   0 -11  340.77    8.10
   1   0  11  340.47    9.10
   2   0  11  124.99    4.30
   3   0  11    7.50    1.20
   4   0  11   46.10    2.50
  -5   0 -11   44.80    2.40
  -6   0 -11  168.68    5.30
  -7   0 -11   46.90    2.50
  -8   0 -11  410.46   10.40
  -9   0 -11  223.18    6.50
 -10   0 -11  102.39    3.90
 -11   0 -11    2.40    1.00
 -12   0 -11    8.40    1.40
 -13   0 -11    1.60    1.10
 -14   0 -11   23.00    2.30
 -15   0 -11    2.00    1.20
 -16   0 -11   32.10    2.80
 -17   0 -11   24.90    2.60
 -18   0 -11    4.70    1.70
 -18   0 -11    1.70    1.40
 -12   1  11    2.20    1.70
 -11   1  11    5.00    1.90
 -10   1  11   11.70    2.30
  -9   1  11    1.70    1.50
  -8   1  11   93.59    4.60
   7  -1 -11   87.19    3.40
  -7   1  11   79.49    4.30
   6  -1 -11   37.90    2.10
  -6   1  11   35.50    2.80
   5  -1 -11    1.80    0.80
  -5   1  11    1.20    1.10
   4  -1 -11   76.09    2.90
  -4   1  11   80.59    3.70
   3  -1 -11    2.30    0.70
  -3   1  11    1.30    1.00
   2  -1 -11  243.38    6.30
  -2   1  11  246.58    7.30
   1  -1 -11   58.59    2.30
  -1   1  11   59.69    3.00
   0  -1 -11  168.38    4.70
   0   1  11  170.08    5.40
  -1  -1 -11  427.96   10.00
   1   1  11  414.86   10.60
   2   1  11    4.10    1.00
   3   1  11   44.90    2.30
   4   1  11   11.10    1.40
  -5  -1 -11    0.20    0.60
  -6  -1 -11    2.20    0.80
  -7  -1 -11    2.30    0.80
  -8  -1 -11    3.50    1.00
  -9  -1 -11   66.19    2.90
 -10  -1 -11  667.13   15.70
 -11  -1 -11   14.50    1.60
 -12  -1 -11   27.50    2.00
 -13  -1 -11   21.50    2.00
 -14  -1 -11    4.10    1.20
 -15  -1 -11   31.90    2.70
 -16  -1 -11    2.20    1.30
 -17  -1 -11    0.20    1.10
 -17  -1 -11    0.10    1.10
 -18  -1 -11   29.60    2.90
 -18  -1 -11   26.70    2.80
 -19  -1 -11   10.80    2.20
 -19  -1 -11   10.60    2.00
 -12   2  11    2.00    1.80
 -11   2  11    2.10    1.90
 -10   2  11   10.80    2.20
  -9   2  11   11.50    2.20
   8  -2 -11    7.00    1.30
  -8   2  11    8.90    1.90
   7  -2 -11   45.20    2.60
  -7   2  11   54.09    3.40
   6  -2 -11    2.70    1.00
  -6   2  11    4.30    1.40
   5  -2 -11    3.80    1.00
  -5   2  11    7.30    1.50
   4  -2 -11    2.00    0.80
  -4   2  11    1.50    1.10
   3  -2 -11    5.70    0.90
  -3   2  11    8.00    1.40
   2  -2 -11   29.70    1.70
  -2   2  11   29.90    2.20
   1  -2 -11    0.60    0.60
  -1   2  11   -0.10    0.80
   0  -2 -11   17.20    1.40
   0   2  11   13.10    1.50
  -1  -2 -11  153.98    4.50
   1   2  11  155.98    5.00
   2   2  11  224.78    6.40
   3   2  11  159.68    5.00
   4   2  11    2.00    0.80
  -6  -2 -11    9.80    1.30
  -7  -2 -11    7.30    1.10
  -8  -2 -11    2.70    0.90
  -9  -2 -11  100.49    3.60
 -10  -2 -11  348.97    9.00
 -11  -2 -11  481.15   11.80
 -12  -2 -11   21.80    1.90
 -13  -2 -11   14.80    1.70
 -14  -2 -11   10.90    1.60
 -15  -2 -11    0.40    1.00
 -16  -2 -11    0.60    1.30
 -16  -2 -11    0.00    1.00
 -17  -2 -11    4.30    1.50
 -17  -2 -11    1.40    1.30
 -18  -2 -11    1.70    1.20
 -18  -2 -11    1.10    1.40
 -19  -2 -11    6.20    1.70
 -19  -2 -11    5.30    1.60
 -11   3  11   12.30    2.60
 -10   3  11   23.10    2.90
  -9   3  11   -2.30    1.10
   8  -3 -11    6.30    1.30
  -8   3  11    6.80    1.90
   7  -3 -11   43.90    2.60
  -7   3  11   53.79    3.50
   6  -3 -11   25.90    2.10
  -6   3  11   24.50    2.50
   5  -3 -11   29.00    1.90
  -5   3  11   26.50    2.50
   4  -3 -11  209.48    6.10
  -4   3  11  222.68    7.00
   3  -3 -11   38.10    2.10
  -3   3  11   37.30    2.40
   2  -3 -11   15.80    1.50
  -2   3  11   16.70    1.80
   1  -3 -11   26.10    1.70
  -1   3  11   30.70    2.10
   0  -3 -11   76.79    2.90
   0   3  11   78.79    3.30
  -1  -3 -11  325.17    8.10
   1   3  11  305.67    8.30
   2   3  11   -0.50    0.60
   3   3  11   76.09    3.00
   4   3  11   52.49    2.40
   5   3  11  659.33   15.20
  -6  -3 -11   58.39    2.50
  -7  -3 -11   19.80    1.50
  -8  -3 -11    1.90    0.70
  -9  -3 -11    8.60    1.10
 -10  -3 -11   -0.10    0.70
 -11  -3 -11  140.79    4.50
 -12  -3 -11   43.60    2.40
 -13  -3 -11  171.48    5.40
 -14  -3 -11   36.50    2.30
 -15  -3 -11    7.00    1.60
 -15  -3 -11    7.10    1.40
 -16  -3 -11    4.00    1.30
 -16  -3 -11    2.40    1.30
 -17  -3 -11    0.50    1.20
 -17  -3 -11    0.00    1.10
 -18  -3 -11   24.80    2.40
 -18  -3 -11   25.90    2.80
 -19  -3 -11    1.60    1.50
 -19  -3 -11    0.00    1.10
 -20  -3 -11    3.20    1.50
 -20  -3 -11    3.80    1.60
 -11   4  11   47.00    4.20
 -10   4  11   22.50    3.00
  -9   4  11   13.50    2.30
   8  -4 -11   -0.90    1.00
  -8   4  11   -0.20    1.20
   7  -4 -11    1.80    1.10
  -7   4  11   -0.40    1.10
   6  -4 -11   15.70    1.80
  -6   4  11   17.00    2.20
   5  -4 -11   15.70    1.60
  -5   4  11   15.70    2.00
   4  -4 -11    2.50    0.90
  -4   4  11    5.60    1.30
   3  -4 -11  263.87    7.30
  -3   4  11  272.67    7.90
   2  -4 -11  121.29    4.10
  -2   4  11  116.09    4.40
   1  -4 -11   62.79    2.70
  -1   4  11   61.39    2.90
   0  -4 -11    6.60    1.10
   0   4  11    6.20    1.10
  -1  -4 -11   33.90    1.90
   1   4  11   29.20    1.90
  -2  -4 -11   75.89    3.00
   2   4  11   74.49    3.00
   3   4  11   12.90    1.40
   4   4  11    1.30    0.70
   5   4  11  918.61   20.50
  -6  -4 -11  124.99    3.90
  -7  -4 -11    4.00    0.80
  -8  -4 -11    9.20    1.10
  -9  -4 -11    5.70    1.00
 -10  -4 -11  200.18    5.60
 -11  -4 -11   78.39    3.00
 -12  -4 -11   44.00    2.30
 -13  -4 -11   38.90    2.20
 -13  -4 -11   34.80    2.50
 -14  -4 -11  168.68    5.30
 -14  -4 -11  161.48    5.80
 -15  -4 -11    4.30    1.20
 -15  -4 -11    8.50    1.70
 -16  -4 -11    2.60    1.30
 -16  -4 -11    2.80    1.20
 -17  -4 -11   65.79    3.80
 -17  -4 -11   69.79    3.40
 -18  -4 -11   40.10    2.90
 -18  -4 -11   33.60    3.10
 -19  -4 -11    2.50    1.40
 -19  -4 -11    4.00    1.60
 -20  -4 -11    2.30    1.50
 -20  -4 -11    3.00    1.60
 -10   5  11    6.30    1.90
   9  -5 -11   11.50    1.90
  -9   5  11    7.10    2.00
   8  -5 -11    8.30    1.60
  -8   5  11    5.40    1.70
   7  -5 -11    3.40    1.10
  -7   5  11    4.10    1.60
   6  -5 -11    1.20    1.00
  -6   5  11    1.80    1.30
   5  -5 -11    1.30    0.90
  -5   5  11    1.20    1.10
   4  -5 -11    2.30    1.00
  -4   5  11    2.20    1.10
   3  -5 -11   92.79    3.70
  -3   5  11   95.59    4.00
   2  -5 -11  161.38    5.10
  -2   5  11  159.38    5.40
   1  -5 -11   -0.60    0.60
  -1   5  11    0.60    0.90
   0  -5 -11   99.19    3.60
   0   5  11   95.69    3.70
  -1  -5 -11    3.40    0.60
  -1  -5 -11    4.00    1.00
   1   5  11    1.90    0.90
  -2  -5 -11  324.47    7.80
  -2  -5 -11  319.07    8.40
   2   5  11  327.97    8.40
  -3  -5 -11   12.10    1.10
   3   5  11   15.40    1.40
  -4  -5 -11   21.80    1.50
   4   5  11   23.50    1.60
   5   5  11   73.29    2.70
  -6  -5 -11   93.79    3.20
  -7  -5 -11    1.80    0.70
  -8  -5 -11    6.90    1.20
  -8  -5 -11    7.20    1.00
  -9  -5 -11   72.49    2.70
  -9  -5 -11   79.69    3.30
 -10  -5 -11  734.83   16.80
 -10  -5 -11  760.62   17.70
 -11  -5 -11   18.50    1.50
 -11  -5 -11   20.10    2.00
 -12  -5 -11   43.50    2.60
 -12  -5 -11   45.10    2.20
 -13  -5 -11   11.60    1.70
 -13  -5 -11   13.40    1.40
 -14  -5 -11   91.69    3.50
 -14  -5 -11   86.89    4.00
 -15  -5 -11    1.60    1.00
 -15  -5 -11    3.30    1.30
 -16  -5 -11    5.80    1.50
 -16  -5 -11    9.30    1.40
 -17  -5 -11   18.20    2.00
 -17  -5 -11   18.00    2.20
 -18  -5 -11   87.19    4.40
 -18  -5 -11   88.69    4.00
 -19  -5 -11    0.20    1.20
 -19  -5 -11    1.40    1.20
 -20  -5 -11    4.70    1.60
 -20  -5 -11    1.30    1.40
 -10   6  11    5.40    1.80
   9  -6 -11    7.60    1.60
  -9   6  11    4.40    1.70
   8  -6 -11  133.19    5.20
  -8   6  11  137.09    6.00
   7  -6 -11   46.60    3.00
  -7   6  11   41.60    3.50
   6  -6 -11    1.70    1.10
  -6   6  11    0.90    1.30
   5  -6 -11   -1.20    0.80
  -5   6  11    1.30    1.20
   4  -6 -11   10.40    1.50
  -4   6  11   11.00    1.70
   3  -6 -11   40.80    2.40
  -3   6  11   43.00    2.60
   2  -6 -11   22.70    2.00
  -2   6  11   21.30    2.00
   1  -6 -11   11.60    1.60
  -1   6  11   11.80    1.60
   0  -6 -11  454.85   11.30
   0   6  11  450.15   11.30
  -1  -6 -11   21.20    1.20
  -1  -6 -11   20.20    1.80
   1   6  11   19.50    1.70
  -2  -6 -11  202.58    5.20
  -2  -6 -11  201.08    5.90
   2   6  11  198.18    5.70
  -3  -6 -11    7.50    0.90
   3   6  11    5.80    1.00
  -4  -6 -11  135.49    4.00
   4   6  11  128.79    4.00
  -5  -6 -11   12.40    1.20
   5   6  11   13.20    1.20
  -6  -6 -11    1.00    0.80
  -7  -6 -11    8.30    1.20
  -7  -6 -11    7.90    1.00
  -8  -6 -11    3.60    0.70
  -8  -6 -11    4.80    1.00
  -9  -6 -11    5.70    0.90
  -9  -6 -11    6.10    1.10
 -10  -6 -11  141.69    4.10
 -10  -6 -11  141.39    4.80
 -11  -6 -11   56.49    2.30
 -11  -6 -11   57.99    2.90
 -12  -6 -11   92.89    3.20
 -12  -6 -11   86.69    3.80
 -13  -6 -11   10.50    1.30
 -13  -6 -11    8.70    1.60
 -14  -6 -11    4.80    1.40
 -14  -6 -11    4.20    1.00
 -15  -6 -11   11.60    1.90
 -15  -6 -11   14.10    1.60
 -16  -6 -11    5.10    1.40
 -16  -6 -11    3.00    1.10
 -17  -6 -11    2.70    1.30
 -17  -6 -11    1.60    1.10
 -18  -6 -11   30.30    2.90
 -19  -6 -11   23.40    2.60
 -20  -6 -11    9.10    2.00
   9  -7 -11   16.80    2.20
  -9   7  11   17.10    2.50
   8  -7 -11  172.88    6.30
  -8   7  11  186.68    7.10
   7  -7 -11  369.26   10.50
  -7   7  11  385.86   11.30
   6  -7 -11   69.09    3.60
  -6   7  11   65.79    3.90
   5  -7 -11   24.60    2.30
  -5   7  11   29.40    2.80
   4  -7 -11   42.90    2.60
  -4   7  11   49.20    3.10
   3  -7 -11    4.30    1.20
  -3   7  11    4.50    1.20
   2  -7 -11    8.80    1.40
  -2   7  11   10.10    1.60
   1  -7 -11   11.30    1.50
  -1   7  11   10.30    1.50
   0  -7 -11  266.97    7.50
   0   7  11  264.57    7.30
  -1  -7 -11  321.87    8.60
   1   7  11  316.97    8.30
  -2  -7 -11   49.90    1.90
  -2  -7 -11   46.20    2.60
   2   7  11   53.59    2.40
  -3  -7 -11    9.90    1.40
  -3  -7 -11    7.50    0.90
   3   7  11    8.10    1.10
  -4  -7 -11    1.60    0.60
   4   7  11    2.10    0.70
  -5  -7 -11  127.39    4.00
   5   7  11  131.59    3.80
  -6  -7 -11    8.10    1.10
  -7  -7 -11   20.60    1.50
  -7  -7 -11   18.60    1.30
  -8  -7 -11   18.50    1.70
  -8  -7 -11   18.90    1.20
  -9  -7 -11  294.77    7.10
  -9  -7 -11  286.57    7.90
 -10  -7 -11  179.78    4.80
 -10  -7 -11  184.78    5.70
 -11  -7 -11    2.80    1.00
 -11  -7 -11    1.30    0.60
 -12  -7 -11   26.60    1.60
 -12  -7 -11   28.40    2.20
 -13  -7 -11    3.70    1.20
 -14  -7 -11    6.00    1.50
 -15  -7 -11   -0.10    1.10
 -16  -7 -11    7.10    1.60
 -17  -7 -11    9.10    1.80
 -18  -7 -11   43.10    3.20
 -19  -7 -11   -0.30    1.40
 -20  -7 -11    4.50    1.80
   9  -8 -11   11.90    2.00
  -9   8  11    9.60    2.20
   8  -8 -11    8.00    1.70
  -8   8  11    9.00    2.10
   7  -8 -11  106.39    4.70
  -7   8  11  100.19    4.90
   6  -8 -11   91.09    4.30
  -6   8  11   87.29    4.40
   5  -8 -11    8.30    1.60
  -5   8  11    9.40    1.70
   4  -8 -11    1.00    1.00
  -4   8  11    1.10    1.20
   3  -8 -11   73.79    3.50
  -3   8  11   77.29    3.70
   2  -8 -11   -0.10    0.90
  -2   8  11   -0.30    0.80
   1  -8 -11   34.40    2.40
  -1   8  11   32.60    2.30
   0  -8 -11   35.60    2.30
   0   8  11   34.10    2.20
  -1  -8 -11  201.68    6.20
   1   8  11  194.48    5.70
  -2  -8 -11  558.84   13.70
  -2  -8 -11  554.44   12.50
   2   8  11  551.24   13.10
  -3  -8 -11   14.70    1.70
  -3  -8 -11   15.60    1.20
   3   8  11   18.40    1.50
  -4  -8 -11    4.60    0.80
   4   8  11    4.20    0.80
  -5  -8 -11  236.28    6.20
   5   8  11  225.38    5.90
  -6  -8 -11   67.79    2.70
  -7  -8 -11   23.50    1.60
  -8  -8 -11   41.00    2.20
  -9  -8 -11    4.80    1.10
 -10  -8 -11  236.98    6.90
 -11  -8 -11  167.18    5.50
 -12  -8 -11   37.00    2.40
 -13  -8 -11  132.19    4.90
 -14  -8 -11  154.88    5.50
 -15  -8 -11   25.80    2.50
 -16  -8 -11    2.20    1.30
 -17  -8 -11    4.80    1.50
 -18  -8 -11    1.10    1.30
 -19  -8 -11   23.30    2.60
 -20  -8 -11    8.60    2.10
   8  -9 -11   11.30    2.00
  -8   9  11   10.20    2.10
   7  -9 -11    1.20    1.40
  -7   9  11    0.00    1.30
   6  -9 -11   12.40    2.00
  -6   9  11   12.40    2.10
   5  -9 -11    2.30    1.40
  -5   9  11    2.40    1.30
   4  -9 -11   94.89    4.20
  -4   9  11   90.09    4.20
   3  -9 -11   62.99    3.30
  -3   9  11   63.19    3.30
   2  -9 -11    5.90    1.40
  -2   9  11    8.00    1.50
   1  -9 -11    0.60    1.10
  -1   9  11    0.90    1.00
   0  -9 -11    1.40    1.10
   0   9  11    1.00    0.90
  -1  -9 -11   89.89    3.80
   1   9  11   89.89    3.40
  -2  -9 -11   48.90    2.70
   2   9  11   40.80    2.40
  -3  -9 -11  174.38    4.80
  -3  -9 -11  179.58    5.70
  -4  -9 -11    7.20    1.40
  -4  -9 -11    8.20    1.00
  -5  -9 -11  104.89    3.50
  -6  -9 -11  171.58    5.00
  -7  -9 -11   30.50    1.90
  -8  -9 -11  151.28    4.80
  -9  -9 -11   91.99    3.50
 -10  -9 -11   99.89    3.80
 -11  -9 -11   22.90    2.10
 -12  -9 -11   24.90    2.20
 -13  -9 -11   74.49    3.50
 -14  -9 -11  258.07    7.90
 -15  -9 -11   90.09    4.10
 -16  -9 -11    0.00    1.10
 -17  -9 -11    6.50    1.70
 -18  -9 -11   28.20    2.90
 -19  -9 -11   31.20    3.00
 -20  -9 -11    0.40    1.50
   7 -10 -11   -1.20    1.20
  -7  10  11   -1.60    1.00
   6 -10 -11    6.50    1.70
  -6  10  11    4.60    1.60
   5 -10 -11   -0.10    1.10
  -5  10  11    1.80    1.30
   4 -10 -11  252.27    7.90
  -4  10  11  248.18    7.90
   3 -10 -11  418.86   11.60
  -3  10  11  437.76   11.60
   2 -10 -11   47.10    3.00
  -2  10  11   44.10    3.10
   1 -10 -11    0.30    1.20
   0 -10 -11   40.50    2.80
  -1 -10 -11    0.20    1.00
  -2 -10 -11   13.80    1.80
  -3 -10 -11    3.60    0.80
  -3 -10 -11    3.90    1.30
  -4 -10 -11  296.87    8.40
  -4 -10 -11  298.17    7.40
  -5 -10 -11    6.10    0.90
  -6 -10 -11    3.30    0.90
  -7 -10 -11    1.20    0.80
  -8 -10 -11    0.90    0.80
  -9 -10 -11  496.85   12.20
 -10 -10 -11    0.50    0.90
 -11 -10 -11  155.38    5.20
 -12 -10 -11    6.40    1.40
 -13 -10 -11    0.30    0.90
 -14 -10 -11   34.10    2.50
 -15 -10 -11    0.40    1.20
 -16 -10 -11   -0.60    1.30
 -17 -10 -11   64.59    3.70
 -18 -10 -11   18.00    2.40
 -19 -10 -11   41.00    3.50
 -20 -10 -11   15.60    2.40
   7 -11 -11   22.40    2.70
   6 -11 -11    4.50    1.60
   5 -11 -11    1.70    1.40
   4 -11 -11   40.30    3.00
   3 -11 -11  358.16   10.30
   2 -11 -11   86.59    4.10
   1 -11 -11    6.70    1.50
   0 -11 -11    8.70    1.60
  -1 -11 -11  174.18    6.00
  -2 -11 -11   69.49    3.50
  -3 -11 -11   54.49    3.00
  -4 -11 -11    1.30    0.70
  -4 -11 -11    0.30    1.00
  -5 -11 -11  143.49    5.10
  -5 -11 -11  137.59    4.30
  -6 -11 -11   90.19    3.30
  -7 -11 -11   30.60    1.90
  -8 -11 -11   14.10    1.50
  -9 -11 -11  354.76    9.30
 -10 -11 -11  105.59    4.00
 -11 -11 -11    1.80    1.20
 -12 -11 -11    1.10    1.10
 -13 -11 -11   13.00    1.80
 -14 -11 -11    7.50    1.50
 -15 -11 -11    1.50    1.20
 -16 -11 -11    1.20    1.30
 -17 -11 -11   27.30    2.70
 -18 -11 -11  122.69    5.20
 -19 -11 -11    5.50    1.70
 -20 -11 -11   -0.20    1.40
   6 -12 -11   29.50    3.00
   5 -12 -11    1.50    1.40
   4 -12 -11    7.40    1.70
   3 -12 -11    4.20    1.60
   2 -12 -11   90.19    4.30
   1 -12 -11    0.70    1.20
   0 -12 -11   30.00    2.70
  -1 -12 -11    5.40    1.40
  -2 -12 -11   70.59    3.60
  -3 -12 -11   -0.40    1.00
  -4 -12 -11    9.40    1.20
  -4 -12 -11    8.30    1.60
  -5 -12 -11   34.90    2.90
  -5 -12 -11   42.30    2.10
  -6 -12 -11    6.70    1.20
  -7 -12 -11   15.90    1.60
  -8 -12 -11    5.60    1.10
  -9 -12 -11    1.60    1.00
 -10 -12 -11  134.49    4.70
 -11 -12 -11    2.90    1.00
 -12 -12 -11   36.10    2.50
 -13 -12 -11  140.69    5.10
 -14 -12 -11   14.60    1.90
 -15 -12 -11    5.50    1.50
 -16 -12 -11   -0.50    1.20
 -17 -12 -11   22.00    2.50
 -18 -12 -11   51.99    3.40
 -19 -12 -11   72.59    4.20
 -20 -12 -11    8.40    1.90
   5 -13 -11    1.40    1.40
   4 -13 -11   19.30    2.50
   3 -13 -11   10.50    2.00
   2 -13 -11   37.10    3.20
   1 -13 -11    7.20    1.70
   0 -13 -11   67.09    3.70
  -1 -13 -11  233.48    7.70
  -2 -13 -11   -0.20    1.10
  -3 -13 -11    0.90    1.10
  -4 -13 -11   19.00    2.20
  -5 -13 -11   11.70    1.90
  -5 -13 -11    9.80    1.30
  -6 -13 -11   65.79    2.80
  -6 -13 -11   60.09    3.40
  -7 -13 -11   21.10    1.90
  -8 -13 -11   11.90    1.40
  -9 -13 -11   17.50    1.90
 -10 -13 -11   -0.40    1.00
 -11 -13 -11   10.60    1.60
 -12 -13 -11   33.10    2.40
 -13 -13 -11    2.80    1.30
 -14 -13 -11    0.00    1.10
 -15 -13 -11   27.00    2.50
 -16 -13 -11   18.20    2.30
 -17 -13 -11   18.70    2.40
 -18 -13 -11    0.80    1.40
 -19 -13 -11   -0.10    1.40
 -20 -13 -11   10.10    2.10
   4 -14 -11   27.90    3.00
   3 -14 -11   37.10    3.30
   2 -14 -11   20.00    2.50
   1 -14 -11    0.00    1.30
   0 -14 -11   15.00    2.30
  -1 -14 -11   80.79    4.20
  -2 -14 -11  143.29    5.60
  -3 -14 -11   -0.20    1.10
  -4 -14 -11   19.90    2.50
  -5 -14 -11    3.80    1.00
  -5 -14 -11    3.20    1.40
  -6 -14 -11   66.99    2.90
  -6 -14 -11   67.09    3.60
  -7 -14 -11    2.30    1.00
  -8 -14 -11    7.80    1.30
  -9 -14 -11   27.10    2.10
 -10 -14 -11   50.09    2.90
 -11 -14 -11    4.50    1.30
 -12 -14 -11    5.30    1.40
 -13 -14 -11   89.79    4.00
 -14 -14 -11   76.49    3.80
 -15 -14 -11   -0.10    1.10
 -16 -14 -11    0.40    1.20
 -17 -14 -11   12.80    2.10
 -18 -14 -11    6.70    1.90
 -19 -14 -11    0.80    1.40
   3 -15 -11   12.10    2.20
   2 -15 -11   19.60    2.70
   1 -15 -11   -0.70    1.50
   0 -15 -11   11.50    2.00
  -1 -15 -11    0.70    1.30
  -2 -15 -11   11.70    2.20
  -3 -15 -11   19.80    2.40
  -4 -15 -11    7.10    1.70
  -5 -15 -11  122.49    5.10
  -6 -15 -11   44.70    3.10
  -6 -15 -11   46.00    2.50
  -7 -15 -11   10.30    1.50
  -7 -15 -11   10.90    1.90
  -8 -15 -11    6.20    1.40
  -9 -15 -11   -0.20    0.90
 -10 -15 -11   44.90    2.80
 -11 -15 -11    8.10    1.60
 -12 -15 -11    0.10    1.10
 -13 -15 -11   56.39    3.20
 -14 -15 -11   71.59    3.70
 -15 -15 -11   10.40    1.80
 -16 -15 -11   40.80    3.00
 -17 -15 -11    2.00    1.50
 -18 -15 -11   98.19    4.70
 -19 -15 -11    3.40    1.70
   1 -16 -11    1.30    1.50
   0 -16 -11   55.89    3.90
  -1 -16 -11   22.10    2.60
  -2 -16 -11   12.20    2.10
  -3 -16 -11    0.90    1.40
  -4 -16 -11    9.20    1.90
  -5 -16 -11   10.90    2.10
  -6 -16 -11   62.89    3.10
  -6 -16 -11   68.89    3.80
  -7 -16 -11    1.80    1.30
  -7 -16 -11    2.20    1.20
  -8 -16 -11   49.99    2.80
  -8 -16 -11   44.20    3.20
  -9 -16 -11   48.40    2.70
 -10 -16 -11   17.40    2.00
 -11 -16 -11   14.30    1.80
 -12 -16 -11    1.70    1.20
 -13 -16 -11    8.20    1.70
 -14 -16 -11   52.59    3.40
 -15 -16 -11    1.30    1.30
 -16 -16 -11    1.40    1.40
 -17 -16 -11    2.30    1.50
 -18 -16 -11   -1.00    1.40
   0 -17 -11   19.10    2.70
  -1 -17 -11  192.28    7.20
  -2 -17 -11   29.10    3.00
  -3 -17 -11    5.70    1.80
  -4 -17 -11   10.70    2.20
  -5 -17 -11    1.60    1.40
  -6 -17 -11    4.20    1.60
  -7 -17 -11   10.30    1.60
  -7 -17 -11   12.20    2.20
  -8 -17 -11    5.60    1.30
  -8 -17 -11    6.00    1.70
  -9 -17 -11   30.30    2.90
  -9 -17 -11   26.10    2.40
 -10 -17 -11   10.60    1.70
 -11 -17 -11   11.30    1.80
 -12 -17 -11    5.50    1.50
 -13 -17 -11   35.40    2.70
 -14 -17 -11    1.60    1.40
 -15 -17 -11   -0.30    1.40
 -16 -17 -11   12.20    2.20
 -17 -17 -11   12.90    2.20
  -2 -18 -11   60.89    4.10
  -3 -18 -11   -0.30    1.60
  -4 -18 -11    0.00    1.30
  -5 -18 -11    6.50    1.80
  -6 -18 -11   39.10    3.40
  -7 -18 -11    1.10    1.60
  -8 -18 -11    8.20    1.60
  -8 -18 -11    6.50    1.90
  -9 -18 -11    7.70    1.70
  -9 -18 -11   12.30    2.20
 -10 -18 -11   46.60    3.10
 -11 -18 -11   11.60    1.80
 -12 -18 -11    4.70    1.50
 -13 -18 -11   48.80    3.10
 -14 -18 -11   40.50    3.00
 -15 -18 -11    0.00    1.50
 -16 -18 -11    1.50    1.50
  -4 -19 -11    8.60    2.10
  -5 -19 -11   12.50    2.20
  -6 -19 -11    2.20    1.70
  -7 -19 -11    0.20    1.60
  -8 -19 -11   20.50    2.20
  -8 -19 -11   25.10    2.80
  -9 -19 -11   54.89    3.70
  -9 -19 -11   60.09    3.40
 -10 -19 -11    2.50    1.40
 -10 -19 -11    6.70    2.00
 -11 -19 -11   -0.80    1.30
 -12 -19 -11    3.10    1.40
 -13 -19 -11    4.70    1.80
 -14 -19 -11    3.10    1.70
 -15 -19 -11    3.90    1.80
  -7 -20 -11   14.00    2.50
  -8 -20 -11   14.50    2.40
  -9 -20 -11   13.80    2.00
  -9 -20 -11   12.00    2.40
 -10 -20 -11   11.30    2.10
 -10 -20 -11   13.00    2.10
 -11 -20 -11   32.90    2.90
 -11 -20 -11   34.20    3.40
 -12 -20 -11   -0.80    1.50
   3  15 -12    1.20    1.40
  -3 -15  12    0.90    1.60
   2  15 -12  123.89    5.80
  -2 -15  12  115.69    5.90
   1  15 -12   17.80    2.60
  -1 -15  12   14.50    2.50
   0  15 -12    5.60    1.80
  -6 -14  12    5.00    1.80
  -6 -14  12    8.40    2.00
  -5 -14  12    5.00    1.80
  -5 -14  12    5.70    1.80
   4  14 -12    6.80    2.00
  -4 -14  12    6.10    2.00
   3  14 -12   16.00    2.50
  -3 -14  12   15.10    2.50
   2  14 -12    5.40    1.90
  -2 -14  12    6.30    1.90
   1  14 -12   13.40    2.40
  -1 -14  12   12.30    2.40
   0  14 -12    5.50    1.90
   0 -14  12    6.60    2.00
  -1  14 -12   90.59    4.80
  -2  14 -12    1.90    1.70
  -3  14 -12    9.20    2.20
  -4  14 -12   -1.20    1.30
  -8 -13  12   -0.10    1.20
  -8 -13  12   -0.50    1.60
  -7 -13  12  109.49    5.30
  -7 -13  12  111.09    5.30
  -6 -13  12   48.70    3.70
  -6 -13  12   52.89    3.90
  -5 -13  12    2.20    1.50
  -5 -13  12   -0.70    1.50
  -4 -13  12   42.30    3.60
  -4 -13  12   38.90    3.50
   3  13 -12    4.50    1.80
  -3 -13  12    7.40    2.00
   2  13 -12   38.00    3.50
  -2 -13  12   39.20    3.60
   1  13 -12    1.40    1.60
  -1 -13  12   -0.60    1.20
   0  13 -12   -0.80    1.40
   0 -13  12    0.90    1.40
  -1  13 -12   69.79    4.10
  -2  13 -12  158.08    6.30
  -3  13 -12   12.60    2.30
  -4  13 -12    1.10    1.60
  -5  13 -12   20.70    2.70
  -6  13 -12   -0.80    1.50
  -9 -12  12   23.90    3.10
  -8 -12  12   11.90    2.00
  -8 -12  12   10.90    2.30
  -7 -12  12   11.40    2.40
  -7 -12  12   16.80    2.40
  -6 -12  12  110.49    5.30
  -6 -12  12  124.39    5.40
  -5 -12  12    3.50    1.60
  -5 -12  12    6.10    1.80
  -4 -12  12    2.50    1.60
  -4 -12  12    1.30    1.30
  -3 -12  12   39.80    3.50
  -3 -12  12   45.20    3.70
   2  12 -12   11.60    2.10
  -2 -12  12    9.70    2.00
   1  12 -12   -0.50    1.40
  -1 -12  12   -0.70    1.20
   0  12 -12   45.80    3.40
   0 -12  12   45.50    3.40
  -1  12 -12    1.00    1.50
  -2  12 -12  223.08    7.70
  -3  12 -12  107.09    5.10
  -4  12 -12    3.70    1.60
  -5  12 -12   23.20    2.70
  -6  12 -12   41.50    3.60
  -7  12 -12   12.20    2.30
  -8  12 -12    8.00    2.10
 -10 -11  12   -0.50    1.40
  -9 -11  12   22.60    3.00
  -8 -11  12    5.20    1.80
  -7 -11  12   57.89    3.90
  -7 -11  12   63.99    3.60
  -6 -11  12    4.50    1.80
  -6 -11  12    2.90    1.50
  -5 -11  12    4.20    1.50
  -5 -11  12    3.10    1.40
  -4 -11  12   21.10    2.60
  -4 -11  12   17.40    2.40
  -3 -11  12   -0.30    1.10
  -3 -11  12   -0.40    1.20
  -2 -11  12   41.30    3.10
  -2 -11  12   44.80    3.30
   1  11 -12    1.00    1.40
  -1 -11  12    0.60    1.20
   0  11 -12   14.30    2.20
   0 -11  12   17.30    2.40
  -1  11 -12   19.20    2.40
  -2  11 -12    7.10    1.70
  -3  11 -12    2.70    1.60
  -4  11 -12    3.80    1.70
  -5  11 -12   79.39    4.20
  -6  11 -12   13.10    2.30
  -7  11 -12  120.49    5.30
  -8  11 -12    2.10    1.50
  -9  11 -12   -1.20    1.30
 -10 -10  12   40.30    3.80
  -9 -10  12   11.50    2.30
  -8 -10  12   -0.10    1.30
  -7 -10  12    0.30    1.10
  -7 -10  12    3.00    1.50
  -6 -10  12    0.00    1.10
  -6 -10  12    2.30    1.60
  -5 -10  12    5.30    1.60
  -5 -10  12    4.00    1.70
  -4 -10  12    0.90    1.10
  -4 -10  12    1.90    1.30
  -3 -10  12   88.99    4.40
  -3 -10  12   88.99    4.30
  -2 -10  12  127.39    5.20
  -2 -10  12  111.19    5.00
  -1 -10  12    9.80    2.00
   0  10 -12   40.20    3.30
  -1  10 -12   22.60    2.60
  -2  10 -12   19.80    2.50
  -3  10 -12    0.50    1.20
  -4  10 -12   -0.30    1.10
  -5  10 -12   47.30    3.30
  -6  10 -12  110.69    5.10
  -7  10 -12    6.90    1.80
  -8  10 -12    0.50    1.60
  -9  10 -12  128.29    5.60
 -10  10 -12    2.70    1.70
 -11  10 -12    8.50    2.10
 -11  -9  12   74.09    4.60
 -10  -9  12   36.90    3.70
  -9  -9  12   -0.70    1.40
  -8  -9  12    3.30    1.60
  -7  -9  12   62.99    4.00
  -6  -9  12    0.90    1.30
  -6  -9  12    0.20    1.10
  -5  -9  12    3.20    1.30
  -5  -9  12    2.40    1.40
  -4  -9  12    1.80    1.30
  -4  -9  12   -0.10    1.40
  -3  -9  12  182.68    6.70
  -3  -9  12  179.38    6.40
  -2  -9  12  217.98    7.20
  -2  -9  12  214.78    7.30
  -1  -9  12    1.30    1.20
  -1  -9  12    2.10    1.50
  -1   9 -12   50.29    3.30
  -2   9 -12   26.90    2.70
  -3   9 -12   26.00    2.60
  -4   9 -12    5.10    1.50
  -5   9 -12   -0.90    1.20
  -6   9 -12   43.30    3.30
  -7   9 -12  114.09    5.10
  -8   9 -12    0.90    1.40
  -9   9 -12   47.30    3.60
 -10   9 -12  321.67    9.90
 -11   9 -12   49.90    3.50
 -12   9 -12    0.90    1.60
 -11  -8  12   10.80    2.30
 -10  -8  12   19.00    2.70
  -9  -8  12    1.50    1.70
  -8  -8  12   85.29    4.60
  -7  -8  12    4.90    1.80
  -6  -8  12    9.90    1.60
  -6  -8  12    8.60    1.90
  -5  -8  12    4.70    1.40
  -5  -8  12    4.70    1.60
  -4  -8  12    4.30    1.50
  -4  -8  12    5.20    1.30
  -3  -8  12   14.60    2.10
  -3  -8  12   23.90    2.50
  -2  -8  12   54.89    3.40
  -2  -8  12   47.00    3.00
  -1  -8  12   32.70    2.90
  -1  -8  12   28.20    2.60
   0  -8  12   99.09    4.50
  -1   8 -12   -0.60    1.00
  -2   8 -12   60.39    3.50
  -3   8 -12   44.00    3.00
  -4   8 -12    5.80    1.60
  -5   8 -12    8.00    1.70
  -6   8 -12    2.50    1.40
  -7   8 -12    3.30    1.40
  -8   8 -12    0.70    1.30
  -9   8 -12   -0.80    1.30
 -10   8 -12   20.80    2.50
 -11   8 -12  340.17   10.20
 -12   8 -12   10.70    2.10
 -13   8 -12    4.20    1.70
 -11  -7  12    4.50    2.10
 -10  -7  12   -0.70    1.50
  -9  -7  12    2.60    1.60
  -8  -7  12   27.40    2.90
  -7  -7  12  107.29    5.10
  -6  -7  12  104.89    4.90
  -5  -7  12    4.70    1.60
  -5  -7  12    5.90    1.30
  -4  -7  12   51.09    3.30
  -4  -7  12   62.29    3.20
  -3  -7  12    1.20    0.90
  -3  -7  12    1.20    1.10
  -2  -7  12   15.20    1.80
  -2  -7  12   10.30    1.80
  -1  -7  12   49.90    3.20
   0  -7  12   28.80    2.70
   1  -7  12  208.48    7.00
  -2   7 -12  195.98    6.70
  -3   7 -12   -1.50    0.90
  -4   7 -12   26.80    2.60
  -5   7 -12   72.09    3.70
  -6   7 -12    0.60    1.10
  -7   7 -12    2.10    1.30
  -8   7 -12   65.19    3.60
  -9   7 -12   55.89    3.40
 -10   7 -12   22.50    2.60
 -11   7 -12   22.60    2.60
 -12   7 -12    6.50    1.80
 -13   7 -12   28.20    2.90
 -14   7 -12   -0.40    1.50
 -11  -6  12   31.00    3.50
 -10  -6  12   12.20    2.40
  -9  -6  12   52.69    3.90
  -8  -6  12    9.50    2.00
  -7  -6  12   56.69    3.80
  -6  -6  12  114.69    5.20
  -5  -6  12   59.49    3.60
  -5  -6  12   62.89    3.10
  -4  -6  12    0.70    1.30
  -4  -6  12    2.80    1.10
  -3  -6  12   31.70    2.90
  -3  -6  12   28.90    2.10
  -2  -6  12   35.10    2.70
  -1  -6  12    7.20    1.60
   0  -6  12  105.69    4.50
   1  -6  12  133.79    5.20
  -3   6 -12    0.50    1.10
  -4   6 -12   34.60    2.60
  -5   6 -12    1.90    1.30
  -6   6 -12    4.70    1.40
  -7   6 -12   53.09    3.20
  -8   6 -12    9.70    1.80
  -9   6 -12    4.70    1.40
 -10   6 -12   -0.30    1.20
 -11   6 -12   21.10    2.40
 -12   6 -12    1.40    1.40
 -13   6 -12   57.99    3.70
 -14   6 -12  177.98    6.70
 -15   6 -12   33.60    3.40
 -12  -5  12   25.00    3.30
 -11  -5  12    5.20    1.90
 -10  -5  12   -0.30    1.40
  -9  -5  12    2.70    1.60
  -8  -5  12   73.59    4.20
  -7  -5  12    2.50    1.50
  -6  -5  12   26.40    2.80
  -5  -5  12    7.50    1.70
  -4  -5  12    2.10    1.20
  -3  -5  12    3.60    1.40
  -2  -5  12  133.59    5.20
  -1  -5  12   18.70    2.20
   0  -5  12   10.10    1.60
   1  -5  12   24.90    2.30
   2  -5  12   16.50    2.00
  -3   5 -12    7.60    1.60
  -4   5 -12    4.60    1.40
  -5   5 -12   26.20    2.40
  -6   5 -12  314.07    9.00
  -7   5 -12   71.09    3.60
  -8   5 -12   45.20    3.00
  -9   5 -12    1.20    1.10
 -10   5 -12   86.99    4.10
 -11   5 -12   27.10    2.70
 -12   5 -12   13.10    2.00
 -13   5 -12    3.50    1.40
 -14   5 -12  204.68    7.20
 -15   5 -12  259.37    8.60
 -12  -4  12   96.99    5.40
 -11  -4  12   83.79    4.90
 -10  -4  12   -0.90    1.60
  -9  -4  12    0.30    1.40
  -8  -4  12   12.00    2.30
  -7  -4  12   34.50    3.20
  -6  -4  12    6.40    1.70
  -5  -4  12    0.10    1.10
  -4  -4  12   30.20    2.70
  -3  -4  12  287.67    8.60
  -2  -4  12    6.20    1.50
  -1  -4  12   14.30    1.90
   0  -4  12   25.40    2.40
   1  -4  12   55.59    3.10
   2  -4  12    3.00    1.10
  -4   4 -12    7.10    1.50
  -5   4 -12   27.10    2.40
  -6   4 -12    8.60    1.50
  -7   4 -12   52.09    3.00
  -8   4 -12    1.10    1.10
  -9   4 -12  140.19    5.20
 -10   4 -12   96.69    4.30
 -11   4 -12   89.49    4.10
 -12   4 -12    1.00    1.20
 -13   4 -12    1.00    1.20
 -14   4 -12    0.60    1.40
 -15   4 -12   99.89    4.90
 -16   4 -12   27.40    3.00
 -12  -3  12   -0.80    1.60
 -11  -3  12   94.89    5.30
 -10  -3  12   54.79    3.90
  -9  -3  12    8.60    2.00
  -8  -3  12    2.80    1.50
  -7  -3  12  211.08    7.40
  -6  -3  12   59.69    3.70
  -5  -3  12   14.30    2.10
  -4  -3  12    9.60    1.70
  -3  -3  12  113.79    4.70
  -2  -3  12   76.19    3.70
  -1  -3  12   47.90    2.80
   0  -3  12    0.50    0.90
   1  -3  12   82.59    3.70
   2  -3  12  125.59    4.80
   3  -3  12    7.40    1.40
  -4   3 -12   17.40    1.90
  -5   3 -12    6.50    1.30
  -6   3 -12  105.69    4.30
  -7   3 -12    8.90    1.50
  -8   3 -12   69.19    3.30
  -9   3 -12   33.20    2.70
 -10   3 -12    6.30    1.40
 -11   3 -12   99.59    4.30
 -12   3 -12    2.90    1.40
 -13   3 -12    0.00    1.20
 -14   3 -12   12.50    2.00
 -15   3 -12    1.70    1.40
 -16   3 -12   -0.20    1.50
 -17   3 -12    1.00    1.40
 -12  -2  12   24.10    3.30
 -11  -2  12    1.70    1.60
 -10  -2  12   60.79    4.30
  -9  -2  12   35.80    3.50
  -8  -2  12    8.20    2.00
  -7  -2  12   58.19    3.60
  -6  -2  12  137.29    5.60
  -5  -2  12  161.18    6.00
  -4  -2  12   30.30    2.70
  -3  -2  12   32.20    2.50
  -2  -2  12    9.90    1.60
  -1  -2  12   33.20    2.50
   0  -2  12   15.30    1.90
   1  -2  12   47.30    2.80
   2  -2  12  225.18    6.90
   3  -2  12  109.39    4.20
  -5   2 -12   12.40    1.70
  -6   2 -12   76.89    3.40
  -7   2 -12    9.00    1.50
  -8   2 -12   20.00    2.00
  -9   2 -12   43.00    2.60
 -10   2 -12   12.60    1.70
 -11   2 -12   24.20    2.30
 -12   2 -12    1.00    1.30
 -13   2 -12   65.99    3.60
 -14   2 -12   64.49    3.50
 -15   2 -12   12.30    2.00
 -16   2 -12    0.50    1.30
 -17   2 -12    0.00    1.60
 -11  -1  12    3.40    1.90
 -10  -1  12    3.40    1.70
  -9  -1  12    1.60    1.60
  -8  -1  12   46.10    3.40
  -7  -1  12   28.40    2.90
  -6  -1  12   10.70    1.90
  -5  -1  12   10.30    1.80
  -4  -1  12  143.79    5.50
  -3  -1  12   79.69    3.80
  -2  -1  12    0.70    1.00
  -1  -1  12   41.40    2.60
   0   1 -12   34.00    1.60
   0  -1  12   40.90    2.50
  -1   1 -12    0.90    0.60
   1  -1  12    0.20    0.80
   2  -1  12   44.90    2.60
   3  -1  12  148.59    5.10
   4  -1  12    2.70    1.00
  -5   1 -12  116.69    4.30
  -6   1 -12    4.60    1.10
  -7   1 -12    4.20    1.20
  -8   1 -12    9.60    1.50
  -9   1 -12    1.40    0.90
 -10   1 -12    8.90    1.50
 -11   1 -12   38.80    2.50
 -12   1 -12    0.70    1.10
 -13   1 -12   26.80    2.50
 -14   1 -12   -1.00    0.90
 -15   1 -12   10.30    1.80
 -16   1 -12    2.60    1.40
 -17   1 -12   37.70    3.30
 -18   1 -12    2.50    1.50
 -11   0  12    7.10    2.10
 -10   0  12    1.10    1.70
  -9   0  12   20.10    2.80
  -8   0  12    5.10    1.70
  -7   0  12   72.89    4.20
  -6   0  12  138.79    5.60
  -5   0  12    5.80    1.50
   4   0 -12   67.79    2.70
  -4   0  12   75.99    3.70
   3   0 -12  877.31   19.20
  -3   0  12  856.01   20.70
   2   0 -12    3.30    0.80
  -2   0  12    4.80    1.30
   1   0 -12    1.50    0.60
  -1   0  12    2.60    1.10
   0   0 -12    9.10    1.00
   0   0  12    7.20    1.40
  -1   0 -12   95.09    3.00
   1   0  12   90.19    3.80
   2   0  12    0.80    0.90
   3   0  12   55.79    2.80
   4   0  12   15.60    1.70
  -5   0 -12  239.08    6.90
  -6   0 -12  103.19    3.90
  -7   0 -12    3.40    1.10
  -8   0 -12    5.80    1.20
  -9   0 -12   13.60    1.70
 -10   0 -12   29.60    2.10
 -11   0 -12    1.10    1.00
 -12   0 -12    2.70    1.10
 -13   0 -12   77.09    3.60
 -14   0 -12   33.20    2.50
 -15   0 -12    0.60    1.20
 -16   0 -12    2.10    1.40
 -17   0 -12    0.40    1.20
 -18   0 -12   63.29    3.90
 -11   1  12   14.70    2.60
 -10   1  12   37.50    3.60
  -9   1  12    4.90    1.90
  -8   1  12    8.60    2.10
   7  -1 -12   22.90    2.00
  -7   1  12   26.20    2.80
   6  -1 -12   17.00    1.70
  -6   1  12   18.10    2.40
   5  -1 -12    6.60    1.10
  -5   1  12    7.40    1.60
   4  -1 -12   94.39    3.30
  -4   1  12   88.09    4.10
   3  -1 -12  348.57    8.70
  -3   1  12  354.56    9.90
   2  -1 -12  591.14   13.60
  -2   1  12  588.44   14.80
   1  -1 -12  371.56    9.00
  -1   1  12  371.26   10.00
   0  -1 -12    0.80    0.60
   0   1  12    0.40    0.90
  -1  -1 -12   64.09    2.50
   1   1  12   62.09    3.10
   2   1  12   42.20    2.50
   3   1  12   30.00    2.10
   4   1  12    5.00    1.20
  -6  -1 -12  533.15   13.00
  -7  -1 -12  171.78    5.40
  -8  -1 -12   18.20    1.80
  -9  -1 -12   33.50    2.10
 -10  -1 -12  395.16   10.20
 -11  -1 -12  142.99    4.90
 -12  -1 -12   22.20    2.10
 -13  -1 -12   -1.00    0.80
 -14  -1 -12   48.40    2.80
 -15  -1 -12   51.39    3.00
 -16  -1 -12    5.90    1.50
 -17  -1 -12    4.00    1.50
 -18  -1 -12   48.10    3.40
 -18  -1 -12   47.20    3.30
 -19  -1 -12   12.80    2.20
 -19  -1 -12   15.80    2.50
 -11   2  12   -1.70    1.50
 -10   2  12    5.20    1.90
  -9   2  12   -0.70    1.20
   8  -2 -12   13.40    1.60
  -8   2  12   14.70    2.30
   7  -2 -12   11.40    1.50
  -7   2  12   14.90    2.20
   6  -2 -12    0.40    0.80
  -6   2  12    0.20    1.10
   5  -2 -12   16.30    1.70
  -5   2  12   18.60    2.20
   4  -2 -12    5.50    1.10
  -4   2  12    4.90    1.40
   3  -2 -12   23.50    1.70
  -3   2  12   27.90    2.50
   2  -2 -12  123.79    4.00
  -2   2  12  128.09    4.80
   1  -2 -12  279.67    7.30
  -1   2  12  279.97    8.10
   0  -2 -12   46.10    2.20
   0   2  12   49.80    2.80
  -1  -2 -12  168.08    4.90
   1   2  12  177.48    5.60
  -2  -2 -12   63.69    2.50
   2   2  12   55.39    2.80
   3   2  12   76.29    3.20
   4   2  12   23.80    2.00
   5   2  12  133.79    4.50
  -6  -2 -12  262.17    7.20
  -7  -2 -12   23.10    1.70
  -8  -2 -12   41.90    2.30
  -9  -2 -12   73.59    3.10
 -10  -2 -12   48.20    2.60
 -11  -2 -12  205.48    6.20
 -12  -2 -12   -0.40    0.90
 -13  -2 -12   14.30    1.80
 -14  -2 -12    6.40    1.30
 -15  -2 -12   -1.10    0.90
 -16  -2 -12   -0.50    1.10
 -17  -2 -12   12.60    1.90
 -17  -2 -12   10.10    1.90
 -18  -2 -12    1.60    1.50
 -18  -2 -12    3.10    1.50
 -19  -2 -12    1.50    1.30
 -19  -2 -12    1.40    1.40
 -10   3  12   11.80    2.30
  -9   3  12   68.39    4.30
   8  -3 -12   -0.20    0.90
  -8   3  12    0.30    1.50
   7  -3 -12   15.20    1.70
  -7   3  12   21.10    2.70
   6  -3 -12    0.50    0.80
  -6   3  12   -1.10    1.10
   5  -3 -12   48.20    2.60
  -5   3  12   51.39    3.40
   4  -3 -12   10.60    1.40
  -4   3  12   14.20    2.00
   3  -3 -12   24.50    1.80
  -3   3  12   27.20    2.50
   2  -3 -12   47.70    2.40
  -2   3  12   47.60    2.80
   1  -3 -12   19.90    1.70
  -1   3  12   20.10    2.00
   0  -3 -12   66.49    2.80
   0   3  12   65.59    3.20
  -1  -3 -12 1357.76   29.50
   1   3  12 1339.57   30.00
  -2  -3 -12   41.60    2.20
   2   3  12   45.90    2.40
   3   3  12   47.20    2.50
   4   3  12  137.29    4.50
   5   3  12    0.10    0.60
  -6  -3 -12  382.96    9.60
  -7  -3 -12  104.29    3.70
  -8  -3 -12   -0.80    0.70
  -9  -3 -12   13.70    1.40
 -10  -3 -12   53.09    2.60
 -11  -3 -12   29.50    2.00
 -12  -3 -12    1.30    0.80
 -13  -3 -12  152.28    5.10
 -14  -3 -12    6.40    1.40
 -15  -3 -12    9.80    1.60
 -16  -3 -12   13.10    1.80
 -16  -3 -12   10.50    1.90
 -17  -3 -12    0.30    1.00
 -17  -3 -12   -0.40    1.20
 -18  -3 -12    5.20    1.60
 -18  -3 -12    2.80    1.40
 -19  -3 -12    4.20    1.70
 -19  -3 -12    5.50    1.70
 -10   4  12   23.60    3.10
  -9   4  12    3.50    1.70
   8  -4 -12    3.80    1.30
  -8   4  12    2.60    1.60
   7  -4 -12    7.30    1.50
  -7   4  12   11.40    2.00
   6  -4 -12   44.10    2.60
  -6   4  12   51.19    3.50
   5  -4 -12    2.60    1.00
  -5   4  12    1.60    1.30
   4  -4 -12   22.70    1.90
  -4   4  12   19.50    2.20
   3  -4 -12   26.50    2.00
  -3   4  12   24.30    2.30
   2  -4 -12    5.50    1.10
  -2   4  12    5.50    1.20
   1  -4 -12   -0.20    0.80
  -1   4  12    0.00    0.80
   0  -4 -12   11.90    1.40
   0   4  12    8.20    1.30
  -1  -4 -12   78.89    3.10
   1   4  12   77.29    3.30
  -2  -4 -12  862.51   19.60
   2   4  12  866.11   19.80
   3   4  12  329.27    8.60
   4   4  12    0.00    0.80
   5   4  12   76.69    3.00
  -6  -4 -12   25.30    1.70
  -7  -4 -12  113.69    3.80
  -8  -4 -12   39.20    2.10
  -9  -4 -12    3.40    0.90
 -10  -4 -12  172.98    5.10
 -11  -4 -12  147.39    4.70
 -12  -4 -12   -0.40    0.80
 -13  -4 -12  157.58    5.00
 -14  -4 -12  348.37   10.20
 -14  -4 -12  371.26    9.50
 -15  -4 -12   40.10    2.60
 -15  -4 -12   41.30    2.90
 -16  -4 -12   18.20    2.30
 -16  -4 -12   16.40    1.90
 -17  -4 -12    1.00    1.00
 -17  -4 -12   -0.30    1.30
 -18  -4 -12    1.40    1.30
 -18  -4 -12   -1.30    1.10
 -19  -4 -12    0.20    1.30
 -19  -4 -12    1.80    1.40
 -20  -4 -12    9.50    2.00
 -20  -4 -12    7.50    1.80
 -10   5  12    2.70    1.70
   9  -5 -12    0.00    1.20
  -9   5  12    4.30    1.90
   8  -5 -12    4.20    1.40
  -8   5  12    5.10    1.90
   7  -5 -12    6.20    1.40
  -7   5  12    3.60    1.50
   6  -5 -12   21.80    2.20
  -6   5  12   21.10    2.50
   5  -5 -12    7.90    1.50
  -5   5  12    8.20    1.70
   4  -5 -12    4.80    1.20
  -4   5  12    3.20    1.30
   3  -5 -12   11.40    1.50
  -3   5  12   13.30    1.90
   2  -5 -12   53.79    2.70
  -2   5  12   59.39    3.00
   1  -5 -12   85.79    3.40
  -1   5  12   85.69    3.70
   0  -5 -12    0.40    0.90
   0   5  12    1.40    0.90
  -1  -5 -12   -1.10    0.70
  -1  -5 -12   -0.20    0.40
   1   5  12   -0.20    0.80
  -2  -5 -12  196.68    5.20
  -2  -5 -12  190.58    5.80
   2   5  12  193.48    5.80
  -3  -5 -12  308.77    7.70
   3   5  12  305.37    8.10
   4   5  12   27.60    1.80
   5   5  12   46.70    2.30
  -7  -5 -12  114.79    3.70
  -8  -5 -12    0.70    0.70
  -9  -5 -12  187.98    5.30
 -10  -5 -12   81.09    3.50
 -10  -5 -12   80.59    3.00
 -11  -5 -12   40.20    2.10
 -11  -5 -12   44.60    2.70
 -12  -5 -12   12.40    1.40
 -12  -5 -12   15.00    1.90
 -13  -5 -12   25.70    1.80
 -13  -5 -12   21.90    2.20
 -14  -5 -12   84.69    3.40
 -14  -5 -12   86.99    4.00
 -15  -5 -12  163.08    5.30
 -15  -5 -12  170.08    6.10
 -16  -5 -12   11.80    2.00
 -16  -5 -12   10.50    1.50
 -17  -5 -12   -0.80    0.80
 -17  -5 -12   -0.40    1.10
 -18  -5 -12    6.00    1.50
 -18  -5 -12    6.60    1.70
 -19  -5 -12    8.30    1.80
 -19  -5 -12    8.20    2.00
 -20  -5 -12    0.50    1.40
   9  -6 -12    0.70    1.30
  -9   6  12    2.20    1.60
   8  -6 -12   -0.70    1.10
  -8   6  12    1.70    1.50
   7  -6 -12   22.70    2.30
  -7   6  12   15.30    2.50
   6  -6 -12   -0.60    1.00
  -6   6  12   -1.20    1.00
   5  -6 -12   47.10    2.80
  -5   6  12   44.10    3.20
   4  -6 -12    1.00    1.00
  -4   6  12    2.10    1.30
   3  -6 -12   39.30    2.60
  -3   6  12   50.09    3.00
   2  -6 -12   19.20    1.90
  -2   6  12   17.30    2.00
   1  -6 -12    8.30    1.40
  -1   6  12    8.30    1.40
   0  -6 -12   14.40    1.60
   0   6  12   15.90    1.70
  -1  -6 -12   43.50    2.40
   1   6  12   38.40    2.30
  -2  -6 -12    0.40    0.80
  -2  -6 -12    0.20    0.50
   2   6  12   -0.40    0.70
  -3  -6 -12   87.99    3.00
  -3  -6 -12   81.19    3.40
   3   6  12   85.19    3.20
  -4  -6 -12   51.89    2.30
   4   6  12   51.59    2.40
  -5  -6 -12  595.94   13.80
   5   6  12  584.04   13.70
  -6  -6 -12    8.70    1.20
   6   6  12   10.70    1.20
  -7  -6 -12   89.29    3.50
  -7  -6 -12   93.39    3.20
  -8  -6 -12   14.50    1.30
  -8  -6 -12   10.90    1.40
  -9  -6 -12   12.50    1.60
  -9  -6 -12   11.20    1.20
 -10  -6 -12  264.17    6.80
 -10  -6 -12  259.97    7.50
 -11  -6 -12  122.39    3.90
 -11  -6 -12  129.79    4.70
 -12  -6 -12    3.30    0.90
 -12  -6 -12    6.50    1.50
 -13  -6 -12    7.40    1.50
 -13  -6 -12   10.20    1.30
 -14  -6 -12    4.20    1.50
 -14  -6 -12    3.80    1.00
 -15  -6 -12    7.90    1.60
 -15  -6 -12   10.20    1.40
 -16  -6 -12  123.89    5.20
 -16  -6 -12  126.29    5.00
 -17  -6 -12    1.00    1.40
 -18  -6 -12   24.10    2.70
 -19  -6 -12   19.50    2.60
 -20  -6 -12   -0.30    1.30
   9  -7 -12    1.20    1.40
  -9   7  12   -2.40    1.40
   8  -7 -12   21.60    2.40
  -8   7  12   29.90    3.30
   7  -7 -12    5.40    1.50
  -7   7  12    3.40    1.60
   6  -7 -12   -0.60    1.00
  -6   7  12   -0.30    1.30
   5  -7 -12   98.69    4.30
  -5   7  12   95.89    4.60
   4  -7 -12   20.60    2.20
  -4   7  12   19.50    2.30
   3  -7 -12    0.30    1.00
  -3   7  12    2.90    1.20
   2  -7 -12   54.29    2.90
  -2   7  12   43.00    2.80
   1  -7 -12  113.59    4.30
  -1   7  12  122.19    4.50
   0  -7 -12   22.10    2.10
   0   7  12   21.50    2.00
  -1  -7 -12  191.08    5.90
   1   7  12  183.18    5.70
  -2  -7 -12  113.69    4.20
  -2  -7 -12  110.39    3.30
   2   7  12  109.39    3.90
  -3  -7 -12   -0.80    0.70
  -3  -7 -12    0.30    0.60
   3   7  12    0.00    0.70
  -4  -7 -12    0.70    0.60
   4   7  12    0.30    0.70
  -5  -7 -12   42.70    2.10
   5   7  12   46.20    2.10
  -6  -7 -12  488.65   11.50
   6   7  12  463.75   11.20
  -7  -7 -12  366.16    9.20
  -7  -7 -12  355.96    8.70
  -8  -7 -12   48.80    2.10
  -8  -7 -12   46.90    2.40
  -9  -7 -12  123.79    4.40
  -9  -7 -12  122.69    3.70
 -10  -7 -12  553.54   13.60
 -10  -7 -12  554.94   12.80
 -11  -7 -12    6.50    1.30
 -12  -7 -12   11.90    1.80
 -13  -7 -12   57.99    3.20
 -14  -7 -12   22.70    2.40
 -15  -7 -12   39.30    3.00
 -16  -7 -12    3.70    1.40
 -17  -7 -12   71.99    3.90
 -18  -7 -12  122.99    5.30
 -19  -7 -12    2.80    1.50
 -20  -7 -12    4.40    1.70
   8  -8 -12   36.20    3.20
  -8   8  12   30.80    3.20
   7  -8 -12    4.80    1.50
  -7   8  12    2.90    1.50
   6  -8 -12   49.70    3.20
  -6   8  12   54.09    3.60
   5  -8 -12    9.90    1.90
  -5   8  12    9.60    1.90
   4  -8 -12    3.20    1.30
  -4   8  12    3.90    1.40
   3  -8 -12   19.90    2.20
  -3   8  12   16.60    2.00
   2  -8 -12    4.20    1.20
  -2   8  12    2.90    1.20
   1  -8 -12    4.20    1.20
  -1   8  12    3.00    1.20
   0  -8 -12    4.70    1.20
   0   8  12    4.30    1.10
  -1  -8 -12   17.10    1.90
   1   8  12   22.00    1.90
  -2  -8 -12  285.77    8.10
   2   8  12  279.77    7.60
  -3  -8 -12   12.00    1.60
  -3  -8 -12   14.90    1.30
   3   8  12   12.40    1.40
  -4  -8 -12    0.90    0.60
   4   8  12    1.20    0.70
  -5  -8 -12    1.50    0.80
   5   8  12    4.10    1.20
  -6  -8 -12   41.40    2.10
  -7  -8 -12  120.79    4.00
  -8  -8 -12   12.70    1.50
  -9  -8 -12   14.10    1.70
 -10  -8 -12  329.27    8.90
 -11  -8 -12    1.90    1.00
 -12  -8 -12    0.00    1.00
 -13  -8 -12   12.30    1.80
 -14  -8 -12    2.10    1.20
 -15  -8 -12   41.80    2.90
 -16  -8 -12   92.29    4.30
 -17  -8 -12    4.00    1.50
 -18  -8 -12   65.49    4.00
 -19  -8 -12   65.79    3.90
 -20  -8 -12    0.00    1.30
   7  -9 -12   50.79    3.40
  -7   9  12   48.80    3.60
   6  -9 -12   -0.10    1.10
  -6   9  12    1.50    1.40
   5  -9 -12    3.40    1.50
  -5   9  12    4.00    1.50
   4  -9 -12   32.50    2.80
  -4   9  12   30.70    2.80
   3  -9 -12   -2.00    1.10
  -3   9  12    0.50    1.10
   2  -9 -12    2.10    1.20
  -2   9  12    4.50    1.30
   1  -9 -12    4.20    1.40
  -1   9  12    6.30    1.40
   0  -9 -12    0.60    1.00
   0   9  12    0.20    0.90
  -1  -9 -12    7.60    1.40
   1   9  12    7.20    1.40
  -2  -9 -12   28.50    2.40
  -3  -9 -12   13.90    1.80
  -3  -9 -12   12.70    1.20
  -4  -9 -12   71.39    3.40
  -4  -9 -12   76.49    2.80
  -5  -9 -12   44.30    2.10
  -6  -9 -12   -0.40    0.60
  -7  -9 -12   96.89    3.60
  -8  -9 -12    2.10    0.90
  -9  -9 -12   39.40    2.30
 -10  -9 -12   46.50    2.60
 -11  -9 -12   47.60    2.70
 -12  -9 -12   37.90    2.50
 -13  -9 -12    3.20    1.20
 -14  -9 -12   33.90    2.60
 -15  -9 -12   19.30    2.30
 -16  -9 -12   43.20    3.20
 -17  -9 -12    2.50    1.40
 -18  -9 -12    6.00    1.70
 -19  -9 -12   27.80    3.00
 -20  -9 -12    6.70    1.90
   7 -10 -12   74.39    4.20
  -7  10  12   80.19    4.60
   6 -10 -12   49.30    3.50
  -6  10  12   43.50    3.70
   5 -10 -12   -0.10    1.30
  -5  10  12    1.10    1.20
   4 -10 -12   57.39    3.40
   3 -10 -12  154.88    5.80
   2 -10 -12   45.60    3.00
   1 -10 -12   24.70    2.50
   0 -10 -12    2.70    1.20
  -1 -10 -12    1.10    1.10
  -2 -10 -12    4.30    1.30
  -3 -10 -12   62.39    3.30
  -4 -10 -12    1.90    0.70
  -4 -10 -12    0.70    1.00
  -5 -10 -12  312.47    7.90
  -6 -10 -12   78.29    3.10
  -7 -10 -12   41.90    2.30
  -8 -10 -12    0.30    0.80
  -9 -10 -12   -0.90    0.70
 -10 -10 -12    6.10    1.30
 -11 -10 -12   43.20    2.60
 -12 -10 -12   17.00    1.90
 -13 -10 -12    2.80    1.20
 -14 -10 -12  233.38    7.30
 -15 -10 -12   13.60    2.00
 -16 -10 -12    3.50    1.50
 -17 -10 -12   81.99    4.20
 -18 -10 -12    0.50    1.40
 -19 -10 -12   -0.10    1.30
 -20 -10 -12    5.90    1.80
   6 -11 -12   46.10    3.40
   5 -11 -12    2.20    1.60
   4 -11 -12    0.50    1.20
   3 -11 -12   18.60    2.30
   2 -11 -12  360.66   10.40
   1 -11 -12   52.99    3.30
   0 -11 -12   31.40    2.70
  -1 -11 -12    7.70    1.70
  -2 -11 -12   67.59    3.60
  -3 -11 -12    1.50    1.10
  -4 -11 -12   33.60    1.90
  -4 -11 -12   29.30    2.60
  -5 -11 -12    0.70    0.70
  -5 -11 -12    1.10    1.00
  -6 -11 -12  354.96    9.00
  -7 -11 -12  190.38    5.60
  -8 -11 -12    1.00    0.90
  -9 -11 -12   98.19    3.80
 -10 -11 -12   -0.90    1.00
 -11 -11 -12   74.19    3.40
 -12 -11 -12   22.10    2.20
 -13 -11 -12   -0.90    1.10
 -14 -11 -12   69.19    3.60
 -15 -11 -12  135.99    5.30
 -16 -11 -12   22.60    2.50
 -17 -11 -12    5.30    1.70
 -18 -11 -12    1.40    1.40
 -19 -11 -12    5.50    1.70
 -20 -11 -12   17.20    2.50
   5 -12 -12   22.20    2.70
   4 -12 -12   39.20    3.30
   3 -12 -12   22.70    2.70
   2 -12 -12    1.10    1.30
   1 -12 -12   45.10    3.30
   0 -12 -12   47.90    3.20
  -1 -12 -12    6.10    1.50
  -2 -12 -12   24.50    2.50
  -3 -12 -12    6.20    1.50
  -4 -12 -12   27.50    2.60
  -5 -12 -12   42.80    2.20
  -5 -12 -12   51.79    3.20
  -6 -12 -12    2.60    1.00
  -7 -12 -12  226.28    6.40
  -8 -12 -12   13.00    1.50
  -9 -12 -12   10.80    1.50
 -10 -12 -12   11.50    1.60
 -11 -12 -12   28.10    2.30
 -12 -12 -12   12.70    1.80
 -13 -12 -12   23.20    2.30
 -14 -12 -12   -1.20    1.10
 -15 -12 -12  112.09    4.90
 -16 -12 -12    2.70    1.40
 -17 -12 -12   12.40    2.20
 -18 -12 -12   53.19    3.70
 -19 -12 -12   38.50    3.30
 -20 -12 -12   10.40    2.20
   4 -13 -12   -0.70    1.30
   3 -13 -12   21.70    2.60
   2 -13 -12   43.70    3.20
   1 -13 -12   -1.70    1.10
   0 -13 -12    5.60    1.60
  -1 -13 -12  220.68    7.40
  -2 -13 -12   76.19    3.90
  -3 -13 -12   -0.50    1.10
  -4 -13 -12    3.10    1.30
  -5 -13 -12    1.20    1.00
  -5 -13 -12    2.60    1.30
  -6 -13 -12    0.80    0.90
  -6 -13 -12    1.40    1.30
  -7 -13 -12   99.79    3.70
  -8 -13 -12   -1.00    0.80
  -9 -13 -12  139.99    4.80
 -10 -13 -12   99.99    3.90
 -11 -13 -12   70.99    3.50
 -12 -13 -12   33.60    2.70
 -13 -13 -12  108.39    4.40
 -14 -13 -12   35.40    3.00
 -15 -13 -12   54.99    3.30
 -16 -13 -12   10.50    1.80
 -17 -13 -12   32.00    2.90
 -18 -13 -12   16.00    2.30
 -19 -13 -12   36.90    3.30
   3 -14 -12    4.00    1.70
   2 -14 -12    6.50    1.80
   1 -14 -12    1.10    1.40
   0 -14 -12   -1.90    1.20
  -1 -14 -12  184.68    6.80
  -2 -14 -12  496.15   13.40
  -3 -14 -12   77.59    4.10
  -4 -14 -12   16.50    2.30
  -5 -14 -12   30.80    2.80
  -6 -14 -12   -0.90    0.80
  -6 -14 -12    0.10    1.20
  -7 -14 -12   -1.00    0.80
  -7 -14 -12   -0.70    1.10
  -8 -14 -12   -1.30    0.80
  -9 -14 -12  145.99    5.00
 -10 -14 -12   38.50    2.50
 -11 -14 -12   18.30    2.10
 -12 -14 -12   11.70    1.70
 -13 -14 -12    7.00    1.50
 -14 -14 -12  190.38    6.50
 -15 -14 -12   -0.70    1.10
 -16 -14 -12    0.90    1.50
 -17 -14 -12    7.40    1.80
 -18 -14 -12   26.90    2.80
 -19 -14 -12    1.90    1.60
   2 -15 -12    1.50    1.60
   1 -15 -12    1.90    1.60
   0 -15 -12    1.00    1.40
  -1 -15 -12    0.40    1.50
  -2 -15 -12  212.68    7.40
  -3 -15 -12   39.80    3.40
  -4 -15 -12   43.10    3.20
  -5 -15 -12    0.80    1.30
  -6 -15 -12   67.29    3.80
  -7 -15 -12    9.90    1.50
  -7 -15 -12    9.90    2.00
  -8 -15 -12    0.30    0.90
  -9 -15 -12    4.60    1.30
 -10 -15 -12   45.80    2.70
 -11 -15 -12   29.10    2.50
 -12 -15 -12   20.40    2.20
 -13 -15 -12    3.70    1.40
 -14 -15 -12   69.29    3.80
 -15 -15 -12   74.19    4.00
 -16 -15 -12    2.30    1.50
 -17 -15 -12    0.10    1.30
 -18 -15 -12    0.40    1.40
   1 -16 -12    6.00    2.00
   0 -16 -12    1.50    1.60
  -1 -16 -12    2.70    1.60
  -2 -16 -12    5.60    1.70
  -3 -16 -12    1.70    1.40
  -4 -16 -12   -0.40    1.20
  -5 -16 -12  147.39    6.00
  -6 -16 -12   29.80    3.00
  -7 -16 -12   12.30    2.20
  -7 -16 -12   10.10    1.60
  -8 -16 -12    4.00    1.30
  -8 -16 -12    8.00    1.80
  -9 -16 -12   15.50    1.90
 -10 -16 -12   16.30    1.90
 -11 -16 -12   51.49    3.10
 -12 -16 -12   14.00    2.00
 -13 -16 -12    1.10    1.30
 -14 -16 -12   14.10    2.10
 -15 -16 -12   28.60    2.80
 -16 -16 -12    6.80    1.80
 -17 -16 -12   30.90    3.10
 -18 -16 -12    5.20    2.00
  -1 -17 -12    0.90    1.50
  -2 -17 -12    1.30    1.50
  -3 -17 -12    4.50    1.70
  -4 -17 -12   -0.20    1.30
  -5 -17 -12   38.70    3.40
  -6 -17 -12  296.27    9.40
  -7 -17 -12   38.90    3.50
  -8 -17 -12   11.40    1.60
  -8 -17 -12   12.30    2.20
  -9 -17 -12   27.60    2.90
  -9 -17 -12   29.50    2.40
 -10 -17 -12   18.00    2.00
 -11 -17 -12   15.60    2.00
 -12 -17 -12    4.70    1.40
 -13 -17 -12   14.40    2.10
 -14 -17 -12    6.90    1.70
 -15 -17 -12    4.70    1.70
 -16 -17 -12   -1.20    1.30
 -17 -17 -12    1.60    1.70
  -3 -18 -12    1.30    1.50
  -4 -18 -12    0.00    1.40
  -5 -18 -12    6.70    1.90
  -6 -18 -12   78.89    4.40
  -7 -18 -12   72.99    4.40
  -8 -18 -12    6.90    2.00
  -8 -18 -12    4.50    1.50
  -9 -18 -12   11.60    1.90
  -9 -18 -12   10.20    2.10
 -10 -18 -12   21.20    2.60
 -10 -18 -12   23.30    2.40
 -11 -18 -12    1.20    1.20
 -12 -18 -12    1.50    1.30
 -13 -18 -12   -0.40    1.20
 -14 -18 -12   -0.60    1.30
 -15 -18 -12   18.60    2.50
 -16 -18 -12    0.30    1.40
  -5 -19 -12   37.30    3.50
  -6 -19 -12    0.40    1.40
  -7 -19 -12    7.10    1.90
  -8 -19 -12    2.40    1.80
  -9 -19 -12   42.00    3.00
  -9 -19 -12   41.70    3.60
 -10 -19 -12    6.40    1.70
 -10 -19 -12   10.10    2.20
 -11 -19 -12   20.20    2.40
 -12 -19 -12   -1.90    1.30
 -13 -19 -12   30.50    2.90
 -14 -19 -12    0.60    1.50
   3  14 -13  108.39    5.40
  -3 -14  13  111.59    5.60
   2  14 -13   69.59    4.40
  -2 -14  13   55.09    4.30
   1  14 -13    7.80    2.00
   0  14 -13    5.40    2.00
  -1  14 -13    1.00    1.60
  -2  14 -13   25.10    3.00
  -6 -13  13    0.80    1.30
  -6 -13  13    0.00    1.60
  -5 -13  13    4.50    1.70
  -5 -13  13    1.90    1.60
  -4 -13  13   38.60    3.60
  -4 -13  13   40.10    3.70
   3  13 -13    4.70    1.80
  -3 -13  13    6.60    2.10
   2  13 -13  327.67   10.40
  -2 -13  13  315.77   10.50
   1  13 -13   57.79    4.10
   0  13 -13    0.60    1.50
  -1  13 -13   51.19    3.70
  -2  13 -13   18.30    2.60
  -3  13 -13    9.40    2.10
  -4  13 -13   -1.20    1.40
  -5  13 -13    7.50    2.00
  -7 -12  13   33.80    3.40
  -7 -12  13   28.90    3.10
  -6 -12  13    0.70    1.40
  -6 -12  13   -2.10    1.00
  -5 -12  13   28.10    3.10
  -5 -12  13   28.70    3.00
  -4 -12  13   18.40    2.60
  -4 -12  13   11.70    2.20
  -3 -12  13   46.80    3.50
  -3 -12  13   49.00    3.60
   2  12 -13    2.10    1.70
  -2 -12  13    0.50    1.50
   1  12 -13   78.39    4.60
   0  12 -13   16.40    2.60
  -1  12 -13    3.90    1.80
  -2  12 -13   28.50    3.00
  -3  12 -13   59.49    3.80
  -4  12 -13    2.40    1.60
  -5  12 -13   -2.10    1.50
  -6  12 -13    4.70    1.90
  -7  12 -13   23.20    2.90
  -8 -11  13    1.80    1.60
  -7 -11  13    0.00    1.30
  -7 -11  13    1.10    1.40
  -6 -11  13    2.30    1.40
  -6 -11  13    2.20    1.50
  -5 -11  13    3.60    1.80
  -5 -11  13    0.30    1.30
  -4 -11  13   23.60    2.80
  -4 -11  13   24.90    2.80
  -3 -11  13    1.00    1.30
  -3 -11  13    3.20    1.60
  -2 -11  13   47.40    3.40
  -2 -11  13   48.60    3.60
   1  11 -13   16.30    2.40
   0  11 -13    2.60    1.50
  -1  11 -13   26.10    2.90
  -2  11 -13   37.80    3.40
  -3  11 -13   71.79    4.10
  -4  11 -13   17.20    2.50
  -5  11 -13   23.50    2.70
  -6  11 -13    0.90    1.60
  -7  11 -13    9.00    2.20
  -8  11 -13    0.70    1.60
  -9  11 -13   -0.40    1.60
  -9 -10  13   13.20    2.40
  -8 -10  13   13.00    2.40
  -7 -10  13    1.00    1.50
  -6 -10  13   37.10    3.50
  -6 -10  13   41.10    3.10
  -5 -10  13   13.50    2.10
  -5 -10  13   10.50    2.20
  -4 -10  13   -0.80    1.20
  -4 -10  13   -0.60    1.20
  -3 -10  13   75.89    4.10
  -3 -10  13   72.59    4.20
  -2 -10  13   16.30    2.30
  -2 -10  13   18.10    2.40
  -1 -10  13   13.40    2.20
   0  10 -13   37.40    3.30
  -1  10 -13    6.30    1.80
  -2  10 -13  237.08    8.10
  -3  10 -13   70.99    4.20
  -4  10 -13    2.60    1.50
  -5  10 -13   79.29    4.30
  -6  10 -13  121.49    5.50
  -7  10 -13   52.69    3.60
  -8  10 -13    6.70    1.90
  -9  10 -13    6.30    1.80
 -10  10 -13   11.80    2.20
  -9  -9  13   -0.60    1.40
  -8  -9  13   30.10    3.30
  -7  -9  13   13.70    2.30
  -6  -9  13   26.00    2.90
  -6  -9  13   26.40    2.60
  -5  -9  13    8.50    2.00
  -5  -9  13    8.60    1.70
  -4  -9  13    2.50    1.20
  -4  -9  13    0.40    1.40
  -3  -9  13   66.59    3.70
  -3  -9  13   55.79    3.70
  -2  -9  13   22.50    2.60
  -1  -9  13  200.38    7.10
  -1   9 -13   64.09    3.90
  -2   9 -13    0.60    1.40
  -3   9 -13  140.29    5.80
  -4   9 -13    6.90    1.90
  -5   9 -13    4.00    1.70
  -6   9 -13   60.49    3.90
  -7   9 -13  297.67    9.30
  -8   9 -13   32.80    3.20
  -9   9 -13   14.10    2.30
 -10   9 -13    9.10    2.00
 -11   9 -13    1.30    1.50
 -10  -8  13   13.70    2.60
  -9  -8  13    5.80    1.90
  -8  -8  13    3.30    1.70
  -7  -8  13    3.50    1.60
  -6  -8  13   14.50    2.30
  -5  -8  13   46.80    2.90
  -5  -8  13   47.40    3.40
  -4  -8  13   89.39    4.50
  -4  -8  13   84.59    4.00
  -3  -8  13   53.09    3.50
  -3  -8  13   54.29    3.30
  -2  -8  13    4.50    1.60
  -1  -8  13  135.29    5.60
   0  -8  13   29.20    2.90
  -1   8 -13   11.70    2.00
  -2   8 -13  106.79    5.00
  -3   8 -13   23.00    2.60
  -4   8 -13   -1.20    1.10
  -5   8 -13  107.59    4.80
  -6   8 -13    0.70    1.40
  -7   8 -13  222.38    7.60
  -8   8 -13   74.79    4.10
  -9   8 -13    9.70    2.00
 -10   8 -13    2.70    1.50
 -11   8 -13    8.00    2.10
 -12   8 -13   10.90    2.10
 -10  -7  13   92.79    5.10
  -9  -7  13   15.70    2.70
  -8  -7  13   14.80    2.40
  -7  -7  13   22.40    2.90
  -6  -7  13   16.80    2.50
  -5  -7  13    2.20    1.40
  -5  -7  13    3.20    1.20
  -4  -7  13   40.40    2.70
  -4  -7  13   36.50    3.20
  -3  -7  13    8.80    1.80
  -2  -7  13   91.89    4.40
  -1  -7  13   36.60    3.10
   0  -7  13   21.70    2.50
   1  -7  13  210.38    7.20
  -2   7 -13  146.69    5.70
  -3   7 -13  143.19    5.60
  -4   7 -13    1.30    1.40
  -5   7 -13    1.60    1.30
  -6   7 -13   72.49    4.00
  -7   7 -13    0.20    1.10
  -8   7 -13   -1.30    1.10
  -9   7 -13   54.09    3.50
 -10   7 -13  195.28    7.00
 -11   7 -13    1.40    1.40
 -12   7 -13   16.20    2.30
 -13   7 -13    5.50    1.80
 -10  -6  13  107.89    5.60
  -9  -6  13   16.50    2.50
  -8  -6  13   12.40    2.30
  -7  -6  13   84.89    4.60
  -6  -6  13   76.89    4.30
  -5  -6  13    1.50    1.40
  -4  -6  13    3.60    1.40
  -3  -6  13   17.90    2.30
  -2  -6  13   -0.10    1.10
  -1  -6  13    5.50    1.50
   0  -6  13   36.00    2.80
   1  -6  13   11.40    1.90
  -3   6 -13  176.38    6.30
  -4   6 -13   24.70    2.50
  -5   6 -13   71.89    3.80
  -6   6 -13   84.09    4.00
  -7   6 -13   21.70    2.40
  -8   6 -13   27.60    2.60
  -9   6 -13   42.00    3.00
 -10   6 -13   98.99    4.60
 -11   6 -13  283.17    8.90
 -12   6 -13    2.80    1.50
 -13   6 -13   13.10    2.20
 -14   6 -13  106.89    5.10
 -11  -5  13   -0.50    1.60
 -10  -5  13    3.40    1.90
  -9  -5  13    4.10    1.70
  -8  -5  13   38.90    3.60
  -7  -5  13   23.90    2.90
  -6  -5  13   24.20    2.70
  -5  -5  13   86.79    4.40
  -4  -5  13    0.10    1.20
  -3  -5  13   17.50    2.30
  -2  -5  13  118.79    5.10
  -1  -5  13   38.10    2.90
   0  -5  13   27.60    2.60
   1  -5  13   23.90    2.40
   2  -5  13  118.49    4.90
  -3   5 -13  325.47    9.50
  -4   5 -13   11.40    1.80
  -5   5 -13    0.70    1.20
  -6   5 -13  148.79    5.50
  -7   5 -13  176.98    6.20
  -8   5 -13    4.10    1.40
  -9   5 -13    0.30    1.10
 -10   5 -13    0.00    1.30
 -11   5 -13  167.68    6.30
 -12   5 -13  110.99    5.00
 -13   5 -13   10.60    2.10
 -14   5 -13    3.10    1.70
 -15   5 -13   85.49    4.60
 -11  -4  13   84.69    5.30
 -10  -4  13    1.10    1.60
  -9  -4  13   -3.20    1.30
  -8  -4  13   13.70    2.30
  -7  -4  13  143.99    6.20
  -6  -4  13  135.59    5.70
  -5  -4  13   19.00    2.40
  -4  -4  13   14.90    2.10
  -3  -4  13  199.78    6.90
  -2  -4  13  149.19    5.70
  -1  -4  13   27.40    2.60
   0  -4  13   29.20    2.70
   1  -4  13    2.50    1.20
   2  -4  13  175.88    6.20
  -4   4 -13    2.70    1.30
  -5   4 -13  145.69    5.40
  -6   4 -13  116.69    4.70
  -7   4 -13    0.30    1.10
  -8   4 -13   18.30    2.10
  -9   4 -13    1.20    1.10
 -10   4 -13   18.80    2.20
 -11   4 -13    2.00    1.40
 -12   4 -13   21.30    2.50
 -13   4 -13   -0.20    1.20
 -14   4 -13   34.50    3.10
 -15   4 -13    9.50    1.90
 -16   4 -13  109.19    5.30
 -11  -3  13   63.59    4.70
 -10  -3  13   26.80    3.30
  -9  -3  13   43.60    3.90
  -8  -3  13   46.60    3.60
  -7  -3  13    2.70    1.70
  -6  -3  13   63.39    4.00
  -5  -3  13   63.59    3.70
  -4  -3  13   -1.10    1.00
  -3  -3  13    7.60    1.60
  -2  -3  13  173.18    6.20
  -1  -3  13  163.58    5.90
   0  -3  13   26.50    2.50
   1  -3  13    1.20    1.00
   2  -3  13   49.10    2.90
   3  -3  13   75.49    3.70
  -4   3 -13    8.20    1.50
  -5   3 -13    2.50    1.10
  -6   3 -13  278.07    8.20
  -7   3 -13  304.17    8.80
  -8   3 -13   -0.20    1.00
  -9   3 -13    2.90    1.30
 -10   3 -13   96.59    4.20
 -11   3 -13   13.70    2.00
 -12   3 -13    4.90    1.50
 -13   3 -13   -0.20    1.20
 -14   3 -13   43.30    3.10
 -15   3 -13   75.39    4.10
 -16   3 -13    4.20    1.60
 -11  -2  13   27.90    3.50
 -10  -2  13   39.50    3.80
  -9  -2  13   45.10    4.00
  -8  -2  13   19.70    2.70
  -7  -2  13    1.50    1.60
  -6  -2  13    1.40    1.50
  -5  -2  13  144.39    5.80
  -4  -2  13   59.99    3.50
  -3  -2  13   19.70    2.30
  -2  -2  13   76.89    3.80
  -1  -2  13   69.89    3.60
   0  -2  13   66.99    3.40
   1  -2  13   18.00    2.00
   2  -2  13  115.09    4.60
   3  -2  13  106.69    4.30
  -5   2 -13   18.80    2.00
  -6   2 -13  144.99    5.30
  -7   2 -13  383.16   10.40
  -8   2 -13   48.60    2.80
  -9   2 -13    1.30    1.10
 -10   2 -13  130.59    4.90
 -11   2 -13  169.58    5.90
 -12   2 -13    2.20    1.30
 -13   2 -13   32.00    2.90
 -14   2 -13   -0.70    1.20
 -15   2 -13   44.10    3.30
 -16   2 -13   16.60    2.50
 -17   2 -13   -0.90    1.30
 -11  -1  13   14.20    2.70
 -10  -1  13   61.79    4.50
  -9  -1  13   -0.80    1.50
  -8  -1  13    6.40    1.90
  -7  -1  13  295.57    9.50
  -6  -1  13   20.90    2.60
  -5  -1  13   41.40    3.10
  -4  -1  13   19.00    2.30
  -3  -1  13  102.59    4.50
  -2  -1  13   37.40    2.80
  -1  -1  13   82.59    3.80
   0  -1  13   15.80    2.00
   1  -1  13  454.25   11.90
   2  -1  13   83.69    3.70
   3  -1  13   53.69    2.90
   4  -1  13    0.00    0.90
  -5   1 -13    2.80    1.10
  -6   1 -13    7.60    1.40
  -7   1 -13    1.80    1.00
  -8   1 -13    1.50    1.00
  -9   1 -13   48.70    2.90
 -10   1 -13  142.79    5.20
 -11   1 -13   75.89    3.60
 -12   1 -13  127.59    5.00
 -13   1 -13   16.90    2.10
 -14   1 -13   50.39    3.10
 -15   1 -13    2.70    1.40
 -16   1 -13    6.60    1.70
 -17   1 -13   -0.70    1.20
 -18   1 -13   12.10    2.20
 -10   0  13    6.80    2.10
  -9   0  13    3.70    1.90
  -8   0  13   12.00    2.30
  -7   0  13  282.77    9.20
  -6   0  13  178.98    6.70
  -5   0  13   50.89    3.40
  -4   0  13   45.50    3.10
  -3   0  13    0.30    1.20
  -2   0  13   60.99    3.30
  -1   0  13   10.80    1.70
   0   0 -13   37.90    1.80
   0   0  13   43.60    2.70
  -1   0 -13   13.00    1.20
   1   0  13   12.00    1.70
  -2   0 -13  450.55   10.60
   2   0  13  444.36   11.70
   3   0  13  184.88    6.00
   4   0  13    6.50    1.30
  -6   0 -13   33.30    2.30
  -7   0 -13    1.30    1.00
  -8   0 -13   69.09    3.20
  -9   0 -13    0.00    0.90
 -10   0 -13   48.40    2.80
 -11   0 -13  157.48    5.50
 -12   0 -13    3.10    1.20
 -13   0 -13    5.00    1.50
 -14   0 -13   76.19    3.80
 -15   0 -13   19.00    2.20
 -16   0 -13   10.10    2.00
 -17   0 -13    3.30    1.70
 -18   0 -13    5.30    1.70
 -10   1  13    1.80    1.90
  -9   1  13   19.00    2.80
  -8   1  13    3.90    1.60
  -7   1  13   16.10    2.50
  -6   1  13  202.68    7.30
  -5   1  13  362.86   10.70
   4  -1 -13   22.30    2.30
  -4   1  13   24.10    2.50
   3  -1 -13    1.90    0.80
  -3   1  13    2.00    1.30
   2  -1 -13  101.29    3.40
  -2   1  13   94.79    4.20
   1  -1 -13   12.30    1.30
  -1   1  13   14.60    1.90
   0  -1 -13    7.30    1.00
   0   1  13    7.80    1.40
  -1  -1 -13   34.60    1.80
   1   1  13   33.40    2.40
  -2  -1 -13   45.60    2.10
   2   1  13   48.00    2.70
   3   1  13  162.68    5.50
   4   1  13   60.89    3.00
   5   1  13    3.80    1.20
  -6  -1 -13  159.08    5.30
  -7  -1 -13   43.00    2.60
  -8  -1 -13   15.00    1.70
  -9  -1 -13   64.69    3.00
 -10  -1 -13   29.90    2.30
 -11  -1 -13  194.68    6.10
 -12  -1 -13   41.50    2.70
 -13  -1 -13   61.79    3.20
 -14  -1 -13   73.59    3.70
 -15  -1 -13   18.60    2.20
 -16  -1 -13    7.90    1.70
 -17  -1 -13    1.40    1.30
 -18  -1 -13    7.70    1.90
 -10   2  13    0.00    1.70
  -9   2  13    1.40    1.50
  -8   2  13    1.10    1.60
  -7   2  13   22.60    2.70
   6  -2 -13   30.80    2.10
  -6   2  13   32.50    3.10
   5  -2 -13   58.29    2.80
  -5   2  13   64.29    3.70
   4  -2 -13   59.79    2.70
  -4   2  13   58.29    3.60
   3  -2 -13  130.49    4.20
  -3   2  13  122.99    5.00
   2  -2 -13   82.59    3.10
  -2   2  13   82.19    3.80
   1  -2 -13   19.60    1.70
  -1   2  13   16.10    1.90
   0  -2 -13    1.00    0.70
   0   2  13    1.20    1.00
  -1  -2 -13    2.90    0.90
   1   2  13    2.00    1.00
  -2  -2 -13  131.19    4.20
   2   2  13  142.69    4.90
   3   2  13   44.80    2.60
   4   2  13   65.09    3.10
   5   2  13  122.59    4.40
  -6  -2 -13  204.38    6.10
  -7  -2 -13  119.19    4.30
  -8  -2 -13    6.20    1.20
  -9  -2 -13   13.50    1.60
 -10  -2 -13    3.20    1.10
 -11  -2 -13    2.00    1.10
 -12  -2 -13    1.60    1.00
 -13  -2 -13    7.30    1.50
 -14  -2 -13   38.00    2.50
 -15  -2 -13   27.30    2.50
 -16  -2 -13   14.60    2.00
 -17  -2 -13   38.70    2.80
 -18  -2 -13    0.30    1.30
 -18  -2 -13    0.40    1.30
 -19  -2 -13    2.60    1.50
 -19  -2 -13    1.30    1.40
 -10   3  13   59.69    4.60
  -9   3  13   13.90    2.60
   8  -3 -13    8.30    1.50
  -8   3  13    7.70    2.00
   7  -3 -13   22.00    2.10
  -7   3  13   19.10    2.60
   6  -3 -13   24.30    2.10
  -6   3  13   25.30    2.80
   5  -3 -13    1.10    0.90
  -5   3  13    0.90    1.20
   4  -3 -13   24.90    2.00
  -4   3  13   21.00    2.40
   3  -3 -13  317.87    8.30
  -3   3  13  305.07    9.10
   2  -3 -13  147.39    4.80
  -2   3  13  155.48    5.50
   1  -3 -13   66.99    2.90
  -1   3  13   68.09    3.40
   0  -3 -13   12.70    1.40
   0   3  13   13.20    1.70
  -1  -3 -13   30.40    1.80
   1   3  13   21.60    2.10
  -2  -3 -13  265.07    7.10
   2   3  13  263.97    7.60
   3   3  13   68.89    3.20
   4   3  13   10.90    1.40
   5   3  13   51.69    2.60
  -6  -3 -13   43.40    2.40
  -7  -3 -13  125.59    4.30
  -8  -3 -13   33.70    2.20
  -9  -3 -13    3.20    0.90
 -10  -3 -13  146.29    4.80
 -11  -3 -13    2.00    1.00
 -12  -3 -13   60.09    2.90
 -13  -3 -13   12.70    1.70
 -14  -3 -13    5.70    1.30
 -15  -3 -13   35.60    2.50
 -16  -3 -13   12.20    1.70
 -16  -3 -13   11.10    1.90
 -17  -3 -13    0.50    1.20
 -17  -3 -13    1.20    1.50
 -18  -3 -13  100.39    5.00
 -18  -3 -13   95.19    4.30
 -19  -3 -13    1.30    1.40
 -19  -3 -13    2.80    1.70
  -9   4  13   37.50    3.70
   8  -4 -13   -0.80    1.10
  -8   4  13   -0.90    1.30
   7  -4 -13   32.40    2.60
  -7   4  13   26.30    3.00
   6  -4 -13    9.60    1.50
  -6   4  13   10.80    2.20
   5  -4 -13   67.79    3.20
  -5   4  13   67.69    3.90
   4  -4 -13    2.30    1.00
  -4   4  13    3.90    1.40
   3  -4 -13    0.40    0.90
  -3   4  13   -1.30    0.80
   2  -4 -13   82.69    3.40
  -2   4  13   81.49    3.90
   1  -4 -13  657.33   15.50
  -1   4  13  653.43   16.10
   0  -4 -13   33.40    2.00
   0   4  13   30.80    2.40
  -1  -4 -13   11.60    1.50
   1   4  13   11.00    1.60
  -2  -4 -13 1308.57   28.60
   2   4  13 1280.17   28.90
   3   4  13  205.28    6.20
   4   4  13   16.20    1.70
   5   4  13    0.40    0.80
  -7  -4 -13   68.69    2.90
  -8  -4 -13   26.50    1.80
  -9  -4 -13   12.60    1.50
 -10  -4 -13  524.55   12.60
 -11  -4 -13   88.19    3.40
 -12  -4 -13    0.00    0.80
 -13  -4 -13    2.90    1.10
 -14  -4 -13   15.10    2.10
 -14  -4 -13   15.20    1.70
 -15  -4 -13   -0.10    1.00
 -15  -4 -13   -0.20    1.20
 -16  -4 -13    2.40    1.40
 -16  -4 -13    0.30    1.00
 -17  -4 -13   16.80    2.10
 -17  -4 -13   15.40    2.40
 -18  -4 -13   35.40    3.20
 -18  -4 -13   37.50    2.70
 -19  -4 -13   24.50    2.60
 -19  -4 -13   20.80    2.60
   9  -5 -13   15.50    2.20
  -9   5  13   15.50    2.70
   8  -5 -13   27.90    2.50
  -8   5  13   26.10    3.20
   7  -5 -13   67.19    3.40
  -7   5  13   61.59    4.10
   6  -5 -13   43.50    2.80
  -6   5  13   44.80    3.30
   5  -5 -13   18.80    2.00
  -5   5  13   17.80    2.30
   4  -5 -13    2.70    1.10
  -4   5  13    3.30    1.40
   3  -5 -13    1.00    0.90
  -3   5  13    0.10    0.90
   2  -5 -13    0.10    0.90
  -2   5  13   -0.10    0.90
   1  -5 -13   66.09    3.10
  -1   5  13   69.49    3.40
   0  -5 -13   38.00    2.30
   0   5  13   39.40    2.50
  -1  -5 -13  262.67    7.30
   1   5  13  260.77    7.50
  -2  -5 -13   52.99    2.20
  -2  -5 -13   51.59    2.60
   2   5  13   57.39    2.80
  -3  -5 -13  389.66   10.00
   3   5  13  386.66   10.00
   4   5  13  118.39    4.10
   5   5  13   26.00    1.90
   6   5  13   23.80    1.90
  -7  -5 -13   40.80    2.20
  -8  -5 -13   12.00    1.40
  -9  -5 -13   18.30    1.60
 -10  -5 -13   22.60    1.80
 -11  -5 -13  122.79    4.10
 -12  -5 -13   28.20    1.90
 -12  -5 -13   25.90    2.40
 -13  -5 -13    2.50    1.00
 -13  -5 -13   -1.10    1.00
 -14  -5 -13   18.90    1.80
 -14  -5 -13   12.70    1.90
 -15  -5 -13   64.99    3.10
 -15  -5 -13   61.89    3.60
 -16  -5 -13    1.80    1.10
 -16  -5 -13    2.70    1.40
 -17  -5 -13   37.30    3.30
 -17  -5 -13   39.20    2.60
 -18  -5 -13    7.10    1.80
 -18  -5 -13    6.80    1.60
 -19  -5 -13   -0.10    1.40
 -20  -5 -13   11.60    2.10
   8  -6 -13    6.30    1.70
  -8   6  13    6.10    1.90
   7  -6 -13  166.08    6.00
  -7   6  13  166.28    6.90
   6  -6 -13   59.49    3.40
  -6   6  13   68.59    4.20
   5  -6 -13    3.10    1.30
  -5   6  13    0.00    1.20
   4  -6 -13   -0.10    1.10
  -4   6  13    0.00    1.10
   3  -6 -13    0.30    0.90
  -3   6  13    0.40    1.00
   2  -6 -13   34.20    2.40
  -2   6  13   32.60    2.40
   1  -6 -13   13.00    1.60
  -1   6  13   12.90    1.70
   0  -6 -13    0.00    1.00
   0   6  13    0.80    1.00
  -1  -6 -13   50.99    2.80
   1   6  13   52.89    2.80
  -2  -6 -13  293.47    8.20
   2   6  13  308.27    8.30
  -3  -6 -13    5.00    0.90
  -3  -6 -13    4.60    1.20
   3   6  13    4.60    1.10
  -4  -6 -13    0.50    0.70
   4   6  13    0.20    0.80
  -5  -6 -13  217.18    6.10
   5   6  13  214.18    6.10
  -6  -6 -13  387.86    9.80
   6   6  13  388.06    9.70
  -7  -6 -13   12.20    1.30
  -7  -6 -13   11.50    1.40
  -8  -6 -13    1.20    0.90
  -8  -6 -13    2.90    0.90
  -9  -6 -13    7.30    1.30
  -9  -6 -13    8.30    1.10
 -10  -6 -13    0.10    0.90
 -10  -6 -13    0.10    0.70
 -11  -6 -13    1.80    1.00
 -11  -6 -13    2.00    0.80
 -12  -6 -13    4.40    1.20
 -12  -6 -13    3.80    1.00
 -13  -6 -13    6.00    1.20
 -13  -6 -13    5.20    1.40
 -14  -6 -13   44.50    2.50
 -14  -6 -13   38.10    2.80
 -15  -6 -13   10.40    1.80
 -16  -6 -13   25.60    2.70
 -17  -6 -13   -0.30    1.30
 -18  -6 -13   -0.10    1.40
 -19  -6 -13   10.10    2.20
 -20  -6 -13    5.20    1.80
   8  -7 -13    3.80    1.60
  -8   7  13    4.60    1.80
   7  -7 -13   10.30    1.90
  -7   7  13   13.70    2.40
   6  -7 -13  137.69    5.30
  -6   7  13  138.99    5.90
   5  -7 -13   50.29    3.00
  -5   7  13   52.39    3.50
   4  -7 -13    0.10    1.10
  -4   7  13   -1.00    1.00
   3  -7 -13   25.80    2.30
  -3   7  13   24.90    2.60
   2  -7 -13    1.20    1.00
  -2   7  13   -0.60    0.90
   1  -7 -13    0.80    1.00
  -1   7  13    1.80    1.00
   0  -7 -13    0.30    0.90
   0   7  13   -0.60    0.90
  -1  -7 -13   66.39    3.20
   1   7  13   64.19    3.10
  -2  -7 -13   31.00    2.20
   2   7  13   27.40    2.00
  -3  -7 -13  460.35   11.60
  -3  -7 -13  451.55   10.60
   3   7  13  438.96   11.10
  -4  -7 -13   82.69    2.90
   4   7  13   73.89    3.10
  -5  -7 -13   29.90    1.80
   5   7  13   32.30    2.00
  -6  -7 -13 1124.09   24.70
   6   7  13 1095.39   24.50
  -7  -7 -13  161.38    4.70
  -7  -7 -13  152.88    4.90
  -8  -7 -13   48.10    2.20
  -8  -7 -13   51.99    2.60
  -9  -7 -13   51.19    2.70
  -9  -7 -13   50.99    2.60
 -10  -7 -13    1.40    1.00
 -11  -7 -13   10.40    1.70
 -12  -7 -13    6.40    1.40
 -13  -7 -13   27.50    2.50
 -14  -7 -13   76.19    3.80
 -15  -7 -13   99.89    4.60
 -16  -7 -13    7.90    1.70
 -17  -7 -13    3.90    1.50
 -18  -7 -13   19.90    2.50
 -19  -7 -13   13.20    2.40
 -20  -7 -13    0.40    1.60
   7  -8 -13    8.30    1.90
  -7   8  13    7.00    2.00
   6  -8 -13    3.30    1.60
  -6   8  13    4.40    1.70
   5  -8 -13   12.00    1.90
  -5   8  13   15.90    2.30
   4  -8 -13    4.10    1.50
  -4   8  13    1.60    1.30
   3  -8 -13    0.60    1.20
  -3   8  13    2.30    1.30
   2  -8 -13   76.59    3.70
  -2   8  13   76.89    3.80
   1  -8 -13   22.20    2.20
  -1   8  13   21.10    2.20
   0  -8 -13   11.60    1.70
   0   8  13   11.90    1.70
  -1  -8 -13   71.99    3.40
   1   8  13   72.99    3.30
  -2  -8 -13    0.90    1.00
   2   8  13    0.40    0.80
  -3  -8 -13    0.60    1.00
   3   8  13    1.40    0.90
  -4  -8 -13    0.90    0.60
  -4  -8 -13    1.10    1.00
   4   8  13    2.40    1.10
  -5  -8 -13   10.30    1.20
  -6  -8 -13   79.69    3.10
  -7  -8 -13  396.56   10.00
  -8  -8 -13  288.67    7.90
  -9  -8 -13   26.70    2.20
 -10  -8 -13    0.80    0.90
 -11  -8 -13   56.19    3.00
 -12  -8 -13   51.39    3.10
 -13  -8 -13   19.20    2.20
 -14  -8 -13    6.60    1.60
 -15  -8 -13   24.30    2.50
 -16  -8 -13   54.79    3.40
 -17  -8 -13    2.90    1.50
 -18  -8 -13    3.20    1.50
 -19  -8 -13   73.89    4.20
 -20  -8 -13   27.40    3.10
   7  -9 -13   30.70    3.10
  -7   9  13   29.20    3.30
   6  -9 -13    0.70    1.40
  -6   9  13    0.50    1.40
   5  -9 -13    2.50    1.50
  -5   9  13    3.30    1.60
   4  -9 -13   14.70    2.10
  -4   9  13   17.00    2.20
   3  -9 -13   71.39    3.80
  -3   9  13   72.49    3.90
   2  -9 -13    6.10    1.50
  -2   9  13    3.90    1.40
   1  -9 -13   15.60    2.00
  -1   9  13   13.60    1.80
   0  -9 -13    1.10    1.10
  -1  -9 -13   57.79    3.30
  -2  -9 -13   31.20    2.40
  -3  -9 -13    0.80    1.00
  -4  -9 -13   54.09    2.40
  -4  -9 -13   57.59    3.10
  -5  -9 -13    6.20    1.00
  -6  -9 -13   39.10    2.10
  -7  -9 -13  276.57    7.50
  -8  -9 -13  210.08    6.20
  -9  -9 -13   90.69    3.60
 -10  -9 -13  100.99    4.00
 -11  -9 -13   13.70    1.80
 -12  -9 -13   34.30    2.80
 -13  -9 -13    1.50    1.10
 -14  -9 -13   51.39    3.10
 -15  -9 -13   54.69    3.30
 -16  -9 -13  119.79    5.10
 -17  -9 -13    5.80    1.70
 -18  -9 -13   41.50    3.50
 -19  -9 -13    1.90    1.50
 -20  -9 -13   53.89    4.00
   6 -10 -13  131.89    5.60
   5 -10 -13   11.00    2.00
   4 -10 -13   -0.80    1.10
   3 -10 -13   15.60    2.20
   2 -10 -13  148.19    5.70
   1 -10 -13   41.00    3.20
   0 -10 -13   59.59    3.40
  -1 -10 -13   10.70    1.80
  -2 -10 -13   25.30    2.40
  -3 -10 -13    1.50    1.10
  -4 -10 -13    1.00    1.10
  -5 -10 -13    3.70    1.20
  -5 -10 -13    4.80    1.00
  -6 -10 -13   17.20    1.60
  -7 -10 -13   84.39    3.30
  -8 -10 -13    3.50    1.00
  -9 -10 -13   32.30    2.20
 -10 -10 -13 1101.89   25.10
 -11 -10 -13  153.58    5.30
 -12 -10 -13   10.40    1.70
 -13 -10 -13   -0.90    1.10
 -14 -10 -13    3.00    1.30
 -15 -10 -13   51.19    3.20
 -16 -10 -13   11.00    2.00
 -17 -10 -13    4.80    1.70
 -18 -10 -13   21.80    2.60
 -19 -10 -13   13.20    2.40
 -20 -10 -13    0.40    1.60
   5 -11 -13   48.50    3.40
   4 -11 -13    2.10    1.40
   3 -11 -13    3.30    1.50
   2 -11 -13    8.10    1.80
   1 -11 -13   21.20    2.50
   0 -11 -13   13.40    2.00
  -1 -11 -13    3.20    1.40
  -2 -11 -13    2.70    1.30
  -3 -11 -13   26.80    2.60
  -4 -11 -13   17.90    2.10
  -5 -11 -13    5.40    1.00
  -5 -11 -13    5.40    1.40
  -6 -11 -13  132.09    4.30
  -7 -11 -13   67.39    3.00
  -8 -11 -13    0.10    0.80
  -9 -11 -13   14.40    1.70
 -10 -11 -13   35.70    2.40
 -11 -11 -13  121.99    4.70
 -12 -11 -13  189.78    6.20
 -13 -11 -13    0.50    1.10
 -14 -11 -13   44.60    3.00
 -15 -11 -13   77.39    4.10
 -16 -11 -13    1.60    1.30
 -17 -11 -13    4.30    1.60
 -18 -11 -13    0.00    1.50
 -19 -11 -13    1.20    1.50
 -20 -11 -13   20.70    2.70
   4 -12 -13    6.40    1.80
   3 -12 -13   78.79    4.20
   2 -12 -13    0.40    1.30
   1 -12 -13   -0.90    1.30
   0 -12 -13   -0.70    1.10
  -1 -12 -13   10.60    1.90
  -2 -12 -13  123.99    5.10
  -3 -12 -13    4.30    1.40
  -4 -12 -13   12.50    1.90
  -5 -12 -13    2.20    1.20
  -6 -12 -13   47.90    2.40
  -6 -12 -13   46.50    3.00
  -7 -12 -13   62.79    2.80
  -8 -12 -13   50.69    2.60
  -9 -12 -13   93.49    3.80
 -10 -12 -13   22.40    2.10
 -11 -12 -13   -0.40    1.00
 -12 -12 -13   72.09    3.60
 -13 -12 -13   55.89    3.20
 -14 -12 -13   -0.40    1.10
 -15 -12 -13   78.69    4.00
 -16 -12 -13   36.00    3.20
 -17 -12 -13    1.90    1.50
 -18 -12 -13   35.00    3.20
 -19 -12 -13    0.10    1.60
   3 -13 -13   39.90    3.40
   2 -13 -13  222.58    7.70
   1 -13 -13    2.00    1.40
   0 -13 -13   11.90    2.00
  -1 -13 -13   65.19    3.90
  -2 -13 -13    3.60    1.60
  -3 -13 -13   24.10    2.60
  -4 -13 -13    1.10    1.20
  -5 -13 -13   27.60    2.70
  -6 -13 -13    2.20    1.20
  -6 -13 -13    2.20    1.00
  -7 -13 -13   22.70    1.90
  -8 -13 -13    0.10    0.90
  -9 -13 -13   62.79    3.10
 -10 -13 -13   79.49    3.60
 -11 -13 -13    5.40    1.30
 -12 -13 -13   36.60    2.70
 -13 -13 -13    7.60    1.60
 -14 -13 -13  106.39    4.50
 -15 -13 -13    4.70    1.50
 -16 -13 -13   -0.80    1.20
 -17 -13 -13   12.90    2.10
 -18 -13 -13   18.20    2.50
 -19 -13 -13   56.19    3.80
   2 -14 -13   94.79    4.80
   1 -14 -13   61.39    3.90
   0 -14 -13   -0.20    1.30
  -1 -14 -13   10.60    2.10
  -2 -14 -13   38.40    3.30
  -3 -14 -13   33.30    3.10
  -4 -14 -13    2.90    1.40
  -5 -14 -13   -0.70    1.10
  -6 -14 -13    0.80    1.20
  -7 -14 -13    8.80    1.40
  -7 -14 -13   11.80    2.00
  -8 -14 -13    1.30    1.00
  -9 -14 -13    0.50    1.00
 -10 -14 -13  174.88    5.70
 -11 -14 -13   87.69    3.80
 -12 -14 -13    2.90    1.20
 -13 -14 -13    0.70    1.30
 -14 -14 -13   10.10    1.80
 -15 -14 -13   26.20    2.70
 -16 -14 -13   46.10    3.40
 -17 -14 -13    9.30    2.10
 -18 -14 -13   -0.10    1.40
 -19 -14 -13   56.59    4.00
   1 -15 -13   48.20    3.60
   0 -15 -13    0.70    1.60
  -1 -15 -13   20.20    2.50
  -2 -15 -13    3.20    1.60
  -3 -15 -13   81.09    4.30
  -4 -15 -13   15.70    2.30
  -5 -15 -13    4.80    1.80
  -6 -15 -13   -0.60    1.20
  -7 -15 -13   18.00    2.40
  -7 -15 -13   23.20    2.00
  -8 -15 -13    1.40    1.30
  -8 -15 -13    3.50    1.10
  -9 -15 -13   -0.70    1.00
 -10 -15 -13   57.29    3.00
 -11 -15 -13   44.90    2.80
 -12 -15 -13  116.99    4.80
 -13 -15 -13   10.30    1.80
 -14 -15 -13    7.00    1.60
 -15 -15 -13   -0.70    1.20
 -16 -15 -13   22.00    2.60
 -17 -15 -13   21.10    2.70
 -18 -15 -13    7.10    1.80
   0 -16 -13    2.00    1.60
  -1 -16 -13   24.60    2.90
  -2 -16 -13   68.69    4.20
  -3 -16 -13   32.20    3.20
  -4 -16 -13   25.40    2.80
  -5 -16 -13   57.29    3.70
  -6 -16 -13   50.19    3.50
  -7 -16 -13   21.90    2.70
  -8 -16 -13   -0.90    1.20
  -8 -16 -13   -0.10    1.00
  -9 -16 -13   32.20    2.40
 -10 -16 -13    6.60    1.40
 -11 -16 -13    1.30    1.30
 -12 -16 -13   11.70    1.80
 -13 -16 -13    9.10    1.80
 -14 -16 -13   40.00    3.00
 -15 -16 -13    1.40    1.40
 -16 -16 -13    9.40    2.00
 -17 -16 -13   -0.60    1.50
  -2 -17 -13   49.80    3.70
  -3 -17 -13   28.80    3.10
  -4 -17 -13    0.80    1.50
  -5 -17 -13   38.70    3.50
  -6 -17 -13  118.99    5.40
  -7 -17 -13   60.99    3.90
  -8 -17 -13   -1.00    1.30
  -9 -17 -13    7.70    1.60
  -9 -17 -13    8.60    2.00
 -10 -17 -13    7.20    1.60
 -11 -17 -13    0.60    1.10
 -12 -17 -13   18.70    2.20
 -13 -17 -13   11.50    2.00
 -14 -17 -13  115.49    4.90
 -15 -17 -13  123.19    5.20
 -16 -17 -13    4.60    1.70
  -4 -18 -13   13.10    2.40
  -5 -18 -13   25.50    2.90
  -6 -18 -13   36.70    3.40
  -7 -18 -13  173.68    6.90
  -8 -18 -13    5.70    1.90
  -9 -18 -13   11.40    1.80
  -9 -18 -13   14.00    2.40
 -10 -18 -13   11.60    1.80
 -10 -18 -13    8.80    2.20
 -11 -18 -13    0.70    1.20
 -12 -18 -13   -0.10    1.10
 -13 -18 -13    2.40    1.50
 -14 -18 -13   15.20    2.20
 -15 -18 -13   10.70    2.20
  -7 -19 -13    0.50    1.50
  -8 -19 -13   17.80    2.80
  -9 -19 -13   14.60    2.50
 -10 -19 -13   42.50    2.90
 -10 -19 -13   39.00    3.60
 -11 -19 -13   25.00    2.50
 -11 -19 -13   25.80    3.10
 -12 -19 -13    1.30    1.30
 -13 -19 -13   -0.70    1.20
   3  13 -14   54.19    4.00
  -3 -13  14   49.60    4.30
   2  13 -14   63.09    4.20
   1  13 -14    2.40    1.80
   0  13 -14    7.90    2.10
  -1  13 -14   -0.70    1.60
  -2  13 -14    2.20    1.70
  -3  13 -14   12.50    2.40
  -5 -12  14    4.40    2.00
  -5 -12  14    6.20    2.00
  -4 -12  14    6.10    1.90
  -4 -12  14    1.20    1.70
  -3 -12  14    7.30    2.00
  -3 -12  14    4.10    1.70
   2  12 -14   -1.50    1.50
   1  12 -14  125.69    5.80
   0  12 -14   26.50    3.20
  -1  12 -14    0.70    1.60
  -2  12 -14    5.50    1.80
  -3  12 -14   11.80    2.20
  -4  12 -14   27.60    3.10
  -5  12 -14   -0.20    1.40
  -6  12 -14    0.70    1.60
  -7 -11  14    8.60    2.30
  -6 -11  14    4.10    1.70
  -6 -11  14    6.50    2.10
  -5 -11  14   20.70    2.60
  -5 -11  14   22.90    2.80
  -4 -11  14   26.10    2.90
  -4 -11  14   21.20    3.00
  -3 -11  14   27.20    3.20
  -2 -11  14   71.79    4.40
   1  11 -14   16.30    2.60
   0  11 -14   30.80    3.30
  -1  11 -14    9.30    2.10
  -2  11 -14   50.29    3.70
  -3  11 -14   74.99    4.50
  -4  11 -14    2.10    1.70
  -5  11 -14   10.20    2.30
  -6  11 -14    2.20    1.60
  -7  11 -14    2.70    1.60
  -8  11 -14   85.79    4.90
  -7 -10  14    0.30    1.50
  -6 -10  14   12.40    2.40
  -5 -10  14    5.50    1.80
  -5 -10  14    8.90    2.00
  -4 -10  14    3.90    1.50
  -4 -10  14    3.30    1.60
  -3 -10  14   27.10    3.00
  -2 -10  14   49.50    3.60
  -1 -10  14   67.69    4.20
   0  10 -14   -1.70    1.20
  -1  10 -14   -0.70    1.40
  -2  10 -14  478.25   13.50
  -3  10 -14  204.28    7.60
  -4  10 -14    2.60    1.60
  -5  10 -14    0.90    1.60
  -6  10 -14   21.30    2.70
  -7  10 -14   14.60    2.40
  -8  10 -14    4.60    1.80
  -9  10 -14    0.70    1.50
  -8  -9  14   20.70    2.80
  -7  -9  14   14.20    2.60
  -6  -9  14    2.60    1.60
  -5  -9  14   33.00    2.90
  -5  -9  14   33.70    3.40
  -4  -9  14    3.30    1.70
  -3  -9  14    3.20    1.60
  -2  -9  14   75.19    4.40
  -1  -9  14   -1.10    1.20
  -1   9 -14    6.00    1.70
  -2   9 -14    7.60    1.90
  -3   9 -14  456.75   12.90
  -4   9 -14   94.49    4.90
  -5   9 -14   13.90    2.20
  -6   9 -14   39.30    3.40
  -7   9 -14    0.40    1.40
  -8   9 -14    4.00    1.80
  -9   9 -14    3.70    1.60
 -10   9 -14    6.90    1.90
 -11   9 -14   75.59    4.60
  -9  -8  14    3.90    1.90
  -8  -8  14    6.30    2.00
  -7  -8  14    4.20    1.80
  -6  -8  14    4.20    1.90
  -5  -8  14    3.50    1.50
  -4  -8  14    6.20    1.80
  -3  -8  14    1.10    1.50
  -2  -8  14   14.50    2.30
  -1  -8  14    7.00    1.80
   0  -8  14   13.10    2.20
  -2   8 -14   88.29    4.50
  -3   8 -14    2.10    1.40
  -4   8 -14   15.70    2.30
  -5   8 -14    0.20    1.30
  -6   8 -14    7.40    1.80
  -7   8 -14    0.70    1.50
  -8   8 -14    8.30    1.90
  -9   8 -14    0.40    1.50
 -10   8 -14   10.30    2.10
 -11   8 -14    1.30    1.40
 -12   8 -14   13.60    2.30
  -9  -7  14    4.30    1.90
  -8  -7  14    7.60    2.20
  -7  -7  14    9.10    2.20
  -6  -7  14   21.40    2.80
  -5  -7  14    2.10    1.40
  -4  -7  14   13.40    2.20
  -3  -7  14   29.50    3.00
  -2  -7  14    0.80    1.20
  -1  -7  14   39.80    3.10
   0  -7  14    2.80    1.50
   1  -7  14    8.80    1.90
  -2   7 -14   30.20    2.90
  -3   7 -14   31.10    2.90
  -4   7 -14   36.60    3.30
  -5   7 -14    4.50    1.60
  -6   7 -14  159.78    6.10
  -7   7 -14  279.07    8.80
  -8   7 -14   12.20    2.10
  -9   7 -14    5.00    1.80
 -10   7 -14   18.50    2.50
 -11   7 -14   18.00    2.50
 -12   7 -14   34.60    3.40
 -13   7 -14    2.20    1.60
  -9  -6  14   53.29    4.10
  -8  -6  14   11.20    2.40
  -7  -6  14    2.80    1.60
  -6  -6  14   80.59    4.50
  -5  -6  14   -0.10    1.30
  -4  -6  14   27.80    2.90
  -3  -6  14   66.69    3.90
  -2  -6  14   15.50    2.20
  -1  -6  14  112.79    5.00
   0  -6  14    0.20    1.20
   1  -6  14   32.80    2.90
  -3   6 -14   14.20    2.20
  -4   6 -14    9.90    1.90
  -5   6 -14    9.50    1.90
  -6   6 -14    3.40    1.50
  -7   6 -14  572.04   14.90
  -8   6 -14  339.97   10.10
  -9   6 -14   10.10    2.10
 -10   6 -14   34.00    3.20
 -11   6 -14   54.39    3.60
 -12   6 -14   37.00    3.30
 -13   6 -14    1.30    1.50
 -14   6 -14   11.30    2.20
 -10  -5  14    4.00    2.10
  -9  -5  14    9.30    2.20
  -8  -5  14    0.60    1.70
  -7  -5  14   34.80    3.40
  -6  -5  14    4.80    1.90
  -5  -5  14    5.40    1.70
  -4  -5  14    1.40    1.30
  -3  -5  14   35.20    3.20
  -2  -5  14   27.70    2.70
  -1  -5  14   27.30    2.80
   0  -5  14  119.89    5.10
   1  -5  14   -1.70    1.00
   2  -5  14  151.78    5.80
  -3   5 -14   14.30    2.10
  -4   5 -14   73.89    4.00
  -5   5 -14   56.79    3.40
  -6   5 -14  122.29    5.10
  -7   5 -14   -0.10    1.10
  -8   5 -14  134.79    5.40
  -9   5 -14    0.40    1.20
 -10   5 -14    4.10    1.60
 -11   5 -14    5.50    1.70
 -12   5 -14   38.70    3.30
 -13   5 -14   12.90    2.20
 -14   5 -14   13.70    2.40
 -15   5 -14    2.10    1.50
 -10  -4  14   31.30    3.60
  -9  -4  14    3.90    1.80
  -8  -4  14    3.70    1.70
  -7  -4  14   66.99    4.20
  -6  -4  14  189.08    7.30
  -5  -4  14   12.40    2.20
  -4  -4  14    2.80    1.40
  -3  -4  14    5.90    1.60
  -2  -4  14   42.00    3.10
  -1  -4  14   60.99    3.60
   0  -4  14   16.70    2.30
   1  -4  14    6.40    1.60
   2  -4  14    4.70    1.50
   3  -4  14   27.30    2.60
  -4   4 -14   20.30    2.30
  -5   4 -14   11.50    1.90
  -6   4 -14  103.29    4.50
  -7   4 -14   66.39    3.70
  -8   4 -14   94.09    4.30
  -9   4 -14    6.40    1.60
 -10   4 -14  152.68    5.80
 -11   4 -14   33.50    3.10
 -12   4 -14   44.70    3.20
 -13   4 -14    7.30    1.80
 -14   4 -14   31.80    3.10
 -15   4 -14    1.80    1.50
 -10  -3  14    4.10    1.90
  -9  -3  14   13.80    2.50
  -8  -3  14    1.90    1.60
  -7  -3  14    0.00    1.50
  -6  -3  14   67.09    4.20
  -5  -3  14  138.59    5.80
  -4  -3  14   67.09    3.90
  -3  -3  14    5.10    1.60
  -2  -3  14  215.58    7.30
  -1  -3  14   59.59    3.50
   0  -3  14  151.98    5.70
   1  -3  14   62.99    3.50
   2  -3  14    1.40    1.20
   3  -3  14   67.09    3.60
  -4   3 -14    0.50    1.10
  -5   3 -14    2.70    1.20
  -6   3 -14  201.28    6.80
  -7   3 -14  446.06   12.00
  -8   3 -14   85.79    4.00
  -9   3 -14    1.60    1.20
 -10   3 -14    0.90    1.20
 -11   3 -14  191.18    6.70
 -12   3 -14   24.60    2.60
 -13   3 -14    1.90    1.50
 -14   3 -14   56.29    3.60
 -15   3 -14  233.18    7.90
 -16   3 -14   20.80    2.70
 -10  -2  14    3.10    1.90
  -9  -2  14    2.30    1.70
  -8  -2  14    9.10    2.20
  -7  -2  14    4.20    1.80
  -6  -2  14    9.40    2.00
  -5  -2  14  121.19    5.40
  -4  -2  14   12.50    2.00
  -3  -2  14   84.39    4.30
  -2  -2  14   88.29    4.30
  -1  -2  14   45.00    3.00
   0  -2  14    7.30    1.50
   1  -2  14   15.90    2.00
   2  -2  14    2.70    1.20
   3  -2  14    4.00    1.30
   4  -2  14    0.70    1.00
  -5   2 -14   57.99    3.20
  -6   2 -14    9.20    1.60
  -7   2 -14   88.09    4.00
  -8   2 -14  304.27    8.90
  -9   2 -14   32.40    2.50
 -10   2 -14   17.80    2.10
 -11   2 -14   35.80    2.70
 -12   2 -14   51.29    3.20
 -13   2 -14   22.70    2.50
 -14   2 -14    5.10    1.60
 -15   2 -14   32.30    3.00
 -16   2 -14  173.28    6.50
 -17   2 -14   13.70    2.30
 -10  -1  14   48.60    4.30
  -9  -1  14    3.60    1.80
  -8  -1  14    1.50    1.50
  -7  -1  14    1.60    1.50
  -6  -1  14    2.80    1.60
  -5  -1  14    0.20    1.20
  -4  -1  14    0.20    1.10
  -3  -1  14   76.79    4.10
  -2  -1  14  649.64   16.50
  -1  -1  14    3.00    1.30
   0  -1  14   56.09    3.30
   1  -1  14    2.40    1.20
   2  -1  14    5.40    1.30
   3  -1  14   70.89    3.60
   4  -1  14   -0.20    1.00
  -5   1 -14   -0.50    0.90
  -6   1 -14   78.09    3.70
  -7   1 -14    0.00    1.10
  -8   1 -14   34.60    2.50
  -9   1 -14    3.90    1.40
 -10   1 -14   -1.20    0.90
 -11   1 -14    6.10    1.50
 -12   1 -14  114.69    4.70
 -13   1 -14    2.20    1.30
 -14   1 -14   25.40    2.60
 -15   1 -14   22.20    2.50
 -16   1 -14   69.59    3.90
 -17   1 -14   34.50    3.30
  -9   0  14   94.09    5.40
  -8   0  14    9.60    2.20
  -7   0  14   -1.00    1.30
  -6   0  14   38.30    3.50
  -5   0  14    1.30    1.40
  -4   0  14   14.60    2.30
  -3   0  14   20.20    2.40
  -2   0  14  223.68    7.40
  -1   0  14  378.36   10.60
   0   0  14   44.80    2.90
   1   0  14   -0.20    0.90
   2   0  14   50.19    3.00
   3   0  14  224.48    7.00
   4   0  14    1.70    1.00
  -6   0 -14    9.70    1.70
  -7   0 -14  510.25   13.10
  -8   0 -14    5.90    1.40
  -9   0 -14    1.30    1.10
 -10   0 -14  197.58    6.40
 -11   0 -14  165.68    5.70
 -12   0 -14    3.30    1.30
 -13   0 -14   16.40    2.10
 -14   0 -14    6.60    1.60
 -15   0 -14   22.20    2.50
 -16   0 -14    1.70    1.30
 -17   0 -14   -0.10    1.20
 -18   0 -14   29.80    3.10
  -9   1  14   58.89    4.30
  -8   1  14    3.70    1.70
  -7   1  14   42.00    3.70
  -6   1  14   -1.00    1.10
  -5   1  14   21.50    2.70
  -4   1  14    0.40    1.20
  -3   1  14    8.40    1.70
  -2   1  14    1.30    1.10
  -1   1  14  288.67    8.70
   0  -1 -14  144.09    4.50
   0   1  14  160.18    5.60
  -1  -1 -14   31.60    1.80
   1   1  14   26.90    2.50
  -2  -1 -14  145.89    4.40
   2   1  14  143.59    5.20
   3   1  14  204.68    6.50
   4   1  14   46.30    2.70
   5   1  14    2.60    1.10
  -6  -1 -14    0.70    0.90
  -7  -1 -14    0.70    1.00
  -8  -1 -14    0.70    1.00
  -9  -1 -14    0.40    1.00
 -10  -1 -14   57.89    3.00
 -11  -1 -14  117.49    4.50
 -12  -1 -14  353.86    9.70
 -13  -1 -14    9.00    1.60
 -14  -1 -14    0.60    1.20
 -15  -1 -14  145.49    5.50
 -16  -1 -14   -1.00    1.10
 -17  -1 -14   15.70    2.20
 -18  -1 -14   35.50    3.20
  -9   2  14    5.50    2.00
  -8   2  14   17.60    2.70
  -7   2  14   52.69    3.80
  -6   2  14  127.69    5.70
  -5   2  14    2.70    1.50
  -4   2  14   17.20    2.40
   3  -2 -14   23.10    1.90
  -3   2  14   23.70    2.60
   2  -2 -14    6.70    1.10
  -2   2  14    8.60    1.70
   1  -2 -14    5.40    1.10
  -1   2  14    2.40    1.20
   0  -2 -14    3.60    1.00
   0   2  14    2.00    1.10
  -1  -2 -14   73.69    2.90
   1   2  14   70.39    3.50
  -2  -2 -14  106.09    3.70
   2   2  14  102.69    4.20
   3   2  14    0.20    1.00
   4   2  14  236.88    7.10
   5   2  14    3.70    1.10
  -6  -2 -14  198.48    6.20
  -7  -2 -14  170.38    5.60
  -8  -2 -14  105.89    4.00
  -9  -2 -14   -1.00    0.90
 -10  -2 -14    3.10    1.20
 -11  -2 -14  103.59    4.10
 -12  -2 -14  180.68    5.90
 -13  -2 -14    4.80    1.30
 -14  -2 -14   44.90    2.80
 -15  -2 -14   13.90    1.80
 -16  -2 -14  209.48    6.90
 -17  -2 -14    1.80    1.30
 -18  -2 -14   15.20    2.20
 -18  -2 -14   19.40    2.70
  -9   3  14    6.70    2.10
  -8   3  14   10.00    2.20
  -7   3  14   -1.90    1.10
   6  -3 -14   33.30    2.90
  -6   3  14   41.00    3.60
   5  -3 -14  136.49    4.80
  -5   3  14  142.59    5.90
   4  -3 -14   -1.00    0.80
  -4   3  14   -0.60    1.10
   3  -3 -14   14.80    1.60
  -3   3  14    9.60    1.80
   2  -3 -14  789.42   18.20
  -2   3  14  787.22   19.30
   1  -3 -14   51.89    2.50
  -1   3  14   45.80    2.90
   0  -3 -14   20.30    1.80
   0   3  14   20.20    2.20
  -1  -3 -14    5.10    1.10
   1   3  14    4.20    1.20
  -2  -3 -14  265.27    7.30
   2   3  14  266.67    7.80
   3   3  14   77.99    3.50
   4   3  14    7.00    1.30
   5   3  14    6.60    1.30
  -7  -3 -14  170.08    5.50
  -8  -3 -14    0.30    0.80
  -9  -3 -14   -0.50    0.80
 -10  -3 -14    1.90    1.00
 -11  -3 -14   12.30    1.60
 -12  -3 -14    0.50    0.90
 -13  -3 -14    2.10    1.20
 -14  -3 -14   43.20    2.70
 -15  -3 -14   97.29    4.10
 -16  -3 -14    0.30    1.10
 -17  -3 -14   11.10    1.80
 -17  -3 -14   12.60    2.20
 -18  -3 -14    4.50    1.50
 -18  -3 -14    2.50    1.60
 -19  -3 -14    3.70    1.70
 -19  -3 -14    2.30    1.50
   8  -4 -14    3.50    1.60
  -8   4  14    4.60    1.80
   7  -4 -14   12.60    1.80
  -7   4  14   10.50    2.10
   6  -4 -14    6.00    1.30
  -6   4  14    6.30    1.80
   5  -4 -14   13.80    1.70
  -5   4  14   16.10    2.30
   4  -4 -14   -0.80    0.90
  -4   4  14    0.80    1.20
   3  -4 -14   29.10    2.20
  -3   4  14   28.50    2.70
   2  -4 -14  215.08    6.40
  -2   4  14  209.78    7.10
   1  -4 -14  293.97    8.00
  -1   4  14  294.17    8.70
   0  -4 -14   42.50    2.40
   0   4  14   38.60    2.60
  -1  -4 -14   -0.20    0.70
   1   4  14    0.90    1.00
  -2  -4 -14    2.20    1.00
   2   4  14    2.60    1.10
  -3  -4 -14   22.80    1.90
   3   4  14   22.60    2.10
   4   4  14  127.59    4.60
   5   4  14    0.20    0.90
   6   4  14  147.09    4.90
  -7  -4 -14  329.77    8.80
  -8  -4 -14    1.40    0.90
  -9  -4 -14   48.90    2.50
 -10  -4 -14    1.40    0.90
 -11  -4 -14    2.50    1.00
 -12  -4 -14    4.30    1.20
 -13  -4 -14   38.80    2.50
 -14  -4 -14    3.40    1.20
 -15  -4 -14   23.50    2.60
 -15  -4 -14   28.60    2.40
 -16  -4 -14  167.68    5.80
 -16  -4 -14  169.18    6.40
 -17  -4 -14   29.30    2.60
 -17  -4 -14   21.80    2.70
 -18  -4 -14    0.30    1.20
 -18  -4 -14    1.70    1.40
 -19  -4 -14   31.50    2.90
 -19  -4 -14   26.30    3.00
   8  -5 -14    8.30    1.80
  -8   5  14    5.80    2.00
   7  -5 -14    1.50    1.30
  -7   5  14   -0.70    1.40
   6  -5 -14    2.50    1.30
  -6   5  14    2.40    1.50
   5  -5 -14    2.70    1.30
  -5   5  14    2.50    1.50
   4  -5 -14    0.60    1.10
  -4   5  14    2.60    1.40
   3  -5 -14    1.40    1.10
  -3   5  14    1.20    1.30
   2  -5 -14   93.79    3.90
  -2   5  14  105.79    4.60
   1  -5 -14   20.60    1.90
  -1   5  14   15.90    2.00
   0  -5 -14  127.99    4.60
   0   5  14  131.89    5.00
  -1  -5 -14    1.30    1.00
   1   5  14    0.30    1.00
  -2  -5 -14    5.20    1.20
   2   5  14    5.10    1.30
  -3  -5 -14    6.10    1.20
   3   5  14    4.50    1.10
   4   5  14   18.00    1.90
   5   5  14   29.30    2.10
   6   5  14   92.89    3.60
  -7  -5 -14   59.89    2.80
  -8  -5 -14  146.49    4.80
  -9  -5 -14  116.09    4.00
 -10  -5 -14   86.99    3.40
 -11  -5 -14  145.89    4.70
 -12  -5 -14  120.19    4.20
 -13  -5 -14   87.59    4.30
 -13  -5 -14   93.99    3.70
 -14  -5 -14   39.40    2.40
 -14  -5 -14   36.70    2.80
 -15  -5 -14    6.20    1.80
 -15  -5 -14    6.40    1.40
 -16  -5 -14   76.89    3.60
 -16  -5 -14   81.69    4.40
 -17  -5 -14   19.80    2.60
 -17  -5 -14   15.80    2.20
 -18  -5 -14    4.90    1.90
 -19  -5 -14   11.40    2.20
   7  -6 -14   68.69    3.80
  -7   6  14   68.49    4.50
   6  -6 -14   61.49    3.50
  -6   6  14   57.59    4.10
   5  -6 -14   22.20    2.30
  -5   6  14   22.60    2.70
   4  -6 -14    1.90    1.20
  -4   6  14    1.20    1.20
   3  -6 -14    8.00    1.50
  -3   6  14   12.20    1.90
   2  -6 -14    7.90    1.50
  -2   6  14    3.30    1.30
   1  -6 -14  272.67    7.70
  -1   6  14  261.17    8.10
   0  -6 -14    0.40    0.90
   0   6  14    0.80    1.00
  -1  -6 -14    8.00    1.50
   1   6  14   11.00    1.70
  -2  -6 -14  634.04   15.20
   2   6  14  614.34   15.10
  -3  -6 -14  313.87    8.70
  -3  -6 -14  314.47    8.00
   3   6  14  315.67    8.60
  -4  -6 -14    0.00    0.70
   4   6  14   -0.40    0.80
  -5  -6 -14   22.30    1.80
   5   6  14   19.00    1.80
  -6  -6 -14    3.80    1.00
   6   6  14    5.30    1.10
  -7  -6 -14   32.40    2.00
  -7  -6 -14   31.00    2.10
  -8  -6 -14   10.90    1.40
  -8  -6 -14    8.30    1.40
  -9  -6 -14   14.10    1.70
  -9  -6 -14   12.70    1.40
 -10  -6 -14   80.99    3.10
 -10  -6 -14   83.09    3.70
 -11  -6 -14  308.17    8.80
 -11  -6 -14  296.17    7.90
 -12  -6 -14    0.70    0.80
 -12  -6 -14    0.50    1.10
 -13  -6 -14    0.90    1.20
 -13  -6 -14    2.30    1.40
 -14  -6 -14   34.50    3.00
 -15  -6 -14    4.30    1.50
 -16  -6 -14    1.20    1.30
 -17  -6 -14    1.50    1.50
 -18  -6 -14    0.90    1.40
 -19  -6 -14   40.30    3.50
   7  -7 -14    3.20    1.40
  -7   7  14    3.20    1.80
   6  -7 -14   63.59    3.70
  -6   7  14   65.19    4.10
   5  -7 -14   78.59    4.00
  -5   7  14   85.59    4.70
   4  -7 -14   -1.40    1.10
  -4   7  14   -0.30    1.20
   3  -7 -14   24.10    2.40
  -3   7  14   20.40    2.40
   2  -7 -14   45.60    2.80
  -2   7  14   49.10    3.20
   1  -7 -14   36.70    2.60
  -1   7  14   34.40    2.50
   0  -7 -14    0.30    1.00
   0   7  14    3.60    1.20
  -1  -7 -14    0.30    1.00
   1   7  14    2.00    1.10
  -2  -7 -14  631.34   15.70
   2   7  14  655.23   15.60
  -3  -7 -14  320.57    8.90
   3   7  14  308.67    8.50
  -4  -7 -14   98.69    4.10
  -4  -7 -14   99.69    3.40
   4   7  14   92.19    3.70
  -5  -7 -14    2.70    0.90
   5   7  14    2.60    0.90
  -6  -7 -14    7.40    1.20
   6   7  14    7.60    1.20
  -7  -7 -14  131.69    4.30
  -7  -7 -14  135.79    4.60
  -8  -7 -14   11.10    1.50
  -9  -7 -14   88.19    3.80
 -10  -7 -14  135.79    4.90
 -11  -7 -14  306.47    8.80
 -12  -7 -14   48.60    3.00
 -13  -7 -14    7.60    1.70
 -14  -7 -14    4.60    1.40
 -15  -7 -14   17.90    2.30
 -16  -7 -14   28.50    2.90
 -17  -7 -14   34.80    3.20
 -18  -7 -14   35.70    3.30
 -19  -7 -14   -1.20    1.30
 -20  -7 -14   22.80    3.00
   6  -8 -14    8.70    1.90
  -6   8  14    8.10    2.00
   5  -8 -14   30.30    2.80
  -5   8  14   36.50    3.30
   4  -8 -14   16.40    2.20
  -4   8  14   23.60    2.80
   3  -8 -14   37.10    2.70
  -3   8  14   32.20    2.90
   2  -8 -14    9.90    1.80
  -2   8  14    9.00    1.70
   1  -8 -14   33.90    2.60
  -1   8  14   34.30    2.60
   0  -8 -14   35.90    2.50
   0   8  14   31.90    2.40
  -1  -8 -14   12.70    1.80
   1   8  14    8.50    1.50
  -2  -8 -14    2.90    1.30
   2   8  14    3.70    1.10
  -3  -8 -14  229.68    7.10
  -4  -8 -14  343.17    8.80
  -4  -8 -14  367.16    9.80
  -5  -8 -14   90.89    3.30
  -6  -8 -14    7.90    1.20
  -7  -8 -14  202.48    6.00
  -8  -8 -14   85.59    3.50
  -9  -8 -14    0.10    0.90
 -10  -8 -14    9.10    1.60
 -11  -8 -14    5.80    1.50
 -12  -8 -14   95.69    4.20
 -13  -8 -14   16.70    2.10
 -14  -8 -14   42.30    2.90
 -15  -8 -14  140.69    5.60
 -16  -8 -14   33.50    3.10
 -17  -8 -14    8.70    1.90
 -18  -8 -14    1.30    1.60
 -19  -8 -14    2.10    1.60
 -20  -8 -14    2.80    1.80
   6  -9 -14    1.30    1.50
  -6   9  14    5.30    1.80
   5  -9 -14    5.80    1.70
  -5   9  14    4.80    1.60
   4  -9 -14   12.80    2.00
  -4   9  14   12.30    2.20
   3  -9 -14   48.30    3.30
  -3   9  14   53.49    3.90
   2  -9 -14  314.27    9.30
   1  -9 -14   19.30    2.20
   0  -9 -14    4.90    1.50
  -1  -9 -14   14.50    2.00
  -2  -9 -14   16.40    2.00
  -3  -9 -14    9.40    1.60
  -4  -9 -14   36.60    2.60
  -5  -9 -14    3.80    1.00
  -6  -9 -14  655.53   15.30
  -7  -9 -14  146.29    4.80
  -8  -9 -14  114.59    4.20
  -9  -9 -14    5.50    1.30
 -10  -9 -14  120.19    4.60
 -11  -9 -14   57.49    3.10
 -12  -9 -14   11.70    1.80
 -13  -9 -14   56.79    3.20
 -14  -9 -14   35.60    2.70
 -15  -9 -14    0.10    1.20
 -16  -9 -14    1.10    1.40
 -17  -9 -14    2.70    1.40
 -18  -9 -14   14.00    2.30
 -19  -9 -14    1.60    1.60
 -20  -9 -14    6.80    2.10
   5 -10 -14    2.50    1.50
   4 -10 -14    3.60    1.50
   3 -10 -14    0.70    1.40
   2 -10 -14  167.88    6.20
   1 -10 -14  191.98    6.70
   0 -10 -14   -1.00    1.20
  -1 -10 -14   50.09    3.20
  -2 -10 -14   16.40    2.10
  -3 -10 -14    1.80    1.20
  -4 -10 -14   21.90    2.30
  -5 -10 -14   16.30    2.00
  -5 -10 -14   14.00    1.50
  -6 -10 -14  125.79    4.20
  -7 -10 -14  306.77    8.20
  -8 -10 -14  268.17    7.50
  -9 -10 -14   16.00    1.80
 -10 -10 -14   35.00    2.50
 -11 -10 -14  408.46   10.90
 -12 -10 -14   10.40    1.70
 -13 -10 -14   29.60    2.60
 -14 -10 -14   -0.10    1.10
 -15 -10 -14   43.40    3.10
 -16 -10 -14   26.20    2.70
 -17 -10 -14    7.20    1.90
 -18 -10 -14    7.40    1.90
 -19 -10 -14   44.30    3.80
 -20 -10 -14   -0.20    1.60
   4 -11 -14    3.50    1.60
   3 -11 -14    1.70    1.40
   2 -11 -14   17.60    2.30
   1 -11 -14   26.00    2.80
   0 -11 -14   48.80    3.30
  -1 -11 -14   -1.10    1.20
  -2 -11 -14   38.70    2.90
  -3 -11 -14   46.90    3.10
  -4 -11 -14    1.40    1.20
  -5 -11 -14    7.10    1.60
  -6 -11 -14    3.00    1.00
  -7 -11 -14    5.80    1.20
  -8 -11 -14  253.67    7.20
  -9 -11 -14    6.30    1.40
 -10 -11 -14    9.40    1.50
 -11 -11 -14  421.86   11.20
 -12 -11 -14   69.19    3.50
 -13 -11 -14    2.60    1.30
 -14 -11 -14   11.40    1.90
 -15 -11 -14    3.70    1.50
 -16 -11 -14    0.80    1.30
 -17 -11 -14   -2.00    1.20
 -18 -11 -14   -1.40    1.50
 -19 -11 -14   61.79    4.00
   3 -12 -14    5.60    1.80
   2 -12 -14    5.00    1.70
   1 -12 -14    0.20    1.50
   0 -12 -14    2.40    1.50
  -1 -12 -14   14.60    2.10
  -2 -12 -14   95.19    4.50
  -3 -12 -14    8.10    1.70
  -4 -12 -14   37.70    2.80
  -5 -12 -14   13.20    2.00
  -6 -12 -14   -0.20    0.80
  -6 -12 -14    0.30    1.30
  -7 -12 -14   63.69    2.80
  -8 -12 -14    4.00    1.10
  -9 -12 -14    0.40    1.00
 -10 -12 -14   67.89    3.30
 -11 -12 -14    3.40    1.30
 -12 -12 -14  189.58    6.30
 -13 -12 -14   18.90    2.20
 -14 -12 -14    5.80    1.60
 -15 -12 -14    2.90    1.40
 -16 -12 -14    2.20    1.40
 -17 -12 -14    4.20    1.60
 -18 -12 -14    1.70    1.50
 -19 -12 -14   -0.60    1.60
   2 -13 -14   31.70    3.20
   1 -13 -14   13.20    2.40
   0 -13 -14    6.60    1.80
  -1 -13 -14   16.70    2.40
  -2 -13 -14  141.79    5.80
  -3 -13 -14  189.08    6.80
  -4 -13 -14    7.90    1.80
  -5 -13 -14    1.80    1.40
  -6 -13 -14   80.29    4.10
  -7 -13 -14    8.30    1.80
  -7 -13 -14    8.00    1.30
  -8 -13 -14    5.20    1.30
  -9 -13 -14    4.00    1.20
 -10 -13 -14   84.49    3.70
 -11 -13 -14  133.69    4.90
 -12 -13 -14    1.10    1.20
 -13 -13 -14    3.90    1.40
 -14 -13 -14   17.50    2.30
 -15 -13 -14  138.29    5.50
 -16 -13 -14   35.50    3.10
 -17 -13 -14   12.40    2.20
 -18 -13 -14    1.40    1.50
 -19 -13 -14   -2.40    1.30
   1 -14 -14   47.60    3.60
   0 -14 -14   12.60    2.20
  -1 -14 -14    1.40    1.60
  -2 -14 -14    3.20    1.50
  -3 -14 -14   36.80    3.30
  -4 -14 -14   47.50    3.30
  -5 -14 -14   -0.30    1.20
  -6 -14 -14   11.00    2.00
  -7 -14 -14   33.40    3.10
  -8 -14 -14   10.30    1.60
  -9 -14 -14   42.20    2.60
 -10 -14 -14    0.30    1.00
 -11 -14 -14   54.49    3.20
 -12 -14 -14  140.89    5.20
 -13 -14 -14   19.80    2.30
 -14 -14 -14   25.90    2.70
 -15 -14 -14  343.87   10.00
 -16 -14 -14   74.39    4.20
 -17 -14 -14    5.00    1.80
 -18 -14 -14   -0.70    1.40
   0 -15 -14   11.80    2.30
  -1 -15 -14   15.40    2.40
  -2 -15 -14    0.60    1.50
  -3 -15 -14   42.70    3.60
  -4 -15 -14    8.10    2.00
  -5 -15 -14    7.80    1.90
  -6 -15 -14    0.80    1.40
  -7 -15 -14   29.20    3.00
  -8 -15 -14    2.10    1.40
  -8 -15 -14    2.10    1.20
  -9 -15 -14   22.60    2.10
 -10 -15 -14    1.20    1.20
 -11 -15 -14    2.70    1.20
 -12 -15 -14    6.30    1.50
 -13 -15 -14    1.20    1.20
 -14 -15 -14   32.30    2.90
 -15 -15 -14   -0.30    1.40
 -16 -15 -14   25.40    2.80
 -17 -15 -14   57.09    3.90
 -18 -15 -14    2.70    1.70
  -1 -16 -14   24.90    3.00
  -2 -16 -14  112.59    5.40
  -3 -16 -14   -0.70    1.40
  -4 -16 -14    1.50    1.50
  -5 -16 -14    1.20    1.50
  -6 -16 -14   20.70    2.60
  -7 -16 -14    0.10    1.40
  -8 -16 -14    7.20    1.80
  -9 -16 -14    4.20    1.30
  -9 -16 -14    3.30    1.60
 -10 -16 -14   19.20    2.10
 -11 -16 -14    7.90    1.60
 -12 -16 -14   -0.10    1.10
 -13 -16 -14   -0.10    1.20
 -14 -16 -14    2.50    1.40
 -15 -16 -14   -0.10    1.30
 -16 -16 -14    7.10    1.80
 -17 -16 -14    5.80    1.80
  -3 -17 -14  157.28    6.60
  -4 -17 -14    7.00    2.00
  -5 -17 -14    2.90    1.70
  -6 -17 -14    7.00    2.00
  -7 -17 -14   11.60    2.20
  -8 -17 -14   16.70    2.60
  -9 -17 -14    5.30    1.80
  -9 -17 -14    5.20    1.50
 -10 -17 -14    1.40    1.10
 -11 -17 -14   13.00    2.00
 -12 -17 -14    4.30    1.60
 -13 -17 -14    4.10    1.50
 -14 -17 -14    1.50    1.40
 -15 -17 -14   79.49    4.30
 -16 -17 -14    4.10    1.80
  -5 -18 -14   -0.60    1.40
  -6 -18 -14    4.10    1.90
  -7 -18 -14    8.70    2.10
  -8 -18 -14    4.80    1.80
  -9 -18 -14   -1.50    1.50
 -10 -18 -14    0.30    1.30
 -10 -18 -14    2.80    1.60
 -11 -18 -14    3.00    1.50
 -12 -18 -14   -0.20    1.30
 -13 -18 -14    0.40    1.30
 -14 -18 -14    2.40    1.60
 -10 -19 -14   -0.30    1.50
   2  12 -15   -0.50    1.70
   1  12 -15    7.90    2.20
   0  12 -15   -1.10    1.30
  -1  12 -15   -0.60    1.60
  -2  12 -15   14.70    2.50
  -3  12 -15   23.90    3.10
  -4  12 -15   55.19    4.00
  -5 -11  15   11.40    2.40
  -4 -11  15    0.90    1.80
  -3 -11  15   11.70    2.30
  -2 -11  15   88.39    5.00
   1  11 -15   32.20    3.40
   0  11 -15    3.20    1.90
  -1  11 -15   15.40    2.50
  -2  11 -15   10.00    2.20
  -3  11 -15   14.30    2.40
  -4  11 -15    0.60    1.50
  -5  11 -15    0.40    1.70
  -6  11 -15    4.80    2.00
  -6 -10  15    3.40    1.80
  -5 -10  15    1.90    1.70
  -4 -10  15    4.40    1.80
  -3 -10  15    1.10    1.80
  -2 -10  15    6.00    2.10
  -1 -10  15  234.48    8.40
   0  10 -15   64.79    4.40
  -1  10 -15    4.10    1.90
  -2  10 -15   63.69    4.20
  -3  10 -15   -1.90    1.30
  -4  10 -15   10.60    2.20
  -5  10 -15    0.60    1.60
  -6  10 -15    7.20    2.10
  -7  10 -15   64.69    4.40
  -8  10 -15   41.20    3.70
  -7  -9  15   16.40    2.60
  -6  -9  15   34.70    3.50
  -5  -9  15    1.30    1.60
  -4  -9  15    9.00    2.20
  -3  -9  15    1.70    1.50
  -2  -9  15   -1.30    1.20
  -1  -9  15   35.30    3.50
  -1   9 -15    1.00    1.50
  -2   9 -15   55.59    3.90
  -3   9 -15   43.20    3.90
  -4   9 -15    3.20    1.70
  -5   9 -15    0.70    1.50
  -6   9 -15    6.00    2.00
  -7   9 -15    0.10    1.40
  -8   9 -15   68.09    4.20
  -9   9 -15   15.50    2.50
 -10   9 -15    0.40    1.50
  -7  -8  15    2.40    1.90
  -6  -8  15    2.80    1.70
  -5  -8  15    0.50    1.40
  -4  -8  15   -1.50    1.20
  -3  -8  15    0.60    1.40
  -2  -8  15    2.30    1.60
  -1  -8  15   12.70    2.30
   0  -8  15   31.70    3.20
  -2   8 -15   90.99    4.90
  -3   8 -15   20.00    2.70
  -4   8 -15   89.59    4.90
  -5   8 -15   -0.40    1.30
  -6   8 -15    3.60    1.80
  -7   8 -15    9.10    2.00
  -8   8 -15   25.50    3.00
  -9   8 -15   -0.60    1.30
 -10   8 -15    1.60    1.50
 -11   8 -15   42.20    3.70
  -8  -7  15   -2.20    1.30
  -7  -7  15    0.80    1.70
  -6  -7  15    1.90    1.60
  -5  -7  15   18.60    2.70
  -4  -7  15    0.90    1.40
  -3  -7  15    5.00    1.80
  -2  -7  15    0.90    1.50
  -1  -7  15    3.40    1.60
   0  -7  15   63.09    3.90
   1  -7  15   -0.80    1.20
  -2   7 -15   71.49    4.30
  -3   7 -15  273.37    9.00
  -4   7 -15   65.79    4.00
  -5   7 -15   37.70    3.40
  -6   7 -15   36.80    3.30
  -7   7 -15  115.59    5.30
  -8   7 -15   50.39    3.50
  -9   7 -15    2.30    1.70
 -11   7 -15   22.80    2.80
 -12   7 -15   27.80    3.00
  -8  -6  15    8.10    2.20
  -7  -6  15   30.80    3.40
  -6  -6  15    0.60    1.40
  -5  -6  15   20.20    2.80
  -4  -6  15   38.00    3.50
  -3  -6  15    1.60    1.40
  -2  -6  15    5.00    1.70
  -1  -6  15   82.49    4.40
   0  -6  15    0.70    1.30
   1  -6  15   25.50    2.80
  -3   6 -15  269.77    8.80
  -4   6 -15   81.29    4.40
  -5   6 -15    2.00    1.40
  -6   6 -15    6.70    1.80
  -7   6 -15  205.98    7.30
  -8   6 -15  127.29    5.40
  -9   6 -15   30.20    3.10
 -10   6 -15   -0.70    1.30
 -11   6 -15   20.20    2.60
 -12   6 -15    2.20    1.60
 -13   6 -15    7.40    1.90
  -8  -5  15   16.30    2.70
  -7  -5  15   14.10    2.60
  -6  -5  15    8.20    2.10
  -5  -5  15    0.40    1.40
  -4  -5  15    2.10    1.50
  -3  -5  15   67.29    4.10
  -2  -5  15   11.40    2.10
  -1  -5  15    9.60    2.00
   0  -5  15    2.10    1.30
   1  -5  15    0.00    1.20
   2  -5  15    1.80    1.40
  -3   5 -15  105.69    4.80
  -4   5 -15    7.10    1.70
  -5   5 -15  101.29    4.80
  -6   5 -15    3.30    1.50
  -7   5 -15  106.19    4.80
  -8   5 -15  347.17   10.30
  -9   5 -15   10.50    2.00
 -10   5 -15   44.80    3.60
 -11   5 -15    9.50    2.00
 -12   5 -15    3.90    1.70
 -13   5 -15    6.20    1.80
 -14   5 -15    1.70    1.50
  -9  -4  15    2.10    1.80
  -8  -4  15   -0.80    1.40
  -7  -4  15    3.10    1.70
  -6  -4  15    3.00    1.70
  -5  -4  15   17.80    2.50
  -4  -4  15    1.50    1.40
  -3  -4  15   20.90    2.60
  -2  -4  15    3.20    1.50
  -1  -4  15    2.90    1.50
   0  -4  15   -1.00    1.20
   1  -4  15   14.60    2.10
   2  -4  15    6.00    1.60
   3  -4  15   32.30    3.00
  -4   4 -15   70.39    3.90
  -5   4 -15   19.50    2.50
  -6   4 -15   -0.10    1.20
  -7   4 -15   41.60    3.10
  -8   4 -15   41.70    3.40
  -9   4 -15    1.30    1.40
 -10   4 -15    9.60    1.90
 -11   4 -15  192.48    6.90
 -12   4 -15   28.70    2.90
 -13   4 -15    4.30    1.60
 -14   4 -15   -1.10    1.20
 -15   4 -15    0.10    1.40
  -9  -3  15   29.10    3.60
  -8  -3  15   32.10    3.60
  -7  -3  15    0.00    1.60
  -6  -3  15    9.00    2.10
  -5  -3  15   57.09    4.00
  -4  -3  15    0.90    1.50
  -3  -3  15   12.10    2.10
  -2  -3  15   21.50    2.60
  -1  -3  15   68.79    4.00
   0  -3  15    3.10    1.50
   1  -3  15   -0.80    1.00
   2  -3  15   19.80    2.40
   3  -3  15   93.69    4.40
  -5   3 -15    0.30    1.30
  -6   3 -15   12.20    2.10
  -7   3 -15   79.29    4.10
  -8   3 -15   53.89    3.40
  -9   3 -15    9.20    1.80
 -10   3 -15   20.80    2.40
 -11   3 -15  283.57    8.80
 -12   3 -15  488.75   13.20
 -13   3 -15   31.80    3.10
 -14   3 -15   11.00    2.00
 -15   3 -15    5.00    1.80
  -9  -2  15   16.40    2.90
  -8  -2  15   21.80    3.00
  -7  -2  15    1.40    1.60
  -6  -2  15    0.70    1.40
  -5  -2  15   17.50    2.50
  -4  -2  15   26.00    2.90
  -3  -2  15   29.50    2.90
  -2  -2  15   22.40    2.50
  -1  -2  15    1.40    1.40
   0  -2  15   11.70    2.00
   1  -2  15    8.70    1.70
   2  -2  15   18.60    2.30
   3  -2  15   -1.40    1.00
   4  -2  15  112.39    4.80
  -5   2 -15   67.49    3.70
  -6   2 -15   63.49    3.50
  -7   2 -15  293.17    8.80
  -8   2 -15    4.30    1.50
  -9   2 -15   17.70    2.20
 -10   2 -15   32.10    2.90
 -11   2 -15   52.09    3.30
 -12   2 -15  327.77    9.70
 -13   2 -15  190.88    6.70
 -14   2 -15   17.20    2.30
 -15   2 -15   -0.30    1.30
 -16   2 -15   -0.50    1.30
  -9  -1  15   -1.00    1.60
  -8  -1  15   13.80    2.50
  -7  -1  15    1.00    1.60
  -6  -1  15    3.40    1.80
  -5  -1  15   31.50    3.30
  -4  -1  15    0.50    1.30
  -3  -1  15    7.10    1.80
  -2  -1  15  152.68    6.00
  -1  -1  15   21.10    2.50
   0  -1  15    9.60    1.80
   1  -1  15    3.80    1.50
   2  -1  15    8.00    1.60
   3  -1  15   79.49    3.90
   4  -1  15    6.00    1.50
  -5   1 -15   45.80    3.10
  -6   1 -15   68.49    3.60
  -7   1 -15  106.39    4.50
  -8   1 -15   88.19    4.10
  -9   1 -15   47.40    3.00
 -10   1 -15    1.30    1.20
 -11   1 -15   11.40    1.90
 -12   1 -15    8.90    1.80
 -13   1 -15    2.30    1.40
 -14   1 -15    1.30    1.30
 -15   1 -15    9.40    2.00
 -16   1 -15    2.20    1.60
 -17   1 -15    4.40    1.80
  -8   0  15   -0.10    1.50
  -7   0  15    5.90    1.90
  -6   0  15   42.20    3.80
  -5   0  15   53.49    3.70
  -4   0  15   18.50    2.60
  -3   0  15    0.50    1.40
  -2   0  15  127.69    5.30
  -1   0  15  266.97    8.40
   0   0  15   17.70    2.20
   1   0  15    8.10    1.70
   2   0  15   -1.10    0.90
   3   0  15    3.90    1.30
   4   0  15   15.30    1.90
  -6   0 -15   28.70    2.60
  -7   0 -15  128.89    5.00
  -8   0 -15   69.49    3.50
  -9   0 -15   13.10    1.80
 -10   0 -15    3.00    1.30
 -11   0 -15  199.78    6.60
 -12   0 -15   19.60    2.30
 -13   0 -15  135.99    5.20
 -14   0 -15   19.70    2.40
 -15   0 -15  242.68    7.80
 -16   0 -15  127.29    5.40
 -17   0 -15    5.90    1.90
  -8   1  15   13.90    2.60
  -7   1  15   14.90    2.60
  -6   1  15   26.40    3.10
  -5   1  15    7.60    1.90
  -4   1  15   32.30    3.20
  -3   1  15    8.00    1.80
  -2   1  15    4.70    1.50
  -1   1  15   39.50    2.90
   0   1  15   87.79    4.10
   1   1  15   11.60    1.80
   2   1  15   27.30    2.60
   3   1  15  103.69    4.40
   4   1  15   25.10    2.40
   5   1  15   20.70    2.20
  -6  -1 -15    0.30    0.90
  -7  -1 -15   61.79    3.20
  -8  -1 -15    1.50    1.10
  -9  -1 -15    3.50    1.20
 -10  -1 -15   10.60    1.60
 -11  -1 -15   36.80    2.70
 -12  -1 -15  177.68    6.00
 -13  -1 -15    2.00    1.30
 -14  -1 -15    9.40    1.70
 -15  -1 -15    8.10    1.70
 -16  -1 -15  182.68    6.50
 -17  -1 -15  121.29    5.30
 -18  -1 -15    0.40    1.50
  -8   2  15    0.70    1.60
  -7   2  15    5.30    1.90
  -6   2  15   33.00    3.40
  -5   2  15   40.80    3.70
  -4   2  15    0.40    1.40
  -3   2  15    7.00    1.70
  -2   2  15    1.30    1.30
  -1   2  15   42.40    3.10
   0  -2 -15   13.60    2.20
   0   2  15    9.80    1.80
  -1  -2 -15   29.40    2.00
   1   2  15   33.10    2.80
  -2  -2 -15  396.56   10.00
   2   2  15  407.36   11.00
  -3  -2 -15    4.50    1.10
   3   2  15    6.90    1.60
   4   2  15   61.49    3.30
   5   2  15   29.20    2.30
  -6  -2 -15    5.10    1.30
  -7  -2 -15   48.10    2.80
  -8  -2 -15    0.80    0.90
  -9  -2 -15    3.70    1.10
 -10  -2 -15    0.20    1.00
 -11  -2 -15   30.70    2.50
 -12  -2 -15    0.80    1.00
 -13  -2 -15    6.10    1.50
 -14  -2 -15    2.70    1.30
 -15  -2 -15   14.00    1.90
 -16  -2 -15    4.30    1.50
 -17  -2 -15    5.50    1.60
 -18  -2 -15    6.90    1.90
 -18  -2 -15    6.40    1.80
  -8   3  15   -0.50    1.40
  -7   3  15    1.40    1.50
  -6   3  15  102.69    5.40
  -5   3  15  140.39    6.00
  -4   3  15   26.60    3.00
  -3   3  15   12.70    2.10
   2  -3 -15   26.60    2.00
  -2   3  15   25.90    2.70
   1  -3 -15   53.79    2.70
  -1   3  15   57.99    3.50
   0  -3 -15   13.10    1.50
   0   3  15   10.80    1.70
  -1  -3 -15    0.50    0.90
   1   3  15    1.20    1.00
  -2  -3 -15   84.89    3.40
   2   3  15   86.19    4.00
  -3  -3 -15  973.00   22.10
   3   3  15  970.70   22.70
   4   3  15  137.19    5.10
   5   3  15   35.10    2.50
  -7  -3 -15  122.09    4.60
  -8  -3 -15   15.60    1.90
  -9  -3 -15   19.00    1.90
 -10  -3 -15   27.60    2.30
 -11  -3 -15   86.79    3.70
 -12  -3 -15  129.29    4.70
 -13  -3 -15   13.50    1.80
 -14  -3 -15   27.70    2.40
 -15  -3 -15   61.39    3.40
 -16  -3 -15   -0.30    1.20
 -17  -3 -15   97.19    5.10
 -17  -3 -15  107.09    4.70
 -18  -3 -15    4.90    1.70
 -18  -3 -15    3.90    1.80
  -7   4  15   30.10    3.30
  -6   4  15    3.70    1.80
   5  -4 -15   47.80    2.90
  -5   4  15   43.40    3.80
   4  -4 -15   84.29    3.70
  -4   4  15   84.09    4.40
   3  -4 -15    0.90    1.00
  -3   4  15    0.00    1.30
   2  -4 -15   83.49    3.60
  -2   4  15   81.59    4.20
   1  -4 -15    8.30    1.40
  -1   4  15    7.40    1.60
   0  -4 -15    3.60    1.10
   0   4  15    2.60    1.20
  -1  -4 -15    4.40    1.20
   1   4  15    6.20    1.50
  -2  -4 -15   11.30    1.50
   2   4  15    7.70    1.60
  -3  -4 -15   63.19    3.00
   3   4  15   63.29    3.20
   4   4  15  630.04   15.50
   5   4  15   61.69    3.20
   6   4  15    1.70    1.10
  -7  -4 -15   30.40    2.20
  -8  -4 -15   99.99    4.00
  -9  -4 -15   19.60    1.90
 -10  -4 -15    2.20    1.10
 -11  -4 -15   25.40    2.20
 -12  -4 -15  201.48    6.20
 -13  -4 -15    1.10    1.00
 -14  -4 -15    0.70    1.10
 -15  -4 -15   75.39    3.50
 -16  -4 -15  130.79    5.00
 -16  -4 -15  139.09    5.80
 -17  -4 -15    6.90    1.70
 -17  -4 -15    6.10    1.80
 -18  -4 -15   54.89    3.30
 -18  -4 -15   53.59    4.00
 -19  -4 -15    4.00    1.80
 -19  -4 -15    2.40    2.30
   7  -5 -15    3.00    1.30
  -7   5  15    7.10    2.10
   6  -5 -15  168.18    5.90
  -6   5  15  169.48    7.00
   5  -5 -15   39.40    2.70
  -5   5  15   42.90    3.70
   4  -5 -15   82.99    3.70
  -4   5  15   79.39    4.40
   3  -5 -15    6.50    1.40
  -3   5  15    9.30    1.80
   2  -5 -15   49.30    2.90
  -2   5  15   53.29    3.40
   1  -5 -15   57.69    3.00
  -1   5  15   59.39    3.50
   0  -5 -15   -0.10    1.00
   0   5  15    1.10    1.00
  -1  -5 -15    6.80    1.40
   1   5  15    7.00    1.50
  -2  -5 -15    0.00    0.90
   2   5  15    0.20    1.00
  -3  -5 -15   31.70    2.30
   3   5  15   30.70    2.30
   4   5  15   63.19    3.20
   5   5  15    9.90    1.60
   6   5  15  116.59    4.30
  -7  -5 -15    1.20    0.90
  -8  -5 -15   43.80    2.50
  -9  -5 -15    7.20    1.30
 -10  -5 -15   14.60    1.60
 -11  -5 -15    4.60    1.20
 -12  -5 -15   39.90    2.40
 -13  -5 -15   47.60    2.70
 -13  -5 -15   63.19    3.50
 -14  -5 -15   17.50    2.30
 -14  -5 -15   18.40    1.90
 -15  -5 -15    0.10    1.00
 -15  -5 -15    2.30    1.40
 -16  -5 -15  107.49    5.20
 -17  -5 -15   80.29    4.40
 -18  -5 -15    2.80    1.80
 -19  -5 -15    6.80    2.10
   7  -6 -15    1.40    1.40
  -7   6  15    2.90    1.70
   6  -6 -15    0.40    1.30
  -6   6  15   -0.90    1.30
   5  -6 -15   92.49    4.10
  -5   6  15   82.69    4.80
   4  -6 -15    6.10    1.50
  -4   6  15    4.10    1.60
   3  -6 -15   15.20    1.90
  -3   6  15   14.20    2.20
   2  -6 -15  195.08    6.30
  -2   6  15  195.88    6.90
   1  -6 -15  220.18    6.80
  -1   6  15  214.78    7.20
   0  -6 -15   28.80    2.40
   0   6  15   34.40    2.90
  -1  -6 -15    5.70    1.30
   1   6  15    7.10    1.50
  -2  -6 -15   27.80    2.40
   2   6  15   27.70    2.40
  -3  -6 -15    0.80    1.00
   3   6  15    2.30    1.20
  -4  -6 -15   -0.40    0.90
  -4  -6 -15    0.30    0.70
   4   6  15   -0.80    0.90
  -5  -6 -15   -0.70    0.70
   5   6  15   -0.60    0.90
  -6  -6 -15  250.27    7.10
   6   6  15  252.37    7.20
  -7  -6 -15  302.67    8.40
  -7  -6 -15  304.17    8.20
  -8  -6 -15   19.40    1.80
  -8  -6 -15   20.00    2.00
  -9  -6 -15   46.70    2.50
  -9  -6 -15   47.30    2.70
 -10  -6 -15    9.40    1.70
 -10  -6 -15    6.90    1.20
 -11  -6 -15    5.30    1.50
 -11  -6 -15    5.40    1.20
 -12  -6 -15    3.70    1.40
 -13  -6 -15   43.60    3.10
 -14  -6 -15   89.09    4.40
 -15  -6 -15    6.10    1.70
 -16  -6 -15    3.40    1.50
 -17  -6 -15   10.10    2.00
 -18  -6 -15   -1.00    1.50
 -19  -6 -15   44.00    3.80
   6  -7 -15   32.40    2.90
  -6   7  15   29.10    3.20
   5  -7 -15    9.00    1.80
  -5   7  15   10.70    2.10
   4  -7 -15   18.70    2.20
  -4   7  15   12.40    2.10
   3  -7 -15    4.90    1.40
  -3   7  15    5.30    1.60
   2  -7 -15   33.30    2.80
  -2   7  15   32.60    3.00
   1  -7 -15   96.09    4.20
  -1   7  15   99.69    4.50
   0  -7 -15  169.48    5.80
   0   7  15  164.68    5.90
  -1  -7 -15    1.30    1.10
   1   7  15    6.50    1.40
  -2  -7 -15   43.90    2.70
   2   7  15   40.50    2.60
  -3  -7 -15  158.88    5.60
   3   7  15  175.18    5.60
  -4  -7 -15   73.79    3.30
  -4  -7 -15   68.29    3.50
   4   7  15   67.79    3.20
  -5  -7 -15    0.60    0.80
   5   7  15    0.00    0.80
  -6  -7 -15   33.80    2.10
   6   7  15   31.00    3.30
  -7  -7 -15  176.38    5.60
  -8  -7 -15  398.66   10.40
  -9  -7 -15   33.90    2.30
 -10  -7 -15   15.30    1.90
 -11  -7 -15  308.97    9.00
 -12  -7 -15  118.49    4.80
 -13  -7 -15   20.00    2.40
 -14  -7 -15   14.70    2.10
 -15  -7 -15    2.20    1.30
 -16  -7 -15   54.99    3.60
 -17  -7 -15   12.90    2.20
 -18  -7 -15    0.80    1.60
 -19  -7 -15   37.20    3.50
   5  -8 -15    6.10    1.70
  -5   8  15    7.00    1.80
   4  -8 -15    1.20    1.30
  -4   8  15    1.00    1.50
   3  -8 -15    1.70    1.30
  -3   8  15    1.70    1.30
   2  -8 -15   32.50    2.70
  -2   8  15   29.20    2.90
   1  -8 -15   27.70    2.60
  -1   8  15   28.00    2.70
   0  -8 -15   93.99    4.20
   0   8  15   90.89    4.20
  -1  -8 -15   -0.10    1.00
   1   8  15   -0.30    1.10
  -2  -8 -15  189.28    6.30
  -3  -8 -15    1.10    1.10
  -4  -8 -15   40.50    2.70
  -5  -8 -15    7.70    1.20
  -6  -8 -15   -0.30    0.60
  -7  -8 -15   27.00    2.20
  -8  -8 -15   22.10    2.00
  -9  -8 -15  164.68    5.50
 -10  -8 -15   27.10    2.50
 -11  -8 -15    9.40    1.70
 -12  -8 -15   73.19    3.70
 -13  -8 -15    3.00    1.30
 -14  -8 -15    6.60    1.60
 -15  -8 -15    8.30    1.80
 -16  -8 -15   15.20    2.30
 -17  -8 -15   -1.30    1.30
 -18  -8 -15    7.30    1.90
 -19  -8 -15   -0.10    1.40
   5  -9 -15   41.50    3.40
   4  -9 -15    1.50    1.50
   3  -9 -15   13.70    2.10
   2  -9 -15   -0.40    1.20
   1  -9 -15   12.70    2.00
   0  -9 -15    2.40    1.40
  -1  -9 -15   20.00    2.30
  -2  -9 -15   28.00    2.60
  -3  -9 -15  291.87    8.70
  -4  -9 -15   67.29    3.50
  -5  -9 -15    0.60    1.00
  -6  -9 -15    3.40    1.00
  -7  -9 -15   27.10    2.00
  -8  -9 -15   22.90    2.00
  -9  -9 -15    1.10    0.90
 -10  -9 -15    5.40    1.30
 -11  -9 -15   99.89    4.20
 -12  -9 -15   64.79    3.60
 -13  -9 -15   11.90    1.80
 -14  -9 -15    1.20    1.30
 -15  -9 -15   26.70    2.70
 -16  -9 -15   25.90    2.70
 -17  -9 -15   95.69    4.80
 -18  -9 -15    2.10    1.80
 -19  -9 -15    7.00    2.10
   4 -10 -15   13.70    2.20
   3 -10 -15   -0.50    1.20
   2 -10 -15   60.29    3.60
   1 -10 -15   47.80    3.40
   0 -10 -15   64.99    3.60
  -1 -10 -15   -0.80    1.10
  -2 -10 -15    5.40    1.50
  -3 -10 -15   39.40    3.20
  -4 -10 -15  154.08    5.70
  -5 -10 -15   22.70    2.40
  -6 -10 -15   14.00    1.60
  -7 -10 -15  273.77    7.60
  -8 -10 -15  241.78    7.10
  -9 -10 -15    6.30    1.40
 -10 -10 -15   12.90    1.80
 -11 -10 -15   14.60    1.90
 -12 -10 -15   10.60    1.90
 -13 -10 -15   13.10    1.90
 -14 -10 -15    1.80    1.30
 -15 -10 -15   52.89    3.40
 -16 -10 -15  209.38    7.30
 -17 -10 -15   15.60    2.50
 -18 -10 -15    1.50    1.50
 -19 -10 -15   15.30    2.50
   3 -11 -15    0.20    1.30
   2 -11 -15    1.90    1.60
   1 -11 -15   36.60    3.20
   0 -11 -15  122.69    5.20
  -1 -11 -15   13.00    2.10
  -2 -11 -15   26.70    2.70
  -3 -11 -15   40.00    3.00
  -4 -11 -15   30.40    2.80
  -5 -11 -15    7.70    1.80
  -6 -11 -15   49.70    3.20
  -7 -11 -15  285.37    7.90
  -8 -11 -15  241.88    7.00
  -9 -11 -15   28.20    2.20
 -10 -11 -15   42.60    2.60
 -11 -11 -15    8.70    1.60
 -12 -11 -15    5.70    1.50
 -13 -11 -15    2.00    1.20
 -14 -11 -15    4.30    1.50
 -15 -11 -15   84.59    4.30
 -16 -11 -15  137.49    5.70
 -17 -11 -15    1.80    1.60
 -18 -11 -15    0.40    1.50
 -19 -11 -15   -1.00    1.40
   2 -12 -15   62.59    3.90
   1 -12 -15   36.20    3.30
   0 -12 -15    5.10    1.70
  -1 -12 -15    0.70    1.30
  -2 -12 -15  105.99    4.80
  -3 -12 -15    9.40    1.90
  -4 -12 -15    9.30    1.90
  -5 -12 -15   14.80    2.10
  -6 -12 -15    4.90    1.50
  -7 -12 -15   85.59    3.40
  -8 -12 -15   22.20    2.10
  -9 -12 -15   76.49    3.40
 -10 -12 -15   84.69    3.80
 -11 -12 -15   25.00    2.40
 -12 -12 -15   10.80    1.80
 -13 -12 -15   49.40    3.10
 -14 -12 -15   13.00    2.00
 -15 -12 -15   -0.60    1.20
 -16 -12 -15   38.30    3.30
 -17 -12 -15   27.80    3.00
 -18 -12 -15    4.40    1.90
 -19 -12 -15   13.90    2.40
   1 -13 -15   31.00    3.20
   0 -13 -15   28.30    3.10
  -1 -13 -15    8.60    1.90
  -2 -13 -15   37.80    3.40
  -3 -13 -15  221.08    7.60
  -4 -13 -15   35.00    3.20
  -5 -13 -15   -1.30    1.10
  -6 -13 -15    1.30    1.30
  -7 -13 -15    0.00    1.40
  -8 -13 -15  155.78    5.20
  -9 -13 -15   22.40    2.10
 -10 -13 -15    1.90    1.10
 -11 -13 -15  238.88    7.30
 -12 -13 -15  125.99    5.00
 -13 -13 -15   -0.40    1.10
 -14 -13 -15   -0.70    1.20
 -15 -13 -15   18.00    2.50
 -16 -13 -15   32.30    3.20
 -17 -13 -15    7.20    1.90
 -18 -13 -15   12.20    2.40
   0 -14 -15    9.80    2.10
  -1 -14 -15    5.50    1.80
  -2 -14 -15    1.00    1.60
  -3 -14 -15   36.90    3.30
  -4 -14 -15  116.59    5.40
  -5 -14 -15   -0.20    1.30
  -6 -14 -15    3.40    1.70
  -7 -14 -15   70.79    4.00
  -8 -14 -15   17.20    1.90
  -9 -14 -15   10.80    1.60
 -10 -14 -15    0.30    1.10
 -11 -14 -15  113.79    4.50
 -12 -14 -15  104.39    4.50
 -13 -14 -15  104.99    4.50
 -14 -14 -15    0.20    1.20
 -15 -14 -15    3.70    1.60
 -16 -14 -15   96.09    4.60
 -17 -14 -15    2.80    1.60
 -18 -14 -15    2.30    1.60
  -1 -15 -15   11.70    2.40
  -2 -15 -15   14.90    2.50
  -3 -15 -15   18.50    2.60
  -4 -15 -15    1.10    1.50
  -5 -15 -15    0.00    1.30
  -6 -15 -15   36.70    3.40
  -7 -15 -15    3.00    1.60
  -8 -15 -15   23.30    2.70
  -9 -15 -15   -0.30    1.10
 -10 -15 -15   -0.30    1.00
 -11 -15 -15    0.90    1.20
 -12 -15 -15   14.00    2.00
 -13 -15 -15   56.89    3.50
 -14 -15 -15   -1.50    1.10
 -15 -15 -15   25.60    2.70
 -16 -15 -15   46.60    3.40
 -17 -15 -15   96.49    4.80
  -3 -16 -15   12.40    2.40
  -4 -16 -15    9.50    2.10
  -5 -16 -15    1.30    1.50
  -6 -16 -15    5.90    2.00
  -7 -16 -15  280.07    9.30
  -8 -16 -15   23.80    2.80
  -9 -16 -15   19.50    2.60
 -10 -16 -15    8.40    1.60
 -11 -16 -15    0.30    1.20
 -12 -16 -15   -0.40    1.00
 -13 -16 -15    2.20    1.40
 -14 -16 -15    0.50    1.30
 -15 -16 -15  146.69    5.90
 -16 -16 -15   73.49    4.30
  -5 -17 -15   -0.50    1.70
  -6 -17 -15    2.50    1.70
  -7 -17 -15   66.19    4.30
  -8 -17 -15  196.78    7.50
  -9 -17 -15    0.50    1.70
 -10 -17 -15   -2.10    1.30
 -10 -17 -15   -1.20    1.10
 -11 -17 -15   30.30    2.60
 -12 -17 -15    0.70    1.30
 -13 -17 -15    0.20    1.40
 -14 -17 -15    8.00    1.90
 -15 -17 -15   56.69    3.60
  -7 -18 -15    1.60    1.70
  -8 -18 -15   -1.70    1.30
  -9 -18 -15    0.00    1.40
 -10 -18 -15    0.00    1.50
 -11 -18 -15   -0.50    1.30
 -12 -18 -15   36.10    3.00
 -13 -18 -15    3.30    1.60
  -2 -11  16   -0.50    1.80
   1  11 -16   -0.30    1.60
   0  11 -16    6.30    2.20
  -1  11 -16    0.10    1.50
  -2  11 -16    1.70    1.70
  -3  11 -16   90.39    5.20
  -4  11 -16   61.79    4.20
  -4 -10  16   97.59    5.50
  -3 -10  16    2.00    1.80
  -2 -10  16    1.70    1.80
  -1 -10  16   15.10    2.60
   0  10 -16   27.50    3.30
  -1  10 -16    1.20    1.60
  -2  10 -16    9.30    2.40
  -3  10 -16   11.20    2.30
  -4  10 -16  127.09    5.90
  -5  10 -16   21.80    2.90
  -6  10 -16    6.40    2.10
  -7  10 -16   45.80    3.90
  -5  -9  16    4.90    1.90
  -4  -9  16    9.40    2.20
  -3  -9  16   -1.20    1.50
  -2  -9  16   24.70    3.00
  -1  -9  16    2.00    1.70
  -1   9 -16   21.50    2.80
  -2   9 -16    2.90    1.60
  -3   9 -16    5.90    2.10
  -4   9 -16    2.20    1.80
  -5   9 -16   15.10    2.60
  -6   9 -16    1.20    1.70
  -7   9 -16   -0.70    1.60
  -8   9 -16   35.70    3.60
  -6  -8  16   16.60    2.90
  -5  -8  16    8.10    2.10
  -4  -8  16    5.30    1.90
  -3  -8  16    1.70    1.60
  -2  -8  16   18.30    2.70
  -1  -8  16  296.37    9.80
   0  -8  16   18.50    2.80
  -2   8 -16   40.80    3.70
  -3   8 -16   19.20    2.60
  -4   8 -16   26.90    3.10
  -5   8 -16   -2.30    1.40
  -6   8 -16    2.80    1.60
  -7   8 -16  107.49    5.30
  -8   8 -16   11.90    2.30
  -9   8 -16   16.00    2.50
 -10   8 -16    1.30    1.60
  -6  -7  16    5.10    2.10
  -5  -7  16    8.00    2.10
  -4  -7  16    6.10    1.90
  -3  -7  16   20.50    2.80
  -2  -7  16    4.50    1.80
  -1  -7  16  117.89    5.60
   0  -7  16  246.38    8.60
   1  -7  16   88.39    4.80
  -2   7 -16   23.40    2.80
  -3   7 -16   71.69    4.50
  -4   7 -16  115.59    5.50
  -5   7 -16    5.70    1.80
  -6   7 -16   28.00    3.00
  -7   7 -16    3.20    1.70
  -8   7 -16  105.69    5.10
  -9   7 -16   24.50    2.90
 -10   7 -16    4.30    1.80
 -11   7 -16   32.70    3.30
  -7  -6  16    9.80    2.30
  -6  -6  16    2.70    1.70
  -5  -6  16    2.00    1.60
  -4  -6  16    1.60    1.50
  -3  -6  16    5.00    1.80
  -2  -6  16   71.09    4.30
  -1  -6  16    5.20    1.70
   0  -6  16   45.30    3.50
   1  -6  16   43.60    3.70
  -3   6 -16   24.40    2.90
  -4   6 -16  149.59    6.20
  -5   6 -16   69.29    4.20
  -6   6 -16    9.40    2.10
  -7   6 -16   13.50    2.20
  -8   6 -16    6.70    1.90
  -9   6 -16   32.10    3.20
 -10   6 -16   28.40    3.10
 -11   6 -16    4.10    1.70
 -12   6 -16   95.69    5.00
  -7  -5  16    7.80    2.10
  -6  -5  16   36.00    3.60
  -5  -5  16   32.60    3.40
  -4  -5  16    1.90    1.60
  -3  -5  16   10.30    2.10
  -2  -5  16    0.80    1.40
  -1  -5  16    0.50    1.30
   0  -5  16    5.00    1.70
   1  -5  16    8.90    2.00
   2  -5  16    3.20    1.60
  -4   5 -16   13.50    2.40
  -5   5 -16   56.89    3.70
  -6   5 -16   16.60    2.30
  -7   5 -16    1.10    1.40
  -8   5 -16   25.30    2.80
  -9   5 -16   33.30    3.10
 -10   5 -16    4.10    1.60
 -11   5 -16    1.30    1.40
 -12   5 -16   -1.80    1.40
 -13   5 -16   47.10    3.60
  -7  -4  16    4.90    1.90
  -6  -4  16    3.70    2.00
  -5  -4  16  161.08    6.80
  -4  -4  16   43.00    3.70
  -3  -4  16   10.50    2.30
  -2  -4  16   15.40    2.40
  -1  -4  16   64.69    4.00
   0  -4  16   69.59    4.10
   1  -4  16    6.30    1.70
   2  -4  16   11.60    2.20
   3  -4  16   83.39    4.40
  -4   4 -16    9.20    1.90
  -5   4 -16   -1.30    1.10
  -6   4 -16    3.50    1.70
  -7   4 -16  251.37    8.30
  -8   4 -16  215.78    7.40
  -9   4 -16   14.60    2.20
 -10   4 -16   14.70    2.20
 -11   4 -16    0.30    1.30
 -12   4 -16    6.30    2.00
 -13   4 -16    0.70    1.40
 -14   4 -16   -0.80    1.30
  -7  -3  16   11.90    2.50
  -6  -3  16   38.10    3.70
  -5  -3  16   38.40    3.60
  -4  -3  16   25.50    2.90
  -3  -3  16    3.50    1.60
  -2  -3  16   22.50    2.70
  -1  -3  16    1.50    1.50
   0  -3  16   90.19    4.60
   1  -3  16    3.30    1.40
   2  -3  16   19.30    2.40
   3  -3  16    1.40    1.30
  -5   3 -16    0.30    1.40
  -6   3 -16    0.00    1.20
  -7   3 -16   73.59    4.10
  -8   3 -16  378.06   10.90
  -9   3 -16  171.48    6.50
 -10   3 -16    5.50    1.60
 -11   3 -16   25.30    2.70
 -12   3 -16    4.00    1.70
 -13   3 -16    0.20    1.30
 -14   3 -16    4.70    1.80
 -15   3 -16   14.10    2.50
  -7  -2  16   20.40    3.00
  -6  -2  16   19.40    2.80
  -5  -2  16    7.70    2.00
  -4  -2  16   12.10    2.20
  -3  -2  16   12.90    2.20
  -2  -2  16  136.89    5.80
  -1  -2  16   13.80    2.20
   0  -2  16    0.60    1.40
   1  -2  16    4.00    1.50
   2  -2  16   17.20    2.30
   3  -2  16   -0.70    1.20
   4  -2  16   73.99    4.00
  -5   2 -16   10.30    2.00
  -6   2 -16   12.80    2.00
  -7   2 -16    9.40    1.80
  -8   2 -16  135.39    5.40
  -9   2 -16   82.69    4.10
 -10   2 -16    4.70    1.70
 -11   2 -16    0.80    1.30
 -12   2 -16   60.39    3.60
 -13   2 -16   20.70    2.60
 -14   2 -16    1.70    1.40
 -15   2 -16    3.20    1.80
 -16   2 -16    2.10    1.70
  -7  -1  16   -0.40    1.70
  -6  -1  16    0.70    1.50
  -5  -1  16    2.70    1.80
  -4  -1  16    2.70    1.60
  -3  -1  16   11.80    2.10
  -2  -1  16   11.40    2.10
  -1  -1  16   65.59    3.90
   0  -1  16   48.10    3.30
   1  -1  16    4.70    1.50
   2  -1  16    4.10    1.50
   3  -1  16   14.20    2.00
   4  -1  16    0.10    1.10
  -5   1 -16   21.10    2.40
  -6   1 -16   20.60    2.40
  -7   1 -16   14.30    2.10
  -8   1 -16   44.10    3.00
  -9   1 -16    1.50    1.20
 -10   1 -16    0.00    1.20
 -11   1 -16   19.30    2.30
 -12   1 -16   75.49    3.90
 -13   1 -16   47.50    3.40
 -14   1 -16   32.20    3.00
 -15   1 -16   34.00    3.20
 -16   1 -16   22.60    2.60
  -7   0  16    0.60    1.60
  -6   0  16   -0.90    1.40
  -5   0  16   12.70    2.40
  -4   0  16    7.80    1.90
  -3   0  16   30.90    3.20
  -2   0  16    0.90    1.30
  -1   0  16   31.00    3.00
   0   0  16    9.40    1.90
   1   0  16   62.99    3.60
   2   0  16   -0.40    1.20
   3   0  16   11.30    1.80
   4   0  16    4.60    1.40
   5   0  16   12.10    1.90
  -6   0 -16    1.00    1.20
  -7   0 -16   -0.60    1.00
  -8   0 -16   54.49    3.30
  -9   0 -16   -0.90    1.00
 -10   0 -16    7.50    1.60
 -11   0 -16   87.09    4.10
 -12   0 -16  161.78    5.90
 -13   0 -16   95.09    4.50
 -14   0 -16    2.50    1.50
 -15   0 -16    2.30    1.40
 -16   0 -16  155.68    6.10
 -17   0 -16   25.80    2.90
  -7   1  16    1.90    1.90
  -6   1  16    0.20    1.50
  -5   1  16    4.70    1.70
  -4   1  16   60.79    4.00
  -3   1  16   72.89    4.20
  -2   1  16   76.89    4.30
  -1   1  16   19.20    2.50
   0   1  16    6.40    1.60
   1   1  16    3.70    1.50
   2   1  16  118.89    5.00
   3   1  16   40.10    2.80
   4   1  16  107.19    4.60
   5   1  16    1.20    1.30
  -6  -1 -16    1.40    1.10
  -7  -1 -16    3.00    1.20
  -8  -1 -16   72.79    3.60
  -9  -1 -16   79.39    3.80
 -10  -1 -16   20.60    2.30
 -11  -1 -16    3.00    1.30
 -12  -1 -16  330.97    9.50
 -13  -1 -16   85.29    4.20
 -14  -1 -16    2.50    1.30
 -15  -1 -16   -0.10    1.20
 -16  -1 -16   29.90    2.90
 -17  -1 -16  177.68    6.60
  -7   2  16   20.60    2.90
  -6   2  16    1.00    1.50
  -5   2  16   58.19    4.00
  -4   2  16   14.70    2.40
  -3   2  16    3.40    1.60
  -2   2  16    8.50    1.90
  -1   2  16    3.50    1.40
   0   2  16   95.89    4.40
   1   2  16    0.70    1.10
   2   2  16   11.80    1.90
   3   2  16    5.00    1.40
   4   2  16   20.00    2.20
   5   2  16   19.00    2.20
  -7  -2 -16    9.80    1.70
  -8  -2 -16    1.00    1.20
  -9  -2 -16   16.50    2.00
 -10  -2 -16    0.10    1.00
 -11  -2 -16   65.49    3.50
 -12  -2 -16  184.68    6.20
 -13  -2 -16   52.69    3.10
 -14  -2 -16   16.80    2.20
 -15  -2 -16   -1.40    1.10
 -16  -2 -16   41.90    3.10
 -17  -2 -16   30.50    2.80
 -18  -2 -16   33.40    3.00
  -7   3  16   -0.20    1.50
  -6   3  16    2.80    1.80
  -5   3  16   12.60    2.30
  -4   3  16   53.39    3.90
  -3   3  16   21.40    2.70
  -2   3  16    6.40    1.80
  -1   3  16    8.70    1.80
   0   3  16    2.60    1.30
  -1  -3 -16   33.00    2.20
   1   3  16   27.60    2.60
  -2  -3 -16   19.30    1.80
   2   3  16   16.60    2.10
  -3  -3 -16   28.20    2.10
   3   3  16   24.60    2.40
   4   3  16   39.70    2.80
   5   3  16    4.40    1.40
   6   3  16   13.00    1.80
  -7  -3 -16    3.30    1.30
  -8  -3 -16    1.10    1.10
  -9  -3 -16    3.90    1.20
 -10  -3 -16    0.90    1.10
 -11  -3 -16   43.10    2.80
 -12  -3 -16   98.29    4.20
 -13  -3 -16   12.60    1.80
 -14  -3 -16    1.10    1.20
 -15  -3 -16    0.80    1.10
 -16  -3 -16   21.50    2.30
 -17  -3 -16   36.90    3.10
 -18  -3 -16    6.20    1.70
 -18  -3 -16    5.30    2.10
  -6   4  16   22.10    3.00
  -5   4  16   37.40    3.70
  -4   4  16    1.70    1.50
  -3   4  16    1.90    1.40
   2  -4 -16   14.30    1.90
  -2   4  16   15.60    2.20
   1  -4 -16   17.30    1.90
  -1   4  16   20.10    2.50
   0  -4 -16   12.40    1.70
   0   4  16   16.30    2.10
  -1  -4 -16  119.79    4.40
   1   4  16  124.29    5.00
  -2  -4 -16   32.70    2.20
   2   4  16   32.80    2.50
  -3  -4 -16   25.40    2.20
   3   4  16   26.70    2.40
  -4  -4 -16  231.68    6.90
   4   4  16  233.88    7.30
   5   4  16    0.10    0.90
   6   4  16    1.00    1.10
  -7  -4 -16    5.90    1.30
  -8  -4 -16    3.40    1.20
  -9  -4 -16    1.10    1.00
 -10  -4 -16    5.50    1.30
 -11  -4 -16   28.20    2.30
 -12  -4 -16   94.19    4.00
 -13  -4 -16  105.99    4.30
 -14  -4 -16    4.30    1.30
 -15  -4 -16    4.70    1.30
 -16  -4 -16    2.30    1.30
 -16  -4 -16    1.30    1.70
 -17  -4 -16   15.40    2.50
 -17  -4 -16   15.30    2.00
 -18  -4 -16    7.90    2.00
  -6   5  16   89.49    5.10
  -5   5  16   65.09    4.20
   4  -5 -16    3.10    1.30
  -4   5  16   -0.50    1.20
   3  -5 -16   14.00    1.90
  -3   5  16   16.40    2.30
   2  -5 -16   16.00    1.90
  -2   5  16   13.30    2.20
   1  -5 -16    1.10    1.10
  -1   5  16    0.90    1.20
   0  -5 -16   47.90    2.80
   0   5  16   46.60    3.20
  -1  -5 -16   -0.20    0.80
   1   5  16   -0.50    1.00
  -2  -5 -16   48.80    2.80
   2   5  16   44.70    3.00
  -3  -5 -16    7.00    1.40
   3   5  16    5.50    1.40
  -4  -5 -16    0.60    1.00
   4   5  16    1.30    1.10
   5   5  16    8.40    1.50
   6   5  16    7.00    1.40
  -7  -5 -16  125.69    4.60
  -8  -5 -16    4.60    1.20
  -9  -5 -16   14.00    1.70
 -10  -5 -16    2.60    1.10
 -11  -5 -16    5.10    1.20
 -12  -5 -16   41.40    2.60
 -13  -5 -16    1.40    1.10
 -14  -5 -16   16.10    2.30
 -14  -5 -16   18.80    2.00
 -15  -5 -16   59.59    3.70
 -16  -5 -16  172.18    6.70
 -17  -5 -16    5.10    1.90
 -18  -5 -16    7.10    2.20
   6  -6 -16   30.30    2.70
  -6   6  16   35.30    3.80
   5  -6 -16  205.08    6.90
  -5   6  16  207.18    7.90
   4  -6 -16  123.09    4.90
  -4   6  16  129.59    5.90
   3  -6 -16   22.20    2.20
  -3   6  16   24.50    2.70
   2  -6 -16    0.50    1.10
  -2   6  16   -0.10    1.30
   1  -6 -16   10.90    1.70
  -1   6  16   11.90    2.00
   0  -6 -16    3.00    1.20
   0   6  16    0.60    1.20
  -1  -6 -16    3.00    1.20
   1   6  16    3.90    1.40
  -2  -6 -16    6.80    1.40
   2   6  16    4.90    1.40
  -3  -6 -16   34.70    2.40
   3   6  16   35.40    2.60
  -4  -6 -16   15.00    1.90
   4   6  16   15.30    1.90
  -5  -6 -16   11.00    1.50
   5   6  16   13.20    1.80
  -6  -6 -16    1.50    0.80
   6   6  16    1.30    1.10
  -7  -6 -16  319.77    8.80
  -8  -6 -16   54.59    3.10
  -8  -6 -16   57.99    3.00
  -9  -6 -16    6.00    1.30
  -9  -6 -16    8.00    1.50
 -10  -6 -16   19.40    2.20
 -11  -6 -16   59.49    3.30
 -12  -6 -16   25.40    2.60
 -13  -6 -16   -0.20    1.10
 -14  -6 -16    1.00    1.30
 -15  -6 -16   42.80    3.30
 -16  -6 -16   75.39    4.20
 -17  -6 -16   13.70    2.30
 -18  -6 -16    5.50    2.00
 -19  -6 -16    2.40    1.70
   5  -7 -16    9.10    1.80
  -5   7  16   11.70    2.30
   4  -7 -16  168.38    6.10
  -4   7  16  162.38    6.80
   3  -7 -16    1.70    1.40
  -3   7  16    0.10    1.40
   2  -7 -16   27.90    2.60
  -2   7  16   22.70    2.70
   1  -7 -16   24.80    2.40
  -1   7  16   23.80    2.60
   0  -7 -16   98.39    4.30
   0   7  16  116.69    4.90
  -1  -7 -16   57.49    3.30
   1   7  16   60.39    3.40
  -2  -7 -16    0.10    1.00
   2   7  16    0.90    1.10
  -3  -7 -16   36.90    2.70
   3   7  16   41.20    2.70
  -4  -7 -16   67.09    3.40
   4   7  16   60.89    3.20
  -5  -7 -16   71.59    3.10
  -6  -7 -16    8.70    1.40
  -7  -7 -16   -0.50    0.80
  -8  -7 -16  830.52   19.50
  -9  -7 -16  134.69    5.00
 -10  -7 -16   28.70    2.60
 -11  -7 -16   15.00    2.00
 -12  -7 -16   22.80    2.40
 -13  -7 -16    2.50    1.30
 -14  -7 -16    6.90    1.70
 -15  -7 -16    0.20    1.20
 -16  -7 -16   47.60    3.50
 -17  -7 -16   45.50    3.50
 -18  -7 -16    3.80    1.90
 -19  -7 -16   21.00    2.80
   4  -8 -16    8.10    1.80
  -4   8  16   11.80    2.30
   3  -8 -16    8.10    1.70
  -3   8  16   12.30    2.10
   2  -8 -16   62.09    3.50
  -2   8  16   65.19    3.80
   1  -8 -16   89.59    4.20
  -1   8  16   84.99    5.00
   0  -8 -16   43.40    2.90
  -1  -8 -16   17.00    2.20
  -2  -8 -16   15.60    2.00
  -3  -8 -16   63.69    3.40
  -4  -8 -16  109.49    4.60
  -5  -8 -16    2.20    1.20
  -6  -8 -16   18.80    1.80
  -7  -8 -16   -0.40    0.70
  -8  -8 -16    2.00    1.10
  -9  -8 -16   81.49    3.70
 -10  -8 -16   25.60    2.40
 -11  -8 -16   56.59    3.20
 -12  -8 -16    2.80    1.30
 -13  -8 -16   50.19    3.20
 -14  -8 -16    6.70    1.70
 -15  -8 -16   18.30    2.40
 -16  -8 -16   -0.80    1.30
 -17  -8 -16    8.20    2.00
 -18  -8 -16    4.40    1.80
 -19  -8 -16    3.80    1.80
   4  -9 -16    3.30    1.50
   3  -9 -16   -0.30    1.30
   2  -9 -16    7.80    1.80
   1  -9 -16  187.18    6.60
   0  -9 -16  158.98    6.00
  -1  -9 -16   -0.90    1.00
  -2  -9 -16   71.99    3.90
  -3  -9 -16   67.49    3.70
  -4  -9 -16   37.10    3.00
  -5  -9 -16    5.80    1.60
  -6  -9 -16    2.00    0.90
  -7  -9 -16   18.80    1.90
  -8  -9 -16    5.30    1.20
  -9  -9 -16   18.60    2.00
 -10  -9 -16   26.30    2.40
 -11  -9 -16  265.87    8.00
 -12  -9 -16   23.10    2.40
 -13  -9 -16   29.40    2.70
 -14  -9 -16    7.50    1.70
 -15  -9 -16    1.70    1.30
 -16  -9 -16    1.00    1.40
 -17  -9 -16   16.70    2.50
 -18  -9 -16   49.90    3.70
 -19  -9 -16   25.80    3.10
   3 -10 -16   -1.70    1.20
   2 -10 -16    2.60    1.50
   1 -10 -16    4.40    1.60
   0 -10 -16  159.38    6.00
  -1 -10 -16    8.60    1.80
  -2 -10 -16    6.60    1.60
  -3 -10 -16  271.97    8.40
  -4 -10 -16   97.79    4.60
  -5 -10 -16   19.40    2.30
  -6 -10 -16    2.30    1.30
  -7 -10 -16    1.30    1.00
  -8 -10 -16    7.00    1.30
  -9 -10 -16    3.40    1.20
 -10 -10 -16    3.90    1.20
 -11 -10 -16  175.88    6.00
 -12 -10 -16  418.96   11.40
 -13 -10 -16   85.99    4.10
 -14 -10 -16   12.80    2.10
 -15 -10 -16   12.30    2.10
 -16 -10 -16    8.90    2.00
 -17 -10 -16    1.00    1.40
 -18 -10 -16    9.30    2.10
 -19 -10 -16   11.50    2.40
   2 -11 -16    2.10    1.40
   1 -11 -16    5.10    1.70
   0 -11 -16    0.80    1.40
  -1 -11 -16    1.60    1.40
  -2 -11 -16   18.40    2.40
  -3 -11 -16    4.40    1.60
  -4 -11 -16   70.39    3.80
  -5 -11 -16  145.39    5.80
  -6 -11 -16   13.90    2.10
  -7 -11 -16   64.39    3.30
  -8 -11 -16   -0.50    0.90
  -9 -11 -16    4.50    1.20
 -10 -11 -16   19.70    2.10
 -11 -11 -16    2.40    1.20
 -12 -11 -16   28.10    2.60
 -13 -11 -16  171.38    6.20
 -14 -11 -16   94.89    4.60
 -15 -11 -16   31.70    3.00
 -16 -11 -16   11.10    2.20
 -17 -11 -16    2.50    1.50
 -18 -11 -16    0.90    1.70
   1 -12 -16   34.60    3.30
   0 -12 -16   -0.40    1.40
  -1 -12 -16   14.00    2.40
  -2 -12 -16   -1.10    1.20
  -3 -12 -16   36.70    3.20
  -4 -12 -16  127.09    5.40
  -5 -12 -16   -0.10    1.20
  -6 -12 -16    2.80    1.40
  -7 -12 -16   90.19    4.40
  -8 -12 -16  121.09    4.50
  -9 -12 -16   -0.10    0.90
 -10 -12 -16    3.00    1.30
 -11 -12 -16    3.40    1.40
 -12 -12 -16   35.60    2.70
 -13 -12 -16   -0.30    1.10
 -14 -12 -16   29.70    2.90
 -15 -12 -16   41.30    3.50
 -16 -12 -16    5.90    1.80
 -17 -12 -16   32.10    3.20
 -18 -12 -16   -0.70    1.40
   0 -13 -16  105.19    5.10
  -1 -13 -16   -1.20    1.30
  -2 -13 -16    4.40    1.80
  -3 -13 -16    0.40    1.30
  -4 -13 -16   45.60    3.40
  -5 -13 -16   37.90    3.40
  -6 -13 -16    5.20    1.70
  -7 -13 -16  133.79    5.60
  -9 -13 -16   39.00    2.50
 -10 -13 -16   48.00    2.80
 -11 -13 -16   -0.90    1.10
 -12 -13 -16   22.90    2.40
 -13 -13 -16    1.70    1.50
 -14 -13 -16   21.40    2.60
 -15 -13 -16   27.90    2.90
 -16 -13 -16  128.59    5.50
 -17 -13 -16   40.60    3.60
 -18 -13 -16   -1.10    1.50
  -1 -14 -16    0.80    1.50
  -2 -14 -16    1.10    1.50
  -3 -14 -16   17.70    2.60
  -4 -14 -16   19.90    2.70
  -5 -14 -16   47.40    3.50
  -6 -14 -16    1.40    1.50
  -7 -14 -16    8.40    1.90
  -8 -14 -16   50.99    3.60
  -9 -14 -16   97.29    4.00
 -10 -14 -16    4.60    1.40
 -11 -14 -16    2.50    1.30
 -12 -14 -16   24.30    2.50
 -13 -14 -16   44.80    3.00
 -14 -14 -16   -1.10    1.20
 -15 -14 -16   31.30    3.00
 -16 -14 -16   34.00    3.30
 -17 -14 -16   21.10    2.80
  -2 -15 -16    9.60    2.10
  -3 -15 -16   60.39    4.00
  -4 -15 -16    4.50    1.80
  -5 -15 -16   54.69    3.80
  -6 -15 -16   16.80    2.60
  -7 -15 -16   23.10    2.90
  -8 -15 -16    5.80    1.90
 -10 -15 -16    4.40    1.40
 -11 -15 -16  106.89    4.50
 -12 -15 -16    2.70    1.30
 -13 -15 -16   46.30    3.10
 -14 -15 -16    5.50    1.70
 -15 -15 -16   -1.10    1.50
 -16 -15 -16    1.10    1.50
  -4 -16 -16  137.09    6.10
  -5 -16 -16   -0.50    1.50
  -6 -16 -16    8.90    2.20
  -7 -16 -16   59.09    4.20
  -8 -16 -16    7.60    2.00
  -9 -16 -16   22.10    2.90
 -10 -16 -16    3.50    1.40
 -11 -16 -16   12.60    2.00
 -12 -16 -16  142.59    5.50
 -13 -16 -16   11.30    2.00
 -14 -16 -16   -0.80    1.30
 -15 -16 -16   34.80    3.10
  -7 -17 -16   21.80    2.90
  -8 -17 -16   17.70    2.70
  -9 -17 -16   39.20    3.80
 -10 -17 -16   -1.30    1.40
 -11 -17 -16   15.20    2.00
 -12 -17 -16   -0.30    1.10
 -13 -17 -16   83.69    4.30
 -14 -17 -16   20.90    2.50
   0  10 -17    4.60    2.10
  -1  10 -17   54.49    4.20
  -2  10 -17   -1.60    1.50
  -3  10 -17   12.00    2.60
  -4  10 -17   95.29    5.30
  -2  -9  17   -1.00    1.50
  -1  -9  17    5.70    2.00
  -1   9 -17    3.90    1.90
  -2   9 -17   10.80    2.50
  -3   9 -17   63.79    4.40
  -4   9 -17    1.90    1.90
  -5   9 -17  101.89    5.40
  -6   9 -17   26.30    3.10
  -7   9 -17    0.50    1.60
  -4  -8  17   62.19    4.40
  -3  -8  17    2.40    1.70
  -2  -8  17    4.80    2.10
  -1  -8  17    3.30    1.80
   0  -8  17   37.70    3.70
  -2   8 -17   16.60    2.60
  -3   8 -17    9.50    2.40
  -4   8 -17   52.09    4.00
  -5   8 -17   12.80    2.40
  -6   8 -17   -0.90    1.50
  -7   8 -17    6.90    2.00
  -8   8 -17   54.09    4.00
  -9   8 -17    1.80    1.80
  -5  -7  17   -1.00    1.60
  -4  -7  17   21.80    3.10
  -3  -7  17   21.80    2.90
  -2  -7  17   -0.60    1.60
  -1  -7  17   26.80    3.20
   0  -7  17  193.18    7.50
   1  -7  17  134.79    6.20
  -2   7 -17    9.50    2.10
  -3   7 -17    2.70    1.70
  -4   7 -17   -0.50    1.40
  -5   7 -17   12.40    2.30
  -6   7 -17    6.80    2.20
  -7   7 -17   -0.90    1.50
  -8   7 -17  153.68    6.40
  -9   7 -17   86.29    4.80
 -10   7 -17    4.80    1.80
  -5  -6  17    9.30    2.30
  -4  -6  17    6.20    2.10
  -3  -6  17    2.70    1.70
  -2  -6  17   -1.30    1.30
  -1  -6  17   30.10    3.40
   0  -6  17  101.49    5.20
   1  -6  17  147.79    6.40
  -3   6 -17    9.60    2.10
  -4   6 -17    2.00    1.60
  -5   6 -17    7.00    2.00
  -6   6 -17    1.50    1.50
  -7   6 -17    2.20    1.60
  -8   6 -17   -0.10    1.60
  -9   6 -17  110.59    5.30
 -10   6 -17   12.60    2.40
 -11   6 -17    3.10    1.80
  -6  -5  17    4.70    1.90
  -5  -5  17   33.40    3.60
  -4  -5  17    9.90    2.30
  -3  -5  17    1.20    1.50
  -2  -5  17    9.00    2.10
  -1  -5  17    1.30    1.50
   0  -5  17    1.00    1.50
   1  -5  17    0.90    1.60
   2  -5  17   -1.50    1.40
  -4   5 -17   63.29    4.10
  -5   5 -17    0.10    1.50
  -6   5 -17    8.50    2.00
  -7   5 -17    3.80    1.60
  -8   5 -17   -0.50    1.30
  -9   5 -17    0.80    1.50
 -10   5 -17    1.50    1.50
 -11   5 -17   23.50    3.00
 -12   5 -17   32.20    3.30
  -6  -4  17    2.50    1.80
  -5  -4  17   22.60    3.10
  -4  -4  17   85.59    4.90
  -3  -4  17   18.80    2.70
  -2  -4  17    7.80    2.10
  -1  -4  17   22.20    2.80
   0  -4  17    9.70    2.10
   1  -4  17    2.10    1.50
   2  -4  17    0.70    1.50
   3  -4  17   76.09    4.40
  -4   4 -17  421.56   12.20
  -5   4 -17  195.38    7.40
  -6   4 -17    9.50    2.20
  -7   4 -17   -0.10    1.30
  -8   4 -17   33.90    3.10
  -9   4 -17    0.30    1.40
 -10   4 -17   -0.50    1.20
 -11   4 -17    0.20    1.40
 -12   4 -17  138.19    6.00
 -13   4 -17   81.69    4.60
  -6  -3  17    0.00    1.50
  -5  -3  17   11.50    2.40
  -4  -3  17    0.20    1.50
  -3  -3  17   81.79    4.70
  -2  -3  17   29.00    3.10
  -1  -3  17    8.50    1.90
   0  -3  17   29.20    3.10
   1  -3  17   12.90    2.30
   2  -3  17   -0.70    1.20
   3  -3  17   20.40    2.60
  -5   3 -17  550.34   14.90
  -6   3 -17   64.39    3.90
  -7   3 -17   19.10    2.50
  -8   3 -17   23.40    2.70
  -9   3 -17   12.00    2.10
 -10   3 -17    0.20    1.30
 -11   3 -17   10.50    2.00
 -12   3 -17    1.40    1.60
 -13   3 -17   62.09    3.90
 -14   3 -17   59.19    4.10
  -6  -2  17   -0.40    1.50
  -5  -2  17    1.90    1.70
  -4  -2  17    1.90    1.70
  -3  -2  17   38.20    3.60
  -2  -2  17   -0.70    1.50
  -1  -2  17   28.20    3.00
   0  -2  17   25.50    3.00
   1  -2  17   10.70    2.00
   2  -2  17    1.00    1.50
   3  -2  17   25.40    2.80
   4  -2  17   33.10    3.10
  -5   2 -17   -0.40    1.20
  -6   2 -17   57.69    3.70
  -7   2 -17   25.50    2.80
  -8   2 -17  142.59    5.80
  -9   2 -17   45.60    3.60
 -10   2 -17    3.30    1.50
 -11   2 -17    3.50    1.60
 -12   2 -17    0.40    1.30
 -13   2 -17    0.20    1.50
 -14   2 -17    2.10    1.50
 -15   2 -17    1.70    1.50
  -6  -1  17   -1.30    1.40
  -5  -1  17    9.90    2.40
  -4  -1  17   10.50    2.30
  -3  -1  17    6.20    1.80
  -2  -1  17    1.90    1.50
  -1  -1  17  121.89    5.50
   0  -1  17  276.87    9.00
   1  -1  17    1.70    1.40
   2  -1  17   12.10    2.10
   3  -1  17   46.00    3.30
   4  -1  17   68.89    3.90
  -6   1 -17    2.00    1.40
  -7   1 -17  117.69    5.30
  -8   1 -17  538.15   14.30
  -9   1 -17   15.50    2.20
 -10   1 -17    5.00    1.70
 -11   1 -17   28.80    2.80
 -12   1 -17   79.39    4.10
 -13   1 -17   13.60    2.10
 -14   1 -17   45.00    3.30
 -15   1 -17    5.80    1.70
  -6   0  17    1.80    1.60
  -5   0  17    0.00    1.40
  -4   0  17    9.30    2.20
  -3   0  17    7.00    1.90
  -2   0  17   -0.20    1.30
  -1   0  17    4.20    1.60
   0   0  17  180.28    6.80
   1   0  17   75.79    4.10
   2   0  17    0.30    1.20
   3   0  17    4.50    1.50
   4   0  17  115.19    5.00
   5   0  17  150.78    5.90
  -6   0 -17    1.60    1.40
  -7   0 -17    9.40    1.90
  -8   0 -17  155.78    6.00
  -9   0 -17  302.27    9.20
 -10   0 -17    5.30    1.70
 -11   0 -17   -0.10    1.20
 -12   0 -17   99.99    4.70
 -13   0 -17  114.29    5.00
 -14   0 -17   -1.40    1.10
 -15   0 -17   -0.30    1.40
 -16   0 -17    2.00    1.50
  -6   1  17   19.00    3.00
  -5   1  17    0.20    1.40
  -4   1  17   -1.40    1.20
  -3   1  17    4.40    1.70
  -2   1  17   22.80    2.70
  -1   1  17   22.50    2.70
   0   1  17   51.89    3.50
   1   1  17  106.89    4.90
   2   1  17    2.60    1.30
   3   1  17   32.40    2.90
   4   1  17   37.60    3.20
   5   1  17   12.90    2.00
  -6  -1 -17   -0.10    1.20
  -7  -1 -17   -0.60    1.10
  -8  -1 -17    0.70    1.10
  -9  -1 -17  102.09    4.60
 -10  -1 -17   36.60    3.10
 -11  -1 -17    2.80    1.50
 -12  -1 -17    5.80    1.70
 -13  -1 -17   55.69    3.40
 -14  -1 -17   74.39    3.90
 -15  -1 -17    1.10    1.30
 -16  -1 -17   18.60    2.50
 -17  -1 -17   -0.70    1.30
  -6   2  17    6.30    2.20
  -5   2  17   40.10    3.90
  -4   2  17   21.20    2.90
  -3   2  17   11.20    2.30
  -2   2  17    1.70    1.50
  -1   2  17   29.70    2.90
   0   2  17   43.30    3.20
   1   2  17    2.90    1.40
   2   2  17    0.60    1.20
   3   2  17   34.10    3.00
   4   2  17  195.78    6.70
   5   2  17   85.69    4.10
  -7  -2 -17   25.40    2.50
  -8  -2 -17   66.79    3.60
  -9  -2 -17    8.50    1.70
 -10  -2 -17   53.29    3.10
 -11  -2 -17   -1.00    1.10
 -12  -2 -17  154.98    5.70
 -13  -2 -17   -1.10    1.20
 -14  -2 -17   16.60    2.20
 -15  -2 -17   15.80    2.10
 -16  -2 -17   28.20    2.80
 -17  -2 -17    1.90    1.40
  -6   3  17   18.30    2.90
  -5   3  17    1.20    1.70
  -4   3  17   59.49    4.10
  -3   3  17   74.19    4.30
  -2   3  17   -1.10    1.10
  -1   3  17    3.00    1.40
   0   3  17   10.60    1.90
   1   3  17    4.60    1.40
   2   3  17   -1.30    1.10
   3   3  17    5.90    1.70
  -4  -3 -17  151.98    5.80
   4   3  17  163.08    5.90
   5   3  17   72.19    3.80
   6   3  17    1.10    1.30
  -7  -3 -17   25.30    2.40
  -8  -3 -17    8.80    1.70
  -9  -3 -17   30.30    2.70
 -10  -3 -17   10.10    1.70
 -11  -3 -17   43.50    2.90
 -12  -3 -17    0.80    1.20
 -13  -3 -17    7.00    1.50
 -14  -3 -17    0.10    1.20
 -15  -3 -17   10.60    1.80
 -16  -3 -17  130.59    5.20
 -17  -3 -17   96.19    4.60
  -5   4  17    8.80    2.30
  -4   4  17    4.20    1.70
  -3   4  17   45.60    3.50
  -2   4  17   11.30    2.20
  -1   4  17    0.10    1.30
   0   4  17   10.90    2.00
   1   4  17   15.40    2.20
  -2  -4 -17   55.09    3.00
   2   4  17   60.59    3.40
  -3  -4 -17   24.40    2.20
   3   4  17   26.10    2.50
  -4  -4 -17  121.79    4.60
   4   4  17  128.99    5.00
   5   4  17  117.99    4.80
   6   4  17   15.10    2.00
  -7  -4 -17   76.99    3.70
  -8  -4 -17  131.79    5.00
  -9  -4 -17   28.70    2.50
 -10  -4 -17    1.20    1.10
 -11  -4 -17    2.10    1.20
 -12  -4 -17   34.30    2.70
 -13  -4 -17    1.40    1.20
 -14  -4 -17    0.10    1.00
 -15  -4 -17    3.10    1.40
 -16  -4 -17   84.59    4.10
 -17  -4 -17   84.49    4.90
 -18  -4 -17   33.00    3.50
  -5   5  17   12.30    2.40
  -4   5  17   13.60    2.50
  -3   5  17    0.40    1.30
  -2   5  17   19.70    2.60
   1  -5 -17   38.90    2.50
  -1   5  17   48.20    3.40
   0  -5 -17   29.90    2.60
   0   5  17   33.40    3.00
  -1  -5 -17   33.00    2.50
   1   5  17   29.40    2.80
  -2  -5 -17   52.39    3.00
   2   5  17   53.49    3.30
  -3  -5 -17   51.89    2.90
   3   5  17   47.40    3.10
  -4  -5 -17  221.48    6.90
   4   5  17  221.38    7.20
   5   5  17   77.39    3.80
   6   5  17    2.60    1.20
  -7  -5 -17  103.29    4.30
  -8  -5 -17   97.79    4.10
  -9  -5 -17    6.30    1.50
 -10  -5 -17   11.40    1.70
 -11  -5 -17   11.60    1.60
 -12  -5 -17   92.19    3.90
 -14  -5 -17    3.70    1.50
 -15  -5 -17    7.90    1.90
 -16  -5 -17   18.20    2.70
 -17  -5 -17   90.79    4.90
 -18  -5 -17   16.10    2.60
  -4   6  17   78.19    4.80
   3  -6 -17   17.60    2.10
  -3   6  17   18.50    2.60
   2  -6 -17    3.70    1.40
  -2   6  17    3.00    1.60
   1  -6 -17    3.80    1.30
  -1   6  17    5.00    1.60
   0  -6 -17  121.59    4.70
   0   6  17  116.59    5.10
  -1  -6 -17   12.50    1.80
   1   6  17    4.90    1.50
  -2  -6 -17    4.90    1.40
   2   6  17    4.50    1.40
  -3  -6 -17   34.80    2.60
   3   6  17   35.70    2.70
  -4  -6 -17   44.20    2.80
   4   6  17   43.00    2.90
  -5  -6 -17    7.30    1.40
  -5  -6 -17    8.20    1.70
   5   6  17   10.20    1.70
  -6  -6 -17   -0.10    0.90
   6   6  17    0.30    1.00
  -7  -6 -17    1.10    1.10
  -8  -6 -17    3.20    1.10
  -8  -6 -17    4.00    1.40
  -9  -6 -17   39.10    2.70
 -10  -6 -17    3.20    1.40
 -11  -6 -17   16.10    2.20
 -12  -6 -17    1.50    1.30
 -13  -6 -17    1.10    1.30
 -14  -6 -17    0.80    1.30
 -15  -6 -17    0.80    1.30
 -16  -6 -17   35.20    3.30
 -17  -6 -17   10.30    2.10
 -18  -6 -17   -1.60    1.40
   4  -7 -17   24.30    2.70
  -4   7  17   25.60    3.10
   3  -7 -17   36.60    3.10
  -3   7  17   49.30    4.10
   2  -7 -17    6.30    1.60
  -2   7  17    9.90    2.10
   1  -7 -17   10.70    1.90
  -1   7  17   13.20    2.20
   0  -7 -17    6.50    1.60
   0   7  17    1.70    1.40
  -1  -7 -17  100.99    4.40
   1   7  17  104.69    4.70
  -2  -7 -17    7.80    1.70
   2   7  17    5.70    1.50
  -3  -7 -17   42.60    2.80
  -4  -7 -17    4.60    1.50
  -5  -7 -17   13.50    2.00
  -6  -7 -17   19.60    1.90
  -7  -7 -17    2.40    1.10
  -8  -7 -17    3.90    1.20
  -9  -7 -17    3.60    1.30
 -10  -7 -17  117.09    4.80
 -11  -7 -17   51.99    3.20
 -12  -7 -17    1.70    1.30
 -13  -7 -17    0.40    1.20
 -14  -7 -17    5.00    1.60
 -15  -7 -17    3.00    1.50
 -16  -7 -17    7.20    2.00
 -17  -7 -17   42.40    3.80
 -18  -7 -17    0.30    1.60
   3  -8 -17    4.40    1.50
   2  -8 -17    6.20    1.60
   1  -8 -17   62.49    3.50
   0  -8 -17   -0.90    1.10
  -1  -8 -17    9.50    1.80
  -2  -8 -17    3.50    1.30
  -3  -8 -17   -0.80    1.00
  -4  -8 -17    7.40    1.60
  -5  -8 -17    6.10    1.40
  -7  -8 -17   49.00    2.70
  -8  -8 -17    0.30    0.90
  -9  -8 -17   10.10    1.60
 -10  -8 -17    0.20    1.20
 -11  -8 -17    3.20    1.40
 -12  -8 -17    1.70    1.20
 -13  -8 -17    7.70    1.80
 -14  -8 -17    3.90    1.60
 -15  -8 -17   21.30    2.60
 -16  -8 -17    7.40    1.80
 -17  -8 -17    2.50    1.60
 -18  -8 -17   17.50    2.60
   3  -9 -17    2.90    1.40
   2  -9 -17   -1.70    1.10
   1  -9 -17  139.99    5.60
   0  -9 -17  143.99    5.60
  -1  -9 -17   13.40    2.10
  -2  -9 -17    5.20    1.50
  -3  -9 -17    7.60    1.80
  -4  -9 -17   11.00    1.80
  -5  -9 -17    8.80    1.70
  -6  -9 -17   14.40    2.00
  -7  -9 -17   61.19    3.00
  -8  -9 -17    4.80    1.30
  -9  -9 -17    2.60    1.10
 -10  -9 -17    5.20    1.40
 -11  -9 -17   -1.90    1.00
 -12  -9 -17   22.40    2.50
 -13  -9 -17   -1.60    1.20
 -14  -9 -17    9.70    1.90
 -15  -9 -17   18.20    2.40
 -16  -9 -17   13.80    2.30
 -17  -9 -17    4.70    1.70
 -18  -9 -17    0.50    1.70
   2 -10 -17   22.60    2.70
   1 -10 -17    6.20    1.80
   0 -10 -17  204.28    7.30
  -1 -10 -17  152.18    6.00
  -2 -10 -17    9.20    1.80
  -3 -10 -17    4.50    1.50
  -4 -10 -17    1.00    1.40
  -5 -10 -17   34.30    3.00
  -6 -10 -17    0.60    1.20
  -8 -10 -17   48.20    2.80
  -9 -10 -17    8.90    1.50
 -10 -10 -17   21.20    2.20
 -11 -10 -17   18.20    2.20
 -12 -10 -17   32.90    2.90
 -13 -10 -17   94.59    4.50
 -14 -10 -17   10.40    1.90
 -15 -10 -17    3.00    1.60
 -16 -10 -17   10.50    2.00
 -17 -10 -17   10.70    2.30
 -18 -10 -17    3.30    1.80
   1 -11 -17   49.60    3.70
   0 -11 -17   -0.80    1.30
  -1 -11 -17   73.39    4.20
  -2 -11 -17    4.70    1.80
  -3 -11 -17   64.59    4.00
  -4 -11 -17   27.70    2.90
  -5 -11 -17   41.90    3.40
  -6 -11 -17   22.30    2.50
  -7 -11 -17    0.80    1.20
  -8 -11 -17    8.70    1.40
  -9 -11 -17   18.60    2.10
 -10 -11 -17   22.80    2.20
 -11 -11 -17   61.49    3.50
 -12 -11 -17   12.50    2.00
 -13 -11 -17   88.39    4.30
 -14 -11 -17    1.50    1.30
 -15 -11 -17    2.20    1.50
 -16 -11 -17   -1.20    1.50
 -17 -11 -17    4.80    1.70
 -18 -11 -17   -1.30    1.60
   0 -12 -17   24.50    2.80
  -1 -12 -17    1.20    1.60
  -2 -12 -17    0.40    1.40
  -3 -12 -17  126.69    5.50
  -4 -12 -17  154.18    6.20
  -5 -12 -17    0.40    1.40
  -6 -12 -17    6.30    1.70
  -7 -12 -17    7.10    1.80
  -9 -12 -17   67.79    3.40
 -10 -12 -17    5.80    1.50
 -11 -12 -17   29.00    2.70
 -12 -12 -17    3.80    1.40
 -13 -12 -17   -0.70    1.20
 -14 -12 -17    6.00    1.70
 -15 -12 -17    2.60    1.60
 -16 -12 -17   19.90    2.60
 -17 -12 -17    2.60    1.70
 -18 -12 -17   27.30    3.10
  -1 -13 -17    0.10    1.60
  -2 -13 -17   11.00    2.30
  -3 -13 -17   16.30    2.40
  -4 -13 -17  232.48    8.10
  -5 -13 -17  145.59    6.00
  -6 -13 -17   -1.20    1.40
  -7 -13 -17   36.60    3.30
  -8 -13 -17   57.99    3.80
  -9 -13 -17    1.60    1.10
 -10 -13 -17    4.10    1.30
 -11 -13 -17    0.60    1.20
 -12 -13 -17   13.60    2.00
 -13 -13 -17    6.90    1.80
 -14 -13 -17   10.20    2.00
 -15 -13 -17   20.10    2.50
 -16 -13 -17   73.39    4.20
 -17 -13 -17   96.79    5.10
  -2 -14 -17    0.10    1.50
  -3 -14 -17    4.50    1.70
  -4 -14 -17   -3.10    1.30
  -5 -14 -17  116.29    5.50
  -6 -14 -17   13.20    2.30
  -7 -14 -17   29.70    3.00
  -8 -14 -17    1.40    1.40
 -10 -14 -17   17.70    2.10
 -11 -14 -17   24.80    2.40
 -12 -14 -17    0.90    1.30
 -13 -14 -17   14.40    2.10
 -14 -14 -17    9.50    1.90
 -15 -14 -17   25.90    2.80
 -16 -14 -17    6.60    2.00
  -4 -15 -17    8.30    2.10
  -5 -15 -17    0.90    1.50
  -6 -15 -17    5.80    1.90
  -7 -15 -17   32.00    3.30
  -8 -15 -17   73.69    4.40
  -9 -15 -17    2.10    1.60
 -11 -15 -17   -1.30    1.10
 -12 -15 -17    7.70    1.70
 -13 -15 -17   35.20    3.00
 -14 -15 -17    5.70    1.80
 -15 -15 -17   30.70    3.10
  -6 -16 -17    9.60    2.30
  -7 -16 -17   29.30    3.20
  -8 -16 -17   68.99    4.40
  -9 -16 -17   70.79    4.60
 -10 -16 -17   10.20    2.20
 -11 -16 -17   12.00    2.00
 -12 -16 -17   84.39    4.20
 -13 -16 -17   11.80    2.10
 -14 -16 -17    0.90    1.50
  -1  -8  18    1.20    1.70
   0  -8  18   22.20    3.10
  -1   8 -18   16.40    2.70
  -2   8 -18    1.60    1.70
  -3   8 -18    7.30    2.10
  -4   8 -18   32.70    3.50
  -5   8 -18   22.40    3.10
  -6   8 -18    5.20    2.00
  -2  -7  18    0.20    1.60
  -1  -7  18   16.80    2.80
   0  -7  18   27.90    3.30
   1  -7  18    9.20    2.30
  -2   7 -18    5.90    2.10
  -3   7 -18    0.00    1.60
  -4   7 -18   25.40    3.10
  -5   7 -18   31.60    3.50
  -6   7 -18    6.40    2.20
  -7   7 -18    5.20    1.90
  -8   7 -18   15.30    2.50
  -3  -6  18   31.30    3.60
  -2  -6  18    7.10    2.20
  -1  -6  18   28.40    3.30
   0  -6  18    9.60    2.20
   1  -6  18   16.50    2.70
  -3   6 -18    0.90    1.50
  -4   6 -18    0.40    1.50
  -5   6 -18   45.50    4.00
  -6   6 -18   29.80    3.30
  -7   6 -18    3.10    1.70
  -8   6 -18    2.80    1.70
  -9   6 -18   23.90    3.00
 -10   6 -18   35.00    3.50
  -4  -5  18    3.40    2.00
  -3  -5  18    7.00    2.10
  -2  -5  18    7.80    2.10
  -1  -5  18    5.40    2.10
   0  -5  18  230.98    8.60
   1  -5  18   51.39    4.30
   2  -5  18   -0.30    1.50
  -3   5 -18   10.00    2.10
  -4   5 -18    0.40    1.40
  -5   5 -18    3.20    1.70
  -6   5 -18    0.50    1.50
  -7   5 -18   20.90    2.90
  -8   5 -18  140.09    6.10
  -9   5 -18   37.90    3.50
 -10   5 -18   31.00    3.30
 -11   5 -18   -0.70    1.60
  -4  -4  18    1.50    1.70
  -3  -4  18   16.10    2.60
  -2  -4  18   21.80    3.00
  -1  -4  18    2.50    1.70
   0  -4  18  174.78    7.10
   1  -4  18  214.68    8.00
   2  -4  18   16.20    2.60
   3  -4  18    5.40    1.90
  -4   4 -18   16.30    2.50
  -5   4 -18    2.90    1.70
  -6   4 -18   12.10    2.40
  -7   4 -18    7.30    2.00
  -8   4 -18   33.20    3.40
  -9   4 -18   66.69    4.20
 -10   4 -18   10.60    2.30
 -11   4 -18    6.10    1.90
 -12   4 -18   13.90    2.40
  -5  -3  18   11.00    2.40
  -4  -3  18    0.00    1.50
  -3  -3  18    1.60    1.70
  -2  -3  18   -1.40    1.50
  -1  -3  18   52.09    3.90
   0  -3  18    5.00    1.80
   1  -3  18   40.10    3.70
   2  -3  18   33.20    3.30
   3  -3  18    4.70    1.80
  -5   3 -18  193.58    7.40
  -6   3 -18    8.20    2.00
  -7   3 -18    2.40    1.50
  -8   3 -18    2.10    1.70
  -9   3 -18    3.30    1.50
 -10   3 -18    7.10    1.90
 -11   3 -18    6.50    2.00
 -12   3 -18    2.60    1.70
 -13   3 -18   85.79    4.90
  -5  -2  18   13.60    2.60
  -4  -2  18   31.70    3.50
  -3  -2  18   19.10    2.80
  -2  -2  18    5.40    2.00
  -1  -2  18    4.50    1.70
   0  -2  18    1.80    1.60
   1  -2  18    2.90    1.60
   2  -2  18   -0.20    1.50
   3  -2  18    3.80    1.60
   4  -2  18   92.19    4.80
  -5   2 -18    1.20    1.40
  -6   2 -18   32.90    3.30
  -7   2 -18   23.00    2.90
  -8   2 -18   59.49    3.90
  -9   2 -18   25.80    2.90
 -10   2 -18   17.90    2.50
 -11   2 -18    1.60    1.60
 -12   2 -18   -1.40    1.20
 -13   2 -18   13.40    2.30
 -14   2 -18   64.89    4.10
  -5  -1  18   13.30    2.50
  -4  -1  18   25.20    3.10
  -3  -1  18   92.79    5.20
  -2  -1  18    3.00    1.80
  -1  -1  18    2.40    1.50
   0  -1  18  142.99    6.20
   1  -1  18   -1.70    1.10
   2  -1  18    6.50    1.90
   3  -1  18    0.30    1.30
   4  -1  18   84.29    4.60
  -6   1 -18    6.80    1.80
  -7   1 -18    1.50    1.60
  -8   1 -18  226.48    7.80
  -9   1 -18   46.00    3.30
 -10   1 -18   26.00    2.90
 -11   1 -18    2.10    1.60
 -12   1 -18   28.60    3.00
 -13   1 -18   26.30    2.80
 -14   1 -18    3.00    1.60
 -15   1 -18   -0.20    1.40
  -5   0  18   12.90    2.50
  -4   0  18    9.60    2.40
  -3   0  18   18.60    2.70
  -2   0  18    8.50    2.10
  -1   0  18    5.40    1.70
   0   0  18    3.30    1.70
   1   0  18   25.50    2.90
   2   0  18   28.90    3.00
   3   0  18   20.60    2.60
   4   0  18   20.50    2.60
   5   0  18   38.40    3.40
  -6   0 -18   81.49    4.30
  -7   0 -18    1.80    1.50
  -8   0 -18    0.40    1.30
  -9   0 -18  413.76   11.80
 -10   0 -18  226.38    7.60
 -11   0 -18    0.60    1.50
 -12   0 -18   -0.70    1.20
 -13   0 -18    1.10    1.40
 -14   0 -18    6.10    1.90
 -15   0 -18   -2.20    1.10
  -5   1  18    3.20    2.00
  -4   1  18    4.20    1.90
  -3   1  18   24.00    3.00
  -2   1  18   49.90    3.70
  -1   1  18   10.80    2.10
   0   1  18   22.00    2.70
   1   1  18   61.09    3.80
   2   1  18   20.60    2.60
   3   1  18   13.30    2.20
   4   1  18    0.50    1.30
   5   1  18   49.40    3.50
  -6  -1 -18   29.50    2.80
  -7  -1 -18   -0.40    1.30
  -8  -1 -18   37.90    3.30
  -9  -1 -18    0.70    1.40
 -10  -1 -18   78.39    4.00
 -11  -1 -18    1.20    1.30
 -12  -1 -18   63.99    3.80
 -13  -1 -18   -0.10    1.30
 -14  -1 -18   16.20    2.30
 -15  -1 -18    0.80    1.50
 -16  -1 -18    6.90    1.70
  -5   2  18   15.20    2.70
  -4   2  18   16.50    2.70
  -3   2  18    4.80    1.90
  -2   2  18    4.40    1.70
  -1   2  18   -0.50    1.30
   0   2  18   33.70    3.20
   1   2  18   62.59    3.90
   2   2  18   10.50    2.10
   3   2  18    4.40    1.50
   4   2  18  303.27    9.30
   5   2  18   15.70    2.20
  -7  -2 -18   -0.10    1.10
  -8  -2 -18   41.20    3.00
  -9  -2 -18    2.10    1.30
 -10  -2 -18   12.80    2.00
 -11  -2 -18   -0.60    1.30
 -12  -2 -18  174.98    6.30
 -13  -2 -18  156.38    5.90
 -14  -2 -18   22.00    2.50
 -15  -2 -18    3.00    1.50
 -16  -2 -18   -0.10    1.20
  -4   3  18   52.19    4.40
  -3   3  18   52.79    4.00
  -2   3  18    4.50    1.70
  -1   3  18   -0.70    1.20
   0   3  18   14.20    2.30
   1   3  18    1.30    1.30
   2   3  18    1.80    1.30
   3   3  18    1.20    1.30
   4   3  18  116.09    5.10
   5   3  18  381.26   10.80
   6   3  18    6.10    1.60
  -7  -3 -18   24.80    2.60
  -8  -3 -18   10.40    1.80
  -9  -3 -18   23.50    2.50
 -10  -3 -18   16.80    2.00
 -11  -3 -18    1.60    1.30
 -12  -3 -18   66.49    3.70
 -13  -3 -18  459.55   12.40
 -14  -3 -18  154.08    5.70
 -15  -3 -18    0.90    1.40
 -16  -3 -18    2.20    1.50
 -17  -3 -18   39.00    3.20
  -4   4  18    2.10    1.80
  -3   4  18   13.50    2.40
  -2   4  18   24.50    2.90
  -1   4  18    1.80    1.50
   0   4  18   16.10    2.40
   1   4  18    1.20    1.40
   2   4  18    0.10    1.30
   3   4  18    0.30    1.10
   4   4  18    8.00    1.70
  -5  -4 -18   30.20    2.50
   5   4  18   33.00    2.80
   6   4  18   48.80    3.20
  -7  -4 -18    5.10    1.40
  -8  -4 -18    0.10    1.10
  -9  -4 -18  145.79    5.50
 -10  -4 -18    3.20    1.40
 -11  -4 -18   40.80    2.80
 -12  -4 -18   28.30    2.50
 -13  -4 -18   51.79    3.20
 -14  -4 -18  190.88    6.50
 -15  -4 -18   12.60    2.20
 -17  -4 -18    5.30    2.20
  -4   5  18  106.69    5.60
  -3   5  18    1.10    1.60
  -2   5  18    6.10    1.90
  -1   5  18   69.59    4.30
   0   5  18   25.40    2.70
   1   5  18   10.40    2.00
  -2  -5 -18    3.50    1.50
   2   5  18    2.40    1.30
  -3  -5 -18    1.50    1.10
   3   5  18    0.10    1.00
  -4  -5 -18   -0.10    0.90
   4   5  18    0.90    1.20
  -5  -5 -18   11.10    1.80
   5   5  18   11.70    1.90
   6   5  18    7.60    1.60
  -8  -5 -18   51.89    3.00
  -9  -5 -18   33.10    2.80
 -10  -5 -18    2.30    1.30
 -11  -5 -18    4.80    1.50
 -15  -5 -18    7.40    1.90
 -16  -5 -18   10.30    2.30
 -17  -5 -18   64.19    4.30
  -3   6  18   29.50    3.30
  -2   6  18    0.10    1.20
  -1   6  18    1.10    1.40
   0  -6 -18   48.70    3.00
   0   6  18   59.09    3.80
  -1  -6 -18   58.59    3.30
   1   6  18   59.99    3.70
  -2  -6 -18   14.90    2.00
   2   6  18   14.00    2.10
  -3  -6 -18   19.50    2.20
   3   6  18   16.40    2.20
  -4  -6 -18   15.80    2.00
   4   6  18   21.20    2.40
  -5  -6 -18    8.90    1.70
   5   6  18    4.40    1.40
  -6  -6 -18    4.50    1.20
   6   6  18    3.50    1.60
  -7  -6 -18   13.80    1.80
  -8  -6 -18   48.30    2.90
  -9  -6 -18  148.79    5.50
 -10  -6 -18   95.99    4.30
 -11  -6 -18    6.30    1.60
 -12  -6 -18   27.90    2.80
 -13  -6 -18   65.89    3.80
 -14  -6 -18    1.90    1.40
 -15  -6 -18   -0.50    1.30
 -16  -6 -18   11.60    2.20
 -17  -6 -18  134.79    6.10
  -3   7  18   19.80    2.80
   2  -7 -18    0.50    1.20
  -2   7  18   -0.50    1.40
   1  -7 -18    0.50    1.20
  -1   7  18   -0.10    1.30
   0  -7 -18    5.40    1.60
   0   7  18    3.80    1.90
  -1  -7 -18   17.20    2.20
  -2  -7 -18   74.59    3.80
  -3  -7 -18    3.90    1.40
  -4  -7 -18    0.80    1.20
  -5  -7 -18    0.70    1.10
  -7  -7 -18    4.80    1.30
  -8  -7 -18   22.40    2.30
  -9  -7 -18   68.69    3.50
 -10  -7 -18   71.69    3.70
 -11  -7 -18    2.50    1.30
 -12  -7 -18    0.70    1.20
 -13  -7 -18   96.49    4.60
 -14  -7 -18   48.40    3.40
 -15  -7 -18    4.90    1.90
 -16  -7 -18   22.00    2.70
 -17  -7 -18   43.40    3.80
 -18  -7 -18   48.90    4.20
   2  -8 -18    0.40    1.40
   1  -8 -18    0.40    1.40
   0  -8 -18   20.60    2.50
  -1  -8 -18    1.20    1.30
  -2  -8 -18   31.80    2.90
  -3  -8 -18   76.89    4.00
  -4  -8 -18   82.89    4.10
  -5  -8 -18    2.50    1.40
  -6  -8 -18    1.10    1.10
  -7  -8 -18   22.90    2.20
  -8  -8 -18    4.80    1.40
  -9  -8 -18   60.79    3.40
 -10  -8 -18   90.19    4.10
 -11  -8 -18    1.30    1.30
 -12  -8 -18  134.99    5.40
 -13  -8 -18   31.50    3.00
 -14  -8 -18    9.60    1.90
 -15  -8 -18    3.60    1.70
 -16  -8 -18    5.40    1.80
 -17  -8 -18   32.50    3.50
 -18  -8 -18    1.50    1.90
   1  -9 -18    0.20    1.40
   0  -9 -18    6.30    1.80
  -1  -9 -18   12.80    2.10
  -2  -9 -18    3.80    1.50
  -3  -9 -18    6.20    1.70
  -4  -9 -18  124.79    5.20
  -5  -9 -18  111.49    4.90
  -6  -9 -18    0.10    1.20
  -8  -9 -18   33.60    2.40
  -9  -9 -18  112.39    4.50
 -10  -9 -18   16.20    2.00
 -11  -9 -18    3.30    1.40
 -12  -9 -18   31.10    2.80
 -13  -9 -18  145.59    5.80
 -14  -9 -18   30.40    3.00
 -15  -9 -18    4.50    1.70
 -16  -9 -18   19.40    2.70
 -17  -9 -18   38.20    3.50
   0 -10 -18    1.70    1.60
  -1 -10 -18    9.60    1.90
  -2 -10 -18    3.60    1.60
  -3 -10 -18    0.80    1.30
  -4 -10 -18    0.50    1.20
  -5 -10 -18   67.59    4.00
  -6 -10 -18   32.60    3.00
  -7 -10 -18    6.60    1.70
  -8 -10 -18    5.20    1.50
  -9 -10 -18   24.60    2.30
 -10 -10 -18   -0.10    1.10
 -11 -10 -18    2.00    1.20
 -12 -10 -18    4.90    1.60
 -13 -10 -18    9.00    1.80
 -14 -10 -18   28.40    3.00
 -15 -10 -18   43.10    3.30
 -16 -10 -18    4.20    1.70
 -17 -10 -18   11.60    2.20
   0 -11 -18   57.09    3.80
  -1 -11 -18   -1.10    1.40
  -2 -11 -18    1.90    1.50
  -3 -11 -18   37.10    3.30
  -4 -11 -18    7.40    2.00
  -5 -11 -18    8.50    2.00
  -6 -11 -18   28.20    2.90
  -7 -11 -18   23.50    2.70
  -9 -11 -18   12.90    1.70
 -10 -11 -18   21.00    2.30
 -11 -11 -18    7.90    1.60
 -12 -11 -18   -0.90    1.10
 -13 -11 -18   19.20    2.50
 -14 -11 -18   14.50    2.20
 -15 -11 -18   12.30    2.20
 -16 -11 -18    4.90    1.70
 -17 -11 -18   15.20    2.40
  -1 -12 -18   70.39    4.40
  -2 -12 -18    0.60    1.40
  -3 -12 -18    8.40    2.00
  -4 -12 -18   38.50    3.40
  -5 -12 -18   20.20    2.70
  -6 -12 -18    2.40    1.50
  -7 -12 -18    5.30    1.70
  -8 -12 -18    8.00    1.90
 -10 -12 -18    9.90    1.70
 -11 -12 -18    1.00    1.10
 -12 -12 -18   54.49    3.40
 -13 -12 -18   38.10    2.90
 -14 -12 -18   50.19    3.40
 -15 -12 -18    4.90    1.70
 -16 -12 -18    4.90    1.80
 -17 -12 -18   10.20    2.30
  -3 -13 -18    1.20    1.50
  -4 -13 -18   33.20    3.20
  -5 -13 -18   96.59    5.00
  -6 -13 -18   40.20    3.50
  -7 -13 -18    5.70    1.80
  -8 -13 -18    0.30    1.40
 -10 -13 -18    5.70    1.50
 -11 -13 -18   12.70    1.90
 -12 -13 -18   32.20    2.90
 -13 -13 -18   25.70    2.70
 -14 -13 -18    3.10    1.50
 -15 -13 -18    3.40    1.70
 -16 -13 -18   16.00    2.50
  -4 -14 -18    9.20    2.10
  -5 -14 -18   22.20    2.80
  -6 -14 -18   51.49    3.70
  -7 -14 -18    0.10    1.60
  -8 -14 -18   16.60    2.50
  -9 -14 -18    1.40    1.60
 -11 -14 -18    7.20    1.60
 -12 -14 -18    4.00    1.50
 -13 -14 -18   35.80    3.10
 -14 -14 -18    3.70    1.50
 -15 -14 -18    0.00    1.40
  -6 -15 -18    2.50    1.60
  -7 -15 -18   11.70    2.30
  -8 -15 -18   43.70    3.90
  -9 -15 -18   31.00    3.30
 -11 -15 -18    5.30    1.70
 -12 -15 -18    0.60    1.40
 -13 -15 -18    2.40    1.50
 -14 -15 -18    0.70    1.30
 -10 -16 -18   -1.70    1.60
   1  -7  19   73.59    4.90
  -2   7 -19   43.10    4.00
  -3   7 -19   -1.10    1.60
  -4   7 -19   14.30    2.70
  -5   7 -19   32.90    3.50
  -1  -6  19    0.00    1.70
   0  -6  19    6.70    2.10
   1  -6  19    0.70    1.70
  -3   6 -19    0.00    1.50
  -4   6 -19   20.90    2.90
  -5   6 -19    2.10    1.70
  -6   6 -19   25.00    3.20
  -7   6 -19   19.70    2.90
  -8   6 -19   -1.20    1.70
  -2  -5  19    3.60    2.00
  -1  -5  19    8.50    2.30
   0  -5  19    8.90    2.30
   1  -5  19    0.30    1.60
   2  -5  19   25.30    3.20
  -3   5 -19   20.10    2.90
  -4   5 -19   29.90    3.30
  -5   5 -19  157.28    6.80
  -6   5 -19    1.20    1.80
  -7   5 -19    3.70    2.00
  -8   5 -19    6.40    2.10
  -9   5 -19   14.90    2.70
 -10   5 -19   10.60    2.50
  -2  -4  19   60.79    4.40
  -1  -4  19   -0.50    1.40
   0  -4  19   81.89    4.90
   1  -4  19   36.70    3.70
   2  -4  19    3.10    1.80
   3  -4  19   11.10    2.40
  -4   4 -19    0.70    1.40
  -5   4 -19   33.30    3.40
  -6   4 -19   44.90    4.00
  -7   4 -19    7.60    2.10
  -8   4 -19    1.50    1.80
  -9   4 -19   27.90    3.20
 -10   4 -19   40.30    3.70
 -11   4 -19    4.20    1.90
  -3  -3  19    5.00    2.10
  -2  -3  19   17.90    2.80
  -1  -3  19   -1.40    1.40
   0  -3  19   64.09    4.30
   1  -3  19   29.60    3.40
   2  -3  19   68.79    4.40
   3  -3  19    4.40    2.00
  -5   3 -19   17.30    2.70
  -6   3 -19    7.90    2.10
  -7   3 -19    5.00    1.90
  -8   3 -19    0.20    1.60
  -9   3 -19   49.80    3.70
 -10   3 -19  119.89    5.60
 -11   3 -19   14.90    2.60
 -12   3 -19   -0.20    1.40
  -3  -2  19    1.60    1.80
  -2  -2  19    4.20    1.90
  -1  -2  19   -1.30    1.40
   0  -2  19  137.19    6.20
   1  -2  19  123.69    5.90
   2  -2  19    0.10    1.50
   3  -2  19   13.00    2.30
   4  -2  19   42.40    3.80
  -5   2 -19    4.30    1.70
  -6   2 -19   10.90    2.20
  -7   2 -19    0.50    1.50
  -8   2 -19   22.80    2.90
  -9   2 -19   40.70    3.60
 -10   2 -19   20.30    2.60
 -11   2 -19   17.40    2.60
 -12   2 -19   53.09    3.80
 -13   2 -19   19.70    2.70
  -3  -1  19   34.40    3.70
  -2  -1  19   51.79    4.40
  -1  -1  19   15.50    2.60
   0  -1  19   12.10    2.40
   1  -1  19  104.79    5.30
   2  -1  19   74.69    4.40
   3  -1  19   24.00    2.90
   4  -1  19   34.10    3.40
  -6   1 -19   38.70    3.50
  -7   1 -19   26.20    3.00
  -8   1 -19    4.00    1.70
  -9   1 -19    5.30    1.90
 -10   1 -19   17.70    2.50
 -11   1 -19    1.00    1.50
 -12   1 -19    0.70    1.50
 -13   1 -19   58.09    4.00
 -14   1 -19   30.20    3.10
  -3   0  19   54.89    4.20
  -2   0  19   15.20    2.60
  -1   0  19    1.00    1.50
   0   0  19    1.10    1.50
   1   0  19   -0.20    1.30
   2   0  19   16.30    2.60
   3   0  19    6.10    1.90
   4   0  19    3.10    1.70
   5   0  19  109.19    5.20
  -6   0 -19  239.98    8.20
  -7   0 -19    6.40    1.80
  -8   0 -19    0.60    1.40
  -9   0 -19   33.80    3.20
 -10   0 -19    3.90    1.70
 -11   0 -19    2.90    1.70
 -12   0 -19    2.90    1.70
 -13   0 -19   35.50    3.30
 -14   0 -19   51.19    3.60
  -3   1  19   63.79    4.40
  -2   1  19    7.60    2.00
  -1   1  19    0.10    1.30
   0   1  19   87.39    4.90
   1   1  19   10.50    2.20
   2   1  19   11.80    2.10
   3   1  19    9.90    2.00
   4   1  19   68.99    4.00
   5   1  19   10.00    2.00
  -6  -1 -19    9.10    1.90
  -7  -1 -19    2.00    1.40
  -8  -1 -19   60.49    3.90
  -9  -1 -19    2.10    1.40
 -10  -1 -19   85.39    4.40
 -11  -1 -19    4.00    1.60
 -12  -1 -19    7.40    1.80
 -13  -1 -19   20.80    2.50
 -14  -1 -19    6.80    1.80
 -15  -1 -19   -1.60    1.40
  -3   2  19   77.99    4.90
  -2   2  19   -1.10    1.30
  -1   2  19   19.80    2.70
   0   2  19   28.20    3.10
   1   2  19   85.39    4.60
   2   2  19   47.80    3.90
   3   2  19   18.10    2.50
   4   2  19    7.80    1.90
   5   2  19    3.00    1.50
  -7  -2 -19    0.50    1.40
  -8  -2 -19   42.50    3.20
  -9  -2 -19  207.98    7.20
 -10  -2 -19   21.40    2.60
 -11  -2 -19    3.30    1.60
 -12  -2 -19   -0.60    1.20
 -13  -2 -19    1.80    1.40
 -14  -2 -19    6.30    1.80
 -15  -2 -19    4.80    1.60
  -3   3  19   -0.60    1.60
  -2   3  19    5.80    1.80
  -1   3  19    8.00    2.10
   0   3  19    4.10    1.70
   1   3  19   75.99    4.30
   2   3  19  100.19    5.00
   3   3  19    2.30    1.50
   4   3  19    0.00    1.20
   5   3  19   19.40    2.40
   6   3  19    0.00    1.30
  -7  -3 -19    3.00    1.40
  -8  -3 -19    0.10    1.10
  -9  -3 -19  113.29    4.90
 -10  -3 -19  417.66   11.60
 -11  -3 -19   48.40    3.20
 -12  -3 -19   11.90    2.00
 -13  -3 -19   56.39    3.50
 -14  -3 -19   32.80    3.00
 -15  -3 -19    7.40    1.70
 -16  -3 -19    4.50    1.70
  -2   4  19    5.80    1.90
  -1   4  19   -0.70    1.40
   0   4  19   23.70    2.90
   1   4  19   29.20    3.10
   2   4  19   44.70    3.40
   3   4  19   14.70    2.30
   4   4  19   58.39    3.60
   5   4  19    8.10    1.80
   6   4  19    4.60    1.60
  -7  -4 -19    0.20    1.20
  -8  -4 -19    0.30    1.10
  -9  -4 -19   24.70    2.60
 -10  -4 -19   11.20    1.90
 -11  -4 -19   35.60    2.70
 -12  -4 -19    1.70    1.40
 -13  -4 -19   12.80    2.00
  -2   5  19    5.00    1.80
  -1   5  19   10.20    2.20
   0   5  19   -0.70    1.20
   1   5  19   79.89    4.40
   2   5  19    4.10    1.60
   3   5  19    0.20    1.30
   4   5  19   57.09    3.60
   5   5  19   32.50    3.00
   6   5  19  100.59    4.60
  -8  -5 -19    4.40    1.40
  -9  -5 -19   49.90    3.30
 -15  -5 -19   12.10    2.30
 -16  -5 -19    2.00    1.60
  -2   6  19   60.59    4.30
  -1   6  19   -2.50    1.00
   0   6  19    2.60    1.60
   1   6  19   52.99    3.50
   2   6  19    1.10    1.40
  -3  -6 -19    1.30    1.30
   3   6  19    0.40    1.30
  -4  -6 -19    2.60    1.30
  -5  -6 -19  101.59    4.40
  -6  -6 -19   65.49    3.60
  -7  -6 -19    6.10    1.50
  -8  -6 -19    2.40    1.20
  -9  -6 -19  250.07    7.90
 -10  -6 -19   25.30    2.60
 -11  -6 -19    1.90    1.30
 -12  -6 -19    7.20    1.80
 -13  -6 -19  102.69    4.90
 -14  -6 -19   54.69    3.70
 -15  -6 -19   12.50    2.30
 -16  -6 -19    3.50    1.70
 -17  -6 -19  102.99    5.30
  -1  -7 -19   47.70    3.10
  -2  -7 -19   27.60    2.70
  -3  -7 -19   -0.50    1.20
  -4  -7 -19    1.80    1.30
  -5  -7 -19   22.60    2.50
  -6  -7 -19    3.80    1.50
  -8  -7 -19   35.10    2.70
  -9  -7 -19    1.30    1.10
 -10  -7 -19  206.18    7.00
 -11  -7 -19    3.90    1.40
 -12  -7 -19   12.00    2.10
 -13  -7 -19    3.20    1.50
 -14  -7 -19    5.70    1.80
 -15  -7 -19    6.80    1.90
 -16  -7 -19    8.00    2.00
 -17  -7 -19    0.50    1.50
   0  -8 -19   52.59    3.40
  -1  -8 -19   69.39    3.80
  -2  -8 -19    2.10    1.50
  -3  -8 -19    3.10    1.40
  -4  -8 -19   15.60    2.20
  -5  -8 -19   -0.40    1.20
  -6  -8 -19    7.60    1.70
  -8  -8 -19    9.60    1.60
  -9  -8 -19   54.99    3.20
 -10  -8 -19   13.40    2.00
 -11  -8 -19    5.70    1.60
 -12  -8 -19   -0.80    1.10
 -13  -8 -19   70.49    4.10
 -14  -8 -19   32.00    3.20
 -15  -8 -19    1.00    1.50
 -16  -8 -19   29.10    3.20
 -17  -8 -19   20.20    2.90
   0  -9 -19    7.10    1.70
  -1  -9 -19  113.29    5.00
  -2  -9 -19   78.39    4.20
  -3  -9 -19    0.90    1.30
  -4  -9 -19    5.90    1.70
  -5  -9 -19   50.09    3.30
  -6  -9 -19   14.30    2.10
  -7  -9 -19    6.30    1.70
  -9  -9 -19   28.70    2.60
 -10  -9 -19  111.09    4.70
 -11  -9 -19    1.00    1.30
 -12  -9 -19   18.60    2.40
 -13  -9 -19  121.29    5.40
 -14  -9 -19   64.79    3.90
 -15  -9 -19    0.80    1.60
 -16  -9 -19    0.70    1.60
 -17  -9 -19    0.70    1.60
  -1 -10 -19    3.70    1.70
  -2 -10 -19   58.09    3.70
  -3 -10 -19    6.50    1.80
  -4 -10 -19    3.00    1.50
  -5 -10 -19   32.20    3.00
  -6 -10 -19   43.80    3.20
  -7 -10 -19    0.20    1.30
  -9 -10 -19    1.90    1.20
 -10 -10 -19   -0.50    1.10
 -11 -10 -19    1.90    1.40
 -12 -10 -19    0.60    1.40
 -13 -10 -19   29.90    2.90
 -14 -10 -19  101.49    4.90
 -15 -10 -19   21.50    2.70
 -16 -10 -19   24.90    3.00
  -2 -11 -19    6.90    2.00
  -3 -11 -19    3.50    1.60
  -4 -11 -19    5.30    1.80
  -5 -11 -19   10.10    2.10
  -6 -11 -19    3.50    1.60
  -7 -11 -19   18.00    2.40
  -8 -11 -19  108.09    5.10
 -10 -11 -19   -0.30    1.10
 -11 -11 -19    1.40    1.20
 -12 -11 -19    4.50    1.50
 -13 -11 -19    6.70    1.90
 -14 -11 -19   15.80    2.30
 -15 -11 -19   11.50    2.20
 -16 -11 -19   11.60    2.30
  -3 -12 -19   -1.00    1.30
  -4 -12 -19    7.20    1.90
  -5 -12 -19   28.00    3.10
  -6 -12 -19   18.80    2.60
  -7 -12 -19    4.60    1.90
  -8 -12 -19   36.40    3.30
 -10 -12 -19    8.60    1.90
 -11 -12 -19    6.60    1.60
 -12 -12 -19   -1.20    1.20
 -13 -12 -19    0.60    1.40
 -14 -12 -19    4.80    1.70
 -15 -12 -19    5.30    1.90
  -5 -13 -19   -1.20    1.50
  -6 -13 -19    6.10    1.90
  -7 -13 -19    1.40    1.50
  -8 -13 -19   -0.50    1.30
  -9 -13 -19   61.39    4.00
 -11 -13 -19    3.80    1.40
 -12 -13 -19    1.70    1.30
 -13 -13 -19    2.50    1.50
 -14 -13 -19    3.90    1.50
 -15 -13 -19    1.90    1.50
  -7 -14 -19   -0.90    1.60
  -8 -14 -19   -0.70    1.50
  -9 -14 -19   -0.10    1.50
 -12 -14 -19    3.60    1.60
 -13 -14 -19   -0.60    1.20
   2  -5  20   38.30    3.90
  -3   5 -20   -1.50    1.40
  -4   5 -20   10.10    2.40
  -5   5 -20   36.70    3.80
  -6   5 -20   17.30    2.80
  -7   5 -20    2.00    1.80
   0  -4  20    2.10    1.80
   1  -4  20   25.70    3.20
   2  -4  20    4.50    2.00
  -4   4 -20    7.80    2.30
  -5   4 -20  108.99    5.60
  -6   4 -20  147.19    6.60
  -7   4 -20   32.80    3.60
  -8   4 -20    1.90    1.90
  -9   4 -20   -1.30    1.70
   0  -3  20   25.10    3.20
   1  -3  20    8.70    2.40
   2  -3  20    2.00    1.70
   3  -3  20    0.70    1.80
  -4   3 -20    2.70    1.70
  -5   3 -20   -0.20    1.70
  -6   3 -20   99.99    5.50
  -7   3 -20   79.39    4.90
  -8   3 -20    5.40    2.10
  -9   3 -20   24.00    3.00
 -10   3 -20   -1.20    1.50
  -1  -2  20    5.00    2.00
   0  -2  20   98.19    5.40
   1  -2  20  133.69    6.40
   2  -2  20    4.10    2.10
   3  -2  20    8.60    2.20
  -5   2 -20   12.70    2.40
  -6   2 -20   14.20    2.50
  -7   2 -20   -0.90    1.60
  -8   2 -20   -0.50    1.40
  -9   2 -20   72.39    4.40
 -10   2 -20   34.50    3.50
 -11   2 -20   -0.10    1.40
  -1  -1  20    2.70    1.80
   0  -1  20    1.30    1.70
   1  -1  20   73.69    4.60
   2  -1  20  169.28    7.00
   3  -1  20   10.90    2.40
   4  -1  20    8.00    2.10
  -5   1 -20   43.60    3.80
  -6   1 -20    0.30    1.40
  -7   1 -20   41.60    3.80
  -8   1 -20   14.00    2.40
  -9   1 -20   28.30    3.20
 -10   1 -20  121.99    5.60
 -11   1 -20    6.00    2.00
 -12   1 -20   20.00    2.70
  -1   0  20    6.20    2.00
   0   0  20    3.20    1.70
   1   0  20   -2.20    1.40
   2   0  20   84.09    4.90
   3   0  20   40.00    3.70
   4   0  20    3.50    1.90
  -6   0 -20   33.30    3.20
  -7   0 -20    6.30    2.00
  -8   0 -20    4.20    1.80
  -9   0 -20    0.50    1.40
 -10   0 -20   43.60    3.60
 -11   0 -20   80.99    4.40
 -12   0 -20   -2.70    1.40
 -13   0 -20   -2.30    1.20
  -1   1  20    0.10    1.60
   0   1  20    3.30    1.80
   1   1  20    2.20    1.60
   2   1  20    2.50    1.60
   3   1  20   15.00    2.50
   4   1  20   47.70    4.00
   5   1  20  298.67    9.70
  -6  -1 -20    3.20    1.50
  -7  -1 -20   20.30    2.60
  -8  -1 -20   -0.80    1.20
  -9  -1 -20    0.20    1.30
 -10  -1 -20    5.60    1.70
 -11  -1 -20   -0.60    1.30
 -12  -1 -20    5.00    1.70
 -13  -1 -20   58.19    3.70
 -14  -1 -20    8.40    2.10
  -1   2  20    4.80    1.90
   0   2  20    1.30    1.70
   1   2  20    0.10    1.40
   2   2  20    1.00    1.40
   3   2  20   10.90    2.30
   4   2  20    2.10    1.70
   5   2  20  118.59    5.50
  -7  -2 -20   18.90    2.60
  -8  -2 -20   14.80    2.40
  -9  -2 -20   93.59    4.60
 -10  -2 -20    1.60    1.40
 -11  -2 -20   16.60    2.40
 -12  -2 -20    1.40    1.50
 -13  -2 -20    6.90    1.90
 -14  -2 -20  105.09    5.00
  -1   3  20   10.10    2.30
   0   3  20   29.80    3.20
   1   3  20   23.70    2.90
   2   3  20    9.80    2.10
   3   3  20   -0.90    1.30
   4   3  20   23.10    2.80
   5   3  20    6.80    1.80
   6   3  20  118.59    5.30
  -7  -3 -20  130.09    5.50
  -8  -3 -20    3.20    1.70
  -9  -3 -20   13.60    2.20
 -10  -3 -20   48.00    3.40
 -11  -3 -20    3.10    1.50
 -12  -3 -20    3.80    1.60
 -13  -3 -20    0.80    1.30
 -14  -3 -20    0.00    1.20
 -15  -3 -20   51.99    3.50
  -1   4  20   -0.20    1.60
   0   4  20   72.19    4.60
   1   4  20   35.70    3.40
   2   4  20   11.10    2.10
   3   4  20    8.30    2.10
   4   4  20    2.10    1.60
   5   4  20   -1.40    1.20
   6   4  20    5.10    1.70
  -7  -4 -20    6.30    1.80
  -8  -4 -20    1.60    1.40
  -9  -4 -20   67.59    3.90
 -10  -4 -20    8.70    1.90
 -11  -4 -20   43.90    3.10
   0   5  20   -0.20    1.50
   1   5  20   69.59    4.20
   2   5  20  142.79    6.10
   3   5  20    6.00    1.70
   4   5  20   15.50    2.30
   5   5  20  121.09    5.20
   6   5  20   -0.90    1.20
 -15  -5 -20   38.70    3.80
   0   6  20   25.90    3.00
   1   6  20    5.10    2.30
  -8  -6 -20   -1.20    1.00
  -9  -6 -20    2.00    1.40
 -10  -6 -20  140.79    5.70
 -11  -6 -20   40.40    3.40
 -12  -6 -20    0.00    1.40
 -13  -6 -20   31.10    3.10
 -14  -6 -20  136.19    6.00
 -15  -6 -20   35.60    3.50
  -4  -7 -20   46.70    3.20
  -5  -7 -20   45.70    3.20
  -6  -7 -20   12.80    2.00
  -8  -7 -20    2.50    1.20
  -9  -7 -20    5.90    1.50
 -10  -7 -20   -0.50    1.20
 -11  -7 -20    1.00    1.40
 -12  -7 -20    3.10    1.50
 -13  -7 -20   12.70    2.20
 -14  -7 -20    7.20    2.00
 -15  -7 -20  156.88    6.50
 -16  -7 -20    3.70    1.80
  -2  -8 -20    1.90    1.40
  -3  -8 -20    0.80    1.40
  -4  -8 -20   -1.70    1.20
  -5  -8 -20   45.40    3.30
  -6  -8 -20  108.99    5.00
  -7  -8 -20    2.20    1.30
  -9  -8 -20  102.39    4.50
 -10  -8 -20    1.40    1.30
 -11  -8 -20   -1.30    1.10
 -12  -8 -20    0.60    1.30
 -13  -8 -20   -0.80    1.30
 -14  -8 -20    4.60    1.70
 -15  -8 -20   15.60    2.50
  -2  -9 -20   51.69    3.70
  -3  -9 -20    6.00    1.80
  -4  -9 -20    3.30    1.50
  -5  -9 -20   -2.20    1.10
  -6  -9 -20   87.39    4.40
  -7  -9 -20    7.60    1.80
 -10  -9 -20   35.40    3.00
 -11  -9 -20   21.30    2.40
 -12  -9 -20    4.10    1.60
 -13  -9 -20    6.80    1.80
 -14  -9 -20    5.30    1.80
 -15  -9 -20    7.60    2.00
  -3 -10 -20   14.10    2.30
  -4 -10 -20   24.80    2.80
  -5 -10 -20   -0.80    1.40
  -6 -10 -20   17.30    2.50
  -7 -10 -20    2.70    1.50
  -8 -10 -20    0.40    1.30
 -10 -10 -20   39.50    2.80
 -11 -10 -20   43.80    3.20
 -12 -10 -20    1.50    1.30
 -13 -10 -20    4.30    1.70
 -14 -10 -20   58.09    3.90
 -15 -10 -20    8.90    2.00
  -4 -11 -20   20.40    2.70
  -5 -11 -20   70.09    4.10
  -6 -11 -20   -1.20    1.50
  -7 -11 -20   16.20    2.50
  -8 -11 -20    1.70    1.60
 -11 -11 -20    1.40    1.40
 -12 -11 -20    8.20    1.90
 -13 -11 -20   86.39    4.50
 -14 -11 -20    8.60    2.00
 -15 -11 -20   11.40    2.20
  -6 -12 -20   65.39    4.10
  -7 -12 -20   10.40    2.20
  -8 -12 -20    6.60    1.90
  -9 -12 -20    0.70    1.50
 -11 -12 -20    0.40    1.30
 -12 -12 -20    4.50    1.60
 -13 -12 -20    6.80    1.90
 -14 -12 -20   75.79    4.20
  -8 -13 -20   -0.50    1.40
  -9 -13 -20   -1.80    1.50
 -12 -13 -20    9.30    1.90
   3  -3  21   19.40    3.10
  -4   3 -21    3.60    1.80
  -5   3 -21    4.90    2.10
  -6   3 -21    9.40    2.40
  -7   3 -21    3.90    1.90
   2  -2  21    1.20    1.80
   3  -2  21    0.50    1.70
  -5   2 -21   19.00    2.70
  -6   2 -21   79.99    5.00
  -7   2 -21    7.10    2.20
  -8   2 -21    0.50    1.50
  -9   2 -21    4.10    2.00
   1  -1  21   18.90    2.90
   2  -1  21   12.00    2.40
   3  -1  21   -1.40    1.40
   4  -1  21   -1.40    1.40
  -5   1 -21    1.30    1.70
  -6   1 -21   51.29    4.30
  -7   1 -21   60.49    4.30
  -8   1 -21    1.90    1.90
  -9   1 -21   16.30    2.60
 -10   1 -21   85.19    4.80
   1   0  21   15.30    2.70
   2   0  21    1.30    1.80
   3   0  21   16.60    2.80
   4   0  21   16.80    2.60
  -6   0 -21    6.40    2.10
  -7   0 -21    2.00    1.60
  -8   0 -21    0.70    1.50
  -9   0 -21   19.80    2.70
 -10   0 -21   21.60    2.80
 -11   0 -21   70.49    4.50
   1   1  21  105.29    5.70
   2   1  21   20.60    3.00
   3   1  21    3.70    2.00
   4   1  21    6.10    1.90
   5   1  21   19.60    2.90
  -6  -1 -21   22.00    2.70
  -7  -1 -21    4.20    1.70
  -8  -1 -21    3.50    1.90
  -9  -1 -21    8.60    2.10
 -10  -1 -21   57.59    3.80
 -11  -1 -21    1.80    1.70
 -12  -1 -21    9.10    2.20
   1   2  21   -2.40    1.50
   2   2  21   53.29    4.10
   3   2  21   66.09    4.50
   4   2  21    0.70    1.40
   5   2  21   49.20    3.70
  -7  -2 -21    6.90    2.00
  -8  -2 -21    8.10    2.00
  -9  -2 -21    1.00    1.50
 -10  -2 -21    3.30    1.60
 -11  -2 -21   56.69    3.70
 -12  -2 -21   12.50    2.20
 -13  -2 -21    0.40    1.60
   1   3  21   39.70    3.80
   2   3  21   -0.80    1.50
   3   3  21   42.30    3.90
   4   3  21   22.40    2.90
   5   3  21   -1.10    1.40
  -7  -3 -21   34.90    3.30
  -8  -3 -21    1.70    1.60
  -9  -3 -21   -1.20    1.50
 -10  -3 -21   19.60    2.60
 -11  -3 -21    9.30    2.00
 -12  -3 -21   19.50    2.50
 -13  -3 -21   -2.10    1.10
   1   4  21   11.70    2.30
   2   4  21    0.20    1.60
   3   4  21    8.10    2.00
   4   4  21    2.10    1.70
   5   4  21   28.50    3.10
   6   4  21   15.60    2.50
  -7  -4 -21   70.19    4.10
  -8  -4 -21   10.80    2.10
  -9  -4 -21   65.39    4.00
 -10  -4 -21   44.60    4.00
   2   5  21   58.19    4.10
   3   5  21    3.00    1.70
   4   5  21    1.10    1.60
  -9  -6 -21   18.20    2.30
 -10  -6 -21   35.70    3.20
 -11  -6 -21  235.88    8.10
 -12  -6 -21   39.30    3.40
 -13  -6 -21    5.60    1.80
 -14  -6 -21   78.49    4.60
  -7  -7 -21    2.90    2.10
  -9  -7 -21    0.20    1.30
 -10  -7 -21    0.10    1.20
 -11  -7 -21   15.00    2.20
 -12  -7 -21   36.20    3.30
 -13  -7 -21    1.20    1.50
 -14  -7 -21   -0.50    1.30
  -5  -8 -21  125.89    5.40
  -6  -8 -21   53.79    3.70
  -7  -8 -21    0.90    1.50
 -10  -8 -21    1.20    1.40
 -11  -8 -21   11.80    2.00
 -12  -8 -21    2.30    1.50
 -13  -8 -21   38.70    3.40
 -14  -8 -21  107.79    5.40
  -4  -9 -21   -1.30    1.20
  -5  -9 -21   -0.30    1.30
  -6  -9 -21   35.00    3.20
  -7  -9 -21   85.59    4.50
  -8  -9 -21    2.30    1.60
 -10  -9 -21   67.49    3.80
 -11  -9 -21    0.70    1.20
 -12  -9 -21    2.60    1.60
 -13  -9 -21    1.30    1.60
 -14  -9 -21   91.59    4.80
  -6 -10 -21    1.50    1.60
  -7 -10 -21   61.69    3.90
  -8 -10 -21   28.90    3.10
 -11 -10 -21   50.99    3.50
 -12 -10 -21    0.40    1.50
 -13 -10 -21    0.90    1.40
  -7 -11 -21   -2.10    1.50
  -8 -11 -21   -0.70    1.50
  -9 -11 -21   67.49    4.20
 -12 -11 -21   11.50    2.10
  -6   0 -22   33.20    3.50
  -7   0 -22   16.20    2.70
   4   1  22   15.30    2.80
   5   1  22   -0.10    1.50
  -6  -1 -22  100.59    5.40
  -7  -1 -22   65.29    4.50
  -8  -1 -22    2.20    1.90
  -9  -1 -22    1.10    1.60
   4   2  22   10.80    2.50
   5   2  22   -0.70    1.60
  -6  -2 -22    1.40    1.50
  -7  -2 -22    5.60    1.80
  -8  -2 -22    8.80    2.20
  -9  -2 -22   -0.50    1.50
 -10  -2 -22   79.19    4.70
   4   3  22   24.20    3.00
   5   3  22   19.00    2.80
  -7  -3 -22   -0.70    1.30
  -8  -3 -22    8.50    2.10
  -9  -3 -22    4.10    1.70
 -10  -3 -22    4.60    1.90
 -11  -3 -22   53.39    3.80
   4   4  22   27.80    3.30
   5   4  22   36.20    3.60
   6   4  22  142.69    6.30
  -7  -4 -22   11.20    2.00
  -8  -4 -22   -1.00    2.20
 -10  -6 -22   32.70    3.20
 -11  -6 -22   22.90    2.70
 -12  -6 -22   -0.20    1.50
 -10  -7 -22   30.20    3.00
 -11  -7 -22    3.60    1.70
 -11  -8 -22   78.79    4.40
   0   0   0    0.00    0.00

_computing_structure_solution     'SHELXT 2014/5 (Sheldrick, 2014)'
;
_shelx_hkl_checksum              87426
loop_
_space_group_symop_operation_xyz
'x, y, z'
'-x, -y, -z'
loop_
_atom_site_label
_atom_site_type_symbol
_atom_site_fract_x
_atom_site_fract_y
_atom_site_fract_z
_atom_site_U_iso_or_equiv
_atom_site_adp_type
_atom_site_occupancy
_atom_site_site_symmetry_order
_atom_site_calc_flag
_atom_site_refinement_flags_posn
_atom_site_refinement_flags_adp
_atom_site_refinement_flags_occupancy
_atom_site_disorder_assembly
_atom_site_disorder_group
Cu1 Cu 0.54859(4) 0.55981(4) 0.67603(3) 0.01959(16) Uani 1 1 d . . . . .
Cu2 Cu 0.43854(4) 0.74451(4) 0.39353(3) 0.01858(16) Uani 1 1 d . . . . .
Cu3 Cu 0.69503(4) 0.44423(4) 0.20347(3) 0.01874(16) Uani 1 1 d . . . . .
Cu4 Cu 0.79268(4) 0.25574(4) 0.49093(3) 0.01853(16) Uani 1 1 d . . . . .
N1 N 0.4619(3) 0.6571(3) 0.7317(3) 0.0253(10) Uani 1 1 d . . . . .
N2 N 0.3642(3) 0.7793(3) 0.7310(2) 0.0315(12) Uani 1 1 d . . . . .
H2 H 0.329182 0.822200 0.712349 0.038 Uiso 1 1 calc DR U . . .
N3 N 0.4969(3) 0.6216(3) 0.5940(2) 0.0201(9) Uani 1 1 d . . . . .
N4 N 0.4612(3) 0.6890(3) 0.4910(2) 0.0189(9) Uani 1 1 d . . . . .
N5 N 0.3524(3) 0.8320(3) 0.4644(3) 0.0241(10) Uani 1 1 d . . . . .
N6 N 0.3254(3) 0.8877(3) 0.5686(2) 0.0314(11) Uani 1 1 d . . . . .
H6 H 0.326237 0.888956 0.614439 0.038 Uiso 1 1 calc DR U . . .
N7 N 0.4042(3) 0.7934(3) 0.3004(3) 0.0213(9) Uani 1 1 d . . . . .
N8 N 0.4320(4) 0.7884(2) 0.1785(3) 0.0385(13) Uani 1 1 d . . . . .
H8 H 0.458728 0.767176 0.133710 0.046 Uiso 1 1 calc DR U . . .
N9 N 0.5166(3) 0.6520(3) 0.3256(2) 0.0196(9) Uani 1 1 d . . . . .
N10 N 0.6040(3) 0.5429(3) 0.2592(2) 0.0200(9) Uani 1 1 d . . . . .
N11 N 0.6454(3) 0.5054(3) 0.1198(2) 0.0231(10) Uani 1 1 d . . . . .
N12 N 0.5548(3) 0.6146(2) 0.0802(3) 0.0339(12) Uani 1 1 d . . . . .
H12 H 0.512586 0.662460 0.084064 0.041 Uiso 1 1 calc DR U . . .
N13 N 0.7724(3) 0.3413(3) 0.1520(3) 0.0244(10) Uani 1 1 d . . . . .
N14 N 0.8772(3) 0.2213(3) 0.1551(3) 0.0302(11) Uani 1 1 d . . . . .
H14A H 0.913881 0.180949 0.174400 0.036 Uiso 1 1 calc R U . . .
N15 N 0.7271(3) 0.3732(3) 0.2930(2) 0.0194(9) Uani 1 1 d . . . . .
N16 N 0.7576(3) 0.3044(3) 0.3977(2) 0.0197(9) Uani 1 1 d . . . . .
N17 N 0.8675(3) 0.1617(3) 0.4248(3) 0.0239(10) Uani 1 1 d . . . . .
N18 N 0.9006(3) 0.1101(3) 0.3144(3) 0.0257(10) Uani 1 1 d . . . . .
H18 H 0.900500 0.110056 0.268020 0.031 Uiso 1 1 calc R U . . .
N19 N 0.8199(3) 0.2033(3) 0.5855(2) 0.0217(10) Uani 1 1 d . . . . .
N20 N 0.8073(3) 0.2207(3) 0.7039(3) 0.0343(12) Uani 1 1 d . . . . .
H20 H 0.783810 0.243801 0.747536 0.041 Uiso 1 1 calc R U . . .
N21 N 0.7070(3) 0.3439(3) 0.5617(2) 0.0198(9) Uani 1 1 d . . . . .
N22 N 0.6199(3) 0.4532(3) 0.6286(2) 0.0202(9) Uani 1 1 d . . . . .
N23 N 0.5889(3) 0.4956(3) 0.7627(2) 0.0223(10) Uani 1 1 d . . . . .
N24 N 0.6618(4) 0.3753(3) 0.8093(3) 0.0386(14) Uani 1 1 d . . . . .
H24 H 0.685600 0.321666 0.813019 0.046 Uiso 1 1 calc R U . . .
C1 C 0.4339(4) 0.6849(3) 0.8082(3) 0.0301(13) Uani 1 1 d . . . . .
H1A H 0.484318 0.685393 0.819370 0.036 Uiso 1 1 calc R U . . .
H1B H 0.405935 0.648966 0.848051 0.036 Uiso 1 1 calc R U . . .
C2 C 0.3677(4) 0.7722(4) 0.8051(3) 0.0318(14) Uani 1 1 d . . . . .
H2A H 0.309945 0.777467 0.844673 0.038 Uiso 1 1 calc R U . . .
H2B H 0.389179 0.813514 0.811200 0.038 Uiso 1 1 calc R U . . .
C3 C 0.4194(3) 0.7141(3) 0.6921(3) 0.0190(11) Uani 1 1 d . . . . .
C4 C 0.4394(3) 0.6982(3) 0.6133(3) 0.0178(10) Uani 1 1 d . . . . .
C5 C 0.5073(4) 0.6193(3) 0.5202(3) 0.0225(11) Uani 1 1 d . . . . .
H5 H 0.543844 0.572674 0.491777 0.027 Uiso 1 1 calc R U . . .
C6 C 0.4178(3) 0.7402(3) 0.5500(3) 0.0182(10) Uani 1 1 d . . . . .
C7 C 0.3638(3) 0.8209(3) 0.5296(3) 0.0191(11) Uani 1 1 d . . . . .
C8 C 0.2830(4) 0.9565(4) 0.5268(4) 0.0362(15) Uani 1 1 d . . . . .
H8A H 0.307953 1.000436 0.516185 0.043 Uiso 1 1 calc R U . . .
H8B H 0.219280 0.978432 0.554258 0.043 Uiso 1 1 calc R U . . .
C9 C 0.3027(4) 0.9192(3) 0.4527(4) 0.0328(14) Uani 1 1 d . . . . .
H9A H 0.247902 0.925958 0.444769 0.039 Uiso 1 1 calc R U . . .
H9B H 0.337860 0.945344 0.407756 0.039 Uiso 1 1 calc R U . . .
C10 C 0.3525(4) 0.8748(3) 0.2742(3) 0.0266(12) Uani 1 1 d . . . . .
H10A H 0.372779 0.917764 0.278612 0.032 Uiso 1 1 calc R U . . .
H10B H 0.289577 0.888426 0.304593 0.032 Uiso 1 1 calc R U . . .
C11 C 0.3689(5) 0.8665(4) 0.1897(4) 0.0429(17) Uani 1 1 d . . . . .
H11A H 0.315110 0.869739 0.181995 0.051 Uiso 1 1 calc R U . . .
H11B H 0.391535 0.908787 0.155353 0.051 Uiso 1 1 calc R U . . .
C12 C 0.4475(3) 0.7493(3) 0.2423(3) 0.0184(10) Uani 1 1 d . . . . .
C13 C 0.5076(3) 0.6681(3) 0.2545(3) 0.0181(10) Uani 1 1 d . . . . .
C14 C 0.5753(3) 0.5767(3) 0.3250(3) 0.0226(11) Uani 1 1 d . . . . .
H14 H 0.594637 0.549999 0.367164 0.027 Uiso 1 1 calc R U . . .
C15 C 0.5614(3) 0.6004(3) 0.2137(3) 0.0183(10) Uani 1 1 d . . . . .
C16 C 0.5851(3) 0.5759(3) 0.1372(3) 0.0205(11) Uani 1 1 d . . . . .
C17 C 0.5961(4) 0.5724(4) 0.0136(3) 0.0351(14) Uani 1 1 d . . . . .
H17A H 0.624873 0.604448 -0.030392 0.042 Uiso 1 1 calc R U . . .
H17B H 0.554532 0.557718 0.000444 0.042 Uiso 1 1 calc R U . . .
C18 C 0.6636(4) 0.4960(3) 0.0386(3) 0.0274(12) Uani 1 1 d . . . . .
H18A H 0.656074 0.445441 0.033227 0.033 Uiso 1 1 calc R U . . .
H18B H 0.724017 0.493929 0.007372 0.033 Uiso 1 1 calc R U . . .
C19 C 0.8179(4) 0.3208(4) 0.0714(3) 0.0319(14) Uani 1 1 d . . . . .
H19A H 0.852157 0.356808 0.042235 0.038 Uiso 1 1 calc R U . . .
H19B H 0.775636 0.325881 0.046511 0.038 Uiso 1 1 calc R U . . .
C20 C 0.8785(4) 0.2312(4) 0.0767(3) 0.0323(14) Uani 1 1 d . . . . .
H20A H 0.855041 0.193026 0.067759 0.039 Uiso 1 1 calc R U . . .
H20B H 0.938266 0.222986 0.039818 0.039 Uiso 1 1 calc R U . . .
C21 C 0.8117(3) 0.2828(3) 0.1931(3) 0.0187(10) Uani 1 1 d . . . . .
C22 C 0.7835(3) 0.2956(3) 0.2743(3) 0.0192(11) Uani 1 1 d . . . . .
C23 C 0.7143(3) 0.3757(3) 0.3668(3) 0.0199(11) Uani 1 1 d . . . . .
H23 H 0.678346 0.422946 0.394591 0.024 Uiso 1 1 calc R U . . .
C24 C 0.8009(3) 0.2531(3) 0.3389(3) 0.0169(10) Uani 1 1 d . . . . .
C25 C 0.8561(3) 0.1728(3) 0.3594(3) 0.0186(10) Uani 1 1 d . . . . .
C26 C 0.9499(4) 0.0412(3) 0.3561(3) 0.0297(13) Uani 1 1 d . . . . .
H26A H 1.013347 0.023285 0.327078 0.036 Uiso 1 1 calc R U . . .
H26B H 0.929300 -0.005716 0.366723 0.036 Uiso 1 1 calc R U . . .
C27 C 0.9296(4) 0.0779(3) 0.4306(3) 0.0318(14) Uani 1 1 d . . . . .
H27A H 0.902791 0.045786 0.475853 0.038 Uiso 1 1 calc R U . . .
H27B H 0.983459 0.079167 0.434811 0.038 Uiso 1 1 calc R U . . .
C28 C 0.8881(4) 0.1297(3) 0.6058(3) 0.0261(12) Uani 1 1 d . . . . .
H28A H 0.946814 0.124839 0.568084 0.031 Uiso 1 1 calc R U . . .
H28B H 0.875828 0.079403 0.607834 0.031 Uiso 1 1 calc R U . . .
C29 C 0.8823(4) 0.1442(4) 0.6853(4) 0.0345(15) Uani 1 1 d . . . . .
H29A H 0.871429 0.098665 0.723180 0.041 Uiso 1 1 calc R U . . .
H29B H 0.936520 0.150444 0.683397 0.041 Uiso 1 1 calc R U . . .
C30 C 0.7813(3) 0.2489(3) 0.6427(3) 0.0183(10) Uani 1 1 d . . . . .
C31 C 0.7158(3) 0.3276(3) 0.6332(3) 0.0180(10) Uani 1 1 d . . . . .
C32 C 0.6495(3) 0.4198(3) 0.5622(3) 0.0218(11) Uani 1 1 d . . . . .
H32 H 0.631521 0.447265 0.519541 0.026 Uiso 1 1 calc R U . . .
C33 C 0.6615(3) 0.3946(3) 0.6747(3) 0.0182(10) Uani 1 1 d . . . . .
C34 C 0.6390(3) 0.4205(3) 0.7503(3) 0.0196(11) Uani 1 1 d . . . . .
C35 C 0.6404(4) 0.4306(4) 0.8671(3) 0.0339(14) Uani 1 1 d . . . . .
H35A H 0.693030 0.439507 0.865837 0.041 Uiso 1 1 calc R U . . .
H35B H 0.611849 0.409706 0.919216 0.041 Uiso 1 1 calc R U . . .
C36 C 0.5767(4) 0.5093(3) 0.8409(3) 0.0246(12) Uani 1 1 d . . . . .
H36A H 0.515559 0.517457 0.874690 0.030 Uiso 1 1 calc R U . . .
H36B H 0.591243 0.557681 0.840914 0.030 Uiso 1 1 calc R U . . .
S1 S 0.70677(12) 0.60485(11) 0.68503(10) 0.0417(4) Uani 1 1 d . . . . .
O1 O 0.6620(3) 0.6122(3) 0.6296(3) 0.0456(12) Uani 1 1 d . . . . .
C37 C 0.7461(8) 0.6874(6) 0.6591(7) 0.082(3) Uani 1 1 d . . . . .
H37A H 0.781938 0.686697 0.604845 0.124 Uiso 1 1 calc R U . . .
H37B H 0.781577 0.682463 0.690189 0.124 Uiso 1 1 calc R U . . .
H37C H 0.696544 0.738905 0.667910 0.124 Uiso 1 1 calc R U . . .
C38 C 0.8082(6) 0.5270(6) 0.6569(6) 0.071(3) Uani 1 1 d . . . . .
H38A H 0.799538 0.474062 0.667229 0.107 Uiso 1 1 calc R U . . .
H38B H 0.843974 0.527441 0.685642 0.107 Uiso 1 1 calc R U . . .
H38C H 0.837985 0.535698 0.601998 0.107 Uiso 1 1 calc R U . . .
O2 O 0.5366(4) 0.8086(3) 0.3658(3) 0.0601(15) Uani 1 1 d D . . . .
C39 C 0.5947(7) 0.8678(7) 0.2166(3) 0.090(4) Uani 1 1 d D . . . .
H39A H 0.554867 0.854597 0.200480 0.136 Uiso 1 1 calc R U . A 1
H39B H 0.650375 0.860416 0.174490 0.136 Uiso 1 1 calc R U . A 1
H39C H 0.568571 0.924652 0.230151 0.136 Uiso 1 1 calc R U . A 1
C40 C 0.6684(5) 0.8560(8) 0.3165(8) 0.111(4) Uani 1 1 d D U . . .
H40A H 0.629611 0.912437 0.326430 0.167 Uiso 1 1 calc R U . B 1
H40B H 0.720948 0.855885 0.272568 0.167 Uiso 1 1 calc R U . B 1
H40C H 0.685147 0.828977 0.361669 0.167 Uiso 1 1 calc R U . B 1
S2A S 0.61328(16) 0.80282(16) 0.29617(15) 0.0414(8) Uani 0.676(6) 1 d . . P C 1
S2B S 0.5587(4) 0.8795(3) 0.3172(3) 0.062(2) Uani 0.324(6) 1 d D U P C 2
O3 O 0.8065(2) 0.4965(3) 0.1637(3) 0.0506(13) Uani 1 1 d D . . . .
C41 C 0.9756(6) 0.3764(5) 0.1321(7) 0.100(4) Uani 1 1 d D U . . .
H41A H 0.958690 0.329596 0.161116 0.151 Uiso 1 1 calc R U . D 1
H41B H 1.032151 0.371099 0.134465 0.151 Uiso 1 1 calc R U . D 1
H41C H 0.980404 0.377708 0.078611 0.151 Uiso 1 1 calc R U . D 1
C42 C 0.9453(5) 0.5416(4) 0.1142(6) 0.077(3) Uani 1 1 d D . . . .
H42A H 0.921598 0.565725 0.072223 0.115 Uiso 1 1 calc R U . E 1
H42B H 1.008596 0.513711 0.093035 0.115 Uiso 1 1 calc R U . E 1
H42C H 0.933563 0.584818 0.145466 0.115 Uiso 1 1 calc R U . E 1
S3A S 0.8943(3) 0.4692(3) 0.1725(3) 0.0449(19) Uani 0.350(7) 1 d D U P F 1
S3B S 0.89726(17) 0.47263(17) 0.11118(18) 0.0441(11) Uani 0.650(7) 1 d . . P F
2
O4 O 0.8994(4) 0.3181(3) 0.4539(3) 0.0545(14) Uani 1 1 d . . . . .
C43 C 0.9216(9) 0.3606(9) 0.3866(7) 0.106(4) Uani 1 1 d . U . . .
H43A H 0.870726 0.408903 0.381722 0.127 Uiso 1 1 calc R U . . .
H43B H 0.942299 0.326139 0.343747 0.127 Uiso 1 1 calc R U . . .
C44 C 0.9933(10) 0.3869(12) 0.3857(8) 0.143(7) Uani 1 1 d . . . . .
H44A H 1.050792 0.342700 0.370164 0.171 Uiso 1 1 calc R U . . .
H44B H 0.996145 0.436236 0.350636 0.171 Uiso 1 1 calc R U . . .
C45 C 0.9678(7) 0.4039(8) 0.4637(7) 0.091(3) Uani 1 1 d . . . . .
H45A H 0.933676 0.462581 0.470820 0.109 Uiso 1 1 calc R U . . .
H45B H 1.019786 0.388982 0.479396 0.109 Uiso 1 1 calc R U . . .
C46 C 0.9143(9) 0.3535(9) 0.5078(7) 0.106(4) Uani 1 1 d . U . . .
H46A H 0.944909 0.309731 0.539416 0.127 Uiso 1 1 calc R U . . .
H46B H 0.857887 0.387338 0.542186 0.127 Uiso 1 1 calc R U . . .
O21 O 0.5583(5) 0.9608(5) 0.8057(4) 0.105(3) Uani 1 1 d D . . . .
C47 C 0.4474(8) 0.9548(8) 0.9516(5) 0.103(4) Uani 1 1 d D . . . .
H47A H 0.442710 1.003800 0.971065 0.155 Uiso 1 1 calc R U . G 1
H47B H 0.440449 0.912727 0.993794 0.155 Uiso 1 1 calc R U . G 1
H47C H 0.401514 0.968445 0.929020 0.155 Uiso 1 1 calc R U . G 1
C48 C 0.5510(7) 0.8157(5) 0.8754(6) 0.085(3) Uani 1 1 d D . . . .
H48A H 0.508868 0.821641 0.850784 0.128 Uiso 1 1 calc R U . H 1
H48B H 0.533469 0.790484 0.927485 0.128 Uiso 1 1 calc R U . H 1
H48C H 0.609245 0.780967 0.845858 0.128 Uiso 1 1 calc R U . H 1
S22 S 0.81473(13) 0.90247(12) 0.76017(13) 0.0540(5) Uani 1 1 d . . . . .
O22 O 0.8329(4) 0.9742(3) 0.7129(4) 0.078(2) Uani 1 1 d . . . . .
C49 C 0.7755(8) 0.8602(7) 0.7119(7) 0.088(3) Uani 1 1 d . . . . .
H49A H 0.718294 0.898114 0.709922 0.133 Uiso 1 1 calc R U . . .
H49B H 0.769569 0.808379 0.739084 0.133 Uiso 1 1 calc R U . . .
H49C H 0.816560 0.850252 0.659753 0.133 Uiso 1 1 calc R U . . .
C50 C 0.9178(7) 0.8247(6) 0.7509(8) 0.100(4) Uani 1 1 d . . . . .
H50A H 0.948580 0.812753 0.696999 0.149 Uiso 1 1 calc R U . . .
H50B H 0.909132 0.775221 0.781598 0.149 Uiso 1 1 calc R U . . .
H50C H 0.952506 0.843197 0.768845 0.149 Uiso 1 1 calc R U . . .
S21A S 0.5538(2) 0.9166(2) 0.87923(19) 0.0705(12) Uani 0.759(8) 1 d . . P I 1
S21B S 0.4926(5) 0.9216(5) 0.8562(5) 0.081(4) Uani 0.241(8) 1 d D . P I 2
O23 O 0.9938(2) -0.0490(3) 0.8426(2) 0.0681(17) Uani 1 1 d D . . . .
C51 C 0.9190(4) 0.0737(3) 0.9357(4) 0.148(6) Uani 1 1 d D U . . .
H51A H 0.914033 0.039956 0.984124 0.222 Uiso 1 1 calc R U . J 1
H51B H 0.870947 0.126264 0.943880 0.222 Uiso 1 1 calc R U . J 1
H51C H 0.974989 0.083088 0.916559 0.222 Uiso 1 1 calc R U . J 1
C52 C 0.8245(2) -0.0100(4) 0.9267(4) 0.067(2) Uani 1 1 d D . . . .
H52A H 0.782351 0.003863 0.899971 0.101 Uiso 1 1 calc R U . K 1
H52B H 0.796000 0.017359 0.974616 0.101 Uiso 1 1 calc R U . K 1
H52C H 0.846078 -0.069266 0.938065 0.101 Uiso 1 1 calc R U . K 1
S23A S 0.9136(2) 0.0229(2) 0.8678(2) 0.0503(15) Uani 0.456(6) 1 d D . P L 1
S23B S 0.93380(18) -0.02624(19) 0.91955(17) 0.0444(12) Uani 0.544(6) 1 d D . P
L 2
O24 O 0.42039(19) 0.2075(3) 0.9479(3) 0.086(2) Uani 1 1 d D . . . .
C53 C 0.2691(5) 0.3146(5) 0.9262(5) 0.061(2) Uani 1 1 d . . . . .
H53A H 0.292875 0.357158 0.895901 0.092 Uiso 1 1 calc R U . M 1
H53B H 0.207361 0.339871 0.955887 0.092 Uiso 1 1 calc R U . M 1
H53C H 0.274451 0.277194 0.891896 0.092 Uiso 1 1 calc R U . M 1
C54 C 0.2612(6) 0.2013(5) 1.0420(4) 0.057(2) Uani 1 1 d . . . . .
H54A H 0.254030 0.173739 1.006521 0.085 Uiso 1 1 calc R U . N 1
H54B H 0.203945 0.237666 1.071328 0.085 Uiso 1 1 calc R U . N 1
H54C H 0.287666 0.160376 1.077211 0.085 Uiso 1 1 calc R U . N 1
S24A S 0.32915(18) 0.25855(19) 0.99029(17) 0.0373(10) Uani 0.554(6) 1 d D . P O
1
S24B S 0.3339(3) 0.2120(3) 0.9482(3) 0.0477(14) Uani 0.446(6) 1 d D . P O 2
S25 S 0.07271(12) 0.71098(11) 0.21681(12) 0.0472(4) Uani 1 1 d . . . . .
O25 O 0.1460(3) 0.6699(3) 0.2503(3) 0.0488(12) Uani 1 1 d . . . . .
C55 C 0.1101(5) 0.6663(6) 0.1299(5) 0.059(2) Uani 1 1 d . . . . .
H55A H 0.155702 0.686329 0.092218 0.088 Uiso 1 1 calc R U . . .
H55B H 0.061244 0.680899 0.110779 0.088 Uiso 1 1 calc R U . . .
H55C H 0.134116 0.606719 0.138178 0.088 Uiso 1 1 calc R U . . .
C56 C -0.0073(6) 0.6644(7) 0.2697(6) 0.078(3) Uani 1 1 d . . . . .
H56A H 0.020087 0.604897 0.268861 0.116 Uiso 1 1 calc R U . . .
H56B H -0.053537 0.683140 0.246713 0.116 Uiso 1 1 calc R U . . .
H56C H -0.032702 0.679595 0.322777 0.116 Uiso 1 1 calc R U . . .
S26A S 0.8331(2) 0.02123(16) 0.18959(19) 0.0278(11) Uani 0.535(8) 1 d D . P P 1
C57A C 0.7414(4) 0.0109(6) 0.1764(6) 0.040(3) Uani 0.535(8) 1 d D U P P 1
H57A H 0.721299 0.054510 0.139618 0.060 Uiso 0.535(8) 1 calc R U P P 1
H57B H 0.693795 0.014949 0.225477 0.060 Uiso 0.535(8) 1 calc R U P P 1
H57C H 0.759427 -0.042328 0.156826 0.060 Uiso 0.535(8) 1 calc R U P P 1
C58A C 0.8618(8) -0.0761(2) 0.2428(5) 0.072(6) Uani 0.535(8) 1 d D U P P 1
H58A H 0.869817 -0.119476 0.213392 0.108 Uiso 0.535(8) 1 calc R U P P 1
H58B H 0.814854 -0.075599 0.291894 0.108 Uiso 0.535(8) 1 calc R U P P 1
H58C H 0.916246 -0.086204 0.251875 0.108 Uiso 0.535(8) 1 calc R U P P 1
S26B S 0.7891(3) 0.0083(2) 0.2287(3) 0.0409(14) Uani 0.465(8) 1 d D . P P 2
C57B C 0.8341(11) 0.0072(6) 0.1260(3) 0.096(8) Uiso 0.465(8) 1 d D . P P 2
H57D H 0.789279 0.043215 0.103627 0.143 Uiso 0.465(8) 1 calc R U P P 2
H57E H 0.853325 -0.048673 0.111470 0.143 Uiso 0.465(8) 1 calc R U P P 2
H57F H 0.884103 0.026274 0.107006 0.143 Uiso 0.465(8) 1 calc R U P P 2
C58B C 0.8802(7) -0.0747(3) 0.2470(8) 0.035(4) Uiso 0.465(8) 1 d D . P P 2
H58D H 0.888989 -0.123576 0.224716 0.052 Uiso 0.465(8) 1 calc R U P P 2
H58E H 0.868031 -0.085881 0.302413 0.052 Uiso 0.465(8) 1 calc R U P P 2
H58F H 0.933021 -0.059765 0.223979 0.052 Uiso 0.465(8) 1 calc R U P P 2
O26 O 0.7939(3) 0.0847(2) 0.2471(3) 0.0677(17) Uani 1 1 d D U . . .
C59 C 0.4219(4) 0.1539(5) 0.4688(4) 0.158(8) Uani 1 1 d D . . . .
H59A H 0.458143 0.188293 0.455068 0.237 Uiso 1 1 calc R U . Q 1
H59B H 0.403882 0.140629 0.524287 0.237 Uiso 1 1 calc R U . Q 1
H59C H 0.369879 0.183371 0.453572 0.237 Uiso 1 1 calc R U . Q 1
C60 C 0.4168(4) 0.0771(6) 0.3640(5) 0.175(9) Uani 1 1 d D . . . .
H60A H 0.414950 0.127985 0.331397 0.263 Uiso 1 1 calc R U . R 1
H60B H 0.357365 0.080713 0.397619 0.263 Uiso 1 1 calc R U . R 1
H60C H 0.441380 0.031186 0.331790 0.263 Uiso 1 1 calc R U . R 1
S27A S 0.4834(3) 0.0616(3) 0.4206(3) 0.077(2) Uani 0.468(8) 1 d D . P S 1
S27B S 0.4820(2) 0.1287(3) 0.3717(3) 0.083(2) Uani 0.532(8) 1 d D . P S 2
O27 O 0.5697(2) 0.0674(4) 0.3690(3) 0.086(2) Uani 1 1 d D . . . .
S28A S 0.2355(4) 0.4158(3) 0.6004(6) 0.144(3) Uani 0.676(10) 1 d D U P T 1
C61A C 0.2418(17) 0.3676(15) 0.6926(8) 0.176(11) Uani 0.676(10) 1 d D U P T 1
H61A H 0.297752 0.322628 0.685777 0.264 Uiso 0.676(10) 1 calc R U P T 1
H61B H 0.193682 0.346094 0.718511 0.264 Uiso 0.676(10) 1 calc R U P T 1
H61C H 0.237373 0.407730 0.723576 0.264 Uiso 0.676(10) 1 calc R U P T 1
C62A C 0.3020(11) 0.3246(7) 0.5501(9) 0.122(9) Uani 0.676(10) 1 d D . P T 1
H62A H 0.315637 0.338606 0.494875 0.183 Uiso 0.676(10) 1 calc R U P T 1
H62B H 0.270094 0.286058 0.565876 0.183 Uiso 0.676(10) 1 calc R U P T 1
H62C H 0.356413 0.299420 0.562159 0.183 Uiso 0.676(10) 1 calc R U P T 1
S28B S 0.2806(5) 0.3834(3) 0.6075(4) 0.060(3) Uani 0.324(10) 1 d D U P T 2
C61B C 0.1977(12) 0.3967(10) 0.7007(5) 0.064(3) Uani 0.324(10) 1 d D U P T 2
H61D H 0.141459 0.404161 0.696430 0.096 Uiso 0.324(10) 1 calc R U P T 2
H61E H 0.192975 0.444983 0.721511 0.096 Uiso 0.324(10) 1 calc R U P T 2
H61F H 0.213734 0.348283 0.735012 0.096 Uiso 0.324(10) 1 calc R U P T 2
C62B C 0.2123(12) 0.3782(9) 0.5594(9) 0.056(4) Uani 0.324(10) 1 d D U P T 2
H62D H 0.239287 0.387074 0.504015 0.084 Uiso 0.324(10) 1 calc R U P T 2
H62E H 0.154635 0.420455 0.576729 0.084 Uiso 0.324(10) 1 calc R U P T 2
H62F H 0.205963 0.324250 0.571243 0.084 Uiso 0.324(10) 1 calc R U P T 2
O28 O 0.2953(3) 0.4635(2) 0.5806(3) 0.0441(11) Uani 1 1 d D . . . .
Cl1 Cl 0.15506(14) 0.18348(11) 0.53947(11) 0.0563(5) Uani 1 1 d . . . . .
O5 O 0.0934(5) 0.1489(6) 0.5795(6) 0.130(4) Uani 1 1 d . . . . .
O6 O 0.2210(5) 0.1536(5) 0.5763(5) 0.101(3) Uani 1 1 d . . . . .
O7 O 0.2046(7) 0.1578(6) 0.4667(4) 0.132(4) Uani 1 1 d . . . . .
O8 O 0.1218(6) 0.2689(5) 0.5353(6) 0.129(4) Uani 1 1 d . . . . .
Cl2 Cl 0.17442(12) 0.40817(11) 0.15801(10) 0.0447(4) Uani 1 1 d . . . . .
O9 O 0.0981(5) 0.4602(5) 0.2099(4) 0.102(3) Uani 1 1 d . . . . .
O10 O 0.2459(5) 0.4253(7) 0.1553(4) 0.129(4) Uani 1 1 d . . . . .
O11 O 0.1796(9) 0.3296(5) 0.1840(5) 0.141(4) Uani 1 1 d . . . . .
O12 O 0.1668(4) 0.4247(4) 0.0838(3) 0.0716(18) Uani 1 1 d . . . . .
Cl3 Cl 0.32764(10) 0.77062(9) 0.02143(8) 0.0314(3) Uani 1 1 d . . . . .
O13 O 0.2668(4) 0.7810(4) 0.0964(4) 0.094(3) Uani 1 1 d . . . . .
O14 O 0.3249(8) 0.7083(5) -0.0106(5) 0.130(4) Uani 1 1 d . . . . .
O15 O 0.3101(4) 0.8436(3) -0.0272(3) 0.0544(14) Uani 1 1 d . . . . .
O16 O 0.4099(4) 0.7477(5) 0.0275(4) 0.102(3) Uani 1 1 d . . . . .
Cl4 Cl 0.87928(10) 0.79386(10) 0.09076(9) 0.0365(3) Uani 1 1 d . . . . .
O17 O 0.8016(4) 0.8547(4) 0.0832(4) 0.0727(18) Uani 1 1 d . . . . .
O18 O 0.9382(4) 0.8312(4) 0.0893(4) 0.0681(17) Uani 1 1 d . . . . .
O19 O 0.8569(5) 0.7483(5) 0.1609(4) 0.094(2) Uani 1 1 d . . . . .
O20 O 0.9191(4) 0.7413(4) 0.0303(4) 0.0741(19) Uani 1 1 d . . . . .
loop_
_atom_site_aniso_label
_atom_site_aniso_U_11
_atom_site_aniso_U_22
_atom_site_aniso_U_33
_atom_site_aniso_U_23
_atom_site_aniso_U_13
_atom_site_aniso_U_12
Cu1 0.0255(3) 0.0145(3) 0.0169(3) -0.0047(2) -0.0128(3) 0.0025(3)
Cu2 0.0210(3) 0.0147(3) 0.0152(3) -0.0022(2) -0.0087(3) 0.0020(2)
Cu3 0.0215(3) 0.0166(3) 0.0132(3) -0.0036(2) -0.0077(3) 0.0017(3)
Cu4 0.0213(3) 0.0138(3) 0.0160(3) -0.0026(2) -0.0093(3) 0.0024(2)
N1 0.032(3) 0.020(2) 0.022(2) -0.0077(19) -0.015(2) 0.002(2)
N2 0.037(3) 0.022(2) 0.028(3) -0.013(2) -0.017(2) 0.009(2)
N3 0.025(2) 0.016(2) 0.016(2) -0.0059(17) -0.0097(18) 0.0012(18)
N4 0.017(2) 0.018(2) 0.017(2) -0.0037(17) -0.0052(17) -0.0007(17)
N5 0.027(2) 0.017(2) 0.022(2) 0.0001(18) -0.011(2) 0.0016(19)
N6 0.040(3) 0.019(2) 0.030(3) -0.009(2) -0.017(2) 0.004(2)
N7 0.022(2) 0.015(2) 0.021(2) -0.0005(18) -0.0112(19) 0.0021(18)
N8 0.051(3) 0.029(3) 0.025(3) -0.001(2) -0.023(2) 0.007(2)
N9 0.020(2) 0.017(2) 0.018(2) -0.0025(17) -0.0093(18) 0.0020(17)
N10 0.022(2) 0.018(2) 0.015(2) -0.0013(17) -0.0073(18) -0.0008(18)
N11 0.025(2) 0.026(2) 0.015(2) -0.0055(18) -0.0076(18) -0.002(2)
N12 0.041(3) 0.029(3) 0.024(3) -0.002(2) -0.019(2) 0.004(2)
N13 0.028(2) 0.022(2) 0.017(2) -0.0064(18) -0.0078(19) 0.0002(19)
N14 0.032(3) 0.024(2) 0.020(2) -0.0059(19) -0.008(2) 0.007(2)
N15 0.021(2) 0.017(2) 0.018(2) -0.0026(17) -0.0078(18) -0.0011(18)
N16 0.021(2) 0.017(2) 0.017(2) -0.0033(17) -0.0069(18) -0.0008(18)
N17 0.026(2) 0.016(2) 0.020(2) -0.0021(18) -0.0089(19) 0.0048(19)
N18 0.031(3) 0.017(2) 0.022(2) -0.0066(18) -0.013(2) 0.0064(19)
N19 0.023(2) 0.018(2) 0.020(2) -0.0003(18) -0.0104(19) 0.0003(18)
N20 0.045(3) 0.024(3) 0.025(3) -0.009(2) -0.024(2) 0.013(2)
N21 0.026(2) 0.015(2) 0.016(2) -0.0014(17) -0.0128(18) 0.0002(18)
N22 0.025(2) 0.016(2) 0.018(2) -0.0043(17) -0.0109(18) -0.0002(18)
N23 0.033(3) 0.017(2) 0.017(2) -0.0039(17) -0.0142(19) -0.0013(19)
N24 0.052(3) 0.025(3) 0.022(3) -0.005(2) -0.021(2) 0.014(2)
C1 0.038(3) 0.024(3) 0.023(3) -0.008(2) -0.016(3) 0.003(3)
C2 0.041(3) 0.027(3) 0.026(3) -0.011(2) -0.016(3) 0.000(3)
C3 0.021(3) 0.016(2) 0.021(3) -0.007(2) -0.009(2) -0.002(2)
C4 0.016(2) 0.018(2) 0.018(3) -0.002(2) -0.008(2) -0.001(2)
C5 0.027(3) 0.016(3) 0.020(3) -0.004(2) -0.011(2) 0.002(2)
C6 0.017(2) 0.016(2) 0.020(3) -0.005(2) -0.007(2) -0.001(2)
C7 0.017(2) 0.016(2) 0.020(3) -0.002(2) -0.006(2) -0.001(2)
C8 0.042(4) 0.018(3) 0.039(4) -0.004(3) -0.016(3) 0.003(3)
C9 0.037(3) 0.017(3) 0.035(3) -0.004(2) -0.015(3) 0.006(2)
C10 0.030(3) 0.017(3) 0.028(3) 0.001(2) -0.015(2) 0.002(2)
C11 0.058(4) 0.029(3) 0.032(4) 0.002(3) -0.027(3) 0.005(3)
C12 0.020(3) 0.015(2) 0.020(3) -0.001(2) -0.010(2) -0.004(2)
C13 0.019(2) 0.019(3) 0.015(2) 0.001(2) -0.008(2) -0.003(2)
C14 0.026(3) 0.020(3) 0.018(3) -0.002(2) -0.010(2) 0.001(2)
C15 0.020(3) 0.018(2) 0.016(3) -0.003(2) -0.008(2) -0.002(2)
C16 0.025(3) 0.021(3) 0.018(3) 0.000(2) -0.011(2) -0.008(2)
C17 0.047(4) 0.034(3) 0.019(3) -0.002(2) -0.016(3) -0.004(3)
C18 0.036(3) 0.029(3) 0.013(3) -0.005(2) -0.009(2) -0.004(3)
C19 0.040(3) 0.030(3) 0.017(3) -0.006(2) -0.008(3) -0.002(3)
C20 0.035(3) 0.029(3) 0.021(3) -0.012(2) -0.005(2) 0.002(3)
C21 0.020(3) 0.019(3) 0.015(3) -0.004(2) -0.005(2) -0.004(2)
C22 0.017(2) 0.017(2) 0.020(3) -0.005(2) -0.006(2) -0.001(2)
C23 0.023(3) 0.015(2) 0.018(3) -0.001(2) -0.008(2) -0.001(2)
C24 0.018(2) 0.016(2) 0.016(2) -0.0053(19) -0.007(2) -0.002(2)
C25 0.018(2) 0.016(2) 0.018(3) -0.002(2) -0.006(2) -0.002(2)
C26 0.030(3) 0.016(3) 0.030(3) -0.005(2) -0.011(3) 0.007(2)
C27 0.033(3) 0.022(3) 0.029(3) -0.004(2) -0.015(3) 0.007(2)
C28 0.030(3) 0.017(3) 0.027(3) -0.002(2) -0.016(2) 0.004(2)
C29 0.043(4) 0.022(3) 0.035(3) -0.004(2) -0.029(3) 0.009(3)
C30 0.021(3) 0.013(2) 0.020(3) 0.000(2) -0.010(2) -0.003(2)
C31 0.023(3) 0.015(2) 0.018(3) -0.001(2) -0.013(2) -0.003(2)
C32 0.026(3) 0.016(3) 0.021(3) -0.003(2) -0.015(2) 0.002(2)
C33 0.019(3) 0.017(2) 0.017(3) 0.000(2) -0.009(2) -0.002(2)
C34 0.020(3) 0.021(3) 0.017(3) -0.002(2) -0.007(2) -0.005(2)
C35 0.038(3) 0.037(3) 0.021(3) -0.009(3) -0.017(3) 0.003(3)
C36 0.033(3) 0.028(3) 0.015(3) -0.004(2) -0.014(2) -0.006(2)
S1 0.0523(10) 0.0526(10) 0.0376(9) 0.0039(8) -0.0239(8) -0.0307(9)
O1 0.054(3) 0.062(3) 0.041(3) 0.011(2) -0.029(2) -0.035(3)
C37 0.114(8) 0.072(6) 0.113(8) 0.019(6) -0.073(7) -0.063(6)
C38 0.067(6) 0.067(6) 0.090(7) -0.012(5) -0.039(5) -0.018(5)
O2 0.070(4) 0.092(4) 0.040(3) 0.001(3) -0.011(3) -0.060(3)
C39 0.069(6) 0.132(10) 0.064(6) 0.029(6) -0.022(5) -0.046(7)
C40 0.091(5) 0.160(9) 0.117(8) 0.003(6) -0.039(6) -0.079(6)
S2A 0.0366(14) 0.0415(15) 0.0438(15) -0.0082(11) -0.0047(11) -0.0167(11)
S2B 0.054(3) 0.038(3) 0.075(5) -0.002(3) -0.013(3) -0.005(3)
O3 0.032(3) 0.041(3) 0.071(4) 0.000(2) -0.007(2) -0.016(2)
C41 0.081(6) 0.082(6) 0.145(8) 0.010(6) -0.044(6) -0.038(5)
C42 0.043(5) 0.044(5) 0.135(9) -0.001(5) -0.017(5) -0.021(4)
S3A 0.039(3) 0.050(3) 0.045(4) 0.005(2) -0.017(2) -0.016(2)
S3B 0.0308(14) 0.0473(17) 0.047(2) -0.0076(13) -0.0074(12) -0.0091(12)
O4 0.060(3) 0.063(3) 0.057(3) 0.016(3) -0.026(3) -0.043(3)
C43 0.104(7) 0.132(8) 0.090(7) 0.001(6) -0.017(6) -0.068(6)
C44 0.155(13) 0.235(19) 0.096(10) -0.008(11) -0.001(9) -0.166(14)
C45 0.080(7) 0.112(9) 0.106(9) -0.016(7) -0.025(6) -0.060(7)
C46 0.116(7) 0.141(8) 0.100(7) -0.001(6) -0.037(6) -0.087(6)
O21 0.117(6) 0.094(6) 0.082(5) 0.016(4) -0.013(5) -0.043(5)
C47 0.097(9) 0.110(10) 0.098(9) -0.018(7) -0.007(7) -0.051(8)
C48 0.104(8) 0.092(8) 0.067(6) 0.010(6) -0.033(6) -0.044(7)
S22 0.0509(11) 0.0482(11) 0.0719(14) 0.0014(10) -0.0287(10) -0.0207(9)
O22 0.060(4) 0.038(3) 0.136(6) 0.021(3) -0.044(4) -0.018(3)
C49 0.101(8) 0.079(7) 0.120(9) -0.016(6) -0.061(7) -0.038(6)
C50 0.068(6) 0.054(6) 0.174(13) 0.037(7) -0.061(8) -0.020(5)
S21A 0.076(2) 0.085(2) 0.062(2) 0.0189(16) -0.0324(16) -0.0423(18)
S21B 0.078(8) 0.087(8) 0.066(7) 0.014(6) -0.028(6) -0.022(6)
O23 0.046(3) 0.056(3) 0.077(4) -0.032(3) -0.004(3) 0.006(3)
C51 0.116(8) 0.144(9) 0.197(10) -0.066(8) -0.038(7) -0.045(7)
C52 0.051(5) 0.062(5) 0.091(7) -0.027(5) -0.011(5) -0.023(4)
S23A 0.042(2) 0.044(3) 0.054(3) -0.016(2) -0.0080(19) -0.0052(18)
S23B 0.0368(18) 0.043(2) 0.048(2) -0.0141(16) -0.0139(15) -0.0028(14)
O24 0.052(4) 0.097(5) 0.074(4) 0.032(4) -0.011(3) -0.017(3)
C53 0.049(5) 0.059(5) 0.085(6) 0.020(4) -0.033(4) -0.030(4)
C54 0.062(5) 0.076(6) 0.043(4) 0.003(4) -0.015(4) -0.041(5)
S24A 0.0337(16) 0.0492(19) 0.0324(17) -0.0069(13) -0.0082(12) -0.0186(14)
S24B 0.052(3) 0.046(3) 0.048(3) -0.0013(19) -0.018(2) -0.0185(19)
S25 0.0453(10) 0.0426(10) 0.0567(11) -0.0121(8) -0.0264(9) -0.0045(8)
O25 0.048(3) 0.048(3) 0.062(3) -0.010(2) -0.033(3) -0.012(2)
C55 0.054(5) 0.078(6) 0.050(5) -0.008(4) -0.026(4) -0.017(4)
C56 0.046(5) 0.120(9) 0.067(6) -0.015(6) -0.013(4) -0.030(5)
S26A 0.0242(18) 0.0274(15) 0.0286(19) -0.0100(12) -0.0050(15) -0.0052(12)
C57A 0.034(6) 0.037(6) 0.053(8) -0.006(5) -0.024(6) -0.007(5)
C58A 0.083(12) 0.061(10) 0.089(12) 0.031(8) -0.067(10) -0.024(8)
S26B 0.040(3) 0.041(2) 0.044(3) -0.0138(18) -0.012(2) -0.0127(18)
O26 0.051(3) 0.053(3) 0.110(5) -0.050(3) -0.051(3) 0.018(2)
C59 0.097(10) 0.30(2) 0.127(12) -0.092(14) 0.002(9) -0.111(13)
C60 0.091(10) 0.31(3) 0.145(15) -0.116(16) -0.017(10) -0.056(14)
S27A 0.060(3) 0.117(5) 0.069(4) -0.005(3) -0.025(3) -0.042(3)
S27B 0.047(3) 0.119(5) 0.086(4) -0.012(3) -0.013(2) -0.041(3)
O27 0.054(4) 0.123(6) 0.097(5) -0.033(5) -0.022(4) -0.037(4)
S28A 0.084(4) 0.076(3) 0.282(8) 0.001(4) -0.082(4) -0.024(3)
C61A 0.194(19) 0.139(16) 0.128(16) -0.013(13) 0.037(13) -0.074(14)
C62A 0.24(3) 0.081(12) 0.118(15) 0.026(11) -0.123(17) -0.084(15)
S28B 0.082(6) 0.060(4) 0.061(4) 0.021(3) -0.037(4) -0.048(4)
C61B 0.084(6) 0.061(5) 0.063(5) 0.022(4) -0.034(4) -0.047(4)
C62B 0.078(7) 0.059(6) 0.063(6) 0.018(5) -0.039(5) -0.052(5)
O28 0.041(3) 0.038(3) 0.057(3) -0.008(2) -0.019(2) -0.012(2)
Cl1 0.0618(12) 0.0395(10) 0.0455(10) 0.0042(8) -0.0054(9) -0.0106(9)
O5 0.080(5) 0.154(8) 0.168(9) 0.080(7) -0.064(6) -0.078(6)
O6 0.094(5) 0.102(6) 0.127(7) 0.017(5) -0.062(5) -0.041(5)
O7 0.188(10) 0.104(6) 0.060(5) -0.019(4) -0.005(5) -0.032(6)
O8 0.127(7) 0.053(4) 0.150(8) 0.005(5) -0.021(6) -0.001(4)
Cl2 0.0480(10) 0.0543(10) 0.0355(9) -0.0070(7) -0.0098(7) -0.0236(8)
O9 0.085(5) 0.123(7) 0.075(5) -0.041(5) 0.004(4) -0.024(5)
O10 0.097(6) 0.271(13) 0.066(5) -0.020(6) -0.020(4) -0.115(7)
O11 0.274(13) 0.069(5) 0.104(7) 0.016(5) -0.076(8) -0.080(7)
O12 0.057(4) 0.112(5) 0.044(3) -0.005(3) -0.018(3) -0.026(4)
Cl3 0.0360(8) 0.0295(7) 0.0295(7) 0.0012(6) -0.0188(6) -0.0061(6)
O13 0.075(4) 0.090(5) 0.046(4) 0.020(3) 0.001(3) 0.013(4)
O14 0.300(13) 0.074(5) 0.088(5) 0.022(4) -0.118(7) -0.100(7)
O15 0.070(4) 0.038(3) 0.039(3) 0.009(2) -0.023(3) -0.003(2)
O16 0.067(4) 0.146(7) 0.099(5) 0.068(5) -0.061(4) -0.052(5)
Cl4 0.0354(8) 0.0375(8) 0.0389(9) -0.0064(7) -0.0098(7) -0.0155(7)
O17 0.055(4) 0.065(4) 0.098(5) -0.019(3) -0.041(3) 0.002(3)
O18 0.053(3) 0.092(4) 0.077(4) -0.036(3) -0.007(3) -0.043(3)
O19 0.113(6) 0.093(5) 0.055(4) 0.028(4) -0.013(4) -0.045(5)
O20 0.065(4) 0.077(4) 0.081(4) -0.048(4) 0.005(3) -0.032(3)
loop_
_atom_type_symbol
_atom_type_description
_atom_type_scat_dispersion_real
_atom_type_scat_dispersion_imag
_atom_type_scat_source
C C 0.0033 0.0016 'International Tables Vol C Tables 4.2.6.8 and 6.1.1.4'
H H 0.0000 0.0000 'International Tables Vol C Tables 4.2.6.8 and 6.1.1.4'
Cl Cl 0.1484 0.1585 'International Tables Vol C Tables 4.2.6.8 and 6.1.1.4'
Cu Cu 0.3201 1.2651 'International Tables Vol C Tables 4.2.6.8 and 6.1.1.4'
N N 0.0061 0.0033 'International Tables Vol C Tables 4.2.6.8 and 6.1.1.4'
O O 0.0106 0.0060 'International Tables Vol C Tables 4.2.6.8 and 6.1.1.4'
S S 0.1246 0.1234 'International Tables Vol C Tables 4.2.6.8 and 6.1.1.4'
loop_
_geom_angle_atom_site_label_1
_geom_angle_atom_site_label_2
_geom_angle_atom_site_label_3
_geom_angle
_geom_angle_site_symmetry_1
_geom_angle_site_symmetry_3
_geom_angle_publ_flag
N1 Cu1 N23 97.32(18) . . ?
N1 Cu1 N22 170.1(2) . . ?
N23 Cu1 N22 81.22(17) . . ?
N1 Cu1 N3 81.20(17) . . ?
N23 Cu1 N3 174.19(19) . . ?
N22 Cu1 N3 99.26(17) . . ?
N1 Cu1 O1 94.6(2) . . ?
N23 Cu1 O1 92.29(18) . . ?
N22 Cu1 O1 95.24(19) . . ?
N3 Cu1 O1 93.43(17) . . ?
N7 Cu2 N5 98.58(18) . . ?
N7 Cu2 N4 172.73(18) . . ?
N5 Cu2 N4 81.10(17) . . ?
N7 Cu2 N9 81.35(17) . . ?
N5 Cu2 N9 174.87(19) . . ?
N4 Cu2 N9 98.31(17) . . ?
N7 Cu2 O2 94.59(18) . . ?
N5 Cu2 O2 87.9(2) . . ?
N4 Cu2 O2 92.66(18) . . ?
N9 Cu2 O2 97.2(2) . . ?
N13 Cu3 N11 97.95(18) . . ?
N13 Cu3 N10 172.66(19) . . ?
N11 Cu3 N10 80.97(17) . . ?
N13 Cu3 N15 80.83(17) . . ?
N11 Cu3 N15 169.13(18) . . ?
N10 Cu3 N15 98.85(17) . . ?
N13 Cu3 O3 92.82(19) . . ?
N11 Cu3 O3 95.02(18) . . ?
N10 Cu3 O3 94.51(18) . . ?
N15 Cu3 O3 95.83(17) . . ?
N19 Cu4 N17 98.06(18) . . ?
N19 Cu4 N16 175.27(18) . . ?
N17 Cu4 N16 81.48(17) . . ?
N19 Cu4 N21 81.34(17) . . ?
N17 Cu4 N21 173.35(19) . . ?
N16 Cu4 N21 98.56(17) . . ?
N19 Cu4 O4 91.98(19) . . ?
N17 Cu4 O4 95.5(2) . . ?
N16 Cu4 O4 92.74(18) . . ?
N21 Cu4 O4 91.1(2) . . ?
C3 N1 C1 108.3(4) . . ?
C3 N1 Cu1 115.3(4) . . ?
C1 N1 Cu1 136.3(4) . . ?
C3 N2 C2 112.7(4) . . ?
C3 N2 H2 123.6 . . ?
C2 N2 H2 123.6 . . ?
C5 N3 C4 105.1(4) . . ?
C5 N3 Cu1 141.6(4) . . ?
C4 N3 Cu1 112.4(3) . . ?
C5 N4 C6 105.0(4) . . ?
C5 N4 Cu2 142.6(4) . . ?
C6 N4 Cu2 112.3(3) . . ?
C7 N5 C9 107.9(4) . . ?
C7 N5 Cu2 113.3(3) . . ?
C9 N5 Cu2 133.9(4) . . ?
C7 N6 C8 111.5(4) . . ?
C7 N6 H6 124.2 . . ?
C8 N6 H6 124.2 . . ?
C12 N7 C10 108.1(4) . . ?
C12 N7 Cu2 114.5(3) . . ?
C10 N7 Cu2 136.2(4) . . ?
C12 N8 C11 113.1(5) . . ?
C12 N8 H8 123.4 . . ?
C11 N8 H8 123.4 . . ?
C14 N9 C13 105.3(4) . . ?
C14 N9 Cu2 142.2(4) . . ?
C13 N9 Cu2 112.5(3) . . ?
C14 N10 C15 105.5(4) . . ?
C14 N10 Cu3 141.2(4) . . ?
C15 N10 Cu3 112.9(3) . . ?
C16 N11 C18 107.7(4) . . ?
C16 N11 Cu3 114.6(3) . . ?
C18 N11 Cu3 137.4(4) . . ?
C16 N12 C17 113.8(4) . . ?
C16 N12 H12 123.1 . . ?
C17 N12 H12 123.1 . . ?
C21 N13 C19 107.3(4) . . ?
C21 N13 Cu3 115.5(3) . . ?
C19 N13 Cu3 134.4(4) . . ?
C21 N14 C20 109.0(4) . . ?
C21 N14 H14A 125.5 . . ?
C20 N14 H14A 125.5 . . ?
C23 N15 C22 105.4(4) . . ?
C23 N15 Cu3 141.5(4) . . ?
C22 N15 Cu3 113.1(3) . . ?
C23 N16 C24 104.7(4) . . ?
C23 N16 Cu4 141.7(4) . . ?
C24 N16 Cu4 112.7(3) . . ?
C25 N17 C27 107.7(4) . . ?
C25 N17 Cu4 113.9(3) . . ?
C27 N17 Cu4 138.2(4) . . ?
C25 N18 C26 108.1(4) . . ?
C25 N18 H18 125.9 . . ?
C26 N18 H18 125.9 . . ?
C30 N19 C28 107.3(4) . . ?
C30 N19 Cu4 115.1(3) . . ?
C28 N19 Cu4 136.2(4) . . ?
C30 N20 C29 108.0(4) . . ?
C30 N20 H20 126.0 . . ?
C29 N20 H20 126.0 . . ?
C32 N21 C31 105.1(4) . . ?
C32 N21 Cu4 141.8(4) . . ?
C31 N21 Cu4 112.4(3) . . ?
C32 N22 C33 105.5(4) . . ?
C32 N22 Cu1 141.0(4) . . ?
C33 N22 Cu1 113.1(3) . . ?
C34 N23 C36 107.6(4) . . ?
C34 N23 Cu1 115.0(3) . . ?
C36 N23 Cu1 137.3(3) . . ?
C34 N24 C35 107.9(5) . . ?
C34 N24 H24 126.0 . . ?
C35 N24 H24 126.0 . . ?
N1 C1 C2 104.5(4) . . ?
N1 C1 H1A 110.9 . . ?
C2 C1 H1A 110.9 . . ?
N1 C1 H1B 110.9 . . ?
C2 C1 H1B 110.9 . . ?
H1A C1 H1B 108.9 . . ?
N2 C2 C1 101.2(4) . . ?
N2 C2 H2A 111.5 . . ?
C1 C2 H2A 111.5 . . ?
N2 C2 H2B 111.5 . . ?
C1 C2 H2B 111.5 . . ?
H2A C2 H2B 109.3 . . ?
N1 C3 N2 113.1(5) . . ?
N1 C3 C4 116.5(4) . . ?
N2 C3 C4 130.4(5) . . ?
N3 C4 C6 108.3(4) . . ?
N3 C4 C3 114.1(4) . . ?
C6 C4 C3 137.6(5) . . ?
N4 C5 N3 113.3(4) . . ?
N4 C5 H5 123.4 . . ?
N3 C5 H5 123.4 . . ?
C4 C6 N4 108.3(4) . . ?
C4 C6 C7 137.8(5) . . ?
N4 C6 C7 113.9(4) . . ?
N5 C7 N6 114.1(4) . . ?
N5 C7 C6 117.2(5) . . ?
N6 C7 C6 128.6(5) . . ?
N6 C8 C9 101.6(4) . . ?
N6 C8 H8A 111.4 . . ?
C9 C8 H8A 111.4 . . ?
N6 C8 H8B 111.4 . . ?
C9 C8 H8B 111.4 . . ?
H8A C8 H8B 109.3 . . ?
N5 C9 C8 104.7(5) . . ?
N5 C9 H9A 110.8 . . ?
C8 C9 H9A 110.8 . . ?
N5 C9 H9B 110.8 . . ?
C8 C9 H9B 110.8 . . ?
H9A C9 H9B 108.9 . . ?
N7 C10 C11 104.2(4) . . ?
N7 C10 H10A 110.9 . . ?
C11 C10 H10A 110.9 . . ?
N7 C10 H10B 110.9 . . ?
C11 C10 H10B 110.9 . . ?
H10A C10 H10B 108.9 . . ?
N8 C11 C10 101.3(5) . . ?
N8 C11 H11A 111.5 . . ?
C10 C11 H11A 111.5 . . ?
N8 C11 H11B 111.5 . . ?
C10 C11 H11B 111.5 . . ?
H11A C11 H11B 109.3 . . ?
N7 C12 N8 112.9(4) . . ?
N7 C12 C13 117.0(5) . . ?
N8 C12 C13 130.0(5) . . ?
N9 C13 C15 107.9(4) . . ?
N9 C13 C12 114.2(4) . . ?
C15 C13 C12 137.8(5) . . ?
N10 C14 N9 113.2(5) . . ?
N10 C14 H14 123.4 . . ?
N9 C14 H14 123.4 . . ?
N10 C15 C13 108.1(4) . . ?
N10 C15 C16 114.4(4) . . ?
C13 C15 C16 137.4(5) . . ?
N11 C16 N12 112.8(5) . . ?
N11 C16 C15 116.9(5) . . ?
N12 C16 C15 130.3(5) . . ?
N12 C17 C18 100.7(4) . . ?
N12 C17 H17A 111.6 . . ?
C18 C17 H17A 111.6 . . ?
N12 C17 H17B 111.6 . . ?
C18 C17 H17B 111.6 . . ?
H17A C17 H17B 109.4 . . ?
N11 C18 C17 104.8(4) . . ?
N11 C18 H18A 110.8 . . ?
C17 C18 H18A 110.8 . . ?
N11 C18 H18B 110.8 . . ?
C17 C18 H18B 110.8 . . ?
H18A C18 H18B 108.9 . . ?
N13 C19 C20 103.9(4) . . ?
N13 C19 H19A 111.0 . . ?
C20 C19 H19A 111.0 . . ?
N13 C19 H19B 111.0 . . ?
C20 C19 H19B 111.0 . . ?
H19A C19 H19B 109.0 . . ?
N14 C20 C19 101.6(4) . . ?
N14 C20 H20A 111.5 . . ?
C19 C20 H20A 111.5 . . ?
N14 C20 H20B 111.5 . . ?
C19 C20 H20B 111.5 . . ?
H20A C20 H20B 109.3 . . ?
N13 C21 N14 115.7(5) . . ?
N13 C21 C22 116.3(4) . . ?
N14 C21 C22 127.8(5) . . ?
C24 C22 N15 108.1(4) . . ?
C24 C22 C21 138.1(5) . . ?
N15 C22 C21 113.7(4) . . ?
N15 C23 N16 113.0(4) . . ?
N15 C23 H23 123.5 . . ?
N16 C23 H23 123.5 . . ?
C22 C24 N16 108.7(4) . . ?
C22 C24 C25 137.4(5) . . ?
N16 C24 C25 113.7(4) . . ?
N17 C25 N18 116.6(5) . . ?
N17 C25 C24 117.6(4) . . ?
N18 C25 C24 125.7(5) . . ?
N18 C26 C27 102.7(4) . . ?
N18 C26 H26A 111.2 . . ?
C27 C26 H26A 111.2 . . ?
N18 C26 H26B 111.2 . . ?
C27 C26 H26B 111.2 . . ?
H26A C26 H26B 109.1 . . ?
N17 C27 C26 104.7(4) . . ?
N17 C27 H27A 110.8 . . ?
C26 C27 H27A 110.8 . . ?
N17 C27 H27B 110.8 . . ?
C26 C27 H27B 110.8 . . ?
H27A C27 H27B 108.9 . . ?
N19 C28 C29 104.4(4) . . ?
N19 C28 H28A 110.9 . . ?
C29 C28 H28A 110.9 . . ?
N19 C28 H28B 110.9 . . ?
C29 C28 H28B 110.9 . . ?
H28A C28 H28B 108.9 . . ?
N20 C29 C28 102.9(4) . . ?
N20 C29 H29A 111.2 . . ?
C28 C29 H29A 111.2 . . ?
N20 C29 H29B 111.2 . . ?
C28 C29 H29B 111.2 . . ?
H29A C29 H29B 109.1 . . ?
N19 C30 N20 117.1(5) . . ?
N19 C30 C31 116.8(5) . . ?
N20 C30 C31 126.1(5) . . ?
C33 C31 N21 108.3(4) . . ?
C33 C31 C30 137.8(5) . . ?
N21 C31 C30 113.8(4) . . ?
N22 C32 N21 113.3(5) . . ?
N22 C32 H32 123.3 . . ?
N21 C32 H32 123.3 . . ?
C31 C33 N22 107.8(4) . . ?
C31 C33 C34 138.3(5) . . ?
N22 C33 C34 113.9(4) . . ?
N23 C34 N24 115.8(5) . . ?
N23 C34 C33 116.6(5) . . ?
N24 C34 C33 127.6(5) . . ?
N24 C35 C36 101.4(4) . . ?
N24 C35 H35A 111.5 . . ?
C36 C35 H35A 111.5 . . ?
N24 C35 H35B 111.5 . . ?
C36 C35 H35B 111.5 . . ?
H35A C35 H35B 109.3 . . ?
N23 C36 C35 104.2(4) . . ?
N23 C36 H36A 110.9 . . ?
C35 C36 H36A 110.9 . . ?
N23 C36 H36B 110.9 . . ?
C35 C36 H36B 110.9 . . ?
H36A C36 H36B 108.9 . . ?
O1 S1 C38 107.3(4) . . ?
O1 S1 C37 105.8(4) . . ?
C38 S1 C37 97.3(5) . . ?
S1 O1 Cu1 115.1(3) . . ?
S1 C37 H37A 109.5 . . ?
S1 C37 H37B 109.5 . . ?
H37A C37 H37B 109.5 . . ?
S1 C37 H37C 109.5 . . ?
H37A C37 H37C 109.5 . . ?
H37B C37 H37C 109.5 . . ?
S1 C38 H38A 109.5 . . ?
S1 C38 H38B 109.5 . . ?
H38A C38 H38B 109.5 . . ?
S1 C38 H38C 109.5 . . ?
H38A C38 H38C 109.5 . . ?
H38B C38 H38C 109.5 . . ?
S2A O2 Cu2 126.7(3) . . ?
S2B O2 Cu2 139.7(4) . . ?
S2A C39 H39A 109.5 . . ?
S2A C39 H39B 109.5 . . ?
H39A C39 H39B 109.5 . . ?
S2A C39 H39C 109.5 . . ?
H39A C39 H39C 109.5 . . ?
H39B C39 H39C 109.5 . . ?
S2A C40 H40A 109.5 . . ?
S2A C40 H40B 109.5 . . ?
H40A C40 H40B 109.5 . . ?
S2A C40 H40C 109.5 . . ?
H40A C40 H40C 109.5 . . ?
H40B C40 H40C 109.5 . . ?
O2 S2A C39 116.5(4) . . ?
O2 S2A C40 103.4(5) . . ?
C39 S2A C40 95.5(6) . . ?
O2 S2B C39 113.0(5) . . ?
O2 S2B C40 101.1(5) . . ?
C39 S2B C40 92.8(6) . . ?
S3B O3 Cu3 135.5(3) . . ?
S3A O3 Cu3 135.1(3) . . ?
S3A C41 H41A 109.5 . . ?
S3A C41 H41B 109.5 . . ?
H41A C41 H41B 109.5 . . ?
S3A C41 H41C 109.5 . . ?
H41A C41 H41C 109.5 . . ?
H41B C41 H41C 109.5 . . ?
S3A C42 H42A 109.5 . . ?
S3A C42 H42B 109.5 . . ?
H42A C42 H42B 109.5 . . ?
S3A C42 H42C 109.5 . . ?
H42A C42 H42C 109.5 . . ?
H42B C42 H42C 109.5 . . ?
O3 S3A C41 118.7(5) . . ?
O3 S3A C42 106.1(4) . . ?
C41 S3A C42 99.8(5) . . ?
O3 S3B C42 109.1(4) . . ?
O3 S3B C41 118.8(4) . . ?
C42 S3B C41 100.5(5) . . ?
C43 O4 C46 105.7(8) . . ?
C43 O4 Cu4 124.1(6) . . ?
C46 O4 Cu4 122.8(6) . . ?
O4 C43 C44 106.5(11) . . ?
O4 C43 H43A 110.4 . . ?
C44 C43 H43A 110.4 . . ?
O4 C43 H43B 110.4 . . ?
C44 C43 H43B 110.4 . . ?
H43A C43 H43B 108.6 . . ?
C45 C44 C43 102.7(10) . . ?
C45 C44 H44A 111.2 . . ?
C43 C44 H44A 111.2 . . ?
C45 C44 H44B 111.2 . . ?
C43 C44 H44B 111.2 . . ?
H44A C44 H44B 109.1 . . ?
C44 C45 C46 104.7(9) . . ?
C44 C45 H45A 110.8 . . ?
C46 C45 H45A 110.8 . . ?
C44 C45 H45B 110.8 . . ?
C46 C45 H45B 110.8 . . ?
H45A C45 H45B 108.9 . . ?
O4 C46 C45 107.8(10) . . ?
O4 C46 H46A 110.2 . . ?
C45 C46 H46A 110.2 . . ?
O4 C46 H46B 110.2 . . ?
C45 C46 H46B 110.2 . . ?
H46A C46 H46B 108.5 . . ?
S21A C47 H47A 109.5 . . ?
S21A C47 H47B 109.5 . . ?
H47A C47 H47B 109.5 . . ?
S21A C47 H47C 109.5 . . ?
H47A C47 H47C 109.5 . . ?
H47B C47 H47C 109.5 . . ?
S21A C48 H48A 109.5 . . ?
S21A C48 H48B 109.5 . . ?
H48A C48 H48B 109.5 . . ?
S21A C48 H48C 109.5 . . ?
H48A C48 H48C 109.5 . . ?
H48B C48 H48C 109.5 . . ?
O22 S22 C49 107.7(5) . . ?
O22 S22 C50 106.3(4) . . ?
C49 S22 C50 99.3(6) . . ?
S22 C49 H49A 109.5 . . ?
S22 C49 H49B 109.5 . . ?
H49A C49 H49B 109.5 . . ?
S22 C49 H49C 109.5 . . ?
H49A C49 H49C 109.5 . . ?
H49B C49 H49C 109.5 . . ?
S22 C50 H50A 109.5 . . ?
S22 C50 H50B 109.5 . . ?
H50A C50 H50B 109.5 . . ?
S22 C50 H50C 109.5 . . ?
H50A C50 H50C 109.5 . . ?
H50B C50 H50C 109.5 . . ?
O21 S21A C47 112.8(6) . . ?
O21 S21A C48 108.8(5) . . ?
C47 S21A C48 97.5(5) . . ?
O21 S21B C47 110.8(7) . . ?
O21 S21B C48 107.9(6) . . ?
C47 S21B C48 99.4(7) . . ?
S23A C51 H51A 109.5 . . ?
S23A C51 H51B 109.5 . . ?
H51A C51 H51B 109.5 . . ?
S23A C51 H51C 109.5 . . ?
H51A C51 H51C 109.5 . . ?
H51B C51 H51C 109.5 . . ?
S23A C52 H52A 109.5 . . ?
S23A C52 H52B 109.5 . . ?
H52A C52 H52B 109.5 . . ?
S23A C52 H52C 109.5 . . ?
H52A C52 H52C 109.5 . . ?
H52B C52 H52C 109.5 . . ?
O23 S23A C51 111.28(18) . . ?
O23 S23A C52 109.83(17) . . ?
C51 S23A C52 98.97(14) . . ?
O23 S23B C51 112.00(18) . . ?
O23 S23B C52 110.19(17) . . ?
C51 S23B C52 98.55(14) . . ?
S24A C53 H53A 109.5 . . ?
S24A C53 H53B 109.5 . . ?
H53A C53 H53B 109.5 . . ?
S24A C53 H53C 109.5 . . ?
H53A C53 H53C 109.5 . . ?
H53B C53 H53C 109.5 . . ?
S24A C54 H54A 109.5 . . ?
S24A C54 H54B 109.5 . . ?
H54A C54 H54B 109.5 . . ?
S24A C54 H54C 109.5 . . ?
H54A C54 H54C 109.5 . . ?
H54B C54 H54C 109.5 . . ?
O24 S24A C54 113.5(4) . . ?
O24 S24A C53 111.6(4) . . ?
C54 S24A C53 96.7(4) . . ?
O24 S24B C54 112.5(4) . . ?
O24 S24B C53 111.9(4) . . ?
C54 S24B C53 95.9(5) . . ?
O25 S25 C55 105.3(3) . . ?
O25 S25 C56 105.1(4) . . ?
C55 S25 C56 98.1(5) . . ?
S25 C55 H55A 109.5 . . ?
S25 C55 H55B 109.5 . . ?
H55A C55 H55B 109.5 . . ?
S25 C55 H55C 109.5 . . ?
H55A C55 H55C 109.5 . . ?
H55B C55 H55C 109.5 . . ?
S25 C56 H56A 109.5 . . ?
S25 C56 H56B 109.5 . . ?
H56A C56 H56B 109.5 . . ?
S25 C56 H56C 109.5 . . ?
H56A C56 H56C 109.5 . . ?
H56B C56 H56C 109.5 . . ?
O26 S26A C58A 105.69(17) . . ?
O26 S26A C57A 105.61(17) . . ?
C58A S26A C57A 95.52(14) . . ?
S26A C57A H57A 109.5 . . ?
S26A C57A H57B 109.5 . . ?
H57A C57A H57B 109.5 . . ?
S26A C57A H57C 109.5 . . ?
H57A C57A H57C 109.5 . . ?
H57B C57A H57C 109.5 . . ?
S26A C58A H58A 109.5 . . ?
S26A C58A H58B 109.5 . . ?
H58A C58A H58B 109.5 . . ?
S26A C58A H58C 109.5 . . ?
H58A C58A H58C 109.5 . . ?
H58B C58A H58C 109.5 . . ?
O26 S26B C58B 105.84(17) . . ?
O26 S26B C57B 105.66(18) . . ?
C58B S26B C57B 95.78(14) . . ?
S26B C57B H57D 109.5 . . ?
S26B C57B H57E 109.5 . . ?
H57D C57B H57E 109.5 . . ?
S26B C57B H57F 109.5 . . ?
H57D C57B H57F 109.5 . . ?
H57E C57B H57F 109.5 . . ?
S26B C58B H58D 109.5 . . ?
S26B C58B H58E 109.5 . . ?
H58D C58B H58E 109.5 . . ?
S26B C58B H58F 109.5 . . ?
H58D C58B H58F 109.5 . . ?
H58E C58B H58F 109.5 . . ?
S27A C59 H59A 109.5 . . ?
S27A C59 H59B 109.5 . . ?
H59A C59 H59B 109.5 . . ?
S27A C59 H59C 109.5 . . ?
H59A C59 H59C 109.5 . . ?
H59B C59 H59C 109.5 . . ?
S27A C60 H60A 109.5 . . ?
S27A C60 H60B 109.5 . . ?
H60A C60 H60B 109.5 . . ?
S27A C60 H60C 109.5 . . ?
H60A C60 H60C 109.5 . . ?
H60B C60 H60C 109.5 . . ?
O27 S27A C60 108.68(18) . . ?
O27 S27A C59 108.00(18) . . ?
C60 S27A C59 97.28(14) . . ?
O27 S27B C60 108.51(18) . . ?
O27 S27B C59 107.90(18) . . ?
C60 S27B C59 97.25(14) . . ?
O28 S28A C62A 104.2(7) . . ?
O28 S28A C61A 101.2(10) . . ?
C62A S28A C61A 95.0(11) . . ?
S28A C61A H61A 109.5 . . ?
S28A C61A H61B 109.5 . . ?
H61A C61A H61B 109.5 . . ?
S28A C61A H61C 109.5 . . ?
H61A C61A H61C 109.5 . . ?
H61B C61A H61C 109.5 . . ?
S28A C62A H62A 109.5 . . ?
S28A C62A H62B 109.5 . . ?
H62A C62A H62B 109.5 . . ?
S28A C62A H62C 109.5 . . ?
H62A C62A H62C 109.5 . . ?
H62B C62A H62C 109.5 . . ?
O28 S28B C62B 106.65(18) . . ?
O28 S28B C61B 106.50(18) . . ?
C62B S28B C61B 95.69(14) . . ?
S28B C61B H61D 109.5 . . ?
S28B C61B H61E 109.5 . . ?
H61D C61B H61E 109.5 . . ?
S28B C61B H61F 109.5 . . ?
H61D C61B H61F 109.5 . . ?
H61E C61B H61F 109.5 . . ?
S28B C62B H62D 109.5 . . ?
S28B C62B H62E 109.5 . . ?
H62D C62B H62E 109.5 . . ?
S28B C62B H62F 109.5 . . ?
H62D C62B H62F 109.5 . . ?
H62E C62B H62F 109.5 . . ?
O5 Cl1 O7 115.4(7) . . ?
O5 Cl1 O8 113.3(6) . . ?
O7 Cl1 O8 109.0(6) . . ?
O5 Cl1 O6 107.3(5) . . ?
O7 Cl1 O6 101.1(6) . . ?
O8 Cl1 O6 110.0(6) . . ?
O11 Cl2 O10 112.7(7) . . ?
O11 Cl2 O12 110.1(5) . . ?
O10 Cl2 O12 109.1(4) . . ?
O11 Cl2 O9 107.4(6) . . ?
O10 Cl2 O9 108.1(6) . . ?
O12 Cl2 O9 109.4(5) . . ?
O16 Cl3 O14 108.5(6) . . ?
O16 Cl3 O13 106.9(5) . . ?
O14 Cl3 O13 110.5(6) . . ?
O16 Cl3 O15 111.2(4) . . ?
O14 Cl3 O15 108.2(4) . . ?
O13 Cl3 O15 111.5(3) . . ?
O19 Cl4 O17 107.9(5) . . ?
O19 Cl4 O20 109.2(5) . . ?
O17 Cl4 O20 110.1(4) . . ?
O19 Cl4 O18 110.4(5) . . ?
O17 Cl4 O18 109.7(4) . . ?
O20 Cl4 O18 109.5(3) . . ?
loop_
_geom_bond_atom_site_label_1
_geom_bond_atom_site_label_2
_geom_bond_distance
_geom_bond_site_symmetry_2
_geom_bond_publ_flag
Cu1 N1 1.981(4) . ?
Cu1 N23 1.994(4) . ?
Cu1 N22 1.998(4) . ?
Cu1 N3 2.010(4) . ?
Cu1 O1 2.322(5) . ?
Cu2 N7 1.999(4) . ?
Cu2 N5 2.004(4) . ?
Cu2 N4 2.009(4) . ?
Cu2 N9 2.009(4) . ?
Cu2 O2 2.268(4) . ?
Cu3 N13 1.990(4) . ?
Cu3 N11 2.012(4) . ?
Cu3 N10 2.017(4) . ?
Cu3 N15 2.017(4) . ?
Cu3 O3 2.299(4) . ?
Cu4 N19 1.979(4) . ?
Cu4 N17 2.003(4) . ?
Cu4 N16 2.005(4) . ?
Cu4 N21 2.010(4) . ?
Cu4 O4 2.353(5) . ?
N1 C3 1.291(7) . ?
N1 C1 1.470(7) . ?
N2 C3 1.330(7) . ?
N2 C2 1.406(7) . ?
N2 H2 0.8800 . ?
N3 C5 1.345(7) . ?
N3 C4 1.368(6) . ?
N4 C5 1.332(7) . ?
N4 C6 1.377(6) . ?
N5 C7 1.288(7) . ?
N5 C9 1.473(7) . ?
N6 C7 1.333(7) . ?
N6 C8 1.421(7) . ?
N6 H6 0.8800 . ?
N7 C12 1.290(7) . ?
N7 C10 1.481(6) . ?
N8 C12 1.332(7) . ?
N8 C11 1.399(7) . ?
N8 H8 0.8800 . ?
N9 C14 1.337(7) . ?
N9 C13 1.374(6) . ?
N10 C14 1.330(7) . ?
N10 C15 1.371(6) . ?
N11 C16 1.297(7) . ?
N11 C18 1.480(7) . ?
N12 C16 1.328(7) . ?
N12 C17 1.400(7) . ?
N12 H12 0.8800 . ?
N13 C21 1.296(7) . ?
N13 C19 1.477(7) . ?
N14 C21 1.329(7) . ?
N14 C20 1.451(7) . ?
N14 H14A 0.8800 . ?
N15 C23 1.337(7) . ?
N15 C22 1.375(6) . ?
N16 C23 1.346(6) . ?
N16 C24 1.377(6) . ?
N17 C25 1.293(7) . ?
N17 C27 1.479(7) . ?
N18 C25 1.340(7) . ?
N18 C26 1.472(7) . ?
N18 H18 0.8800 . ?
N19 C30 1.294(7) . ?
N19 C28 1.491(6) . ?
N20 C30 1.335(7) . ?
N20 C29 1.473(7) . ?
N20 H20 0.8800 . ?
N21 C32 1.336(7) . ?
N21 C31 1.380(6) . ?
N22 C32 1.333(7) . ?
N22 C33 1.379(6) . ?
N23 C34 1.296(7) . ?
N23 C36 1.472(6) . ?
N24 C34 1.331(7) . ?
N24 C35 1.470(8) . ?
N24 H24 0.8800 . ?
C1 C2 1.544(8) . ?
C1 H1A 0.9900 . ?
C1 H1B 0.9900 . ?
C2 H2A 0.9900 . ?
C2 H2B 0.9900 . ?
C3 C4 1.461(7) . ?
C4 C6 1.375(7) . ?
C5 H5 0.9500 . ?
C6 C7 1.451(7) . ?
C8 C9 1.540(9) . ?
C8 H8A 0.9900 . ?
C8 H8B 0.9900 . ?
C9 H9A 0.9900 . ?
C9 H9B 0.9900 . ?
C10 C11 1.543(8) . ?
C10 H10A 0.9900 . ?
C10 H10B 0.9900 . ?
C11 H11A 0.9900 . ?
C11 H11B 0.9900 . ?
C12 C13 1.456(7) . ?
C13 C15 1.376(7) . ?
C14 H14 0.9500 . ?
C15 C16 1.459(7) . ?
C17 C18 1.546(8) . ?
C17 H17A 0.9900 . ?
C17 H17B 0.9900 . ?
C18 H18A 0.9900 . ?
C18 H18B 0.9900 . ?
C19 C20 1.544(8) . ?
C19 H19A 0.9900 . ?
C19 H19B 0.9900 . ?
C20 H20A 0.9900 . ?
C20 H20B 0.9900 . ?
C21 C22 1.463(7) . ?
C22 C24 1.370(7) . ?
C23 H23 0.9500 . ?
C24 C25 1.454(7) . ?
C26 C27 1.539(8) . ?
C26 H26A 0.9900 . ?
C26 H26B 0.9900 . ?
C27 H27A 0.9900 . ?
C27 H27B 0.9900 . ?
C28 C29 1.539(8) . ?
C28 H28A 0.9900 . ?
C28 H28B 0.9900 . ?
C29 H29A 0.9900 . ?
C29 H29B 0.9900 . ?
C30 C31 1.457(7) . ?
C31 C33 1.374(7) . ?
C32 H32 0.9500 . ?
C33 C34 1.456(7) . ?
C35 C36 1.541(8) . ?
C35 H35A 0.9900 . ?
C35 H35B 0.9900 . ?
C36 H36A 0.9900 . ?
C36 H36B 0.9900 . ?
S1 O1 1.495(5) . ?
S1 C38 1.748(9) . ?
S1 C37 1.763(8) . ?
C37 H37A 0.9800 . ?
C37 H37B 0.9800 . ?
C37 H37C 0.9800 . ?
C38 H38A 0.9800 . ?
C38 H38B 0.9800 . ?
C38 H38C 0.9800 . ?
O2 S2A 1.470(6) . ?
O2 S2B 1.489(2) . ?
C39 S2A 1.752(9) . ?
C39 S2B 1.796(2) . ?
C39 H39A 0.9800 . ?
C39 H39B 0.9800 . ?
C39 H39C 0.9800 . ?
C40 S2A 1.771(11) . ?
C40 S2B 1.804(2) . ?
C40 H40A 0.9800 . ?
C40 H40B 0.9800 . ?
C40 H40C 0.9800 . ?
O3 S3B 1.470(5) . ?
O3 S3A 1.492(2) . ?
C41 S3A 1.795(2) . ?
C41 S3B 1.814(9) . ?
C41 H41A 0.9800 . ?
C41 H41B 0.9800 . ?
C41 H41C 0.9800 . ?
C42 S3B 1.761(8) . ?
C42 S3A 1.800(2) . ?
C42 H42A 0.9800 . ?
C42 H42B 0.9800 . ?
C42 H42C 0.9800 . ?
O4 C43 1.340(13) . ?
O4 C46 1.454(12) . ?
C43 C44 1.500(16) . ?
C43 H43A 0.9900 . ?
C43 H43B 0.9900 . ?
C44 C45 1.433(16) . ?
C44 H44A 0.9900 . ?
C44 H44B 0.9900 . ?
C45 C46 1.461(14) . ?
C45 H45A 0.9900 . ?
C45 H45B 0.9900 . ?
C46 H46A 0.9900 . ?
C46 H46B 0.9900 . ?
O21 S21A 1.439(8) . ?
O21 S21B 1.498(2) . ?
C47 S21B 1.798(2) . ?
C47 S21A 1.815(11) . ?
C47 H47A 0.9800 . ?
C47 H47B 0.9800 . ?
C47 H47C 0.9800 . ?
C48 S21B 1.799(2) . ?
C48 S21A 1.834(10) . ?
C48 H48A 0.9800 . ?
C48 H48B 0.9800 . ?
C48 H48C 0.9800 . ?
S22 O22 1.469(6) . ?
S22 C49 1.747(9) . ?
S22 C50 1.772(10) . ?
C49 H49A 0.9800 . ?
C49 H49B 0.9800 . ?
C49 H49C 0.9800 . ?
C50 H50A 0.9800 . ?
C50 H50B 0.9800 . ?
C50 H50C 0.9800 . ?
O23 S23B 1.4647(19) . ?
O23 S23A 1.4818(19) . ?
C51 S23A 1.768(2) . ?
C51 S23B 1.771(2) . ?
C51 H51A 0.9800 . ?
C51 H51B 0.9800 . ?
C51 H51C 0.9800 . ?
C52 S23A 1.775(2) . ?
C52 S23B 1.784(2) . ?
C52 H52A 0.9800 . ?
C52 H52B 0.9800 . ?
C52 H52C 0.9800 . ?
O24 S24B 1.490(2) . ?
O24 S24A 1.496(2) . ?
C53 S24B 1.798(9) . ?
C53 S24A 1.798(8) . ?
C53 H53A 0.9800 . ?
C53 H53B 0.9800 . ?
C53 H53C 0.9800 . ?
C54 S24A 1.751(8) . ?
C54 S24B 1.774(9) . ?
C54 H54A 0.9800 . ?
C54 H54B 0.9800 . ?
C54 H54C 0.9800 . ?
S25 O25 1.514(5) . ?
S25 C55 1.760(8) . ?
S25 C56 1.777(10) . ?
C55 H55A 0.9800 . ?
C55 H55B 0.9800 . ?
C55 H55C 0.9800 . ?
C56 H56A 0.9800 . ?
C56 H56B 0.9800 . ?
C56 H56C 0.9800 . ?
S26A O26 1.5095(19) . ?
S26A C58A 1.803(2) . ?
S26A C57A 1.803(2) . ?
C57A H57A 0.9800 . ?
C57A H57B 0.9800 . ?
C57A H57C 0.9800 . ?
C58A H58A 0.9800 . ?
C58A H58B 0.9800 . ?
C58A H58C 0.9800 . ?
S26B O26 1.5122(19) . ?
S26B C58B 1.799(2) . ?
S26B C57B 1.801(2) . ?
C57B H57D 0.9800 . ?
C57B H57E 0.9800 . ?
C57B H57F 0.9800 . ?
C58B H58D 0.9800 . ?
C58B H58E 0.9800 . ?
C58B H58F 0.9800 . ?
C59 S27B 1.789(2) . ?
C59 S27A 1.790(2) . ?
C59 H59A 0.9800 . ?
C59 H59B 0.9800 . ?
C59 H59C 0.9800 . ?
C60 S27A 1.784(2) . ?
C60 S27B 1.785(2) . ?
C60 H60A 0.9800 . ?
C60 H60B 0.9800 . ?
C60 H60C 0.9800 . ?
S27A O27 1.491(2) . ?
S27B O27 1.493(2) . ?
S28A O28 1.493(2) . ?
S28A C62A 1.799(2) . ?
S28A C61A 1.800(2) . ?
C61A H61A 0.9800 . ?
C61A H61B 0.9800 . ?
C61A H61C 0.9800 . ?
C62A H62A 0.9800 . ?
C62A H62B 0.9800 . ?
C62A H62C 0.9800 . ?
S28B O28 1.498(2) . ?
S28B C62B 1.799(2) . ?
S28B C61B 1.801(2) . ?
C61B H61D 0.9800 . ?
C61B H61E 0.9800 . ?
C61B H61F 0.9800 . ?
C62B H62D 0.9800 . ?
C62B H62E 0.9800 . ?
C62B H62F 0.9800 . ?
Cl1 O5 1.352(7) . ?
Cl1 O7 1.381(8) . ?
Cl1 O8 1.399(8) . ?
Cl1 O6 1.450(8) . ?
Cl2 O11 1.361(8) . ?
Cl2 O10 1.385(7) . ?
Cl2 O12 1.422(6) . ?
Cl2 O9 1.427(7) . ?
Cl3 O16 1.387(6) . ?
Cl3 O14 1.396(6) . ?
Cl3 O13 1.412(6) . ?
Cl3 O15 1.427(5) . ?
Cl4 O19 1.406(6) . ?
Cl4 O17 1.412(6) . ?
Cl4 O20 1.416(6) . ?
Cl4 O18 1.423(5) . ?
loop_
_geom_hbond_atom_site_label_D
_geom_hbond_atom_site_label_H
_geom_hbond_atom_site_label_A
_geom_hbond_distance_DH
_geom_hbond_distance_HA
_geom_hbond_distance_DA
_geom_hbond_angle_DHA
_geom_hbond_site_symmetry_A
_geom_hbond_publ_flag
N2 H2 O26 0.88 2.12 2.842(6) 138.6 2_666 yes
N6 H6 O27 0.88 2.39 2.942(7) 121.2 2_666 yes
N8 H8 O24 0.88 2.25 2.797(7) 120.0 2_666 yes
N8 H8 O16 0.88 2.60 3.285(10) 135.6 . yes
N12 H12 O16 0.88 2.32 3.059(8) 141.8 . yes
N14 H14A N18 0.88 2.65 3.317(7) 133.1 . yes
N14 H14A O23 0.88 2.28 3.027(6) 142.3 2_756 yes
N18 H18 N14 0.88 2.63 3.317(7) 135.5 . yes
N18 H18 O23 0.88 2.33 3.010(5) 133.7 2_756 yes
N18 H18 O26 0.88 2.28 2.844(6) 122.1 . yes
N20 H20 N24 0.88 2.60 3.323(7) 139.6 . yes
N20 H20 O25 0.88 2.33 2.780(7) 111.7 2_666 yes
N24 H24 N20 0.88 2.70 3.323(7) 128.9 . yes
N24 H24 O13 0.88 2.36 3.070(8) 137.6 2_666 yes
C5 H5 O28 0.95 2.51 3.168(7) 126.4 2_666 yes
C10 H10B O22 0.99 2.62 3.283(8) 124.8 2_676 yes
C14 H14 O28 0.95 2.41 3.193(7) 140.1 2_666 yes
C17 H17A O10 0.99 2.56 3.351(10) 137.1 2_665 yes
C19 H19B O14 0.99 2.43 3.372(11) 159.6 2_665 yes
C20 H20B O18 0.99 2.64 3.532(8) 150.8 2_765 yes
C20 H20B O20 0.99 2.61 3.532(9) 154.9 2_765 yes
C23 H23 O28 0.95 2.41 3.148(6) 134.1 2_666 yes
C26 H26A O22 0.99 2.53 3.452(9) 154.5 2_766 yes
C28 H28B O22 0.99 2.54 3.310(8) 134.9 1_545 yes
C29 H29A O22 0.99 2.62 3.349(9) 130.7 1_545 yes
C29 H29A S23A^a 0.99 3.02 3.784(7) 135.2 . yes
C32 H32 O28 0.95 2.50 3.129(7) 123.8 2_666 yes
C35 H35B O14 0.99 2.60 3.340(9) 131.3 2_666 yes
C38 H38B O9 0.98 2.63 3.584(13) 165.6 2_666 yes
C39 H39B^a O17 0.98 2.54 3.503(11) 168.2 . yes
C39 H39C^a O21 0.98 2.58 3.268(14) 127.6 2_676 yes
C40 H40C^a O6 0.98 2.50 3.247(12) 133.3 2_666 yes
C42 H42B^a O12 0.98 2.57 3.513(11) 161.3 1_655 yes
C43 H43A S28A^a 0.99 2.96 3.858(16) 151.0 2_666 yes
C44 H44B O9 0.99 2.64 3.401(15) 133.5 1_655 yes
C45 H45B O8 0.99 2.54 3.366(16) 141.3 1_655 yes
C48 H48B^a O16 0.98 2.54 3.371(13) 142.7 1_556 yes
C49 H49A O21 0.98 2.64 3.436(15) 138.4 . yes
C49 H49B O11 0.98 2.60 3.500(14) 153.2 2_666 yes
C49 H49C O7 0.98 2.60 3.338(14) 132.1 2_666 yes
C51 H51B^a O13 0.98 2.64 3.468(10) 142.8 2_666 yes
C51 H51C^a O18 0.98 2.51 3.387(7) 149.2 2_766 yes
C52 H52B^a O15 0.98 2.57 3.388(8) 140.5 2_666 yes
C54 H54A^a O17 0.98 2.47 3.419(10) 162.0 2_666 yes
C54 H54C^a S21A^a 0.98 2.94 3.781(9) 144.5 2_667 yes
C56 H56A O9 0.98 2.66 3.582(14) 157.5 . yes
C56 H56B O19 0.98 2.49 3.447(13) 164.3 1_455 yes
C57A^a H57A^a O15 0.98 2.57 3.546(12) 171.1 2_665 yes
C57A^a H57C^a O17 0.98 2.26 3.212(9) 165.3 1_545 yes
C58A^a H58A^a Cl4 0.98 2.97 3.913(8) 162.0 1_545 yes
C58A^a H58A^a O18 0.98 2.37 3.208(10) 142.6 1_545 yes
C58A^a H58B^a O6 0.98 2.57 3.398(13) 142.7 2_656 yes
C57B^b H57E^b Cl4 0.98 2.75 3.716(8) 169.6 1_545 yes
C57B^b H57E^b O17 0.98 2.46 3.292(11) 142.5 1_545 yes
C57B^b H57E^b O18 0.98 2.10 3.022(12) 156.8 1_545 yes
C58B^b H58D^b O18 0.98 2.57 3.351(12) 136.5 1_545 yes
C58B^b H58E^b O5 0.98 2.50 3.409(14) 154.8 2_656 yes
C58B^b H58E^b O6 0.98 2.60 3.432(17) 142.9 2_656 yes
C58B^b H58F^b O23 0.98 2.58 3.466(14) 149.7 2_756 yes
C60 H60B^a O7 0.98 2.45 3.355(12) 152.5 . yes
C60 H60C^a O21 0.98 2.58 3.253(11) 126.2 2_666 yes
C61A^a H61A^a S2A^a 0.98 2.22 3.14(2) 156.7 2_666 yes
C61A^a H61B^a O19 0.98 2.62 3.42(2) 139.3 2_666 yes
C61A^a H61C^a S3A^a 0.98 2.90 3.71(3) 140.1 2_666 yes
C62A^a H62A^a O1 0.98 2.27 3.249(17) 172.8 2_666 yes
C62A^a H62C^a S2A^a 0.98 3.01 3.709(17) 128.9 2_666 yes
C61B^b H61E^b O3 0.98 2.60 3.464(15) 146.5 2_666 yes
C61B^b H61F^b O19 0.98 2.60 3.411(11) 140.1 2_666 yes
C62B^b H62D^b O1 0.98 2.46 3.426(18) 166.8 2_666 yes
C62B^b H62F^b O8 0.98 2.41 3.141(12) 131.0 . yes
