#------------------------------------------------------------------------------
#$Date: 2021-04-05 17:50:08 +0300 (Mon, 05 Apr 2021) $
#$Revision: 263762 $
#$URL: file:///home/coder/svn-repositories/cod/cif/7/70/65/7706576.cif $
#------------------------------------------------------------------------------
#
# This file is available in the Crystallography Open Database (COD),
# http://www.crystallography.net/
#
# All data on this site have been placed in the public domain by the
# contributors.
#
data_7706576
loop_
_publ_author_name
'Han, Zhen'
'Fu, Yaomei'
'Zhang, Yingchao'
'Zhang, Xiao'
'Meng, Xing'
'Zhou, Ziyan'
'Su, Zhongmin'
_publ_section_title
;
 Metal-organic framework (MOF) composite materials for photocatalytic
 CO<sub>2</sub> reduction under visible light.
;
_journal_issue                   9
_journal_name_full
'Dalton transactions (Cambridge, England : 2003)'
_journal_page_first              3186
_journal_page_last               3192
_journal_paper_doi               10.1039/d1dt00128k
_journal_volume                  50
_journal_year                    2021
_chemical_formula_moiety         'C66 H32 Co2 N12 O12'
_chemical_formula_sum            'C66 H32 Co2 N12 O12'
_chemical_formula_weight         1302.89
_space_group_crystal_system      monoclinic
_space_group_IT_number           9
_space_group_name_Hall           'C -2yc'
_space_group_name_H-M_alt        'C 1 c 1'
_atom_sites_solution_hydrogens   mixed
_audit_creation_date             2020-03-09
_audit_creation_method
;
Olex2 1.2
(compiled 2018.05.29 svn.r3508 for OlexSys, GUI svn.r5506)
;
_audit_update_record
;
2020-12-29 deposited with the CCDC.	2021-02-04 downloaded from the CCDC.
;
_cell_angle_alpha                90.000(5)
_cell_angle_beta                 100.110(5)
_cell_angle_gamma                90.000(5)
_cell_formula_units_Z            4
_cell_length_a                   15.311(5)
_cell_length_b                   13.056(5)
_cell_length_c                   34.460(5)
_cell_measurement_reflns_used    18477
_cell_measurement_temperature    293(2)
_cell_measurement_theta_max      25.01
_cell_measurement_theta_min      1.74
_cell_volume                     6782(4)
_computing_molecular_graphics    'Olex2 (Dolomanov et al., 2009)'
_computing_publication_material  'Olex2 (Dolomanov et al., 2009)'
_computing_structure_refinement  'ShelXL (Sheldrick, 2015)'
_diffrn_ambient_temperature      293(2)
_diffrn_measured_fraction_theta_full 0.987
_diffrn_measured_fraction_theta_max 0.987
_diffrn_measurement_device_type  'Bruker APEX CCD area-detector'
_diffrn_radiation_type           MoK\a
_diffrn_radiation_wavelength     0.71069
_diffrn_reflns_av_R_equivalents  0.0349
_diffrn_reflns_av_unetI/netI     0.0436
_diffrn_reflns_Laue_measured_fraction_full 0.987
_diffrn_reflns_Laue_measured_fraction_max 0.987
_diffrn_reflns_limit_h_max       16
_diffrn_reflns_limit_h_min       -17
_diffrn_reflns_limit_k_max       15
_diffrn_reflns_limit_k_min       -15
_diffrn_reflns_limit_l_max       40
_diffrn_reflns_limit_l_min       -27
_diffrn_reflns_number            18465
_diffrn_reflns_point_group_measured_fraction_full 0.717
_diffrn_reflns_point_group_measured_fraction_max 0.717
_diffrn_reflns_theta_full        24.771
_diffrn_reflns_theta_max         24.771
_diffrn_reflns_theta_min         2.064
_exptl_absorpt_coefficient_mu    0.556
_exptl_crystal_colour            orange
_exptl_crystal_colour_primary    orange
_exptl_crystal_density_diffrn    1.276
_exptl_crystal_density_method    'not measured'
_exptl_crystal_description       block
_exptl_crystal_F_000             2648
_refine_diff_density_max         0.266
_refine_diff_density_min         -0.394
_refine_diff_density_rms         0.070
_refine_ls_abs_structure_details
;
 Refined as an inversion twin.
;
_refine_ls_abs_structure_Flack   0.484(19)
_refine_ls_extinction_method     none
_refine_ls_goodness_of_fit_ref   1.071
_refine_ls_hydrogen_treatment    constr
_refine_ls_matrix_type           full
_refine_ls_number_parameters     831
_refine_ls_number_reflns         8343
_refine_ls_number_restraints     2
_refine_ls_restrained_S_all      1.071
_refine_ls_R_factor_all          0.0473
_refine_ls_R_factor_gt           0.0414
_refine_ls_shift/su_max          0.007
_refine_ls_shift/su_mean         0.000
_refine_ls_structure_factor_coef Fsqd
_refine_ls_weighting_details
'w=1/[\s^2^(Fo^2^)+(0.0848P)^2^] where P=(Fo^2^+2Fc^2^)/3'
_refine_ls_weighting_scheme      calc
_refine_ls_wR_factor_gt          0.1162
_refine_ls_wR_factor_ref         0.1236
_reflns_Friedel_coverage         0.452
_reflns_Friedel_fraction_full    0.447
_reflns_Friedel_fraction_max     0.447
_reflns_number_gt                7548
_reflns_number_total             8343
_reflns_threshold_expression     'I > 2\s(I)'
_cod_data_source_file            d1dt00128k2.cif
_cod_data_source_block           2a
_cod_depositor_comments          'Adding full bibliography for 7706576.cif.'
_cod_database_code               7706576
_shelx_shelxl_version_number     2018/3
_shelx_space_group_comment
;
The symmetry employed for this shelxl refinement is uniquely defined
by the following loop, which should always be used as a source of
symmetry information in preference to the above space-group names.
They are only intended as comments.
;
_olex2_refinement_description
;
1. Twinned data refinement
 Scales: 0.516(19)
 0.484(19)
2. Fixed Uiso
 At 1.5 times of:
  All O(H) groups
3. Others
 Fixed Uiso: H2(0.033) H4(0.04) H28(0.063) H30(0.051) H31(0.041) H35(0.052)
 H36(0.049) H37(0.05) H41(0.044) H44(0.057) H45(0.062) H53(0.042) H55(0.058)
 H56(0.088) H59(0.062) H61(0.08) H62(0.057) H68(0.079) H71(0.061) H79(0.089)
 H80(0.101) H81(0.089) H82(0.088) H83(0.105) H85(0.104) H86(0.086) H87(0.148)
 H89(0.15) H92(0.161) H99(0.168)
 Fixed X: H2(1.053901) H4(1.0514) H28(0.435999) H30(0.671101) H31(1.2415)
 H35(0.7453) H36(0.3762) H37(1.0434) H41(0.864201) H44(0.9787) H45(0.681301)
 H53(0.7298) H55(1.0371) H56(0.474299) H59(0.7224) H61(0.7332) H62(0.9853)
 H68(0.4175) H71(0.9031) H79(0.667001) H80(0.851301) H81(0.9106) H82(0.770499)
 H83(0.820601) H85(0.8836) H86(0.7088) H87(0.5634) H89(0.6308) H92(0.616301)
 H99(0.5731)
 Fixed Y: H2(-0.026001) H4(0.2036) H28(-0.0022) H30(-0.0902) H31(-0.0123)
 H35(0.245399) H36(0.0847) H37(0.2401) H41(-0.0414) H44(0.5763) H45(0.165601)
 H53(-0.005401) H55(0.475999) H56(0.2665) H59(-0.000601) H61(0.2593)
 H62(0.332399) H68(0.3469) H71(-0.2305) H79(0.195701) H80(1.044499) H81(1.002)
 H82(0.5204) H83(1.2152) H85(1.174399) H86(0.4453) H87(-0.5358) H89(-0.4842)
 H92(-0.654799) H99(-0.7095)
 Fixed Z: H2(0.5478) H4(0.468801) H28(0.131701) H30(0.4609) H31(0.479799)
 H35(0.4553) H36(0.0755) H37(1.0073) H41(0.5924) H44(1.0234) H45(0.3985)
 H53(0.5151) H55(1.0758) H56(0.1865) H59(0.678301) H61(0.745) H62(0.953)
 H68(0.128701) H71(0.6867) H79(0.6866) H80(0.8335) H81(0.949699) H82(0.6899)
 H83(0.8434) H85(0.956699) H86(0.6315) H87(0.276699) H89(0.3887) H92(0.3969)
 H99(0.2897)
4.a Tetrahedral OH refined with riding coordinates:
 O48(H48)
4.b Idealised tetrahedral OH refined as rotating group:
 O6(H6)
;
_shelx_res_file
;
TITL 2A OLEX2: imported from CIF
    2a.res
    created by SHELXL-2018/3 at 17:03:37 on 09-Mar-2020
CELL 0.71069 15.311 13.056 34.46 90 100.11 90
ZERR 4 0.005 0.005 0.005 0.005 0.005 0.005
LATT -7
SYMM +X,-Y,0.5+Z
SFAC C H Co N O
DISP C 0.0033 0.0016
DISP Co 0.3494 0.9721
DISP H 0 0
DISP N 0.0061 0.0033
DISP O 0.0106 0.006
UNIT 264 128 8 48 48

L.S. 30 0 0
PLAN  50
TEMP 20(2)
ABIN
fmap 2 53
acta
TWIN -1 0 0 0 -1 0 0 0 -1 2
OMIT 0 2 -7
OMIT 0 2 0
OMIT -2 0 -2
OMIT 0 0 2
OMIT -3 1 -10
OMIT -4 2 -11
OMIT -6 2 -18
OMIT -5 3 -13
REM <olex2.extras>
REM <HklSrc "%.\\2a.hkl">
REM </olex2.extras>

WGHT    0.084800
BASF   0.48439
FVAR       0.03260
COO1  3    0.819014    0.199701    0.544274    11.00000    0.03113    0.02454 =
         0.02524    0.00228    0.00478    0.01001
CO2   3    0.605870    0.240543    0.598770    11.00000    0.03438    0.02863 =
         0.02516    0.00325    0.00496    0.01072
O3    5    0.930196    0.227476    0.510420    11.00000    0.04216    0.03050 =
         0.06332    0.00357    0.01695    0.01323
O4    5    0.992444   -0.284874    0.632909    11.00000    0.04876    0.04381 =
         0.04786    0.01377    0.01461    0.02505
N2    4    1.041976    0.345186    1.047475    11.00000    0.04022    0.02993 =
         0.03555    0.00304    0.00509   -0.00633
O6    5    1.272275    0.133758    0.436151    11.00000    0.05670    0.05285 =
         0.09642    0.03493    0.04289    0.01798
AFIX 147
H6    2    1.292379    0.174174    0.421768    11.00000   -1.50000
AFIX   0
O7    5    1.000414   -0.153275    0.594894    11.00000    0.05073    0.05191 =
         0.05222    0.01148    0.02510    0.02452
O8    5    0.921426    0.090692    0.546767    11.00000    0.04473    0.03707 =
         0.05831    0.01502    0.02548    0.01801
N5    4    0.747370    0.128530    0.491754    11.00000    0.03893    0.03270 =
         0.02853    0.00019    0.00139    0.00755
O10   5    1.167512   -0.163779    0.565908    11.00000    0.04604    0.03393 =
         0.03948    0.01459    0.01478    0.00875
C1    1    1.155822   -0.031069    0.517358    11.00000    0.02988    0.01833 =
         0.03419   -0.00018   -0.00009    0.00565
N10   4    0.387882    0.224053    0.096186    11.00000    0.04945    0.03660 =
         0.02956   -0.00128   -0.00074   -0.00512
C13   1    1.040578    0.098106    0.510984    11.00000    0.02930    0.02754 =
         0.03426    0.00157    0.00443    0.00897
C2    1    1.079184    0.007021    0.528634    11.00000    0.02964    0.02301 =
         0.03057    0.00106    0.00511    0.00784
H2    2   11.053901    9.973999   10.547800    11.00000   10.03300
O12   5    0.667938    0.111695    0.622137    11.00000    0.05068    0.04752 =
         0.03109    0.00265    0.01353    0.02558
C4    1    1.078395    0.145687    0.481519    11.00000    0.03954    0.02407 =
         0.03939    0.00721    0.00391    0.00929
H4    2   11.051400   10.203600   10.468801    11.00000   10.04000
N17   4    0.867284    0.523982    0.841860    11.00000    0.07056    0.04621 =
         0.02856    0.00238   -0.00268   -0.00174
C3    1    1.154840    0.107191    0.470485    11.00000    0.03747    0.02751 =
         0.03330    0.01058    0.00975    0.00557
O9    5    1.155359    0.234800    0.422160    11.00000    0.07103    0.05600 =
         0.07061    0.03817    0.02670    0.02243
O15   5    0.756027    0.106587    0.577931    11.00000    0.04842    0.04571 =
         0.03226    0.01491    0.01019    0.01035
N21   4    0.893128    0.672282    0.881969    11.00000    0.07658    0.03688 =
         0.02862    0.00180    0.00400   -0.00178
C112  1    0.666918    0.026753    0.421757    11.00000    0.05027    0.03698 =
         0.02802    0.00274   -0.00032    0.01053
C6    1    0.976831    0.469765    0.981422    11.00000    0.04616    0.03334 =
         0.03677    0.00778    0.00663   -0.00215
C5    1    0.783230   -0.009903    0.631371    11.00000    0.04452    0.03981 =
         0.02579    0.00815    0.01106    0.01214
O5    5    1.260803   -0.166085    0.523323    11.00000    0.03838    0.03839 =
         0.03614    0.01076    0.00936    0.02276
C7    1    0.966307   -0.198832    0.620294    11.00000    0.03950    0.03842 =
         0.03775   -0.00307    0.00581    0.01565
C27   1    0.894076   -0.143377    0.636697    11.00000    0.04383    0.02909 =
         0.03312    0.00391    0.01014    0.00947
C28   1    0.433710    0.069868    0.131835    11.00000    0.08329    0.03268 =
         0.03238    0.00110    0.00359    0.00025
H28   2   10.435999    9.997800   10.131701    11.00000   10.06300
C29   1    0.892703    0.569941    0.876176    11.00000    0.06123    0.04225 =
         0.02835    0.00402    0.00490   -0.00181
C30   1    0.682994   -0.021875    0.458461    11.00000    0.05923    0.03542 =
         0.03402    0.00923    0.00768    0.00524
H30   2   10.671101    9.909800   10.460900    11.00000   10.05100
C31   1    1.192890    0.016769    0.488481    11.00000    0.03910    0.02574 =
         0.03617    0.00243    0.01353    0.00921
H31   2   11.241500    9.987700   10.479799    11.00000   10.04100
C32   1    0.732751    0.075698    0.608794    11.00000    0.03858    0.02813 =
         0.02719    0.00245    0.00318    0.01165
N7    4    0.580988   -0.159677    0.320207    11.00000    0.08816    0.03772 =
         0.02609    0.00621   -0.00630    0.00226
N8    4    0.536009   -0.175297    0.251091    11.00000    0.09758    0.04010 =
         0.03315   -0.00073   -0.00536   -0.00048
C35   1    0.730256    0.175846    0.456744    11.00000    0.06711    0.03276 =
         0.02427    0.00646    0.00649    0.00338
H35   2   10.745300   10.245399   10.455300    11.00000   10.05200
C36   1    0.396628    0.122534    0.098966    11.00000    0.05923    0.03705 =
         0.02815   -0.00529    0.00349   -0.00590
H36   2   10.376200   10.084700   10.075500    11.00000   10.04900
C37   1    1.027746    0.307601    1.010754    11.00000    0.05390    0.03131 =
         0.03981   -0.00266   -0.00667   -0.00549
H37   2   11.043400   10.240100   11.007300    11.00000   10.05000
C38   1    0.925136    0.502969    0.910628    11.00000    0.05297    0.03959 =
         0.03862    0.00650   -0.00143   -0.00367
C39   1    0.960300    0.141346    0.523454    11.00000    0.03229    0.02799 =
         0.03716    0.00014   -0.00064    0.01232
C40   1    0.464928    0.121932    0.166043    11.00000    0.08752    0.03865 =
         0.03890    0.00343    0.00526    0.00369
C41   1    0.848728   -0.062236    0.615946    11.00000    0.04539    0.03739 =
         0.03621    0.00852    0.01488    0.01018
H41   2   10.864201    9.958600   10.592400    11.00000   10.04400
C42   1    1.196904   -0.128414    0.537114    11.00000    0.03613    0.02033 =
         0.02542   -0.00136   -0.00030    0.00299
N6    4    0.557059   -0.010965    0.280300    11.00000    0.08382    0.04269 =
         0.02259    0.00516   -0.00522    0.00439
C44   1    0.991116    0.508628    1.018943    11.00000    0.06504    0.04036 =
         0.03334   -0.00356    0.00569    0.00591
H44   2   10.978700   10.576300   11.023400    11.00000   10.05700
C45   1    0.692342    0.129488    0.422538    11.00000    0.07571    0.03940 =
         0.02773    0.00954    0.00439    0.00692
H45   2   10.681301   10.165601   10.398500    11.00000   10.06200
C46   1    0.506324   -0.028582    0.209621    11.00000    0.08755    0.05597 =
         0.03003    0.00435   -0.00309    0.00274
C47   1    0.631358   -0.030066    0.386043    11.00000    0.05737    0.04100 =
         0.03011    0.00180    0.00107    0.00649
O48   5    0.827470   -0.226847    0.742762    11.00000    0.17127    0.08614 =
         0.04917    0.03420    0.04916    0.05113
AFIX  83
H48   2    0.820896   -0.234163    0.765708    11.00000   -1.50000
AFIX   0
C49   1    0.584807   -0.375718    0.324092    11.00000    0.08519    0.04712 =
         0.06130    0.01095    0.00671    0.00070
N4    4    0.675179    0.312824    0.652575    11.00000    0.06192    0.04236 =
         0.03101   -0.00003    0.00876    0.00034
C51   1    0.579538   -0.057328    0.315126    11.00000    0.06467    0.03703 =
         0.02804    0.00187   -0.00152    0.00776
C52   1    0.499911    0.072456    0.204128    11.00000    0.08236    0.04358 =
         0.02863    0.00692   -0.00988   -0.00029
C53   1    0.721235    0.029570    0.491192    11.00000    0.05363    0.02973 =
         0.02307    0.00260    0.00028   -0.00308
H53   2   10.729800    9.994599   10.515100    11.00000   10.04200
C54   1    0.943284    0.535469    0.946937    11.00000    0.04772    0.04676 =
         0.03375    0.00219    0.00233   -0.01244
C55   1    1.024601    0.447700    1.051252    11.00000    0.06722    0.04360 =
         0.02776   -0.00403    0.00504    0.01186
H55   2   11.037100   10.475999   11.075800    11.00000   10.05800
C56   1    0.458392    0.229355    0.163507    11.00000    0.13213    0.04104 =
         0.03760   -0.00425   -0.03391    0.00024
H56   2   10.474299   10.266500   10.186500    11.00000   10.08800
C57   1    0.864189    0.726253    0.849534    11.00000    0.07283    0.03301 =
         0.04265    0.00022    0.01124   -0.00024
N1    4    0.837954    0.687805    0.813523    11.00000    0.10348    0.04822 =
         0.03109    0.00594    0.01167    0.01109
C59   1    0.764924   -0.037256    0.668555    11.00000    0.07251    0.06311 =
         0.04271    0.01739    0.02849    0.03485
H59   2   10.722400    9.999399   10.678301    11.00000   10.06200
C60   1    1.193602    0.164495    0.441111    11.00000    0.05536    0.02904 =
         0.04768    0.01055    0.02153    0.00900
C61   1    0.725389    0.300385    0.723028    11.00000    0.09385    0.07359 =
         0.02793    0.00325   -0.00993   -0.00202
H61   2   10.733200   10.259300   10.745000    11.00000   10.08000
C62   1    0.995751    0.364508    0.977701    11.00000    0.06423    0.04450 =
         0.02575   -0.00389   -0.00571   -0.00462
H62   2   10.985300   10.332399   10.953000    11.00000   10.05700
C63   1    0.534059   -0.072166    0.249114    11.00000    0.07768    0.04683 =
         0.02843    0.00465    0.00001   -0.00288
C64   1    0.558491   -0.213388    0.287545    11.00000    0.08386    0.03455 =
         0.03500    0.00645   -0.00155   -0.00530
C65   1    0.812138   -0.117250    0.689937    11.00000    0.07972    0.06702 =
         0.04461    0.02533    0.02594    0.04398
C66   1    0.794154    0.444133    0.764466    11.00000    0.09005    0.08123 =
         0.03036    0.00076   -0.00103    0.00604
C67   1    0.561527   -0.329374    0.290767    11.00000    0.10328    0.03507 =
         0.04300    0.00306    0.00562   -0.00457
C68   1    0.421043    0.274579    0.128833    11.00000    0.10185    0.03537 =
         0.04280   -0.00121   -0.02070   -0.00338
H68   2   10.417500   10.346900   10.128701    11.00000   10.07900
C69   1    0.879307    1.002745    0.889825    11.00000    0.07086    0.06465 =
         0.07302   -0.00582    0.03096   -0.00081
C70   1    0.838292    0.585123    0.810733    11.00000    0.08724    0.04357 =
         0.02992   -0.00366    0.00162    0.00308
C71   1    0.875495   -0.173129    0.673554    11.00000    0.06168    0.05401 =
         0.04151    0.01070    0.01855    0.02624
H71   2   10.903100    9.769500   10.686700    11.00000   10.06100
C72   1    0.755563    0.398877    0.725131    11.00000    0.08545    0.05209 =
         0.03877   -0.00418    0.00963   -0.00098
C73   1    0.608033    0.009038    0.349741    11.00000    0.07602    0.03580 =
         0.03191    0.00171   -0.00032    0.00350
N3    4    0.849999    1.212511    0.902033    11.00000    0.09622    0.05564 =
         0.10289   -0.02655    0.05227   -0.01365
N9    4    0.609058   -0.697861    0.344939    11.00000    0.20395    0.06043 =
         0.08826    0.01588    0.00565    0.01127
C76   1    0.884600    0.887990    0.884328    11.00000    0.07638    0.05337 =
         0.05678    0.00087    0.01613    0.00361
C77   1    0.589482   -0.487819    0.330404    11.00000    0.08519    0.04947 =
         0.06574    0.00103    0.00176    0.00546
C78   1    0.807316    0.544155    0.771879    11.00000    0.10032    0.06818 =
         0.03461   -0.00744   -0.00068    0.00217
C79   1    0.684961    0.262073    0.686905    11.00000    0.12274    0.05144 =
         0.04340    0.00114    0.00191   -0.00606
H79   2   10.667001   10.195701   10.686600    11.00000   10.08900
C80   1    0.853752    1.069447    0.858565    11.00000    0.13223    0.05000 =
         0.05468    0.00001    0.02119    0.01124
H80   2   10.851301   11.044499   10.833500    11.00000   10.10100
C81   1    0.892918    1.043347    0.928008    11.00000    0.08713    0.05880 =
         0.06433   -0.01347   -0.00509    0.00184
H81   2   10.910600   11.002000   10.949699    11.00000   10.08900
C82   1    0.746977    0.452867    0.689408    11.00000    0.11822    0.06071 =
         0.04489   -0.01093   -0.00012   -0.02862
H82   2   10.770499   10.520400   10.689900    11.00000   10.08800
C83   1    0.839044    1.172795    0.865559    11.00000    0.13532    0.05727 =
         0.07121   -0.00514    0.02634    0.00760
H83   2   10.820601   11.215200   10.843400    11.00000   10.10500
C84   1    0.796919   -0.141708    0.730261    11.00000    0.12715    0.10612 =
         0.06176    0.04709    0.05123    0.07605
C85   1    0.876610    1.145386    0.931996    11.00000    0.08950    0.06269 =
         0.09561   -0.03216    0.02609   -0.01769
H85   2   10.883600   11.174399   10.956699    11.00000   10.10400
C86   1    0.708929    0.407649    0.655201    11.00000    0.10201    0.06272 =
         0.03665    0.00701    0.00880   -0.00757
H86   2   10.708800   10.445300   10.631500    11.00000   10.08600
C87   1    0.579749   -0.558539    0.301721    11.00000    0.23565    0.04340 =
         0.07221    0.00256    0.00485   -0.00521
H87   2   10.563400    9.464200   10.276699    11.00000   10.14800
C88   1    0.859628    0.839083    0.852093    11.00000    0.10379    0.03570 =
         0.05603    0.00128    0.02675   -0.00213
C89   1    0.608675   -0.524893    0.367482    11.00000    0.26959    0.05420 =
         0.05974    0.02307    0.00422    0.03200
H89   2   10.630800    9.515800   10.388700    11.00000   10.15000
O2    5    0.764276   -0.082004    0.749755    11.00000    0.37018    0.18293 =
         0.09902    0.07338    0.14149    0.18457
C92   1    0.616290   -0.630436    0.373443    11.00000    0.28125    0.05112 =
         0.08964    0.02071   -0.02112    0.01786
H92   2   10.616301    9.345201   10.396900    11.00000   10.16100
C99   1    0.586870   -0.662479    0.309159    11.00000    0.27796    0.05229 =
         0.09082   -0.00291    0.01024    0.01769
H99   2   10.573100    9.290500   10.289700    11.00000   10.16800
HKLF 4




REM  2A OLEX2: imported from CIF
REM wR2 = 0.1236, GooF = S = 1.071, Restrained GooF = 1.071 for all data
REM R1 = 0.0414 for 7548 Fo > 4sig(Fo) and 0.0473 for all 8343 data
REM 831 parameters refined using 2 restraints

END

WGHT      0.0848      0.0000

REM Highest difference peak  0.266,  deepest hole -0.394,  1-sigma level  0.070
Q1    1   0.4630 -0.0750  0.1819  11.00000  0.05    0.27
Q2    1   0.9380  0.6178  0.9576  11.00000  0.05    0.26
Q3    1   0.7630  0.5430  0.7451  11.00000  0.05    0.26
Q4    1   0.6345 -0.1009  0.3848  11.00000  0.05    0.26
Q5    1   0.8223  0.3655  0.7825  11.00000  0.05    0.24
Q6    1   0.5874 -0.1214  0.3194  11.00000  0.05    0.24
Q7    1   0.8551  0.9141  0.8402  11.00000  0.05    0.24
Q8    1   1.0467  0.0022  0.6013  11.00000  0.05    0.24
Q9    1   0.9269  0.4321  0.9040  11.00000  0.05    0.23
Q10   1   0.6766  0.1096  0.4222  11.00000  0.05    0.23
Q11   1   0.8190  1.1122  0.8362  11.00000  0.05    0.23
Q12   1   0.6629 -0.1948  0.5587  11.00000  0.05    0.23
Q13   1   0.7007 -0.1830  0.7233  11.00000  0.05    0.23
Q14   1   0.5149  0.1118  0.2202  11.00000  0.05    0.22
Q15   1   0.9657  0.4237  0.9812  11.00000  0.05    0.22
Q16   1   0.8466  0.5631  0.8216  11.00000  0.05    0.22
Q17   1   0.8013  0.5229  0.7589  11.00000  0.05    0.22
Q18   1   0.8898  0.6374  0.8213  11.00000  0.05    0.21
Q19   1   0.7412  0.1563  0.3998  11.00000  0.05    0.21
Q20   1   0.9188  0.9116  0.9391  11.00000  0.05    0.21
Q21   1   0.8791  0.6442  0.8804  11.00000  0.05    0.21
Q22   1   0.6155 -0.3156  0.3411  11.00000  0.05    0.21
Q23   1   0.9291 -0.1058  0.5613  11.00000  0.05    0.21
Q24   1   0.6462  0.2005  0.6029  11.00000  0.05    0.21
Q25   1   1.0662  0.6372  1.0213  11.00000  0.05    0.20
Q26   1   0.3107 -0.0400  0.1167  11.00000  0.05    0.20
Q27   1   0.3403 -0.0961  0.1152  11.00000  0.05    0.20
Q28   1   0.6588  0.4622  0.6395  11.00000  0.05    0.20
Q29   1   0.9216  0.8430  0.9000  11.00000  0.05    0.20
Q30   1   1.0260  0.1594  0.5797  11.00000  0.05    0.19
Q31   1   0.6428 -0.1050  0.6644  11.00000  0.05    0.19
Q32   1   0.3969 -0.0999  0.0976  11.00000  0.05    0.19
Q33   1   0.6067  0.0745  0.3519  11.00000  0.05    0.19
Q34   1   0.3771  0.1828  0.1009  11.00000  0.05    0.19
Q35   1   0.8951 -0.3496  0.5979  11.00000  0.05    0.19
Q36   1   1.3337  0.1379  0.5389  11.00000  0.05    0.19
Q37   1   0.5594 -0.0385  0.2982  11.00000  0.05    0.19
Q38   1   0.9020 -0.2357  0.5579  11.00000  0.05    0.18
Q39   1   0.9585  0.0186  0.5779  11.00000  0.05    0.18
Q40   1   0.8674  0.6020  0.8324  11.00000  0.05    0.18
Q41   1   0.5831  0.0768  0.3426  11.00000  0.05    0.18
Q42   1   1.2032  0.2177  0.5824  11.00000  0.05    0.18
Q43   1   0.6161  0.1266  0.1743  11.00000  0.05    0.18
Q44   1   0.5495  0.1687  0.1152  11.00000  0.05    0.18
Q45   1   0.5174 -0.5193  0.3018  11.00000  0.05    0.18
Q46   1   0.7812 -0.0722  0.7612  11.00000  0.05    0.18
Q47   1   0.7966  0.2529  0.7410  11.00000  0.05    0.18
Q48   1   0.8659 -0.3292  0.6163  11.00000  0.05    0.18
Q49   1   0.8126 -0.3237  0.6390  11.00000  0.05    0.18
Q50   1   0.7673  0.4622  0.7603  11.00000  0.05    0.18
;
_shelx_res_checksum              52151
_shelx_hkl_file
;
  -2   0   0   13.93    0.38
  -2   0   0   16.02    0.40
   2   0   0   15.46    0.37
  -4   0   0   21.70    0.58
  -4   0   0   21.47    0.56
   4   0   0   21.27    0.52
  -6   0   0    2.45    0.14
  -6   0   0    2.21    0.11
   6   0   0    2.12    0.07
  -8   0   0    0.46    0.09
  -8   0   0    0.52    0.07
   8   0   0    0.51    0.03
 -10   0   0    2.33    0.17
 -10   0   0    2.60    0.15
 -12   0   0    2.73    0.21
 -12   0   0    2.60    0.17
 -14   0   0    5.91    0.34
 -14   0   0    5.75    0.28
 -16   0   0    0.02    0.10
 -16   0   0    0.20    0.10
 -17   1   0    0.17    0.10
 -17   1   0   -0.01    0.12
 -15   1   0    0.71    0.13
 -15   1   0    0.42    0.14
 -13   1   0    0.23    0.10
 -13   1   0    0.18    0.08
 -11   1   0    0.65    0.12
 -11   1   0    0.77    0.11
  -9   1   0    2.16    0.16
  -9   1   0    2.24    0.14
  -7   1   0    0.28    0.06
  -7   1   0    0.33    0.07
  -5   1   0   14.95    0.44
  -5   1   0   14.70    0.42
  -3   1   0   53.74    1.28
  -3   1   0   50.42    1.29
   1  -1   0    4.45    0.13
  -1   1   0    4.47    0.12
  -1   1   0    4.61    0.13
  -1  -1   0    4.57    0.13
   1   1   0    4.42    0.12
  -3  -1   0   54.35    1.27
  -3  -1   0   49.39    1.30
   3   1   0   53.02    1.27
  -5  -1   0   14.16    0.38
   5   1   0   13.95    0.36
  -7  -1   0    0.29    0.05
  -7  -1   0    0.33    0.07
   7   1   0    0.30    0.04
  -9  -1   0    2.32    0.16
   9   1   0    2.22    0.09
 -11  -1   0    0.90    0.14
  11   1   0    0.91    0.08
 -13  -1   0    0.29    0.10
 -15  -1   0    0.71    0.16
 -17  -1   0    0.17    0.14
 -17  -1   0   -0.02    0.04
 -16   2   0    0.27    0.14
 -16   2   0    0.29    0.11
 -14   2   0    4.60    0.31
 -14   2   0    3.73    0.24
 -12   2   0    0.12    0.09
 -12   2   0    0.12    0.07
 -10   2   0    3.58    0.21
  -8   2   0    5.57    0.23
  -8   2   0    5.97    0.26
  -6   2   0    7.43    0.28
  -6   2   0    7.82    0.26
  -4   2   0   17.30    0.49
  -4   2   0   17.17    0.47
   2  -2   0    3.91    0.14
  -2   2   0    3.93    0.13
  -2   2   0    3.75    0.12
   0  -2   0   11.77    0.32
   0   2   0   11.81    0.31
   0   2   0   11.68    0.30
  -2  -2   0    3.79    0.14
   2   2   0    3.59    0.12
  -4  -2   0   16.41    0.42
  -4  -2   0   16.45    0.47
   4   2   0   16.16    0.43
  -6  -2   0    7.52    0.23
  -6  -2   0    8.20    0.29
   6   2   0    7.97    0.23
  -8  -2   0    6.16    0.27
  -8  -2   0    5.75    0.21
   8   2   0    5.88    0.19
 -10  -2   0    4.41    0.24
 -10  -2   0    5.10    0.21
  10   2   0    5.01    0.17
 -12  -2   0    0.12    0.08
 -12  -2   0    0.08    0.06
 -14  -2   0    3.98    0.22
 -14  -2   0    3.44    0.26
 -16  -2   0    0.32    0.13
 -16  -2   0    0.37    0.13
 -17   3   0    0.64    0.19
 -17   3   0    0.68    0.14
 -15   3   0    1.19    0.17
 -15   3   0    1.33    0.21
 -13   3   0    1.56    0.17
 -13   3   0    1.12    0.18
 -11   3   0    2.44    0.20
 -11   3   0    2.84    0.18
  -9   3   0    6.33    0.29
  -9   3   0    6.12    0.26
  -7   3   0    7.25    0.27
  -7   3   0    7.25    0.29
  -5   3   0    4.30    0.18
  -5   3   0    4.57    0.19
   3  -3   0   30.38    0.79
  -3   3   0   29.77    0.78
  -3   3   0   30.40    0.75
   1  -3   0   42.38    1.08
  -1   3   0   43.80    1.06
  -1   3   0   42.42    1.05
  -1  -3   0   44.59    1.09
   1   3   0   41.99    1.08
   1   3   0   44.17    1.05
  -3  -3   0   29.32    0.77
   3   3   0   29.42    0.75
  -5  -3   0    4.57    0.20
  -5  -3   0    4.64    0.14
   5   3   0    4.66    0.17
  -7  -3   0    7.23    0.22
  -7  -3   0    7.04    0.29
   7   3   0    7.35    0.24
  -9  -3   0    5.41    0.20
  -9  -3   0    4.99    0.26
   9   3   0    5.60    0.20
 -11  -3   0    2.44    0.14
 -11  -3   0    2.13    0.18
  11   3   0    2.59    0.13
 -13  -3   0    1.40    0.19
 -13  -3   0    1.41    0.13
 -15  -3   0    0.99    0.19
 -17  -3   0    0.39    0.14
  16  -4   0    0.25    0.13
 -16   4   0    0.82    0.19
 -16   4   0    0.80    0.16
 -14   4   0    0.07    0.08
 -14   4   0    0.04    0.09
 -12   4   0    1.20    0.15
 -12   4   0    1.16    0.17
 -10   4   0    4.76    0.24
 -10   4   0    4.59    0.26
   8  -4   0    6.62    0.30
  -8   4   0    6.44    0.29
  -8   4   0    7.47    0.28
   6  -4   0    7.91    0.30
  -6   4   0    8.16    0.29
   4  -4   0   22.57    0.63
  -4   4   0   22.23    0.58
  -4   4   0   22.43    0.61
   2  -4   0   13.31    0.39
  -2   4   0   12.98    0.37
  -2   4   0   13.05    0.36
   0  -4   0    8.47    0.27
   0   4   0    8.46    0.26
   0   4   0    8.42    0.24
  -2  -4   0   12.93    0.38
   2   4   0   12.78    0.37
  -4  -4   0   22.52    0.63
   4   4   0   21.61    0.59
  -6  -4   0    7.95    0.30
  -6  -4   0    8.13    0.22
   6   4   0    8.11    0.27
  -8  -4   0    7.62    0.23
  -8  -4   0    7.42    0.31
   8   4   0    7.64    0.26
 -10  -4   0    4.51    0.26
 -10  -4   0    4.35    0.18
  10   4   0    4.84    0.19
 -12  -4   0    1.10    0.10
 -12  -4   0    0.99    0.16
  12   4   0    1.10    0.11
 -14  -4   0    0.09    0.10
 -16  -4   0    0.51    0.16
  15  -5   0    0.50    0.16
 -15   5   0    0.31    0.12
  13  -5   0    0.09    0.11
 -13   5   0    0.13    0.08
  11  -5   0    1.93    0.21
 -11   5   0    2.06    0.20
   9  -5   0    3.61    0.23
  -9   5   0    3.65    0.21
   7  -5   0    5.37    0.25
  -7   5   0    5.55    0.24
   5  -5   0    9.04    0.32
  -5   5   0    8.81    0.27
  -5   5   0    8.44    0.30
   3  -5   0   23.58    0.66
  -3   5   0   23.27    0.64
   1  -5   0    2.31    0.13
  -1   5   0    2.44    0.12
  -1   5   0    2.47    0.11
  -1  -5   0    2.13    0.13
   1   5   0    2.27    0.12
   1   5   0    2.39    0.09
  -3  -5   0   24.03    0.67
   3   5   0   23.92    0.65
  -5  -5   0    8.72    0.32
   5   5   0    8.55    0.29
  -7  -5   0    5.81    0.26
   7   5   0    5.44    0.22
  -9  -5   0    3.61    0.22
   9   5   0    3.67    0.18
 -11  -5   0    2.05    0.21
  11   5   0    2.06    0.14
 -13  -5   0    0.03    0.07
 -15  -5   0    0.48    0.14
  16  -6   0    0.70    0.18
 -16   6   0    0.92    0.17
  14  -6   0    0.19    0.13
 -14   6   0   -0.02    0.08
  12  -6   0    1.32    0.19
  10  -6   0    4.74    0.27
 -10   6   0    4.43    0.25
   8  -6   0    1.88    0.17
  -8   6   0    1.80    0.17
   6  -6   0    6.31    0.28
  -6   6   0    6.09    0.21
  -6   6   0    6.06    0.26
   4  -6   0    3.02    0.18
  -4   6   0    3.20    0.14
  -4   6   0    2.91    0.15
   2  -6   0    0.57    0.10
  -2   6   0    0.65    0.07
  -2   6   0    0.63    0.07
   0  -6   0   12.83    0.40
   0   6   0   12.22    0.35
   0   6   0   12.24    0.38
  -2  -6   0    0.66    0.09
   2   6   0    0.57    0.08
  -4  -6   0    2.82    0.17
   4   6   0    2.88    0.15
  -6  -6   0    6.47    0.28
   6   6   0    6.22    0.25
  -8  -6   0    2.10    0.17
   8   6   0    1.87    0.13
 -10  -6   0    4.57    0.27
  10   6   0    4.80    0.22
 -12  -6   0    1.41    0.19
  12   6   0    1.54    0.15
 -14  -6   0    0.12    0.11
 -16  -6   0    0.67    0.18
  15  -7   0    0.24    0.15
 -15   7   0    0.20    0.11
  13  -7   0    1.88    0.24
 -13   7   0    1.86    0.21
  11  -7   0    1.14    0.18
 -11   7   0    0.83    0.14
   9  -7   0    7.29    0.35
  -9   7   0    7.52    0.33
   7  -7   0    1.24    0.16
  -7   7   0    1.13    0.13
  -7   7   0    0.93    0.09
   5  -7   0    6.18    0.28
  -5   7   0    5.52    0.22
  -5   7   0    5.47    0.24
   3  -7   0    4.32    0.23
  -3   7   0    4.52    0.19
  -3   7   0    4.46    0.19
   1  -7   0    4.00    0.21
  -1   7   0    4.35    0.17
  -1   7   0    4.21    0.19
  -1  -7   0    4.37    0.21
   1   7   0    4.14    0.19
   1   7   0    3.87    0.14
  -3  -7   0    4.62    0.22
   3   7   0    4.69    0.21
  -5  -7   0    5.48    0.26
   5   7   0    5.69    0.24
  -7  -7   0    1.05    0.13
   7   7   0    0.96    0.11
  -9  -7   0    7.75    0.36
   9   7   0    7.59    0.31
 -11  -7   0    0.96    0.16
  11   7   0    0.89    0.12
 -13  -7   0    1.85    0.23
  13   7   0    1.84    0.17
 -15  -7   0    0.06    0.10
  14  -8   0   -0.01    0.14
 -14   8   0    0.05    0.10
  12  -8   0    2.64    0.28
 -12   8   0    2.93    0.26
  10  -8   0    3.85    0.27
 -10   8   0    4.01    0.24
   8  -8   0    1.75    0.20
  -8   8   0    1.35    0.15
   6  -8   0    8.95    0.38
  -6   8   0    8.63    0.33
  -6   8   0    8.47    0.30
   4  -8   0    6.99    0.31
  -4   8   0    7.00    0.27
  -4   8   0    7.30    0.27
   2  -8   0   13.98    0.47
  -2   8   0   13.32    0.41
  -2   8   0   13.39    0.43
   0  -8   0    1.94    0.15
   0   8   0    1.51    0.12
   0   8   0    1.64    0.09
  -2  -8   0   13.61    0.46
   2   8   0   13.24    0.44
  -4  -8   0    7.49    0.32
   4   8   0    7.33    0.29
  -6  -8   0    8.88    0.37
   6   8   0    8.50    0.33
  -8  -8   0    1.45    0.17
   8   8   0    1.63    0.16
 -10  -8   0    4.16    0.28
  10   8   0    4.10    0.23
 -12  -8   0    2.75    0.28
  12   8   0    2.66    0.20
 -14  -8   0   -0.05    0.09
  13  -9   0    0.77    0.20
 -13   9   0    0.78    0.16
  11  -9   0    0.54    0.15
 -11   9   0    0.48    0.13
   9  -9   0    2.42    0.25
  -9   9   0    2.80    0.20
   7  -9   0    2.53    0.24
  -7   9   0    2.39    0.18
  -7   9   0    2.66    0.16
   5  -9   0    0.99    0.15
  -5   9   0    1.14    0.12
   3  -9   0    0.20    0.10
  -3   9   0    0.17    0.06
  -3   9   0    0.13    0.05
   1  -9   0    2.11    0.17
  -1   9   0    2.28    0.15
  -1   9   0    2.11    0.12
   1   9   0    1.93    0.14
  -3  -9   0    0.21    0.08
   3   9   0    0.11    0.06
  -5  -9   0    1.43    0.17
   5   9   0    1.33    0.15
  -7  -9   0    2.68    0.20
   7   9   0    2.59    0.18
  -9  -9   0    3.15    0.23
   9   9   0    2.93    0.20
 -11  -9   0    0.53    0.14
  11   9   0    0.50    0.12
 -13  -9   0    0.50    0.14
  13   9   0    0.64    0.13
  12 -10   0    2.93    0.31
 -12  10   0    3.30    0.26
  10 -10   0    1.33    0.21
 -10  10   0    1.77    0.20
   8 -10   0    2.76    0.25
  -8  10   0    3.04    0.21
   6 -10   0    2.74    0.26
  -6  10   0    2.61    0.18
  -6  10   0    2.69    0.17
   4 -10   0    0.75    0.15
  -4  10   0    0.69    0.11
  -4  10   0    0.65    0.10
   2 -10   0    6.46    0.32
  -2  10   0    6.20    0.25
  -2  10   0    5.99    0.28
   0 -10   0    0.04    0.08
   0  10   0   -0.04    0.03
   0  10   0   -0.04    0.05
  -2 -10   0    6.01    0.30
   2  10   0    5.79    0.28
  -4 -10   0    0.52    0.11
   4  10   0    0.69    0.12
  -6 -10   0    2.69    0.21
   6  10   0    2.40    0.19
  -8 -10   0    2.66    0.22
   8  10   0    2.62    0.20
 -10 -10   0    1.76    0.22
  10  10   0    1.52    0.18
 -12 -10   0    2.67    0.29
  12  10   0    2.94    0.23
  11 -11   0    0.53    0.19
 -11  11   0    0.31    0.11
   9 -11   0    0.55    0.17
  -9  11   0    0.73    0.14
   7 -11   0    0.46    0.15
  -7  11   0    0.43    0.10
  -7  11   0    0.56    0.12
   5 -11   0    0.01    0.11
  -5  11   0    0.05    0.07
  -5  11   0    0.05    0.06
   3 -11   0    1.27    0.18
  -3  11   0    1.36    0.14
  -3  11   0    1.28    0.15
   1 -11   0    0.51    0.12
  -1  11   0    0.33    0.09
  -1  11   0    0.56    0.08
  -1 -11   0    0.47    0.11
   1  11   0    0.44    0.10
  -3 -11   0    1.65    0.19
   3  11   0    1.32    0.15
  -5 -11   0    0.03    0.07
   5  11   0    0.09    0.07
  -7 -11   0    0.43    0.12
   7  11   0    0.42    0.11
  -9 -11   0    0.61    0.14
   9  11   0    0.63    0.13
 -11 -11   0    0.53    0.15
  11  11   0    0.35    0.13
  10 -12   0    0.11    0.14
 -10  12   0    0.12    0.09
   8 -12   0    0.85    0.19
  -8  12   0    0.87    0.14
   6 -12   0    2.33    0.26
  -6  12   0    2.38    0.19
  -6  12   0    2.12    0.19
   4 -12   0    0.36    0.13
  -4  12   0    0.68    0.12
  -4  12   0    0.74    0.12
   2 -12   0    3.57    0.26
  -2  12   0    3.58    0.23
  -2  12   0    3.10    0.18
   0 -12   0    0.07    0.08
   0  12   0    0.08    0.08
  -2 -12   0    3.32    0.24
   2  12   0    3.03    0.22
  -4 -12   0    0.72    0.15
   4  12   0    0.46    0.11
  -6 -12   0    2.79    0.23
   6  12   0    2.12    0.22
  -8 -12   0    0.56    0.14
   8  12   0    0.86    0.15
 -10 -12   0    0.00    0.09
  10  12   0    0.12    0.10
   9 -13   0    0.53    0.19
  -9  13   0    0.45    0.13
   7 -13   0    1.59    0.24
  -7  13   0    1.23    0.17
  -7  13   0    0.96    0.14
   5 -13   0    0.31    0.13
  -5  13   0    0.32    0.11
  -5  13   0    0.28    0.09
   3 -13   0    1.95    0.23
  -3  13   0    2.26    0.16
  -3  13   0    2.24    0.21
   1 -13   0    0.52    0.14
  -1  13   0    0.41    0.11
  -1 -13   0    0.63    0.13
   1  13   0    0.44    0.12
  -3 -13   0    2.53    0.22
   3  13   0    2.08    0.22
  -5 -13   0    0.36    0.13
   5  13   0    0.27    0.11
  -7 -13   0    1.38    0.20
   7  13   0    1.68    0.21
  -9 -13   0    0.14    0.11
   9  13   0    0.09    0.11
   6 -14   0    0.26    0.15
  -6  14   0    0.16    0.11
  -6  14   0    0.25    0.10
   4 -14   0    0.41    0.15
  -4  14   0    0.35    0.12
   2 -14   0    2.38    0.27
  -2  14   0    2.78    0.25
   0 -14   0   -0.01    0.09
   0  14   0   -0.01    0.09
  -2 -14   0    2.45    0.26
   2  14   0    2.54    0.24
  -4 -14   0    0.44    0.13
   4  14   0    0.35    0.12
  -6 -14   0    0.21    0.12
   6  14   0    0.39    0.13
   3 -15   0    1.59    0.23
  -3  15   0    1.96    0.22
   1 -15   0    0.55    0.15
  -1  15   0    0.80    0.16
  -1 -15   0    0.66    0.16
   1  15   0    0.73    0.15
  -3 -15   0    1.72    0.23
   3  15   0    2.02    0.24
   3  15  -1    0.00    0.10
  -3 -15   1    0.10    0.10
   1  15  -1    0.93    0.17
  -1 -15   1    1.04    0.18
  -1  15  -1    0.36    0.13
   1 -15   1    0.41    0.14
  -3  15  -1    0.27    0.12
   3 -15   1    0.17    0.12
   6  14  -1    1.90    0.23
  -6 -14   1    1.83    0.24
   4  14  -1    0.82    0.16
  -4 -14   1    0.90    0.18
   2  14  -1    1.60    0.20
  -2 -14   1    1.75    0.22
   0  14  -1    0.08    0.10
   0 -14   1    0.10    0.11
  -2  14  -1    2.88    0.25
   2 -14   1    3.00    0.26
  -4  14  -1    1.28    0.18
   4 -14   1    1.07    0.20
   6 -14   1    1.56    0.23
   9  13  -1    0.04    0.11
  -9 -13   1    0.12    0.11
   7  13  -1    2.70    0.26
  -7 -13   1    2.72    0.29
   5  13  -1    0.38    0.12
  -5 -13   1    0.27    0.11
   3  13  -1    1.28    0.17
  -3 -13   1    1.64    0.21
   1  13  -1    0.48    0.12
  -1 -13   1    0.70    0.14
  -1  13  -1    0.92    0.15
   1 -13   1    0.83    0.16
  -3  13  -1    0.48    0.12
   3 -13   1    0.97    0.18
  -5  13  -1    0.17    0.08
  -5  13  -1    0.35    0.11
   5 -13   1    0.07    0.12
  -7  13  -1    1.90    0.21
   7 -13   1    2.24    0.28
  -9  13  -1    0.42    0.13
   9 -13   1    0.60    0.19
  10  12  -1    0.15    0.11
 -10 -12   1    0.26    0.11
   8  12  -1    0.37    0.12
  -8 -12   1    0.57    0.14
   6  12  -1    0.57    0.12
  -6 -12   1    0.41    0.12
   4  12  -1    0.05    0.08
  -4 -12   1    0.12    0.09
   2  12  -1    4.14    0.26
  -2 -12   1    4.07    0.27
   0  12  -1   -0.03    0.07
   0 -12   1    0.11    0.09
  -2  12  -1    2.15    0.20
   2 -12   1    1.95    0.22
  -4  12  -1    0.72    0.11
  -4  12  -1    0.51    0.11
   4 -12   1    0.49    0.14
  -6  12  -1    2.83    0.21
  -6  12  -1    2.91    0.21
   6 -12   1    3.32    0.30
  -8  12  -1    0.96    0.15
   8 -12   1    1.18    0.22
 -10  12  -1    0.06    0.09
  10 -12   1   -0.01    0.15
  11  11  -1    1.47    0.19
 -11 -11   1    1.85    0.25
   9  11  -1    0.23    0.10
  -9 -11   1    0.20    0.10
   7  11  -1    1.85    0.20
  -7 -11   1    1.53    0.20
   5  11  -1    2.91    0.21
  -5 -11   1    3.01    0.23
   3  11  -1    3.68    0.23
  -3 -11   1    3.25    0.23
   1  11  -1    3.45    0.22
  -1 -11   1    3.40    0.23
  -1  11  -1    1.21    0.15
   1 -11   1    1.25    0.18
  -3  11  -1    4.66    0.25
  -3  11  -1    4.49    0.22
   3 -11   1    4.22    0.28
  -5  11  -1    0.11    0.08
  -5  11  -1    0.29    0.08
   5 -11   1    0.20    0.12
  -7  11  -1    1.70    0.18
   7 -11   1    1.94    0.24
  -9  11  -1    1.25    0.17
   9 -11   1    1.33    0.21
 -11  11  -1    1.25    0.19
  11 -11   1    1.74    0.27
  12  10  -1    2.79    0.24
 -12 -10   1    2.54    0.28
  10  10  -1    0.46    0.12
 -10 -10   1    0.34    0.12
   8  10  -1    1.91    0.19
  -8 -10   1    1.79    0.21
   6  10  -1    0.95    0.13
  -6 -10   1    1.22    0.17
   4  10  -1    0.18    0.08
  -4 -10   1    0.04    0.07
   2  10  -1    1.01    0.13
  -2 -10   1    0.77    0.13
   0  10  -1    3.56    0.21
   0 -10   1    3.65    0.24
  -2  10  -1    2.27    0.14
  -2  10  -1    2.19    0.17
   2 -10   1    2.05    0.21
  -4  10  -1    0.06    0.05
  -4  10  -1    0.15    0.07
   4 -10   1    0.14    0.10
  -6  10  -1    0.48    0.10
  -6  10  -1    0.33    0.08
   6 -10   1    0.46    0.14
  -8  10  -1    0.63    0.12
   8 -10   1    0.63    0.15
 -10  10  -1    0.17    0.09
  10 -10   1    0.25    0.14
 -12  10  -1    0.83    0.16
  12 -10   1    1.03    0.22
  13   9  -1    0.36    0.11
 -13  -9   1    0.42    0.14
  11   9  -1    3.32    0.23
 -11  -9   1    3.49    0.27
   9   9  -1    1.78    0.18
  -9  -9   1    1.62    0.20
   7   9  -1    0.92    0.12
  -7  -9   1    0.86    0.14
   5   9  -1    1.08    0.13
  -5  -9   1    1.43    0.17
   3   9  -1    5.44    0.26
  -3  -9   1    5.71    0.28
   1   9  -1    5.58    0.25
  -1  -9   1    6.00    0.28
  -1   9  -1    4.72    0.22
  -1   9  -1    4.69    0.19
   1  -9   1    4.31    0.25
  -3   9  -1   14.01    0.46
  -3   9  -1   14.02    0.45
   3  -9   1   14.67    0.52
  -5   9  -1    0.40    0.08
   5  -9   1    0.55    0.12
  -7   9  -1    2.03    0.17
   7  -9   1    1.81    0.21
  -9   9  -1    4.21    0.25
   9  -9   1    3.85    0.29
 -11   9  -1    2.66    0.25
  11  -9   1    2.59    0.28
 -13   9  -1    1.75    0.22
  13  -9   1    2.06    0.28
 -14  -8   1    0.28    0.13
  12   8  -1    2.99    0.21
 -12  -8   1    2.97    0.25
  10   8  -1    0.36    0.09
 -10  -8   1    0.32    0.11
   8   8  -1    0.88    0.12
  -8  -8   1    0.97    0.14
   6   8  -1    2.48    0.16
  -6  -8   1    2.85    0.19
   4   8  -1    1.67    0.13
  -4  -8   1    2.00    0.16
   2   8  -1    0.44    0.08
  -2  -8   1    0.50    0.10
   0   8  -1   14.08    0.45
   0   8  -1   13.51    0.40
   0  -8   1   14.70    0.48
  -2   8  -1    1.58    0.11
  -2   8  -1    1.52    0.12
   2  -8   1    1.67    0.17
  -4   8  -1    3.73    0.18
  -4   8  -1    3.76    0.18
   4  -8   1    4.21    0.24
  -6   8  -1    2.30    0.16
  -6   8  -1    2.23    0.14
   6  -8   1    2.21    0.21
  -8   8  -1    1.66    0.17
   8  -8   1    1.62    0.19
 -10   8  -1    1.48    0.17
  10  -8   1    1.81    0.23
 -12   8  -1    1.49    0.19
  12  -8   1    1.10    0.20
 -14   8  -1    0.22    0.11
  14  -8   1    0.18    0.14
 -15  -7   1    0.00    0.09
  13   7  -1    1.35    0.15
 -13  -7   1    1.35    0.21
  11   7  -1    4.67    0.24
 -11  -7   1    4.79    0.30
   9   7  -1    2.56    0.17
  -9  -7   1    2.33    0.19
   7   7  -1   16.32    0.52
  -7  -7   1   16.78    0.57
   5   7  -1    2.02    0.14
  -5  -7   1    2.26    0.16
   3   7  -1   17.43    0.53
  -3  -7   1   17.93    0.56
   1   7  -1    1.67    0.12
  -1  -7   1    1.64    0.14
  -1   7  -1    6.66    0.23
  -1   7  -1    6.75    0.25
   1  -7   1    6.58    0.28
  -3   7  -1   12.33    0.38
  -3   7  -1   12.13    0.38
   3  -7   1   11.90    0.43
  -5   7  -1    0.00    0.04
  -5   7  -1    0.08    0.05
   5  -7   1    0.13    0.07
  -7   7  -1    6.73    0.29
   7  -7   1    6.78    0.32
  -9   7  -1    0.12    0.08
   9  -7   1    0.26    0.10
 -11   7  -1    5.96    0.30
  11  -7   1    6.30    0.35
 -13   7  -1    3.02    0.24
  13  -7   1    2.82    0.29
 -15   7  -1    0.11    0.10
  15  -7   1    0.05    0.13
 -16  -6   1    0.26    0.13
 -14  -6   1    0.72    0.16
  12   6  -1    0.88    0.11
 -12  -6   1    0.86    0.16
  10   6  -1   11.52    0.39
 -10  -6   1   11.00    0.46
   8   6  -1    6.31    0.26
  -8  -6   1    6.80    0.31
   6   6  -1    4.80    0.21
  -6  -6   1    4.79    0.23
   4   6  -1   15.69    0.48
  -4  -6   1   16.26    0.51
   2   6  -1    7.09    0.26
  -2  -6   1    6.98    0.27
   0   6  -1   20.59    0.59
   0   6  -1   20.80    0.56
   0  -6   1   22.36    0.62
  -2   6  -1    4.45    0.19
  -2   6  -1    4.73    0.18
   2  -6   1    4.65    0.22
  -4   6  -1    5.99    0.23
  -4   6  -1    6.13    0.21
   4  -6   1    4.65    0.24
  -6   6  -1    1.25    0.13
   6  -6   1    1.22    0.14
  -8   6  -1    2.65    0.17
   8  -6   1    2.35    0.19
 -10   6  -1   14.81    0.52
  10  -6   1   14.64    0.54
  12  -6   1    1.16    0.18
 -14   6  -1    0.73    0.15
  14  -6   1    0.82    0.18
 -16   6  -1    0.21    0.12
  16  -6   1    0.14    0.14
 -15  -5   1    1.63    0.23
  11   5  -1    1.61    0.13
 -11  -5   1    1.75    0.19
   9   5  -1    5.99    0.24
  -9  -5   1    5.86    0.29
  -9  -5   1    6.12    0.19
   7   5  -1    9.89    0.33
  -7  -5   1    9.92    0.37
  -7  -5   1    9.87    0.26
   5   5  -1    5.10    0.20
  -5  -5   1    4.79    0.22
   3   5  -1   29.51    0.79
  -3  -5   1   29.76    0.81
   1   5  -1    0.39    0.06
  -1  -5   1    0.49    0.07
  -1   5  -1    2.76    0.13
  -1   5  -1    2.97    0.12
   1  -5   1    3.31    0.16
  -3   5  -1    9.74    0.31
   3  -5   1   10.11    0.34
  -5   5  -1    2.79    0.12
  -5   5  -1    2.61    0.15
   5  -5   1    2.72    0.16
  -7   5  -1    6.97    0.28
   7  -5   1    6.81    0.29
  -9   5  -1    2.55    0.17
   9  -5   1    2.50    0.19
 -11   5  -1    1.12    0.15
  11  -5   1    1.07    0.17
 -13   5  -1    0.38    0.11
  13  -5   1    0.31    0.14
 -15   5  -1    0.48    0.13
  15  -5   1    0.40    0.15
 -16  -4   1    0.52    0.16
 -14  -4   1    0.56    0.14
  12   4  -1    1.08    0.10
 -12  -4   1    0.83    0.14
 -12  -4   1    0.90    0.10
  10   4  -1    5.10    0.20
 -10  -4   1    4.59    0.26
 -10  -4   1    5.23    0.19
   8   4  -1    9.19    0.30
  -8  -4   1    9.76    0.37
  -8  -4   1    9.09    0.27
   6   4  -1    1.96    0.11
  -6  -4   1    1.90    0.07
  -6  -4   1    2.08    0.14
   4   4  -1    7.82    0.26
  -4  -4   1    7.82    0.28
   2   4  -1    3.21    0.13
  -2  -4   1    3.07    0.14
   0   4  -1    6.98    0.22
   0   4  -1    7.13    0.20
   0  -4   1    7.10    0.24
  -2   4  -1    5.75    0.19
  -2   4  -1    5.67    0.19
   2  -4   1    6.02    0.22
  -4   4  -1   17.27    0.49
  -4   4  -1   17.50    0.46
   4  -4   1   16.98    0.51
  -6   4  -1   10.73    0.36
   6  -4   1   10.97    0.38
  -8   4  -1    3.85    0.20
 -10   4  -1    4.94    0.27
 -10   4  -1    5.26    0.26
 -12   4  -1    0.06    0.08
 -12   4  -1    0.04    0.07
 -14   4  -1    0.04    0.07
 -14   4  -1    0.05    0.09
 -16   4  -1    0.54    0.17
 -16   4  -1    0.67    0.14
  16  -4   1    0.22    0.14
 -17  -3   1    0.68    0.17
 -15  -3   1    1.15    0.19
 -13  -3   1    1.25    0.18
 -13  -3   1    1.13    0.12
  11   3  -1    1.50    0.10
 -11  -3   1    1.78    0.12
 -11  -3   1    1.30    0.16
   9   3  -1    6.07    0.21
  -9  -3   1    5.96    0.21
  -9  -3   1    5.38    0.27
   7   3  -1    2.22    0.11
  -7  -3   1    2.35    0.15
  -7  -3   1    2.37    0.10
   5   3  -1   44.63    1.14
  -5  -3   1   46.67    1.19
  -5  -3   1   45.69    1.11
   3   3  -1   34.37    0.89
  -3  -3   1   36.51    0.92
   1   3  -1    4.12    0.15
  -1  -3   1    4.31    0.16
  -1   3  -1    0.93    0.06
  -1   3  -1    0.86    0.06
   1  -3   1    1.04    0.09
  -3   3  -1   30.72    0.76
  -3   3  -1   30.54    0.79
   3  -3   1   30.26    0.80
  -5   3  -1   17.19    0.49
  -7   3  -1    0.15    0.05
  -7   3  -1    0.21    0.07
  -9   3  -1    6.98    0.29
  -9   3  -1    6.95    0.31
 -11   3  -1    2.67    0.18
 -11   3  -1    2.86    0.21
 -13   3  -1    1.15    0.18
 -13   3  -1    1.37    0.16
 -15   3  -1    1.00    0.19
 -15   3  -1    1.00    0.16
 -17   3  -1    0.17    0.14
 -17   3  -1    0.03    0.09
 -16  -2   1    0.00    0.09
 -16  -2   1   -0.04    0.07
 -14  -2   1    0.53    0.10
 -14  -2   1    0.42    0.12
 -12  -2   1    0.97    0.15
 -12  -2   1    0.91    0.11
  10   2  -1    5.61    0.19
 -10  -2   1    6.07    0.23
 -10  -2   1    6.01    0.29
   8   2  -1    5.75    0.18
  -8  -2   1    4.80    0.24
  -8  -2   1    5.96    0.20
   6   2  -1    1.44    0.08
  -6  -2   1    1.46    0.08
  -6  -2   1    1.57    0.11
   4   2  -1  125.64    3.06
  -4  -2   1  131.45    3.11
  -4  -2   1  125.19    3.05
   2   2  -1    0.62    0.05
  -2  -2   1    0.71    0.06
  -2  -2   1    0.55    0.03
   0   2  -1    9.53    0.25
   0   2  -1    9.30    0.24
   0  -2   1    9.34    0.26
  -2   2  -1   54.69    1.34
  -2   2  -1   55.59    1.35
   2  -2   1   55.30    1.36
  -4   2  -1    4.43    0.17
  -4   2  -1    4.23    0.16
  -6   2  -1    3.22    0.17
  -6   2  -1    3.17    0.15
  -8   2  -1    2.00    0.15
  -8   2  -1    2.26    0.14
 -10   2  -1    3.60    0.22
 -10   2  -1    3.95    0.21
 -12   2  -1    0.37    0.09
 -12   2  -1    0.43    0.11
 -14   2  -1    0.57    0.12
 -14   2  -1    0.55    0.15
 -16   2  -1    0.14    0.12
 -16   2  -1    0.30    0.11
 -17  -1   1    0.25    0.14
 -15  -1   1    2.64    0.28
 -13  -1   1    4.40    0.28
 -11  -1   1    0.78    0.13
   9   1  -1   12.80    0.35
  -9  -1   1   12.95    0.45
   7   1  -1    9.11    0.25
  -7  -1   1    8.78    0.32
   5   1  -1   19.42    0.50
  -5  -1   1   20.28    0.56
  -5  -1   1   19.79    0.52
   3   1  -1   50.03    1.20
  -3  -1   1   50.35    1.20
  -3  -1   1   47.53    1.23
   1   1  -1    5.95    0.16
  -1  -1   1    6.10    0.15
  -1   1  -1  147.89    3.60
   1  -1   1  147.89    3.61
  -3   1  -1    1.15    0.08
  -3   1  -1    1.16    0.07
  -5   1  -1    4.84    0.20
  -5   1  -1    5.19    0.18
  -7   1  -1    2.47    0.15
  -7   1  -1    2.09    0.12
  -9   1  -1   23.23    0.71
  -9   1  -1   22.22    0.65
 -11   1  -1    0.85    0.11
 -11   1  -1    0.86    0.13
 -13   1  -1    4.41    0.24
 -13   1  -1    4.06    0.28
 -15   1  -1    2.70    0.24
 -17   1  -1   -0.04    0.11
 -17   1  -1   -0.01    0.08
 -16   0   1   -0.09    0.06
 -16   0   1   -0.04    0.07
 -14   0   1    0.09    0.07
 -14   0   1    0.15    0.09
 -12   0   1    0.05    0.07
 -12   0   1    0.00    0.05
 -10   0   1    0.05    0.05
 -10   0   1    0.08    0.05
   8   0  -1    0.01    0.02
  -8   0   1   -0.06    0.03
  -8   0   1    0.04    0.05
   6   0  -1    0.03    0.01
  -6   0   1    0.02    0.03
  -6   0   1    0.03    0.04
   4   0  -1    0.16    0.02
  -4   0   1    0.21    0.05
  -4   0   1   -0.01    0.03
  -2   0   1   -0.31    0.03
  -2   0   1   -0.22    0.04
  -2   0  -1   -0.01    0.01
  -2   0  -1   -0.02    0.02
  -4   0  -1    0.07    0.03
  -4   0  -1    0.04    0.03
   4   0   1    0.05    0.02
  -6   0  -1    0.00    0.03
  -6   0  -1   -0.01    0.03
   6   0   1   -0.02    0.01
  -8   0  -1   -0.02    0.03
  -8   0  -1    0.06    0.05
   8   0   1   -0.01    0.02
 -10   0  -1   -0.05    0.04
 -10   0  -1    0.01    0.04
 -12   0  -1    0.02    0.05
 -12   0  -1    0.04    0.07
 -14   0  -1    0.12    0.09
 -14   0  -1    0.07    0.07
 -16   0  -1   -0.03    0.08
 -16   0  -1   -0.09    0.07
 -17   1   1    0.25    0.14
 -17   1   1    0.39    0.12
 -15   1   1    1.75    0.24
 -15   1   1    3.29    0.22
 -13   1   1    5.35    0.27
 -13   1   1    5.69    0.32
 -11   1   1    0.69    0.10
 -11   1   1    0.76    0.13
  -9   1   1   12.78    0.42
  -9   1   1   13.57    0.46
  -7   1   1    7.53    0.30
  -7   1   1    9.26    0.29
  -5   1   1   19.31    0.53
  -5   1   1   19.94    0.55
  -3   1   1   51.90    1.25
  -3   1   1   49.40    1.24
  -1   1   1    5.80    0.15
  -1   1   1    5.22    0.14
  -1  -1  -1  150.52    3.65
   1   1   1  146.62    3.60
  -3  -1  -1    0.94    0.07
  -3  -1  -1    1.17    0.06
   3   1   1    1.28    0.06
  -5  -1  -1    5.13    0.17
  -5  -1  -1    5.39    0.21
   5   1   1    5.06    0.16
  -7  -1  -1    1.78    0.10
  -7  -1  -1    2.24    0.14
   7   1   1    2.19    0.09
  -9  -1  -1   17.53    0.61
   9   1   1   20.67    0.51
 -11  -1  -1    0.92    0.14
  11   1   1    0.93    0.07
 -17  -1  -1    0.02    0.04
 -17  -1  -1   -0.04    0.09
 -16   2   1   -0.04    0.07
 -16   2   1    0.03    0.11
 -14   2   1    0.42    0.12
 -14   2   1    0.56    0.12
 -12   2   1    0.74    0.13
 -12   2   1    0.86    0.12
 -10   2   1    3.09    0.20
  -8   2   1    3.52    0.19
  -6   2   1    1.04    0.10
  -6   2   1    1.41    0.10
  -4   2   1  129.91    3.12
  -4   2   1  125.79    3.11
  -4   2   1  128.99    3.06
   2  -2  -1    0.72    0.06
  -2   2   1    0.57    0.05
  -2   2   1    0.55    0.04
   0   2   1    9.37    0.24
   0   2   1    9.43    0.25
  -2  -2  -1   54.25    1.34
   2   2   1   54.64    1.33
  -4  -2  -1    4.38    0.17
  -4  -2  -1    4.38    0.13
   4   2   1    4.23    0.14
  -6  -2  -1    3.30    0.17
  -6  -2  -1    3.09    0.12
   6   2   1    2.98    0.12
  -8  -2  -1    2.42    0.16
  -8  -2  -1    2.30    0.12
   8   2   1    2.49    0.11
 -10  -2  -1    3.90    0.23
 -10  -2  -1    4.07    0.18
  10   2   1    4.12    0.16
 -12  -2  -1    0.24    0.07
 -12  -2  -1    0.35    0.11
 -14  -2  -1    0.62    0.14
 -14  -2  -1    0.43    0.09
 -16  -2  -1    0.03    0.11
 -17   3   1    1.03    0.22
 -17   3   1    0.77    0.15
 -15   3   1    1.27    0.21
 -15   3   1    1.06    0.16
 -13   3   1    1.14    0.15
 -13   3   1    1.04    0.17
 -11   3   1    1.71    0.18
 -11   3   1    1.56    0.16
  -9   3   1    6.32    0.27
  -9   3   1    6.40    0.29
  -7   3   1    2.23    0.14
  -7   3   1    2.74    0.16
  -5   3   1   45.11    1.16
  -5   3   1   44.44    1.15
  -5   3   1   45.37    1.10
   3  -3  -1   36.11    0.92
  -3   3   1   35.39    0.91
  -3   3   1   36.31    0.89
   1  -3  -1    4.15    0.16
  -1   3   1    4.50    0.15
  -1   3   1    4.46    0.14
  -1  -3  -1    0.91    0.07
   1   3   1    0.91    0.04
   1   3   1    0.92    0.06
  -3  -3  -1   29.81    0.78
   3   3   1   29.77    0.76
  -5  -3  -1   16.98    0.43
  -5  -3  -1   16.52    0.50
   5   3   1   16.80    0.46
  -7  -3  -1    0.29    0.07
  -7  -3  -1    0.22    0.04
   7   3   1    0.28    0.05
  -9  -3  -1    6.97    0.24
  -9  -3  -1    6.41    0.30
   9   3   1    6.94    0.23
 -11  -3  -1    2.59    0.14
 -11  -3  -1    2.38    0.19
  11   3   1    2.77    0.14
 -13  -3  -1    1.53    0.20
 -13  -3  -1    1.36    0.13
 -15  -3  -1    0.80    0.17
 -17  -3  -1    0.23    0.15
 -16   4   1    0.70    0.17
 -16   4   1    0.64    0.15
 -14   4   1    0.86    0.14
 -14   4   1    0.74    0.16
 -12   4   1    0.91    0.15
 -12   4   1    0.94    0.13
 -10   4   1    4.71    0.26
 -10   4   1    5.02    0.25
  -8   4   1    9.58    0.36
  -8   4   1    9.02    0.34
   6  -4  -1    2.39    0.15
  -6   4   1    1.99    0.09
  -6   4   1    1.95    0.13
   4  -4  -1    7.99    0.28
  -4   4   1    8.02    0.24
  -4   4   1    7.83    0.26
   2  -4  -1    2.97    0.14
  -2   4   1    3.13    0.12
  -2   4   1    3.17    0.12
   0  -4  -1    7.13    0.23
   0   4   1    7.13    0.23
   0   4   1    7.00    0.20
  -2  -4  -1    5.82    0.21
   2   4   1    5.55    0.20
  -4  -4  -1   18.15    0.52
   4   4   1   17.40    0.49
  -6  -4  -1   10.12    0.36
   6   4   1   10.56    0.32
  -8  -4  -1    4.46    0.23
  -8  -4  -1    3.90    0.15
   8   4   1    4.16    0.17
 -10  -4  -1    4.87    0.27
 -10  -4  -1    4.87    0.19
  10   4   1    5.00    0.20
 -12  -4  -1    0.13    0.08
  12   4   1   -0.01    0.05
 -14  -4  -1    0.03    0.08
 -16  -4  -1    0.69    0.17
 -15   5   1    1.37    0.19
  13  -5  -1    0.01    0.10
 -13   5   1    0.05    0.08
  11  -5  -1    2.15    0.21
 -11   5   1    1.92    0.19
   9  -5  -1    6.03    0.29
  -9   5   1    6.17    0.27
   7  -5  -1    9.60    0.35
  -7   5   1    9.53    0.35
   5  -5  -1    4.88    0.22
  -5   5   1    4.78    0.17
  -5   5   1    4.81    0.20
   3  -5  -1   30.48    0.82
  -3   5   1   30.19    0.80
   1  -5  -1    0.37    0.07
  -1   5   1    0.37    0.05
  -1   5   1    0.43    0.06
  -1  -5  -1    2.96    0.15
   1   5   1    3.34    0.11
   1   5   1    2.99    0.14
  -3  -5  -1    9.69    0.33
   3   5   1    9.72    0.31
  -5  -5  -1    2.66    0.16
   5   5   1    2.50    0.13
  -7  -5  -1    7.31    0.30
   7   5   1    6.93    0.26
  -9  -5  -1    2.90    0.20
   9   5   1    2.62    0.15
 -11  -5  -1    1.01    0.16
  11   5   1    1.12    0.11
 -13  -5  -1    0.22    0.10
 -15  -5  -1    0.73    0.17
  16  -6  -1    0.43    0.17
 -16   6   1    0.29    0.12
  14  -6  -1    0.64    0.17
 -14   6   1    0.62    0.14
  12  -6  -1    0.87    0.17
  10  -6  -1   11.00    0.44
 -10   6   1   10.74    0.42
   8  -6  -1    6.21    0.29
  -8   6   1    6.12    0.27
   6  -6  -1    5.31    0.25
  -6   6   1    5.10    0.22
  -6   6   1    4.92    0.19
   4  -6  -1   15.97    0.51
  -4   6   1   16.37    0.46
  -4   6   1   16.31    0.49
   2  -6  -1    7.29    0.28
  -2   6   1    6.92    0.24
  -2   6   1    7.01    0.24
   0  -6  -1   21.63    0.62
   0   6   1   21.21    0.60
   0   6   1   21.48    0.56
  -2  -6  -1    4.53    0.20
   2   6   1    4.31    0.19
   2   6   1    4.74    0.13
  -4  -6  -1    5.89    0.25
   4   6   1    6.02    0.23
  -6  -6  -1    1.23    0.14
   6   6   1    1.28    0.12
  -8  -6  -1    2.77    0.19
   8   6   1    2.43    0.15
 -10  -6  -1   14.84    0.57
  10   6   1   15.97    0.49
 -12  -6  -1    0.97    0.17
  12   6   1    0.99    0.12
 -14  -6  -1    0.47    0.14
 -16  -6  -1    0.30    0.14
  15  -7  -1    0.11    0.14
 -15   7   1    0.12    0.10
  13  -7  -1    1.40    0.21
 -13   7   1    1.21    0.18
  11  -7  -1    5.47    0.31
 -11   7   1    4.62    0.27
   9  -7  -1    2.52    0.20
  -9   7   1    2.45    0.18
   7  -7  -1   16.43    0.56
  -7   7   1   16.49    0.53
  -7   7   1   16.45    0.47
   5  -7  -1    2.05    0.16
  -5   7   1    2.33    0.14
  -5   7   1    2.27    0.13
   3  -7  -1   17.70    0.56
  -3   7   1   18.08    0.52
  -3   7   1   17.24    0.51
   1  -7  -1    1.81    0.14
  -1   7   1    1.63    0.12
  -1   7   1    1.54    0.09
  -1  -7  -1    6.61    0.27
   1   7   1    6.60    0.25
   1   7   1    6.36    0.20
  -3  -7  -1   11.77    0.41
   3   7   1   12.29    0.40
  -5  -7  -1    0.02    0.05
   5   7   1    0.04    0.05
  -7  -7  -1    6.41    0.30
   7   7   1    7.07    0.28
  -9  -7  -1    0.05    0.07
   9   7   1    0.10    0.06
 -11  -7  -1    6.42    0.34
  11   7   1    6.10    0.28
 -13  -7  -1    2.36    0.27
  13   7   1    2.65    0.19
 -15  -7  -1    0.10    0.11
  14  -8  -1    0.19    0.16
 -14   8   1    0.40    0.13
  12  -8  -1    2.49    0.27
 -12   8   1    3.13    0.23
  10  -8  -1    0.39    0.13
 -10   8   1    0.38    0.10
   8  -8  -1    1.15    0.17
  -8   8   1    1.00    0.14
   6  -8  -1    2.79    0.21
  -6   8   1    2.82    0.16
  -6   8   1    3.19    0.18
   4  -8  -1    1.93    0.17
  -4   8   1    1.71    0.13
  -4   8   1    1.63    0.12
   2  -8  -1    0.59    0.11
  -2   8   1    0.37    0.07
  -2   8   1    0.54    0.07
   0  -8  -1   13.57    0.46
   0   8   1   13.51    0.39
   0   8   1   14.02    0.44
  -2  -8  -1    1.34    0.14
   2   8   1    1.63    0.13
  -4  -8  -1    3.78    0.21
   4   8   1    4.30    0.21
  -6  -8  -1    2.35    0.18
   6   8   1    2.35    0.16
  -8  -8  -1    1.49    0.17
   8   8   1    1.66    0.15
 -10  -8  -1    1.40    0.19
  10   8   1    1.50    0.16
 -12  -8  -1    0.88    0.17
  12   8   1    1.09    0.14
 -14  -8  -1    0.20    0.13
  13  -9  -1    0.14    0.15
 -13   9   1    0.32    0.12
  11  -9  -1    3.30    0.29
 -11   9   1    3.75    0.25
   9  -9  -1    1.56    0.21
  -9   9   1    1.73    0.18
   7  -9  -1    1.17    0.17
  -7   9   1    1.41    0.15
  -7   9   1    1.12    0.12
   5  -9  -1    1.44    0.18
  -5   9   1    1.36    0.14
   3  -9  -1    5.88    0.29
  -3   9   1    5.71    0.25
  -3   9   1    5.83    0.24
   1  -9  -1    5.89    0.28
  -1   9   1    5.69    0.25
  -1   9   1    5.63    0.22
  -1  -9  -1    4.62    0.24
   1   9   1    4.25    0.16
   1   9   1    4.49    0.22
  -3  -9  -1   14.28    0.49
   3   9   1   13.90    0.47
  -5  -9  -1    0.48    0.10
   5   9   1    0.50    0.10
  -7  -9  -1    1.80    0.19
   7   9   1    1.98    0.18
  -9  -9  -1    4.27    0.27
   9   9   1    4.13    0.24
 -11  -9  -1    2.78    0.28
  11   9   1    2.54    0.20
 -13  -9  -1    1.96    0.26
  13   9   1    1.62    0.18
  12 -10  -1    3.04    0.31
 -12  10   1    2.61    0.26
  10 -10  -1    0.06    0.13
 -10  10   1    0.10    0.08
   8 -10  -1    1.49    0.20
  -8  10   1    1.47    0.17
  -8  10   1    1.56    0.14
   6 -10  -1    1.32    0.18
  -6  10   1    1.08    0.12
  -6  10   1    1.24    0.14
   4 -10  -1    0.24    0.11
  -4  10   1    0.15    0.06
  -4  10   1    0.14    0.07
   2 -10  -1    0.92    0.14
  -2  10   1    0.88    0.12
  -2  10   1    0.76    0.09
   0 -10  -1    3.65    0.23
   0  10   1    3.31    0.16
   0  10   1    3.69    0.21
  -2 -10  -1    2.05    0.17
   2  10   1    2.04    0.16
  -4 -10  -1    0.11    0.07
   4  10   1    0.13    0.07
  -6 -10  -1    0.39    0.10
   6  10   1    0.42    0.10
  -8 -10  -1    0.67    0.14
   8  10   1    0.37    0.10
 -10 -10  -1    0.07    0.09
  10  10   1    0.19    0.10
 -12 -10  -1    0.66    0.16
  12  10   1    0.69    0.14
  11 -11  -1    1.97    0.28
 -11  11   1    1.81    0.22
   9 -11  -1    0.12    0.12
  -9  11   1    0.07    0.08
   7 -11  -1    1.80    0.23
  -7  11   1    1.85    0.18
  -7  11   1    1.63    0.16
   5 -11  -1    2.94    0.25
  -5  11   1    2.78    0.19
  -5  11   1    2.67    0.19
   3 -11  -1    3.71    0.26
  -3  11   1    3.74    0.20
  -3  11   1    3.43    0.22
   1 -11  -1    3.61    0.24
  -1  11   1    3.84    0.23
  -1  11   1    3.54    0.18
  -1 -11  -1    0.95    0.14
   1  11   1    1.17    0.14
  -3 -11  -1    4.11    0.25
   3  11   1    4.29    0.24
  -5 -11  -1    0.30    0.10
   5  11   1    0.18    0.09
  -7 -11  -1    1.78    0.21
   7  11   1    2.12    0.20
  -9 -11  -1    0.99    0.17
   9  11   1    1.32    0.17
 -11 -11  -1    1.63    0.24
  11  11   1    1.58    0.20
  10 -12  -1    0.27    0.18
 -10  12   1    0.19    0.11
   8 -12  -1    0.56    0.17
  -8  12   1    0.37    0.11
   6 -12  -1    0.44    0.14
  -6  12   1    0.66    0.13
  -6  12   1    0.46    0.10
   4 -12  -1    0.02    0.10
  -4  12   1    0.03    0.06
  -4  12   1    0.00    0.07
   2 -12  -1    3.84    0.26
  -2  12   1    3.66    0.23
  -2  12   1    3.81    0.20
   0 -12  -1    0.10    0.08
   0  12   1   -0.02    0.07
  -2 -12  -1    2.08    0.22
   2  12   1    2.09    0.20
  -4 -12  -1    0.81    0.15
   4  12   1    0.47    0.11
  -6 -12  -1    3.11    0.24
   6  12   1    3.30    0.24
  -8 -12  -1    1.40    0.20
   8  12   1    0.97    0.16
 -10 -12  -1   -0.05    0.08
  10  12   1   -0.04    0.09
   9 -13  -1    0.24    0.18
  -9  13   1    0.12    0.10
   7 -13  -1    3.04    0.31
  -7  13   1    1.95    0.20
  -7  13   1    2.81    0.22
   5 -13  -1    0.24    0.12
  -5  13   1    0.23    0.11
  -5  13   1    0.32    0.10
   3 -13  -1    1.69    0.22
  -3  13   1    1.65    0.16
  -3  13   1    1.50    0.18
   1 -13  -1    0.86    0.15
  -1  13   1    0.69    0.14
  -1 -13  -1    0.80    0.15
   1  13   1    0.69    0.13
  -3 -13  -1    0.55    0.13
   3  13   1    0.72    0.14
  -5 -13  -1    0.22    0.11
   5  13   1    0.16    0.10
  -7 -13  -1    2.10    0.25
   7  13   1    2.36    0.24
  -9 -13  -1    0.44    0.14
   9  13   1    0.34    0.13
   6 -14  -1    1.71    0.25
  -6  14   1    1.95    0.20
  -6  14   1    2.19    0.22
   4 -14  -1    0.73    0.16
  -4  14   1    0.96    0.16
   2 -14  -1    1.32    0.19
  -2  14   1    1.79    0.20
   0 -14  -1    0.23    0.11
   0  14   1    0.28    0.11
  -2 -14  -1    3.21    0.26
   2  14   1    2.54    0.25
  -4 -14  -1    1.21    0.20
   4  14   1    1.06    0.17
  -6 -14  -1    1.70    0.22
   6  14   1    1.72    0.21
   3 -15  -1    0.25    0.12
  -3  15   1    0.29    0.12
   1 -15  -1    0.88    0.17
  -1  15   1    0.95    0.17
  -1 -15  -1    0.52    0.14
   1  15   1    0.42    0.14
  -3 -15  -1    0.27    0.13
   3  15   1    0.20    0.11
   3  15  -2    0.83    0.17
  -3 -15   2    0.72    0.16
   1  15  -2    0.88    0.17
  -1 -15   2    1.42    0.22
  -1  15  -2    0.16    0.12
   1 -15   2    0.16    0.11
  -3  15  -2    1.92    0.22
   3 -15   2    1.91    0.25
   6  14  -2    0.21    0.11
  -6 -14   2    0.40    0.13
   4  14  -2   -0.02    0.09
  -4 -14   2    0.23    0.11
   2  14  -2    1.27    0.18
  -2 -14   2    1.39    0.20
   0  14  -2    0.02    0.09
   0 -14   2    0.03    0.09
  -2  14  -2    1.20    0.18
   2 -14   2    1.26    0.21
  -4  14  -2    1.36    0.19
   4 -14   2    1.15    0.21
   6 -14   2    0.28    0.16
   9  13  -2    0.15    0.11
  -9 -13   2    0.13    0.11
   7  13  -2    0.81    0.15
  -7 -13   2    0.70    0.16
   5  13  -2    0.53    0.13
  -5 -13   2    0.51    0.13
   3  13  -2    1.70    0.19
  -3 -13   2    1.94    0.22
   1  13  -2    2.57    0.23
  -1 -13   2    2.71    0.24
  -1  13  -2    0.34    0.11
   1 -13   2    0.68    0.15
  -3  13  -2    3.47    0.24
   3 -13   2    3.36    0.28
  -5  13  -2    0.11    0.09
   5 -13   2    0.39    0.16
  -7  13  -2    1.59    0.19
   7 -13   2    2.24    0.28
  -9  13  -2    0.39    0.13
   9 -13   2    0.57    0.20
  10  12  -2    0.54    0.14
 -10 -12   2    0.54    0.15
   8  12  -2    0.60    0.14
  -8 -12   2    0.56    0.14
   6  12  -2    3.12    0.23
  -6 -12   2    2.51    0.22
   4  12  -2    0.04    0.07
  -4 -12   2    0.05    0.07
   2  12  -2    4.73    0.27
  -2 -12   2    4.53    0.29
   0  12  -2    0.58    0.12
   0 -12   2    0.70    0.14
  -2  12  -2    2.68    0.20
   2 -12   2    2.78    0.24
  -4  12  -2    0.71    0.12
  -4  12  -2    0.73    0.11
   4 -12   2    0.68    0.16
  -6  12  -2    0.82    0.13
   6 -12   2    1.11    0.21
  -8  12  -2    1.07    0.16
   8 -12   2    1.34    0.24
 -10  12  -2    0.19    0.10
  10 -12   2    0.05    0.16
  11  11  -2    0.87    0.16
 -11 -11   2    0.75    0.16
   9  11  -2   -0.01    0.08
  -9 -11   2    0.06    0.08
   7  11  -2    0.91    0.14
  -7 -11   2    1.06    0.17
   5  11  -2    1.84    0.19
  -5 -11   2    1.93    0.21
   3  11  -2    1.26    0.15
  -3 -11   2    1.24    0.17
   1  11  -2    2.27    0.20
  -1 -11   2    1.99    0.21
  -1  11  -2    1.02    0.14
   1 -11   2    1.05    0.16
  -3  11  -2    1.66    0.15
  -3  11  -2    1.77    0.17
   3 -11   2    1.58    0.20
  -5  11  -2    0.13    0.08
  -5  11  -2    0.17    0.07
   5 -11   2    0.15    0.13
  -7  11  -2    0.51    0.11
   7 -11   2    0.41    0.16
  -9  11  -2    1.12    0.16
   9 -11   2    0.85    0.21
 -11  11  -2    0.46    0.13
  11 -11   2    0.67    0.21
  12  10  -2    2.20    0.21
 -12 -10   2    2.48    0.28
  10  10  -2    1.83    0.19
 -10 -10   2    1.34    0.19
   8  10  -2    3.76    0.24
  -8 -10   2    3.71    0.25
   6  10  -2    2.99    0.20
  -6 -10   2    2.58    0.21
   4  10  -2    0.02    0.06
  -4 -10   2   -0.08    0.05
   2  10  -2    4.75    0.25
  -2 -10   2    4.86    0.27
   0  10  -2    0.35    0.09
   0 -10   2    0.43    0.11
  -2  10  -2    6.94    0.30
  -2  10  -2    6.66    0.27
   2 -10   2    7.15    0.35
  -4  10  -2    6.06    0.27
  -4  10  -2    5.85    0.26
   4 -10   2    6.16    0.33
  -6  10  -2    1.15    0.14
  -6  10  -2    1.17    0.13
   6 -10   2    1.34    0.20
  -8  10  -2    3.89    0.24
   8 -10   2    3.30    0.27
 -10  10  -2    0.83    0.15
  10 -10   2    0.65    0.17
 -12  10  -2    2.90    0.27
  12 -10   2    3.18    0.33
  13   9  -2    0.48    0.12
 -13  -9   2    0.41    0.14
  11   9  -2    1.69    0.18
 -11  -9   2    1.82    0.24
   9   9  -2    1.18    0.14
  -9  -9   2    1.39    0.18
   7   9  -2    3.76    0.22
  -7  -9   2    3.80    0.25
   5   9  -2    1.45    0.15
  -5  -9   2    1.91    0.17
   3   9  -2    0.08    0.06
  -3  -9   2    0.11    0.06
   1   9  -2    0.50    0.09
  -1  -9   2    0.58    0.10
  -1   9  -2    7.56    0.30
  -1   9  -2    7.51    0.27
   1  -9   2    7.55    0.34
  -3   9  -2    0.35    0.08
  -3   9  -2    0.44    0.07
   3  -9   2    0.41    0.12
  -5   9  -2    2.05    0.15
   5  -9   2    2.07    0.21
  -7   9  -2    0.78    0.12
   7  -9   2    0.90    0.17
  -9   9  -2    2.79    0.21
   9  -9   2    2.31    0.26
 -11   9  -2    3.44    0.24
  11  -9   2    3.43    0.29
 -13   9  -2    0.80    0.16
  13  -9   2    0.94    0.20
 -14  -8   2    0.17    0.11
  12   8  -2    3.36    0.22
 -12  -8   2    3.43    0.27
  10   8  -2    6.33    0.29
 -10  -8   2    6.77    0.35
   8   8  -2    0.71    0.11
  -8  -8   2    0.96    0.15
   6   8  -2    7.63    0.31
  -6  -8   2    8.07    0.34
   4   8  -2    0.59    0.09
  -4  -8   2    0.58    0.10
   2   8  -2    3.77    0.19
  -2  -8   2    4.00    0.22
   0   8  -2    6.24    0.26
   0  -8   2    6.50    0.29
  -2   8  -2    7.58    0.27
  -2   8  -2    7.32    0.28
   2  -8   2    7.19    0.32
  -4   8  -2    6.27    0.25
  -4   8  -2    6.38    0.26
   4  -8   2    6.88    0.31
  -6   8  -2    1.56    0.15
   6  -8   2    1.59    0.18
  -8   8  -2    2.70    0.19
   8  -8   2    2.56    0.22
 -10   8  -2    0.02    0.07
  10  -8   2    0.03    0.11
 -12   8  -2    1.26    0.17
  12  -8   2    1.36    0.21
 -14   8  -2    1.05    0.18
  14  -8   2    1.03    0.21
 -15  -7   2    0.08    0.10
  13   7  -2    0.28    0.09
 -13  -7   2    0.58    0.14
  11   7  -2    0.34    0.09
 -11  -7   2    0.27    0.11
   9   7  -2   14.72    0.48
  -9  -7   2   13.89    0.53
   7   7  -2    0.71    0.10
  -7  -7   2    0.96    0.14
   5   7  -2   11.34    0.38
  -5  -7   2   10.60    0.40
   3   7  -2    3.26    0.17
  -3  -7   2    3.57    0.19
   1   7  -2    4.39    0.20
  -1  -7   2    4.27    0.22
  -1   7  -2   25.06    0.68
  -1   7  -2   25.86    0.71
   1  -7   2   25.72    0.75
  -3   7  -2    0.85    0.09
  -3   7  -2    0.94    0.10
   3  -7   2    0.93    0.13
  -5   7  -2    0.31    0.07
  -5   7  -2    0.32    0.06
   5  -7   2    0.43    0.10
  -7   7  -2    1.17    0.13
   7  -7   2    1.10    0.15
  -9   7  -2    0.59    0.11
   9  -7   2    0.60    0.13
 -11   7  -2    0.03    0.07
  11  -7   2    0.38    0.13
 -13   7  -2    2.49    0.24
  13  -7   2    2.13    0.26
 -15   7  -2    0.26    0.13
  15  -7   2    0.36    0.17
 -16  -6   2    0.96    0.19
 -14  -6   2    0.21    0.10
  12   6  -2    1.24    0.13
 -12  -6   2    1.04    0.16
  10   6  -2    0.93    0.11
 -10  -6   2    0.73    0.13
   8   6  -2    2.74    0.16
  -8  -6   2    2.93    0.20
   6   6  -2   14.28    0.44
  -6  -6   2   14.16    0.48
   4   6  -2   17.87    0.52
  -4  -6   2   17.68    0.55
   2   6  -2   19.72    0.56
  -2  -6   2   19.04    0.58
   0   6  -2   45.04    1.16
   0   6  -2   44.02    1.13
   0  -6   2   46.20    1.19
  -2   6  -2    2.79    0.14
  -2   6  -2    2.81    0.13
   2  -6   2    2.53    0.16
  -4   6  -2   11.30    0.37
  -4   6  -2   11.45    0.35
   4  -6   2   11.71    0.41
  -6   6  -2   10.03    0.36
   6  -6   2   10.10    0.39
  -8   6  -2    8.43    0.34
   8  -6   2    8.63    0.37
 -10   6  -2    4.53    0.25
  10  -6   2    5.04    0.29
 -12   6  -2    3.81    0.25
  12  -6   2    3.97    0.28
 -14   6  -2    0.16    0.10
  14  -6   2    0.32    0.14
 -16   6  -2    0.57    0.15
 -15  -5   2    0.96    0.18
 -13  -5   2    0.45    0.12
  11   5  -2    0.51    0.09
 -11  -5   2    0.55    0.12
   9   5  -2    7.09    0.26
  -9  -5   2    6.93    0.32
  -9  -5   2    6.99    0.22
   7   5  -2    3.73    0.17
  -7  -5   2    3.70    0.12
  -7  -5   2    3.89    0.21
   5   5  -2    1.07    0.10
  -5  -5   2    1.24    0.11
   3   5  -2   27.17    0.73
  -3  -5   2   26.76    0.75
   1   5  -2   11.34    0.34
  -1  -5   2   11.42    0.37
  -1   5  -2    0.45    0.05
  -1   5  -2    0.46    0.06
   1  -5   2    0.47    0.08
  -3   5  -2    2.39    0.12
   3  -5   2    1.70    0.13
  -5   5  -2   16.08    0.49
   5  -5   2   16.18    0.51
  -7   5  -2    6.53    0.26
   7  -5   2    5.78    0.27
  -9   5  -2    6.61    0.29
   9  -5   2    7.09    0.32
 -11   5  -2    7.20    0.33
  11  -5   2    7.51    0.37
 -13   5  -2    0.73    0.13
  13  -5   2    0.73    0.16
 -15   5  -2    0.28    0.11
  15  -5   2   -0.04    0.13
 -16  -4   2    0.11    0.11
 -14  -4   2    0.89    0.16
  12   4  -2    1.67    0.12
 -12  -4   2    1.40    0.18
 -12  -4   2    1.38    0.11
  10   4  -2    3.23    0.16
 -10  -4   2    3.36    0.22
 -10  -4   2    3.02    0.14
   8   4  -2   12.97    0.39
  -8  -4   2   12.40    0.36
  -8  -4   2   13.31    0.46
   6   4  -2    1.40    0.09
  -6  -4   2    1.31    0.11
  -6  -4   2    1.18    0.06
   4   4  -2    0.22    0.05
  -4  -4   2    0.37    0.07
   2   4  -2    4.30    0.16
  -2  -4   2    4.25    0.17
   0   4  -2    0.39    0.05
   0   4  -2    0.47    0.04
   0  -4   2    0.44    0.07
  -2   4  -2    2.42    0.11
  -2   4  -2    2.33    0.10
   2  -4   2    2.10    0.13
  -4   4  -2   22.72    0.63
   4  -4   2   23.80    0.66
  -6   4  -2   13.54    0.42
   6  -4   2   13.52    0.44
  -8   4  -2    2.16    0.14
 -10   4  -2    8.43    0.34
 -10   4  -2    8.34    0.37
 -12   4  -2    0.60    0.13
 -12   4  -2    0.54    0.11
 -14   4  -2    0.06    0.09
 -14   4  -2    0.16    0.08
  14  -4   2    0.05    0.11
 -16   4  -2    0.12    0.11
 -16   4  -2    0.03    0.12
  16  -4   2    0.04    0.14
 -17  -3   2    0.32    0.14
 -15  -3   2    0.81    0.16
 -13  -3   2    1.47    0.20
 -13  -3   2    1.35    0.13
  11   3  -2    1.35    0.10
 -11  -3   2    1.33    0.10
 -11  -3   2    1.38    0.17
   9   3  -2    1.56    0.10
  -9  -3   2    1.38    0.15
  -9  -3   2    1.41    0.09
   7   3  -2    3.25    0.14
  -7  -3   2    2.99    0.17
  -7  -3   2    3.19    0.12
   5   3  -2   21.92    0.58
  -5  -3   2   22.17    0.62
  -5  -3   2   22.08    0.56
   3   3  -2   19.51    0.52
  -3  -3   2   19.78    0.48
  -3  -3   2   19.75    0.55
   1   3  -2    0.43    0.05
  -1  -3   2    0.54    0.07
  -1   3  -2    9.10    0.26
  -1   3  -2    9.60    0.27
   1  -3   2    9.13    0.29
  -3   3  -2   12.81    0.37
   3  -3   2   13.39    0.39
  -5   3  -2    2.66    0.13
  -7   3  -2    5.30    0.22
  -7   3  -2    4.80    0.23
  -9   3  -2    7.45    0.30
  -9   3  -2    7.49    0.33
 -11   3  -2    3.96    0.25
 -11   3  -2    4.03    0.22
 -13   3  -2    1.15    0.18
 -13   3  -2    1.27    0.16
 -15   3  -2    0.51    0.15
 -15   3  -2    0.75    0.14
 -17   3  -2    0.07    0.14
 -17   3  -2    0.07    0.10
 -16  -2   2   -0.03    0.09
 -16  -2   2   -0.06    0.06
 -14  -2   2    4.68    0.22
 -14  -2   2    3.69    0.27
 -12  -2   2    0.73    0.10
 -12  -2   2    0.61    0.12
  10   2  -2    2.60    0.12
 -10  -2   2    2.77    0.19
 -10  -2   2    2.94    0.15
   8   2  -2    3.01    0.12
  -8  -2   2    3.15    0.14
  -8  -2   2    3.03    0.18
   6   2  -2   14.20    0.39
  -6  -2   2   14.32    0.39
  -6  -2   2   14.26    0.45
   4   2  -2  119.43    2.84
  -4  -2   2  117.90    2.88
  -4  -2   2  116.94    2.83
   2   2  -2   15.89    0.41
  -2  -2   2   15.98    0.39
  -2  -2   2   15.55    0.43
   0   2  -2  114.67    2.68
   0  -2   2  105.20    2.72
  -2   2  -2   25.46    0.65
   2  -2   2   26.09    0.67
  -4   2  -2    5.58    0.19
  -4   2  -2    5.05    0.20
  -6   2  -2   13.37    0.41
  -6   2  -2   13.69    0.43
  -8   2  -2    1.78    0.14
  -8   2  -2    2.13    0.13
 -10   2  -2   18.82    0.62
 -10   2  -2   17.70    0.57
 -12   2  -2    0.14    0.07
 -12   2  -2    0.10    0.07
 -14   2  -2    3.99    0.25
 -14   2  -2    4.46    0.31
 -16   2  -2    1.03    0.19
 -16   2  -2    0.93    0.15
 -17  -1   2    0.00    0.04
 -17  -1   2    0.04    0.09
 -15  -1   2    0.23    0.11
 -15  -1   2    0.10    0.05
 -13  -1   2    0.20    0.06
 -13  -1   2    0.50    0.12
 -11  -1   2    1.07    0.14
   9   1  -2    2.80    0.10
  -9  -1   2    2.54    0.17
   7   1  -2    6.93    0.20
  -7  -1   2    7.01    0.28
   5   1  -2    7.97    0.21
  -5  -1   2    6.72    0.25
  -5  -1   2    7.96    0.23
   3   1  -2   29.83    0.74
  -3  -1   2   30.73    0.74
  -3  -1   2   29.45    0.77
   1   1  -2    9.52    0.25
  -1  -1   2    9.51    0.26
  -1  -1   2    9.52    0.24
  -1   1  -2   16.97    0.42
   1  -1   2   16.03    0.42
  -3   1  -2    2.03    0.09
  -3   1  -2    2.19    0.11
  -5   1  -2    7.35    0.24
  -5   1  -2    7.32    0.26
  -7   1  -2    0.03    0.05
  -7   1  -2    0.04    0.04
   7  -1   2    0.07    0.02
  -9   1  -2    3.52    0.18
  -9   1  -2    3.74    0.21
 -11   1  -2    0.33    0.10
 -11   1  -2    0.27    0.08
 -13   1  -2    0.12    0.10
 -13   1  -2    0.03    0.07
 -15   1  -2    0.80    0.18
 -15   1  -2    0.96    0.15
 -17   1  -2    0.23    0.13
 -17   1  -2    0.04    0.08
 -16   0   2    0.14    0.11
 -16   0   2    0.13    0.08
 -14   0   2    5.23    0.32
 -14   0   2    5.62    0.27
 -12   0   2    3.05    0.18
 -12   0   2    2.10    0.22
 -10   0   2    3.95    0.22
 -10   0   2    4.09    0.19
  -8   0   2    1.23    0.10
  -8   0   2    1.30    0.13
  -6   0   2   12.06    0.38
  -6   0   2   11.31    0.34
  -4   0   2  412.41   10.02
  -4   0   2  416.56   10.12
  -2   0   2    6.35    0.22
  -2   0   2    6.71    0.21
   0   0   2   -0.15    0.00
   0   0   2   -0.15    0.01
  -2   0  -2   11.74    0.32
  -2   0  -2   11.59    0.30
  -4   0  -2   27.49    0.71
  -4   0  -2   26.10    0.68
  -6   0  -2   20.92    0.58
  -6   0  -2   21.81    0.62
   6   0   2   21.83    0.54
  -8   0  -2    3.18    0.15
  -8   0  -2    3.35    0.19
   8   0   2    3.18    0.11
 -10   0  -2    8.05    0.35
 -10   0  -2    8.63    0.31
  10   0   2    8.53    0.23
 -12   0  -2    0.65    0.10
 -12   0  -2    0.71    0.13
 -14   0  -2    4.15    0.24
 -14   0  -2    4.67    0.30
 -16   0  -2    0.97    0.20
 -16   0  -2    1.02    0.15
 -17   1   2    0.12    0.09
 -17   1   2    0.05    0.10
 -15   1   2    0.25    0.10
 -15   1   2    0.08    0.09
 -13   1   2    0.62    0.13
 -13   1   2    0.66    0.12
 -11   1   2    1.13    0.12
 -11   1   2    1.04    0.14
  -9   1   2    3.15    0.17
  -9   1   2    2.61    0.17
  -7   1   2    7.28    0.25
  -7   1   2    6.67    0.27
  -5   1   2    8.03    0.25
  -5   1   2    6.95    0.25
  -3   1   2   29.30    0.74
  -3   1   2   28.61    0.70
  -3   1   2   29.78    0.74
   1  -1  -2    9.86    0.24
  -1   1   2    9.20    0.25
   1   1   2   17.14    0.43
  -3  -1  -2    2.04    0.08
  -3  -1  -2    2.21    0.11
   3   1   2    2.31    0.08
  -5  -1  -2    8.06    0.27
  -5  -1  -2    7.64    0.24
   5   1   2    7.83    0.22
  -7  -1  -2    0.13    0.05
  -7  -1  -2    0.06    0.03
   7   1   2    0.05    0.02
  -9  -1  -2    3.79    0.21
   9   1   2    3.42    0.13
 -11  -1  -2    0.25    0.09
  11   1   2    0.31    0.05
 -13  -1  -2    0.04    0.03
 -13  -1  -2    0.07    0.07
 -15  -1  -2    0.78    0.16
 -17  -1  -2    0.13    0.11
 -16   2   2    0.05    0.10
 -16   2   2    0.09    0.09
 -14   2   2    5.75    0.30
 -14   2   2    5.82    0.34
 -12   2   2    0.71    0.13
 -12   2   2    0.71    0.11
 -10   2   2    2.94    0.20
 -10   2   2    2.79    0.17
  -8   2   2    2.98    0.18
  -8   2   2    3.06    0.16
  -6   2   2   14.06    0.42
  -6   2   2   14.43    0.44
  -4   2   2  119.14    2.82
  -4   2   2  110.21    2.82
  -4   2   2  118.60    2.77
  -2   2   2   16.19    0.42
  -2   2   2   15.80    0.41
   0  -2  -2  105.06    2.68
   0   2   2  112.28    2.66
   0   2   2  111.87    2.64
  -2  -2  -2   26.91    0.67
   2   2   2   25.40    0.66
  -4  -2  -2    5.75    0.21
   4   2   2    5.92    0.18
  -6  -2  -2   13.61    0.37
  -6  -2  -2   12.17    0.42
   6   2   2   13.35    0.36
  -8  -2  -2    2.21    0.16
  -8  -2  -2    2.26    0.12
   8   2   2    2.47    0.11
 -10  -2  -2   17.55    0.50
 -10  -2  -2   15.87    0.57
  10   2   2   16.55    0.46
 -12  -2  -2   -0.02    0.04
 -12  -2  -2    0.03    0.06
 -14  -2  -2    4.16    0.29
 -14  -2  -2    4.46    0.23
 -16  -2  -2    0.87    0.19
 -17   3   2    0.64    0.15
 -17   3   2    0.61    0.17
 -15   3   2    0.94    0.15
 -15   3   2    0.90    0.18
 -13   3   2    1.43    0.17
 -13   3   2    1.49    0.19
 -11   3   2    1.43    0.15
 -11   3   2    1.26    0.16
  -9   3   2    1.37    0.13
  -9   3   2    1.48    0.13
  -7   3   2    2.93    0.15
  -7   3   2    2.52    0.15
  -5   3   2   22.94    0.62
  -5   3   2   22.47    0.63
  -5   3   2   22.84    0.57
   3  -3  -2   19.69    0.53
  -3   3   2   19.54    0.52
  -3   3   2   19.07    0.50
  -1   3   2    0.51    0.05
  -1   3   2    0.59    0.05
  -1  -3  -2    8.98    0.27
   1   3   2    9.06    0.23
   1   3   2    9.18    0.27
  -3  -3  -2   13.37    0.39
   3   3   2   13.42    0.37
  -5  -3  -2    2.73    0.15
   5   3   2    2.97    0.12
  -7  -3  -2    5.52    0.18
  -7  -3  -2    5.07    0.24
   7   3   2    5.27    0.19
  -9  -3  -2    7.19    0.24
  -9  -3  -2    6.57    0.30
   9   3   2    6.98    0.24
 -11  -3  -2    4.15    0.19
 -11  -3  -2    4.26    0.25
  11   3   2    4.26    0.18
 -13  -3  -2    1.07    0.11
 -13  -3  -2    1.16    0.17
 -15  -3  -2    0.78    0.17
 -17  -3  -2    0.03    0.11
 -16   4   2    0.17    0.10
 -16   4   2    0.28    0.14
 -14   4   2    1.21    0.17
 -14   4   2    1.38    0.20
 -12   4   2    1.45    0.16
 -12   4   2    1.45    0.19
 -10   4   2    3.19    0.21
 -10   4   2    3.26    0.20
  -8   4   2   13.82    0.46
  -8   4   2   13.62    0.45
   6  -4  -2    1.61    0.15
  -6   4   2    1.09    0.11
  -6   4   2    1.29    0.07
   4  -4  -2    0.36    0.07
  -4   4   2    0.40    0.05
  -4   4   2    0.28    0.05
   2  -4  -2    3.99    0.16
  -2   4   2    4.43    0.15
  -2   4   2    4.22    0.15
   0  -4  -2    0.42    0.06
   0   4   2    0.49    0.04
   0   4   2    0.40    0.05
  -2  -4  -2    2.35    0.12
   2   4   2    2.43    0.11
  -4  -4  -2   25.23    0.69
   4   4   2   23.76    0.65
  -6  -4  -2   13.76    0.45
   6   4   2   13.77    0.41
  -8  -4  -2    2.09    0.16
   8   4   2    2.32    0.12
 -10  -4  -2    8.56    0.37
  10   4   2    8.12    0.29
 -12  -4  -2    0.46    0.12
  12   4   2    0.61    0.08
 -14  -4  -2    0.09    0.10
 -16  -4  -2    0.14    0.12
  15  -5  -2    0.76    0.18
 -15   5   2    1.13    0.18
  13  -5  -2    0.44    0.14
 -13   5   2    0.41    0.11
  11  -5  -2    0.48    0.12
 -11   5   2    0.28    0.09
   9  -5  -2    7.03    0.32
  -9   5   2    7.15    0.30
   7  -5  -2    3.81    0.20
  -7   5   2    3.59    0.14
  -7   5   2    3.84    0.19
   5  -5  -2    1.23    0.12
  -5   5   2    1.17    0.08
  -5   5   2    1.21    0.10
   3  -5  -2   27.65    0.77
  -3   5   2   28.57    0.75
   1  -5  -2   12.14    0.37
  -1   5   2   11.58    0.33
  -1   5   2   11.84    0.35
  -1  -5  -2    0.56    0.07
   1   5   2    0.50    0.07
   1   5   2    0.45    0.04
  -3  -5  -2    2.35    0.13
   3   5   2    2.32    0.12
  -5  -5  -2   16.26    0.51
   5   5   2   16.08    0.48
  -7  -5  -2    6.12    0.28
   7   5   2    6.27    0.24
  -9  -5  -2    7.04    0.32
   9   5   2    7.08    0.27
 -11  -5  -2    7.39    0.37
  11   5   2    7.48    0.29
 -13  -5  -2    0.60    0.14
 -15  -5  -2    0.17    0.13
  16  -6  -2    1.35    0.23
 -16   6   2    1.19    0.19
  14  -6  -2    0.27    0.15
 -14   6   2    0.21    0.10
  12  -6  -2    1.43    0.19
 -12   6   2    1.21    0.16
  10  -6  -2    0.94    0.15
 -10   6   2    0.87    0.13
   8  -6  -2    2.82    0.19
  -8   6   2    2.79    0.18
   6  -6  -2   13.91    0.47
  -6   6   2   14.01    0.45
  -6   6   2   14.61    0.41
   4  -6  -2   18.50    0.56
  -4   6   2   18.79    0.54
  -4   6   2   18.32    0.52
   2  -6  -2   20.06    0.58
  -2   6   2   19.25    0.55
  -2   6   2   19.63    0.54
   0  -6  -2   44.72    1.16
   0   6   2   44.76    1.11
   0   6   2   44.36    1.15
  -2  -6  -2    2.81    0.15
   2   6   2    2.85    0.09
   2   6   2    2.87    0.15
  -4  -6  -2   11.49    0.39
   4   6   2   11.84    0.38
  -6  -6  -2    9.58    0.36
   6   6   2    9.39    0.33
  -8  -6  -2    8.89    0.37
   8   6   2    8.48    0.32
 -10  -6  -2    4.85    0.28
  10   6   2    4.66    0.22
 -12  -6  -2    3.46    0.27
  12   6   2    3.83    0.20
 -14  -6  -2    0.15    0.11
 -16  -6  -2    0.63    0.18
  15  -7  -2    0.11    0.13
 -15   7   2    0.23    0.11
  13  -7  -2    0.36    0.14
 -13   7   2    0.59    0.13
  11  -7  -2    0.11    0.11
 -11   7   2    0.42    0.10
   9  -7  -2   14.35    0.52
  -9   7   2   13.88    0.50
   7  -7  -2    0.91    0.13
  -7   7   2    0.67    0.08
  -7   7   2    0.55    0.09
   5  -7  -2   10.75    0.40
  -5   7   2   11.53    0.38
  -5   7   2   10.90    0.35
   3  -7  -2    3.59    0.20
  -3   7   2    3.26    0.16
  -3   7   2    3.58    0.16
   1  -7  -2    4.36    0.21
  -1   7   2    4.30    0.19
  -1   7   2    4.32    0.17
  -1  -7  -2   25.22    0.72
   1   7   2   25.26    0.65
   1   7   2   25.85    0.71
  -3  -7  -2    1.06    0.12
   3   7   2    0.99    0.10
  -5  -7  -2    0.27    0.08
   5   7   2    0.48    0.08
  -7  -7  -2    1.47    0.16
   7   7   2    1.09    0.12
  -9  -7  -2    0.60    0.12
   9   7   2    0.46    0.09
 -11  -7  -2    0.03    0.08
  11   7   2    0.06    0.07
 -13  -7  -2    2.68    0.29
  13   7   2    2.45    0.19
 -15  -7  -2   -0.02    0.10
  14  -8  -2   -0.05    0.12
 -14   8   2    0.03    0.09
  12  -8  -2    3.22    0.27
 -12   8   2    3.45    0.25
  10  -8  -2    6.44    0.35
 -10   8   2    6.76    0.32
   8  -8  -2    1.12    0.16
  -8   8   2    1.14    0.15
  -8   8   2    0.88    0.09
   6  -8  -2    7.62    0.34
  -6   8   2    7.83    0.31
  -6   8   2    7.41    0.28
   4  -8  -2    0.60    0.12
  -4   8   2    0.75    0.09
  -4   8   2    0.64    0.09
   2  -8  -2    4.44    0.22
  -2   8   2    3.87    0.19
  -2   8   2    4.08    0.18
   0  -8  -2    6.51    0.27
   0   8   2    5.99    0.21
   0   8   2    6.06    0.25
  -2  -8  -2    7.43    0.30
   2   8   2    7.38    0.22
   2   8   2    7.62    0.29
  -4  -8  -2    6.57    0.29
   4   8   2    6.44    0.27
  -6  -8  -2    1.69    0.17
   6   8   2    1.60    0.15
  -8  -8  -2    2.69    0.20
   8   8   2    2.59    0.18
 -10  -8  -2    0.07    0.09
  10   8   2    0.08    0.07
 -12  -8  -2    1.34    0.20
  12   8   2    1.12    0.14
 -14  -8  -2    1.19    0.21
  13  -9  -2    0.51    0.17
 -13   9   2    0.33    0.12
  11  -9  -2    1.86    0.23
 -11   9   2    1.70    0.20
   9  -9  -2    1.17    0.18
  -9   9   2    1.56    0.18
   7  -9  -2    3.89    0.25
  -7   9   2    3.73    0.22
  -7   9   2    3.46    0.18
   5  -9  -2    1.73    0.19
  -5   9   2    1.84    0.14
   3  -9  -2   -0.08    0.07
  -3   9   2    0.01    0.05
  -3   9   2    0.07    0.05
   1  -9  -2    0.64    0.11
  -1   9   2    0.71    0.10
  -1   9   2    0.74    0.08
  -1  -9  -2    7.59    0.32
   1   9   2    7.48    0.30
   1   9   2    7.34    0.24
  -3  -9  -2    0.36    0.09
   3   9   2    0.23    0.07
  -5  -9  -2    2.10    0.17
   5   9   2    2.16    0.17
  -7  -9  -2    0.77    0.13
   7   9   2    0.95    0.13
  -9  -9  -2    2.42    0.21
   9   9   2    2.82    0.20
 -11  -9  -2    3.66    0.28
  11   9   2    3.32    0.23
 -13  -9  -2    0.70    0.16
  13   9   2    0.62    0.13
  12 -10  -2    2.28    0.27
 -12  10   2    2.46    0.24
  10 -10  -2    1.66    0.23
 -10  10   2    1.95    0.21
   8 -10  -2    4.35    0.30
  -8  10   2    4.07    0.21
  -8  10   2    4.07    0.24
   6 -10  -2    2.37    0.24
  -6  10   2    2.79    0.17
  -6  10   2    2.82    0.18
   4 -10  -2    0.03    0.08
  -4  10   2    0.05    0.06
  -4  10   2    0.02    0.05
   2 -10  -2    4.83    0.26
  -2  10   2    4.66    0.21
  -2  10   2    4.78    0.24
   0 -10  -2    0.42    0.10
   0  10   2    0.35    0.06
   0  10   2    0.37    0.08
  -2 -10  -2    7.09    0.32
   2  10   2    7.06    0.31
  -4 -10  -2    5.66    0.29
   4  10   2    6.06    0.28
  -6 -10  -2    1.31    0.17
   6  10   2    1.12    0.15
  -8 -10  -2    3.79    0.26
   8  10   2    4.12    0.25
 -10 -10  -2    0.85    0.16
  10  10   2    0.54    0.13
 -12 -10  -2    3.04    0.27
  12  10   2    2.86    0.25
  11 -11  -2    0.62    0.18
 -11  11   2    0.98    0.16
   9 -11  -2    0.22    0.14
  -9  11   2   -0.01    0.07
   7 -11  -2    1.04    0.19
  -7  11   2    0.95    0.14
  -7  11   2    0.88    0.12
   5 -11  -2    1.77    0.21
  -5  11   2    2.00    0.18
  -5  11   2    2.01    0.18
  -3  11   2    1.59    0.16
  -3  11   2    1.50    0.14
   1 -11  -2    1.97    0.20
  -1  11   2    2.16    0.13
  -1  11   2    2.01    0.18
  -1 -11  -2    1.01    0.14
   1  11   2    0.88    0.13
  -3 -11  -2    1.31    0.16
   3  11   2    1.52    0.16
  -5 -11  -2    0.24    0.10
   5  11   2    0.17    0.08
  -7 -11  -2    0.50    0.12
   7  11   2    0.70    0.13
  -9 -11  -2    1.06    0.18
   9  11   2    1.06    0.15
 -11 -11  -2    0.37    0.13
  11  11   2    0.64    0.14
  10 -12  -2    0.36    0.17
 -10  12   2    0.32    0.12
   8 -12  -2    0.58    0.17
  -8  12   2    0.72    0.14
   6 -12  -2    3.31    0.27
  -6  12   2    2.85    0.21
  -6  12   2    2.72    0.20
   4 -12  -2    0.00    0.10
  -4  12   2   -0.10    0.06
  -4  12   2    0.05    0.06
   2 -12  -2    4.99    0.29
  -2  12   2    4.62    0.27
  -2  12   2    4.50    0.22
   0 -12  -2    0.66    0.14
   0  12   2    0.81    0.13
  -2 -12  -2    3.00    0.23
   2  12   2    2.53    0.20
  -4 -12  -2    0.66    0.14
   4  12   2    0.43    0.11
  -6 -12  -2    1.15    0.17
   6  12   2    1.34    0.17
  -8 -12  -2    1.10    0.18
   8  12   2    0.99    0.16
 -10 -12  -2    0.06    0.09
  10  12   2    0.01    0.10
   9 -13  -2    0.08    0.15
  -9  13   2    0.11    0.10
   7 -13  -2    0.87    0.19
  -7  13   2    1.02    0.15
  -7  13   2    0.57    0.12
   5 -13  -2    0.55    0.15
  -5  13   2    0.56    0.11
  -5  13   2    0.26    0.11
   3 -13  -2    2.16    0.24
  -3  13   2    1.88    0.19
  -3  13   2    2.48    0.23
   1 -13  -2    2.74    0.24
  -1  13   2    2.93    0.22
  -1 -13  -2    0.54    0.13
   1  13   2    0.34    0.11
  -3 -13  -2    3.13    0.24
   3  13   2    3.09    0.23
  -5 -13  -2    0.36    0.12
   5  13   2    0.22    0.10
  -7 -13  -2    1.96    0.24
   7  13   2    1.55    0.20
  -9 -13  -2    0.26    0.13
   9  13   2    0.47    0.14
   6 -14  -2    0.40    0.15
  -6  14   2    0.25    0.11
  -6  14   2    0.34    0.11
   4 -14  -2    0.21    0.13
  -4  14   2    0.16    0.11
   2 -14  -2    1.40    0.20
  -2  14   2    1.36    0.18
   0 -14  -2   -0.02    0.07
   0  14   2   -0.01    0.09
  -2 -14  -2    1.38    0.19
   2  14   2    1.40    0.19
  -4 -14  -2    1.04    0.18
   4  14   2    1.21    0.18
  -6 -14  -2    0.58    0.14
   6  14   2    0.33    0.12
   3 -15  -2    0.85    0.17
  -3  15   2    0.90    0.16
   1 -15  -2    1.03    0.18
  -1  15   2    1.38    0.19
  -1 -15  -2    0.24    0.13
   1  15   2    0.15    0.10
  -3 -15  -2    1.72    0.23
   3  15   2    1.88    0.23
   3  15  -3    0.25    0.13
  -3 -15   3    0.61    0.16
   1  15  -3    0.31    0.13
  -1 -15   3    0.27    0.12
  -1  15  -3    0.37    0.13
   1 -15   3    0.23    0.12
   3 -15   3    0.38    0.15
   6  14  -3    4.73    0.31
  -6 -14   3    4.59    0.32
   4  14  -3    0.41    0.13
  -4 -14   3    0.45    0.14
   2  14  -3    0.89    0.16
  -2 -14   3    0.94    0.18
   0  14  -3    0.29    0.11
   0 -14   3    0.37    0.13
  -2  14  -3    0.52    0.14
   2 -14   3    0.48    0.16
  -4  14  -3    1.74    0.20
   4 -14   3    1.19    0.21
   6 -14   3    0.35    0.16
   9  13  -3    0.05    0.11
  -9 -13   3    0.17    0.11
   7  13  -3    0.49    0.13
  -7 -13   3    0.86    0.17
   5  13  -3    0.90    0.16
  -5 -13   3    1.24    0.18
   3  13  -3    1.56    0.19
  -3 -13   3    1.45    0.20
   1  13  -3    1.90    0.20
  -1 -13   3    1.71    0.22
  -1  13  -3    0.06    0.09
   1 -13   3    0.05    0.10
  -3  13  -3    3.33    0.23
   3 -13   3    3.19    0.27
   5 -13   3    0.16    0.13
   7 -13   3    1.42    0.24
  -9  13  -3    0.59    0.13
  10  12  -3    1.02    0.17
 -10 -12   3    1.17    0.20
   8  12  -3    0.11    0.10
  -8 -12   3    0.39    0.12
   6  12  -3    0.41    0.11
  -6 -12   3    0.76    0.15
   4  12  -3    0.21    0.09
  -4 -12   3    0.22    0.10
   2  12  -3    3.46    0.23
  -2 -12   3    3.70    0.26
   0  12  -3    0.05    0.08
   0 -12   3    0.06    0.09
  -2  12  -3    0.55    0.12
   2 -12   3    0.89    0.17
  -4  12  -3    0.86    0.13
   4 -12   3    0.63    0.16
  -6  12  -3    0.41    0.10
   6 -12   3    0.40    0.16
  -8  12  -3    0.85    0.14
   8 -12   3    1.07    0.22
 -10  12  -3    0.14    0.10
  10 -12   3    0.07    0.15
  11  11  -3    3.58    0.26
 -11 -11   3    3.40    0.28
   9  11  -3    0.55    0.13
  -9 -11   3    0.72    0.15
   7  11  -3    2.31    0.22
  -7 -11   3    1.93    0.22
   5  11  -3    4.57    0.26
  -5 -11   3    4.39    0.28
   3  11  -3    3.88    0.23
  -3 -11   3    3.53    0.24
   1  11  -3    5.85    0.29
  -1 -11   3    5.28    0.31
  -1  11  -3    1.51    0.16
   1 -11   3    1.55    0.20
  -3  11  -3    4.28    0.24
   3 -11   3    4.23    0.29
  -5  11  -3    0.11    0.07
  -5  11  -3    0.06    0.07
   5 -11   3    0.14    0.13
  -7  11  -3    1.39    0.17
   7 -11   3    1.34    0.21
  -9  11  -3    2.73    0.22
   9 -11   3    2.45    0.30
 -11  11  -3    1.09    0.18
  11 -11   3    1.07    0.25
  12  10  -3    0.98    0.15
 -12 -10   3    0.81    0.17
  10  10  -3    0.20    0.09
 -10 -10   3    0.31    0.12
   8  10  -3    1.45    0.17
  -8 -10   3    1.90    0.21
   6  10  -3    1.88    0.18
  -6 -10   3    2.17    0.19
   4  10  -3    2.08    0.19
  -4 -10   3    2.21    0.19
   2  10  -3    0.78    0.11
  -2 -10   3    0.66    0.13
   0  10  -3    1.00    0.13
   0 -10   3    0.99    0.15
  -2  10  -3    3.01    0.19
   2 -10   3    3.11    0.24
  -4  10  -3    1.20    0.13
  -4  10  -3    1.09    0.13
   4 -10   3    1.20    0.18
  -6  10  -3    0.30    0.08
   6 -10   3    0.25    0.12
  -8  10  -3    2.32    0.18
   8 -10   3    1.60    0.21
 -10  10  -3    2.21    0.22
  10 -10   3    1.56    0.23
 -12  10  -3    1.58    0.21
  12 -10   3    1.29    0.23
  13   9  -3   -0.09    0.08
 -13  -9   3    0.08    0.09
  11   9  -3    4.60    0.26
 -11  -9   3    5.02    0.32
   9   9  -3    1.02    0.14
  -9  -9   3    0.89    0.15
   7   9  -3    0.98    0.14
  -7  -9   3    1.20    0.16
   5   9  -3    5.19    0.25
  -5  -9   3    4.83    0.27
   3   9  -3    1.04    0.12
  -3  -9   3    1.27    0.15
   1   9  -3    4.51    0.22
  -1  -9   3    4.47    0.25
  -1   9  -3    2.52    0.17
   1  -9   3    2.64    0.19
  -3   9  -3   12.83    0.43
  -3   9  -3   12.73    0.42
   3  -9   3   12.71    0.48
  -5   9  -3    0.53    0.09
   5  -9   3    0.53    0.13
  -7   9  -3    3.65    0.22
   7  -9   3    3.81    0.28
  -9   9  -3    1.96    0.20
   9  -9   3    1.92    0.23
 -11   9  -3    1.94    0.21
  11  -9   3    1.77    0.24
 -13   9  -3    2.76    0.26
  13  -9   3    2.30    0.29
 -14  -8   3    0.06    0.10
  12   8  -3    2.79    0.20
 -12  -8   3    3.14    0.26
  10   8  -3    0.35    0.10
 -10  -8   3    0.55    0.13
   8   8  -3    5.18    0.25
  -8  -8   3    5.13    0.29
   6   8  -3    0.89    0.11
  -6  -8   3    0.88    0.13
   4   8  -3    1.33    0.13
  -4  -8   3    1.44    0.16
   2   8  -3    0.04    0.05
  -2  -8   3    0.11    0.07
   0   8  -3   16.09    0.50
   0  -8   3   15.98    0.53
  -2   8  -3   10.05    0.35
  -2   8  -3   10.16    0.33
   2  -8   3    9.98    0.39
  -4   8  -3    2.25    0.15
  -4   8  -3    2.54    0.15
   4  -8   3    2.55    0.20
  -6   8  -3    3.95    0.21
   6  -8   3    3.95    0.25
  -8   8  -3    0.12    0.07
   8  -8   3    0.19    0.10
 -10   8  -3    5.34    0.29
  10  -8   3    5.04    0.32
 -12   8  -3    2.24    0.23
  12  -8   3    2.27    0.26
 -14   8  -3    0.33    0.12
  14  -8   3    0.30    0.16
 -15  -7   3    0.69    0.17
  13   7  -3    0.12    0.08
 -13  -7   3    0.15    0.10
  11   7  -3    1.45    0.15
 -11  -7   3    1.33    0.18
   9   7  -3    3.32    0.19
  -9  -7   3    3.90    0.24
   7   7  -3    8.12    0.30
  -7  -7   3    7.13    0.32
   5   7  -3    5.40    0.23
  -5  -7   3    4.92    0.25
   3   7  -3    6.56    0.26
  -3  -7   3    6.77    0.28
   1   7  -3   12.85    0.41
  -1  -7   3   12.22    0.43
  -1   7  -3    6.52    0.23
  -1   7  -3    6.27    0.25
   1  -7   3    6.72    0.29
  -3   7  -3   12.40    0.39
  -3   7  -3   12.39    0.39
   3  -7   3   12.88    0.45
  -5   7  -3    0.82    0.10
   5  -7   3    0.94    0.14
  -7   7  -3    4.26    0.22
   7  -7   3    4.18    0.25
  -9   7  -3   -0.04    0.05
   9  -7   3    0.09    0.10
 -11   7  -3    0.49    0.11
  11  -7   3    0.69    0.16
 -13   7  -3    1.70    0.20
  13  -7   3    1.16    0.20
 -15   7  -3    0.14    0.11
  15  -7   3    0.20    0.15
 -16  -6   3    0.58    0.17
 -14  -6   3    0.42    0.14
  12   6  -3    0.15    0.07
 -12  -6   3    0.10    0.09
  10   6  -3    3.64    0.19
 -10  -6   3    3.45    0.24
   8   6  -3    6.75    0.27
  -8  -6   3    6.76    0.31
   6   6  -3    0.97    0.10
  -6  -6   3    1.10    0.13
   4   6  -3    9.00    0.31
  -4  -6   3    8.93    0.33
   2   6  -3   19.29    0.56
  -2  -6   3   20.11    0.59
   0   6  -3   25.87    0.70
   0  -6   3   24.93    0.73
  -2   6  -3   11.45    0.36
  -2   6  -3   11.21    0.35
   2  -6   3   11.87    0.40
  -4   6  -3    8.19    0.29
  -4   6  -3    7.58    0.26
   4  -6   3    8.52    0.33
  -6   6  -3    3.69    0.19
   6  -6   3    4.09    0.23
  -8   6  -3    1.94    0.15
   8  -6   3    1.54    0.18
 -10   6  -3    6.40    0.31
  10  -6   3    6.92    0.35
 -12   6  -3    0.50    0.11
  12  -6   3    0.15    0.12
 -14   6  -3    0.52    0.13
  14  -6   3    0.69    0.17
 -15  -5   3    1.20    0.20
 -13  -5   3    0.82    0.16
  11   5  -3    0.73    0.10
 -11  -5   3    0.79    0.14
   9   5  -3    4.53    0.20
  -9  -5   3    4.24    0.15
  -9  -5   3    4.39    0.24
   7   5  -3    5.30    0.21
  -7  -5   3    5.22    0.16
  -7  -5   3    5.27    0.25
   5   5  -3    1.84    0.12
  -5  -5   3    1.94    0.13
   3   5  -3   16.67    0.48
  -3  -5   3   16.81    0.42
  -3  -5   3   16.65    0.50
   1   5  -3    7.44    0.25
  -1  -5   3    7.28    0.27
  -1   5  -3    3.35    0.14
  -1   5  -3    3.58    0.15
   1  -5   3    3.44    0.18
  -3   5  -3   12.66    0.39
   3  -5   3   13.31    0.43
  -5   5  -3    7.94    0.28
   5  -5   3    7.59    0.30
  -7   5  -3    7.78    0.30
   7  -5   3    7.92    0.33
  -9   5  -3    3.25    0.20
   9  -5   3    3.31    0.22
 -11   5  -3    4.05    0.24
  11  -5   3    4.46    0.29
 -13   5  -3    1.64    0.19
  13  -5   3    1.79    0.24
 -15   5  -3   -0.09    0.07
  15  -5   3    0.05    0.14
 -16  -4   3    0.15    0.12
 -14  -4   3    2.15    0.24
  12   4  -3    1.42    0.12
 -12  -4   3    1.39    0.11
 -12  -4   3    1.77    0.21
  10   4  -3    3.36    0.16
 -10  -4   3    3.64    0.15
 -10  -4   3    3.67    0.22
   8   4  -3   18.23    0.53
  -8  -4   3   18.32    0.50
  -8  -4   3   19.26    0.60
   6   4  -3    6.45    0.23
  -6  -4   3    6.58    0.26
  -6  -4   3    6.55    0.19
   4   4  -3   18.60    0.52
  -4  -4   3   19.25    0.47
  -4  -4   3   18.66    0.55
   2   4  -3    5.72    0.20
  -2  -4   3    6.03    0.22
   0   4  -3    2.86    0.12
   0  -4   3    2.75    0.14
  -2   4  -3    7.68    0.25
  -2   4  -3    7.90    0.24
   2  -4   3    8.42    0.29
  -4   4  -3   26.25    0.72
   4  -4   3   26.77    0.74
  -6   4  -3    5.37    0.22
   6  -4   3    6.07    0.25
  -8   4  -3    3.52    0.18
   8  -4   3    2.59    0.19
 -10   4  -3    2.10    0.17
 -10   4  -3    2.08    0.17
 -12   4  -3    0.69    0.14
 -12   4  -3    0.88    0.13
 -14   4  -3    0.97    0.15
 -14   4  -3    0.86    0.17
  14  -4   3    0.27    0.14
 -16   4  -3    0.03    0.12
 -16   4  -3    0.26    0.11
  16  -4   3    0.11    0.15
 -17  -3   3    1.07    0.20
 -15  -3   3    0.86    0.17
 -13  -3   3    2.26    0.23
 -13  -3   3    2.29    0.15
  11   3  -3    0.27    0.06
 -11  -3   3    0.18    0.07
 -11  -3   3    0.16    0.05
   9   3  -3    6.37    0.22
  -9  -3   3    6.46    0.29
  -9  -3   3    6.56    0.23
   7   3  -3    7.58    0.25
  -7  -3   3    7.60    0.23
  -7  -3   3    7.84    0.30
   5   3  -3   21.02    0.56
  -5  -3   3   20.73    0.60
  -5  -3   3   21.15    0.53
   3   3  -3   21.56    0.57
  -3  -3   3   21.54    0.59
  -3  -3   3   22.08    0.54
   1   3  -3    2.39    0.11
  -1  -3   3    2.61    0.12
  -1   3  -3    8.48    0.25
  -1   3  -3    8.78    0.25
   1  -3   3    8.98    0.28
  -3   3  -3   22.09    0.59
   3  -3   3   21.72    0.60
  -5   3  -3   22.48    0.58
   5  -3   3   18.32    0.59
  -7   3  -3    3.19    0.18
  -7   3  -3    3.22    0.16
  -9   3  -3    4.89    0.23
  -9   3  -3    4.24    0.24
 -11   3  -3    4.28    0.27
 -11   3  -3    5.47    0.26
 -13   3  -3    0.40    0.13
 -13   3  -3    0.64    0.12
 -15   3  -3    1.39    0.23
 -15   3  -3    1.28    0.18
 -17   3  -3   -0.05    0.08
 -16  -2   3    0.00    0.08
 -16  -2   3    0.05    0.07
 -14  -2   3    0.84    0.12
 -14  -2   3    0.70    0.15
 -12  -2   3    1.20    0.16
 -12  -2   3    0.96    0.11
  10   2  -3    3.86    0.15
 -10  -2   3    4.39    0.24
 -10  -2   3    4.12    0.18
   8   2  -3    3.02    0.12
  -8  -2   3    3.15    0.18
  -8  -2   3    3.10    0.14
   6   2  -3    7.30    0.22
  -6  -2   3    7.24    0.27
  -6  -2   3    7.06    0.22
   4   2  -3   19.52    0.51
  -4  -2   3   19.57    0.50
  -4  -2   3   20.13    0.55
   2   2  -3    5.56    0.17
  -2  -2   3    5.47    0.19
  -2  -2   3    5.70    0.15
   0  -2   3  226.25    5.54
  -2   2  -3   50.71    1.26
   2  -2   3   51.49    1.28
  -4   2  -3   14.73    0.42
  -4   2  -3   14.58    0.43
  -6   2  -3    5.61    0.24
  -6   2  -3    5.74    0.21
  -8   2  -3    1.70    0.12
  -8   2  -3    1.96    0.15
 -10   2  -3    3.32    0.19
 -10   2  -3    3.50    0.22
 -12   2  -3    1.03    0.16
 -12   2  -3    1.01    0.13
 -14   2  -3    0.87    0.16
 -14   2  -3    1.41    0.17
 -16   2  -3    0.46    0.16
 -16   2  -3    0.25    0.10
 -17  -1   3    1.94    0.26
 -15  -1   3    0.49    0.14
 -15  -1   3    0.38    0.09
 -13  -1   3    2.72    0.21
 -11  -1   3    1.24    0.12
   7   1  -3    1.18    0.06
  -7  -1   3    1.28    0.11
   5   1  -3   83.39    1.98
  -5  -1   3   76.74    1.99
  -5  -1   3   85.97    2.04
  -3  -1   3   79.43    1.93
  -3  -1   3   78.41    1.90
  -1  -1   3   38.01    0.93
   1  -1   3   60.76    1.49
  -3   1  -3    4.05    0.14
  -3   1  -3    4.07    0.15
  -5   1  -3    5.41    0.20
  -5   1  -3    5.76    0.22
  -7   1  -3   17.72    0.51
  -7   1  -3   17.52    0.54
  -9   1  -3    9.02    0.33
  -9   1  -3    9.61    0.37
   9  -1   3    8.98    0.24
 -11   1  -3    4.24    0.26
 -11   1  -3    4.06    0.21
 -13   1  -3    1.40    0.19
 -13   1  -3    1.45    0.16
 -15   1  -3    2.72    0.21
 -15   1  -3    2.67    0.29
 -17   1  -3    0.18    0.09
 -17   1  -3    0.03    0.12
 -16   0   3    0.00    0.07
 -16   0   3    0.01    0.09
 -14   0   3   -0.01    0.07
 -14   0   3    0.02    0.06
 -12   0   3    0.05    0.05
 -12   0   3    0.02    0.06
 -10   0   3    0.04    0.06
 -10   0   3    0.04    0.05
  -8   0   3    0.17    0.06
  -8   0   3    0.01    0.05
  -6   0   3    0.01    0.03
  -6   0   3    0.01    0.03
  -4   0   3    0.31    0.05
  -4   0   3    0.12    0.05
  -2   0   3   -0.01    0.02
  -2   0   3   -0.01    0.02
   0   0   3    0.00    0.01
   0   0   3    0.01    0.01
  -2   0  -3    0.00    0.02
  -4   0  -3    0.02    0.03
  -4   0  -3    0.00    0.03
  -6   0  -3   -0.02    0.03
  -6   0  -3   -0.03    0.03
   6   0   3    0.02    0.02
  -8   0  -3    0.03    0.05
  -8   0  -3   -0.01    0.03
   8   0   3   -0.02    0.02
 -10   0  -3    0.00    0.05
 -10   0  -3    0.04    0.05
  10   0   3    0.03    0.02
 -12   0  -3   -0.04    0.05
 -12   0  -3    0.02    0.08
 -14   0  -3    0.13    0.10
 -14   0  -3    0.03    0.07
 -16   0  -3   -0.13    0.09
 -16   0  -3    0.04    0.07
 -17   1   3    1.87    0.21
 -17   1   3    1.41    0.24
 -15   1   3    0.53    0.12
 -15   1   3    0.80    0.16
 -13   1   3    5.21    0.26
 -13   1   3    5.32    0.31
 -11   1   3    3.41    0.22
 -11   1   3    3.33    0.19
  -9   1   3    8.42    0.33
  -9   1   3    8.07    0.30
  -7   1   3    1.11    0.09
  -7   1   3    1.15    0.10
  -5   1   3   82.02    2.03
  -5   1   3   83.63    2.05
  -3   1   3   80.31    1.94
  -3   1   3   79.18    1.94
  -1   1   3   37.42    0.91
  -1  -1  -3   19.55    0.50
  -3  -1  -3    4.16    0.16
   3   1   3    4.16    0.13
  -5  -1  -3    5.36    0.18
  -5  -1  -3    5.46    0.21
   5   1   3    5.76    0.17
  -7  -1  -3   18.76    0.56
   7   1   3   17.51    0.47
  -9  -1  -3    9.62    0.37
   9   1   3    8.66    0.26
 -11  -1  -3    4.17    0.25
  11   1   3    3.94    0.15
 -13  -1  -3    1.38    0.19
 -15  -1  -3    3.03    0.31
 -17  -1  -3    0.21    0.14
 -16   2   3    0.08    0.11
 -16   2   3    0.07    0.09
 -14   2   3    0.69    0.13
 -14   2   3    0.76    0.15
 -12   2   3    1.04    0.16
 -12   2   3    0.99    0.13
 -10   2   3    4.48    0.24
 -10   2   3    4.16    0.21
  -8   2   3    3.33    0.18
  -8   2   3    2.95    0.16
  -6   2   3    7.48    0.25
  -6   2   3    7.06    0.26
  -4   2   3   18.73    0.52
  -4   2   3   19.13    0.47
  -4   2   3   19.38    0.52
   2  -2  -3    5.67    0.17
  -2   2   3    5.46    0.16
  -2   2   3    5.82    0.18
   0  -2  -3  223.24    5.45
   0   2   3  224.78    5.48
   0   2   3  224.11    5.42
  -2  -2  -3   53.65    1.31
   2   2   3   51.99    1.30
  -4  -2  -3   14.59    0.42
   4   2   3   14.11    0.39
  -6  -2  -3    6.10    0.24
  -6  -2  -3    5.68    0.19
   6   2   3    5.91    0.19
  -8  -2  -3    1.81    0.14
  -8  -2  -3    1.97    0.11
   8   2   3    2.00    0.10
 -10  -2  -3    2.93    0.16
 -10  -2  -3    3.45    0.22
  10   2   3    3.18    0.14
 -12  -2  -3    1.04    0.12
 -12  -2  -3    1.24    0.18
 -14  -2  -3    1.26    0.20
 -16  -2  -3    0.26    0.13
 -17   3   3    1.10    0.17
 -17   3   3    1.43    0.23
 -15   3   3    0.57    0.12
 -15   3   3    0.96    0.19
 -13   3   3    2.23    0.18
 -13   3   3    2.17    0.23
 -11   3   3    0.23    0.08
 -11   3   3    0.29    0.10
  -9   3   3    6.12    0.27
  -9   3   3    6.77    0.29
  -7   3   3    7.58    0.28
  -7   3   3    7.29    0.28
  -5   3   3   20.75    0.53
  -5   3   3   21.13    0.59
  -5   3   3   21.06    0.58
  -3   3   3   22.06    0.56
  -3   3   3   21.66    0.58
   1  -3  -3    2.49    0.10
  -1   3   3    2.53    0.10
  -1   3   3    2.34    0.10
   1   3   3    8.92    0.23
   1   3   3    8.53    0.26
  -3  -3  -3   21.95    0.60
   3   3   3   22.39    0.59
  -5  -3  -3   23.10    0.66
   5   3   3   23.62    0.62
  -7  -3  -3    3.75    0.20
   7   3   3    3.39    0.14
  -9  -3  -3    4.54    0.24
   9   3   3    4.87    0.19
 -11  -3  -3    4.67    0.27
  11   3   3    4.67    0.19
 -13  -3  -3    0.60    0.14
 -15  -3  -3    1.54    0.23
 -16   4   3    0.24    0.14
 -16   4   3    0.28    0.11
 -14   4   3    2.34    0.26
 -14   4   3    2.23    0.22
 -12   4   3    1.42    0.16
 -12   4   3    1.53    0.19
 -10   4   3    3.35    0.20
 -10   4   3    3.41    0.22
  -8   4   3   18.68    0.57
  -8   4   3   18.65    0.58
   6  -4  -3    6.53    0.26
  -6   4   3    6.53    0.19
  -6   4   3    6.27    0.25
   4  -4  -3   18.65    0.53
  -4   4   3   18.80    0.49
  -4   4   3   18.40    0.52
  -2   4   3    6.01    0.19
  -2   4   3    6.04    0.20
   0   4   3    2.87    0.10
   0   4   3    2.75    0.12
  -2  -4  -3    7.96    0.26
   2   4   3    8.11    0.21
   2   4   3    7.79    0.25
  -4  -4  -3   26.81    0.73
   4   4   3   26.81    0.65
   4   4   3   26.57    0.71
  -6  -4  -3    5.62    0.24
   6   4   3    5.67    0.21
  -8  -4  -3    3.99    0.22
   8   4   3    3.69    0.17
 -10  -4  -3    2.38    0.19
  10   4   3    2.27    0.13
 -12  -4  -3    0.71    0.14
  12   4   3    0.70    0.09
 -14  -4  -3    0.97    0.18
 -16  -4  -3    0.18    0.13
 -15   5   3    1.73    0.23
 -15   5   3    1.78    0.21
  13  -5  -3    0.20    0.12
 -13   5   3    0.54    0.12
 -13   5   3    0.61    0.14
  11  -5  -3    0.67    0.14
 -11   5   3    0.75    0.12
   9  -5  -3    4.70    0.25
  -9   5   3    4.17    0.22
   7  -5  -3    5.62    0.25
  -7   5   3    5.25    0.23
  -7   5   3    5.34    0.18
   5  -5  -3    1.88    0.13
  -5   5   3    1.65    0.09
  -5   5   3    1.69    0.12
   3  -5  -3   13.74    0.44
  -3   5   3   15.89    0.43
  -1   5   3    7.47    0.23
  -1   5   3    7.51    0.25
  -1  -5  -3    3.58    0.15
   1   5   3    3.52    0.12
   1   5   3    3.59    0.15
  -3  -5  -3   13.42    0.41
   3   5   3   12.74    0.39
  -5  -5  -3    8.55    0.31
   5   5   3    8.31    0.29
  -7  -5  -3    8.32    0.33
   7   5   3    8.10    0.29
  -9  -5  -3    3.21    0.21
   9   5   3    3.62    0.18
 -11  -5  -3    4.31    0.27
  11   5   3    4.00    0.20
 -13  -5  -3    1.56    0.21
 -15  -5  -3    0.07    0.09
  16  -6  -3    0.59    0.19
 -16   6   3    0.94    0.18
  14  -6  -3    0.23    0.14
 -14   6   3    0.42    0.13
  12  -6  -3    0.36    0.13
 -12   6   3    0.20    0.09
  10  -6  -3    3.61    0.23
 -10   6   3    3.63    0.22
   8  -6  -3    7.22    0.31
  -8   6   3    6.98    0.23
  -8   6   3    7.04    0.30
   6  -6  -3    1.03    0.12
  -6   6   3    0.92    0.11
  -6   6   3    0.89    0.08
   4  -6  -3    9.63    0.33
  -4   6   3    8.25    0.28
  -4   6   3    8.39    0.30
   2  -6  -3   19.60    0.57
  -2   6   3   19.62    0.55
  -2   6   3   19.71    0.54
   0  -6  -3   26.60    0.73
   0   6   3   26.61    0.73
   0   6   3   26.73    0.69
  -2  -6  -3   10.57    0.36
   2   6   3   11.18    0.36
   2   6   3   11.51    0.29
  -4  -6  -3    7.97    0.30
   4   6   3    7.90    0.29
  -6  -6  -3    4.05    0.21
   6   6   3    3.84    0.18
  -8  -6  -3    1.71    0.15
   8   6   3    1.94    0.14
 -10  -6  -3    7.16    0.35
  10   6   3    6.59    0.28
 -12  -6  -3    0.33    0.12
  12   6   3    0.23    0.07
 -14  -6  -3    0.68    0.16
  15  -7  -3    0.71    0.18
 -15   7   3    0.97    0.17
  13  -7  -3    0.22    0.12
 -13   7   3    0.08    0.08
  11  -7  -3    1.51    0.19
 -11   7   3    1.37    0.16
   9  -7  -3    3.91    0.24
  -9   7   3    3.84    0.22
   7  -7  -3    7.30    0.32
  -7   7   3    7.75    0.31
  -7   7   3    7.86    0.26
   5  -7  -3    4.99    0.24
  -5   7   3    5.34    0.20
  -5   7   3    4.88    0.22
   3  -7  -3    6.97    0.28
  -3   7   3    7.18    0.26
  -3   7   3    6.74    0.25
   1  -7  -3   12.31    0.40
  -1   7   3   11.92    0.38
  -1   7   3   11.77    0.36
  -1  -7  -3    6.65    0.26
   1   7   3    6.17    0.20
   1   7   3    6.51    0.25
  -3  -7  -3   12.71    0.42
   3   7   3   12.28    0.41
  -5  -7  -3    0.85    0.11
   5   7   3    1.01    0.11
  -7  -7  -3    4.27    0.23
   7   7   3    3.94    0.20
  -9  -7  -3   -0.07    0.06
   9   7   3    0.03    0.06
 -11  -7  -3    0.45    0.12
  11   7   3    0.56    0.10
 -13  -7  -3    1.42    0.21
  13   7   3    1.32    0.15
 -15  -7  -3    0.05    0.11
  14  -8  -3   -0.04    0.12
 -14   8   3    0.22    0.10
  12  -8  -3    3.22    0.26
 -12   8   3    3.12    0.23
  10  -8  -3    0.48    0.13
 -10   8   3    0.47    0.11
   8  -8  -3    4.77    0.28
  -8   8   3    4.72    0.25
  -8   8   3    4.91    0.20
   6  -8  -3    1.25    0.16
  -6   8   3    1.02    0.12
  -6   8   3    1.25    0.12
   4  -8  -3    1.44    0.15
  -4   8   3    1.59    0.12
  -4   8   3    1.41    0.11
   2  -8  -3    0.04    0.07
  -2   8   3    0.08    0.05
  -2   8   3    0.09    0.04
   0  -8  -3   16.18    0.52
   0   8   3   16.76    0.51
   0   8   3   16.07    0.45
  -2  -8  -3   10.42    0.38
   2   8   3   10.21    0.29
   2   8   3   10.72    0.37
  -4  -8  -3    2.46    0.16
   4   8   3    2.11    0.15
  -6  -8  -3    3.73    0.22
   6   8   3    3.84    0.20
  -8  -8  -3    0.16    0.08
   8   8   3    0.36    0.09
 -10  -8  -3    5.12    0.31
  10   8   3    5.50    0.27
 -12  -8  -3    2.38    0.26
  12   8   3    2.26    0.20
 -14  -8  -3    0.33    0.14
  13  -9  -3    0.10    0.14
 -13   9   3    0.06    0.09
  11  -9  -3    5.22    0.33
 -11   9   3    4.98    0.29
   9  -9  -3    0.75    0.15
  -9   9   3    0.90    0.14
   7  -9  -3    1.23    0.17
  -7   9   3    1.43    0.13
  -7   9   3    1.23    0.14
   5  -9  -3    4.95    0.27
  -5   9   3    4.97    0.23
   3  -9  -3    1.16    0.14
  -3   9   3    1.37    0.11
  -3   9   3    1.28    0.13
   1  -9  -3    5.03    0.24
  -1   9   3    4.43    0.22
  -1   9   3    4.68    0.19
  -1  -9  -3    2.46    0.17
   1   9   3    2.16    0.15
   1   9   3    2.25    0.11
  -3  -9  -3   12.56    0.46
   3   9   3   13.05    0.45
  -5  -9  -3    0.43    0.10
   5   9   3    0.36    0.09
  -7  -9  -3    3.49    0.23
   7   9   3    3.72    0.22
  -9  -9  -3    1.71    0.20
   9   9   3    2.36    0.18
 -11  -9  -3    1.76    0.23
  11   9   3    1.84    0.19
 -13  -9  -3    2.00    0.26
  13   9   3    2.25    0.21
  12 -10  -3    0.88    0.18
 -12  10   3    0.94    0.17
  10 -10  -3    0.27    0.13
 -10  10   3    0.22    0.10
   8 -10  -3    1.78    0.22
  -8  10   3    1.71    0.15
  -8  10   3    1.77    0.18
   6 -10  -3    2.51    0.24
  -6  10   3    1.88    0.15
  -6  10   3    2.13    0.17
   4 -10  -3    2.16    0.21
  -4  10   3    2.25    0.15
  -4  10   3    2.27    0.16
   2 -10  -3    0.77    0.14
  -2  10   3    0.89    0.10
  -2  10   3    0.76    0.11
   0 -10  -3    1.11    0.15
   0  10   3    1.15    0.10
   0  10   3    1.14    0.14
  -2 -10  -3    3.35    0.21
   2  10   3    2.97    0.20
  -4 -10  -3    0.98    0.14
   4  10   3    1.18    0.14
  -6 -10  -3    0.27    0.09
   6  10   3    0.43    0.10
  -8 -10  -3    2.56    0.25
   8  10   3    2.56    0.20
 -10 -10  -3    2.18    0.25
  10  10   3    2.32    0.21
 -12 -10  -3    1.61    0.23
  12  10   3    1.61    0.19
  11 -11  -3    3.06    0.33
 -11  11   3    3.02    0.27
   9 -11  -3    0.71    0.18
  -9  11   3    0.64    0.13
   7 -11  -3    1.81    0.22
  -7  11   3    2.11    0.18
  -7  11   3    2.29    0.18
   5 -11  -3    4.02    0.27
  -5  11   3    4.19    0.23
  -5  11   3    4.18    0.23
   3 -11  -3    3.65    0.25
  -3  11   3    3.59    0.21
  -3  11   3    3.78    0.20
   1 -11  -3    5.20    0.28
  -1  11   3    5.28    0.22
  -1  11   3    5.41    0.27
  -1 -11  -3    1.67    0.18
   1  11   3    1.22    0.14
  -3 -11  -3    4.09    0.25
   3  11   3    4.24    0.25
  -5 -11  -3    0.12    0.08
   5  11   3    0.10    0.08
  -7 -11  -3    1.33    0.18
   7  11   3    1.51    0.18
  -9 -11  -3    2.03    0.23
   9  11   3    2.48    0.23
 -11 -11  -3    1.09    0.20
  11  11   3    0.89    0.16
  10 -12  -3    1.29    0.23
 -10  12   3    0.87    0.16
   8 -12  -3    0.13    0.14
  -8  12   3    0.22    0.10
   6 -12  -3    0.73    0.17
  -6  12   3    0.62    0.11
  -6  12   3    0.76    0.13
   4 -12  -3    0.15    0.11
  -4  12   3    0.21    0.09
  -4  12   3    0.19    0.08
   2 -12  -3    4.03    0.26
  -2  12   3    3.59    0.19
  -2  12   3    3.88    0.24
   0 -12  -3    0.14    0.09
   0  12   3    0.16    0.08
  -2 -12  -3    0.68    0.13
   2  12   3    0.44    0.11
  -4 -12  -3    0.57    0.13
   4  12   3    0.49    0.12
  -6 -12  -3    0.66    0.14
   6  12   3    0.44    0.11
  -8 -12  -3    1.14    0.18
   8  12   3    0.96    0.15
 -10 -12  -3    0.09    0.10
  10  12   3    0.27    0.12
   9 -13  -3    0.28    0.17
  -9  13   3    0.03    0.09
   7 -13  -3    1.06    0.19
  -7  13   3    0.79    0.14
   5 -13  -3    0.78    0.17
  -5  13   3    1.10    0.15
  -5  13   3    0.95    0.15
   3 -13  -3    1.65    0.21
  -3  13   3    1.21    0.16
   1 -13  -3    1.84    0.21
  -1  13   3    2.21    0.21
  -1 -13  -3    0.13    0.08
   1  13   3    0.04    0.08
  -3 -13  -3    3.38    0.25
   3  13   3    3.07    0.23
  -5 -13  -3    0.13    0.09
   5  13   3    0.12    0.10
  -7 -13  -3    1.51    0.22
   7  13   3    1.40    0.19
  -9 -13  -3    0.70    0.17
   6 -14  -3    4.34    0.33
  -6  14   3    4.75    0.29
  -6  14   3    4.71    0.28
   4 -14  -3    0.55    0.14
  -4  14   3    0.37    0.12
   2 -14  -3    0.94    0.16
  -2  14   3    1.03    0.16
   0 -14  -3    0.41    0.12
   0  14   3    0.27    0.11
  -2 -14  -3    0.75    0.15
   2  14   3    0.56    0.14
  -4 -14  -3    1.58    0.21
   4  14   3    1.57    0.20
  -6 -14  -3    0.59    0.15
   6  14   3    0.40    0.13
   3 -15  -3    0.45    0.14
  -3  15   3    0.35    0.13
   1 -15  -3    0.32    0.13
  -1  15   3    0.18    0.11
  -1 -15  -3    0.34    0.12
   1  15   3    0.32    0.12
  -3 -15  -3    0.26    0.12
   3  15  -4    0.15    0.13
  -3 -15   4    0.43    0.14
   1  15  -4    2.23    0.24
  -1 -15   4    1.85    0.24
  -1  15  -4   -0.01    0.10
   1 -15   4    0.15    0.11
   3 -15   4    1.84    0.25
   6  14  -4    0.94    0.17
  -6 -14   4    0.94    0.19
   4  14  -4    0.67    0.16
  -4 -14   4    0.47    0.13
   2  14  -4    0.71    0.15
  -2 -14   4    0.74    0.16
   0  14  -4    0.06    0.10
   0 -14   4    0.26    0.12
  -2  14  -4    0.29    0.12
   2 -14   4    0.39    0.14
   4 -14   4    0.63    0.16
   6 -14   4    0.27    0.15
   9  13  -4    1.04    0.18
  -9 -13   4    0.79    0.18
   7  13  -4    1.20    0.18
  -7 -13   4    1.00    0.18
   5  13  -4    1.26    0.18
  -5 -13   4    1.67    0.22
   3  13  -4    1.12    0.16
  -3 -13   4    0.94    0.17
   1  13  -4    2.28    0.21
  -1 -13   4    1.88    0.22
  -1  13  -4    0.20    0.11
   1 -13   4    0.32    0.12
  -3  13  -4    3.79    0.25
   3 -13   4    3.57    0.29
   5 -13   4    0.61    0.17
   7 -13   4    2.39    0.30
  10  12  -4    0.92    0.17
 -10 -12   4    1.62    0.23
   8  12  -4    0.02    0.09
  -8 -12   4    0.13    0.11
   6  12  -4    2.56    0.23
  -6 -12   4    2.79    0.24
   4  12  -4    0.61    0.12
  -4 -12   4    0.46    0.13
   2  12  -4    3.54    0.24
  -2 -12   4    3.65    0.26
   0  12  -4    1.45    0.17
   0 -12   4    1.36    0.19
  -2  12  -4    1.11    0.15
   2 -12   4    1.28    0.20
  -4  12  -4    0.99    0.14
   4 -12   4    0.79    0.18
   6 -12   4    0.50    0.18
  -8  12  -4    2.49    0.20
   8 -12   4    2.45    0.31
 -10  12  -4    1.06    0.16
  10 -12   4    0.84    0.23
  11  11  -4    0.97    0.16
 -11 -11   4    1.10    0.19
   9  11  -4    0.66    0.14
  -9 -11   4    0.62    0.15
   7  11  -4    0.93    0.15
  -7 -11   4    0.82    0.16
   5  11  -4    2.89    0.21
  -5 -11   4    2.46    0.21
   3  11  -4    0.69    0.12
  -3 -11   4    0.79    0.14
   1  11  -4    1.74    0.18
  -1 -11   4    2.10    0.22
  -1  11  -4    0.41    0.10
   1 -11   4    0.48    0.13
  -3  11  -4    1.41    0.15
   3 -11   4    1.58    0.21
  -5  11  -4    0.85    0.12
   5 -11   4    0.76    0.17
  -7  11  -4    0.23    0.09
   7 -11   4    0.21    0.14
  -9  11  -4    2.68    0.21
   9 -11   4    2.41    0.29
 -11  11  -4    0.00    0.09
  11 -11   4   -0.02    0.15
  12  10  -4    0.69    0.14
 -12 -10   4    0.66    0.16
  10  10  -4    2.53    0.22
 -10 -10   4    2.78    0.28
   8  10  -4    0.43    0.11
  -8 -10   4    0.49    0.12
   6  10  -4    0.18    0.08
  -6 -10   4    0.17    0.09
   4  10  -4    0.77    0.12
  -4 -10   4    0.59    0.11
   2  10  -4    7.32    0.31
  -2 -10   4    7.01    0.34
   0  10  -4    2.46    0.18
   0 -10   4    2.28    0.20
  -2  10  -4    5.54    0.27
   2 -10   4    6.02    0.32
  -4  10  -4    5.90    0.26
  -4  10  -4    4.91    0.24
   4 -10   4    5.51    0.32
  -6  10  -4    1.21    0.14
   6 -10   4    1.25    0.20
  -8  10  -4    2.39    0.19
   8 -10   4    2.20    0.24
 -10  10  -4    1.64    0.19
  10 -10   4    1.11    0.21
 -12  10  -4    2.07    0.24
  12 -10   4    2.07    0.29
  13   9  -4    0.25    0.11
 -13  -9   4    0.54    0.15
  11   9  -4    2.48    0.21
 -11  -9   4    2.66    0.23
   9   9  -4    0.36    0.10
  -9  -9   4    0.33    0.10
   7   9  -4    1.97    0.18
  -7  -9   4    1.72    0.19
   5   9  -4    0.36    0.09
  -5  -9   4    0.37    0.10
   3   9  -4    0.41    0.09
  -3  -9   4    0.69    0.12
   1   9  -4    1.13    0.12
  -1  -9   4    1.45    0.17
  -1   9  -4   10.58    0.38
   1  -9   4   11.13    0.44
  -3   9  -4    1.63    0.13
  -3   9  -4    1.78    0.15
   3  -9   4    1.80    0.20
  -5   9  -4    1.21    0.13
   5  -9   4    1.09    0.18
  -7   9  -4    1.52    0.16
   7  -9   4    1.72    0.22
  -9   9  -4    0.42    0.10
   9  -9   4    0.67    0.18
 -11   9  -4    0.61    0.13
  11  -9   4    0.51    0.16
 -13   9  -4    0.57    0.14
  13  -9   4    0.43    0.17
 -14  -8   4    0.82    0.18
  12   8  -4    2.37    0.19
 -12  -8   4    2.41    0.25
  10   8  -4    5.22    0.26
 -10  -8   4    5.12    0.30
   8   8  -4    9.25    0.36
  -8  -8   4    8.42    0.38
   6   8  -4   13.67    0.46
  -6  -8   4   14.00    0.50
   4   8  -4    2.10    0.15
  -4  -8   4    1.92    0.16
   2   8  -4   12.53    0.42
  -2  -8   4   12.53    0.45
   0   8  -4    6.33    0.26
   0  -8   4    6.29    0.29
  -2   8  -4    3.34    0.18
   2  -8   4    3.53    0.22
  -4   8  -4   10.86    0.36
  -4   8  -4   10.24    0.35
   4  -8   4    8.91    0.39
  -6   8  -4    1.26    0.14
   6  -8   4    1.37    0.18
  -8   8  -4    1.71    0.17
   8  -8   4    1.79    0.20
 -10   8  -4    0.93    0.15
  10  -8   4    1.10    0.19
 -12   8  -4    2.08    0.22
  12  -8   4    2.10    0.26
 -14   8  -4    1.40    0.20
  14  -8   4    1.46    0.26
 -15  -7   4   -0.01    0.10
  13   7  -4    0.92    0.13
 -13  -7   4    0.75    0.16
  11   7  -4    0.97    0.13
 -11  -7   4    0.91    0.16
   9   7  -4   11.07    0.40
  -9  -7   4   11.66    0.46
   7   7  -4    1.21    0.13
  -7  -7   4    1.23    0.15
   5   7  -4    0.92    0.10
  -5  -7   4    0.82    0.11
   3   7  -4    0.35    0.07
  -3  -7   4    0.36    0.08
   1   7  -4    2.35    0.14
  -1  -7   4    2.35    0.17
  -1   7  -4   25.09    0.69
   1  -7   4   23.78    0.73
  -3   7  -4    0.32    0.07
  -3   7  -4    0.31    0.06
   3  -7   4    0.34    0.10
  -5   7  -4    2.05    0.14
   5  -7   4    2.12    0.18
  -7   7  -4    2.16    0.16
   7  -7   4    2.34    0.20
  -9   7  -4    0.10    0.07
   9  -7   4    0.19    0.10
 -11   7  -4    0.34    0.10
  11  -7   4    0.23    0.13
 -13   7  -4    1.88    0.21
  13  -7   4    1.82    0.24
 -15   7  -4    0.49    0.15
  15  -7   4    0.39    0.17
 -16  -6   4    0.32    0.14
 -14  -6   4    0.11    0.10
  12   6  -4    1.26    0.13
 -12  -6   4    1.16    0.17
  10   6  -4    1.49    0.14
 -10  -6   4    1.80    0.20
   8   6  -4    1.08    0.12
  -8  -6   4    1.20    0.06
  -8  -6   4    1.44    0.16
   6   6  -4    5.63    0.23
  -6  -6   4    5.65    0.26
   4   6  -4    4.92    0.21
  -4  -6   4    5.01    0.14
  -4  -6   4    5.03    0.23
   2   6  -4    4.24    0.19
  -2  -6   4    4.81    0.22
   0   6  -4    7.17    0.26
   0  -6   4    7.54    0.30
  -2   6  -4   16.21    0.47
  -2   6  -4   17.15    0.48
   2  -6   4   15.14    0.52
  -4   6  -4    3.27    0.16
   4  -6   4    2.08    0.16
  -6   6  -4    3.85    0.19
   6  -6   4    3.72    0.22
  -8   6  -4    7.30    0.31
   8  -6   4    6.78    0.33
 -10   6  -4    1.59    0.17
  10  -6   4    1.73    0.21
 -12   6  -4    2.74    0.21
  12  -6   4    2.89    0.28
 -14   6  -4    0.74    0.15
  14  -6   4    0.57    0.17
 -15  -5   4    1.59    0.22
 -13  -5   4    0.64    0.15
  11   5  -4    1.13    0.12
 -11  -5   4    1.09    0.16
   9   5  -4   10.28    0.34
  -9  -5   4    9.76    0.40
  -9  -5   4    9.68    0.29
   7   5  -4   12.69    0.40
  -7  -5   4   12.72    0.34
  -7  -5   4   12.67    0.44
   5   5  -4    0.71    0.08
  -5  -5   4    0.68    0.04
  -5  -5   4    0.62    0.09
   3   5  -4    4.47    0.18
  -3  -5   4    4.55    0.20
  -3  -5   4    4.32    0.13
   1   5  -4    1.53    0.10
  -1  -5   4    1.78    0.12
  -1   5  -4    5.37    0.20
   1  -5   4    5.35    0.23
  -3   5  -4    3.98    0.16
   3  -5   4    2.82    0.17
  -5   5  -4   12.99    0.42
   5  -5   4   13.47    0.45
  -7   5  -4   13.76    0.45
   7  -5   4   13.54    0.48
  -9   5  -4    4.33    0.23
   9  -5   4    4.35    0.25
 -11   5  -4    8.57    0.37
  11  -5   4    9.27    0.42
 -13   5  -4    0.68    0.13
  13  -5   4    0.83    0.18
 -15   5  -4    0.41    0.13
  15  -5   4    0.52    0.18
 -16  -4   4    0.50    0.15
 -14  -4   4    0.62    0.14
  12   4  -4    1.45    0.12
 -12  -4   4    1.40    0.11
 -12  -4   4    1.44    0.18
  10   4  -4    3.34    0.16
 -10  -4   4    3.20    0.21
 -10  -4   4    3.20    0.14
   8   4  -4   17.74    0.50
  -8  -4   4   17.09    0.47
  -8  -4   4   17.46    0.57
   6   4  -4    9.19    0.30
  -6  -4   4    9.41    0.26
  -6  -4   4    9.32    0.34
   4   4  -4   27.87    0.74
  -4  -4   4   27.56    0.77
  -4  -4   4   28.46    0.69
   2   4  -4    3.45    0.14
  -2  -4   4    3.53    0.16
   0   4  -4    4.77    0.17
   0  -4   4    4.59    0.19
  -2   4  -4    9.03    0.28
   2  -4   4    9.43    0.32
  -4   4  -4   18.71    0.53
   4  -4   4   18.63    0.56
  -6   4  -4   10.30    0.35
   6  -4   4    9.99    0.36
  -8   4  -4    2.41    0.16
   8  -4   4    1.99    0.17
 -10   4  -4    2.01    0.18
 -10   4  -4    1.88    0.17
 -12   4  -4    3.79    0.26
 -12   4  -4    3.85    0.23
 -14   4  -4    0.43    0.11
 -14   4  -4    0.26    0.12
  14  -4   4    0.09    0.12
 -16   4  -4    0.60    0.14
 -16   4  -4    0.53    0.17
  16  -4   4    0.18    0.15
 -17  -3   4    0.61    0.17
 -15  -3   4    0.26    0.11
 -13  -3   4    1.56    0.20
 -13  -3   4    1.84    0.14
 -11  -3   4    2.27    0.19
 -11  -3   4    2.29    0.13
   9   3  -4    1.64    0.10
  -9  -3   4    1.46    0.13
  -9  -3   4    1.70    0.10
   7   3  -4   16.43    0.46
  -7  -3   4   16.46    0.45
  -7  -3   4   17.18    0.53
   5   3  -4   11.85    0.35
  -5  -3   4   12.46    0.33
  -5  -3   4   12.47    0.39
   3   3  -4    0.15    0.04
  -3  -3   4    0.14    0.03
  -3  -3   4    0.06    0.04
   1   3  -4   13.85    0.38
  -1  -3   4   13.66    0.40
   1  -3   4   14.06    0.41
  -3   3  -4    1.10    0.08
   3  -3   4    1.11    0.09
  -5   3  -4   11.35    0.36
   5  -3   4   11.62    0.39
  -7   3  -4    4.30    0.22
  -7   3  -4    3.93    0.19
  -9   3  -4    0.90    0.13
  -9   3  -4    0.78    0.11
 -11   3  -4    0.77    0.14
 -11   3  -4    0.68    0.11
 -13   3  -4    0.82    0.13
 -13   3  -4    0.63    0.14
 -15   3  -4    0.16    0.09
 -15   3  -4    0.13    0.12
 -16  -2   4    0.14    0.08
 -16  -2   4    0.29    0.12
 -14  -2   4    3.36    0.26
 -14  -2   4    3.02    0.19
 -12  -2   4    0.76    0.10
 -12  -2   4    0.70    0.13
 -10  -2   4    0.13    0.05
 -10  -2   4    0.12    0.06
   8   2  -4    9.32    0.27
  -8  -2   4    9.02    0.34
  -8  -2   4    9.15    0.29
   6   2  -4   12.66    0.35
  -6  -2   4   12.58    0.40
  -6  -2   4   12.57    0.35
   4   2  -4    5.34    0.17
  -4  -2   4    5.33    0.16
  -4  -2   4    5.29    0.20
   2   2  -4   26.25    0.67
  -2  -2   4   26.34    0.68
  -2  -2   4   26.38    0.65
   0  -2   4   50.48    1.25
   2  -2   4   31.19    0.81
  -4   2  -4    2.91    0.13
  -4   2  -4    2.80    0.14
  -6   2  -4    2.00    0.12
  -6   2  -4    1.96    0.13
  -8   2  -4    1.89    0.15
  -8   2  -4    1.77    0.12
 -10   2  -4   15.29    0.48
 -10   2  -4   12.92    0.51
 -12   2  -4    0.10    0.08
 -12   2  -4    0.01    0.06
 -14   2  -4    2.68    0.28
 -14   2  -4    2.15    0.21
 -16   2  -4    1.39    0.23
 -16   2  -4    1.21    0.18
 -17  -1   4    0.10    0.10
 -17  -1   4    0.03    0.05
 -15  -1   4    0.19    0.10
 -15  -1   4    0.02    0.06
 -13  -1   4    0.42    0.12
 -13  -1   4    0.28    0.08
 -11  -1   4    3.02    0.17
 -11  -1   4    3.84    0.23
  -9  -1   4    6.08    0.27
  -5  -1   4   89.86    2.22
  -3  -1   4   21.99    0.58
  -1  -1   4    0.19    0.02
  -1  -1   4    0.21    0.03
   1  -1   4   31.90    0.80
  -3   1  -4    5.24    0.18
  -3   1  -4    4.79    0.17
  -5   1  -4    2.47    0.14
  -5   1  -4    2.54    0.12
  -7   1  -4    0.33    0.08
  -7   1  -4    0.30    0.06
  -9   1  -4    1.32    0.12
  -9   1  -4    1.71    0.15
   9  -1   4    1.38    0.06
 -11   1  -4    0.43    0.11
 -11   1  -4    0.39    0.09
 -13   1  -4    0.20    0.11
 -13   1  -4    0.19    0.08
 -15   1  -4    0.10    0.09
 -15   1  -4    0.36    0.14
 -17   1  -4   -0.07    0.09
 -16   0   4    0.91    0.14
 -16   0   4    0.96    0.19
 -14   0   4    2.25    0.18
 -14   0   4    2.56    0.26
 -12   0   4    7.32    0.34
 -12   0   4    6.86    0.29
 -10   0   4    1.03    0.11
 -10   0   4    1.19    0.14
  -8   0   4   75.15    1.94
  -8   0   4   80.47    1.99
  -6   0   4    7.37    0.24
  -6   0   4    7.51    0.27
  -4   0   4 1000.00   23.75
  -4   0   4  964.47   23.60
  -2   0   4    4.90    0.15
  -2   0   4    4.88    0.15
   0   0   4   95.50    2.32
   0   0   4   95.95    2.32
  -2   0  -4   47.15    1.16
  -4   0  -4    0.79    0.08
  -4   0  -4    0.84    0.06
  -6   0  -4    6.39    0.22
  -6   0  -4    6.51    0.26
  -8   0  -4    5.72    0.26
  -8   0  -4    5.48    0.22
   8   0   4    5.39    0.17
 -10   0  -4   21.37    0.69
 -10   0  -4   20.93    0.62
  10   0   4   21.23    0.55
 -12   0  -4    0.83    0.11
 -12   0  -4    0.79    0.15
 -14   0  -4    2.69    0.24
 -14   0  -4    2.13    0.20
 -16   0  -4    1.15    0.21
 -17   1   4    0.18    0.10
 -17   1   4    0.07    0.11
 -15   1   4    0.27    0.11
 -15   1   4    0.18    0.09
 -13   1   4    0.45    0.12
 -13   1   4    0.31    0.09
 -11   1   4    3.44    0.20
 -11   1   4    3.85    0.23
  -9   1   4    7.13    0.28
  -9   1   4    7.32    0.30
  -7   1   4    5.94    0.22
  -7   1   4    5.81    0.24
  -5   1   4   87.78    2.12
  -5   1   4   83.89    2.10
  -3   1   4   20.98    0.55
  -3   1   4   21.30    0.54
  -1   1   4    0.25    0.03
  -1  -1  -4   33.70    0.83
  -3  -1  -4    5.21    0.18
  -5  -1  -4    2.44    0.14
   5   1   4    2.68    0.10
  -7  -1  -4    0.46    0.08
   7   1   4    0.38    0.05
  -9  -1  -4    1.72    0.15
   9   1   4    1.38    0.08
 -11  -1  -4    0.66    0.13
  11   1   4    0.51    0.06
 -13  -1  -4    0.56    0.13
 -15  -1  -4    0.16    0.12
 -17  -1  -4    0.00    0.12
 -16   2   4    0.08    0.09
 -16   2   4    0.10    0.11
 -14   2   4    2.71    0.23
 -14   2   4    3.35    0.22
 -12   2   4    0.82    0.14
 -12   2   4    0.61    0.11
 -10   2   4    0.13    0.06
 -10   2   4    0.07    0.06
  -8   2   4    9.31    0.32
  -8   2   4    8.79    0.33
  -6   2   4   13.03    0.40
  -6   2   4   12.68    0.39
  -4   2   4    5.37    0.15
  -4   2   4    5.53    0.19
  -4   2   4    5.26    0.18
   2  -2  -4   26.80    0.66
  -2   2   4   26.36    0.68
   0  -2  -4   50.97    1.23
   0   2   4   50.16    1.25
   0   2   4   51.79    1.24
   2   2   4   33.35    0.84
  -4  -2  -4    3.35    0.15
   4   2   4    3.09    0.12
  -6  -2  -4    1.35    0.11
   6   2   4    2.15    0.10
  -8  -2  -4    1.63    0.14
   8   2   4    1.71    0.09
 -10  -2  -4   15.59    0.55
  10   2   4   15.37    0.44
 -12  -2  -4    0.07    0.08
 -14  -2  -4    2.49    0.27
 -16  -2  -4    1.14    0.20
 -17   3   4    0.57    0.17
 -17   3   4    0.80    0.15
 -15   3   4    0.26    0.10
 -15   3   4    0.09    0.09
 -13   3   4    2.00    0.22
 -13   3   4    1.59    0.17
 -11   3   4    2.39    0.18
 -11   3   4    2.58    0.19
  -9   3   4    1.83    0.14
  -9   3   4    1.52    0.14
  -7   3   4   16.16    0.50
  -7   3   4   16.21    0.49
  -5   3   4   12.28    0.32
  -5   3   4   12.07    0.37
  -5   3   4   12.66    0.38
   3  -3  -4    0.13    0.04
  -3   3   4    0.09    0.03
  -3   3   4    0.05    0.03
   1  -3  -4   13.92    0.37
  -1   3   4   13.57    0.37
  -1   3   4   13.80    0.37
  -1  -3  -4   17.85    0.48
   1   3   4   18.24    0.45
   1   3   4   17.85    0.48
  -3  -3  -4    1.17    0.08
   3   3   4    1.10    0.08
  -5  -3  -4   11.81    0.38
   5   3   4   11.57    0.35
  -7  -3  -4    3.86    0.20
   7   3   4    4.08    0.16
  -9  -3  -4    0.97    0.13
   9   3   4    0.88    0.08
 -11  -3  -4    0.65    0.13
  11   3   4    0.67    0.08
 -13  -3  -4    0.41    0.13
 -15  -3  -4    0.20    0.10
 -16   4   4    0.58    0.17
 -16   4   4    0.56    0.13
 -14   4   4    0.93    0.15
 -14   4   4    0.86    0.17
 -12   4   4    1.36    0.18
 -12   4   4    1.21    0.15
 -10   4   4    3.68    0.22
 -10   4   4    3.29    0.20
  -8   4   4   16.44    0.54
  -8   4   4   17.06    0.43
  -8   4   4   18.02    0.54
   6  -4  -4    9.74    0.33
  -6   4   4    8.98    0.32
  -6   4   4    9.36    0.26
  -4   4   4   28.95    0.77
  -4   4   4   28.43    0.73
   2  -4  -4    3.82    0.15
  -2   4   4    3.69    0.14
  -2   4   4    3.64    0.14
   0  -4  -4    4.94    0.17
   0   4   4    4.92    0.16
   2   4   4    9.09    0.29
   2   4   4    9.36    0.24
  -4  -4  -4   18.32    0.53
   4   4   4   18.33    0.46
   4   4   4   18.76    0.52
  -6  -4  -4   10.77    0.37
   6   4   4   10.32    0.33
  -8  -4  -4    2.35    0.17
   8   4   4    2.56    0.13
 -10  -4  -4    2.14    0.18
  10   4   4    2.14    0.13
 -12  -4  -4    3.80    0.26
  12   4   4    3.79    0.18
 -14  -4  -4    0.39    0.13
 -16  -4  -4    0.49    0.15
 -15   5   4    2.28    0.24
 -15   5   4    1.95    0.24
  13  -5  -4    0.59    0.14
 -13   5   4    0.77    0.14
 -13   5   4    0.49    0.12
  11  -5  -4    1.26    0.17
 -11   5   4    1.21    0.15
   9  -5  -4   10.29    0.40
  -9   5   4   10.00    0.38
   7  -5  -4   13.03    0.43
  -7   5   4   13.31    0.43
  -7   5   4   12.66    0.36
   5  -5  -4    0.68    0.09
  -5   5   4    0.59    0.08
  -5   5   4    0.63    0.06
   3  -5  -4    2.14    0.12
  -3   5   4    2.85    0.12
   1  -5  -4    1.68    0.10
  -1   5   4    1.49    0.08
  -1   5   4    1.65    0.10
   1   5   4    5.18    0.20
   1   5   4    5.33    0.16
  -3  -5  -4    3.83    0.17
   3   5   4    3.85    0.17
  -5  -5  -4   13.76    0.44
   5   5   4   13.59    0.42
  -7  -5  -4   14.76    0.49
   7   5   4   14.07    0.44
  -9  -5  -4    4.32    0.25
   9   5   4    4.29    0.20
 -11  -5  -4    7.31    0.37
  11   5   4    8.38    0.30
 -13  -5  -4    0.84    0.16
 -15  -5  -4    0.66    0.17
  16  -6  -4    0.37    0.16
 -16   6   4    0.30    0.13
  14  -6  -4    0.29    0.14
 -14   6   4    0.30    0.12
  12  -6  -4    1.41    0.19
 -12   6   4    1.10    0.15
  10  -6  -4    1.45    0.17
 -10   6   4    1.78    0.17
   8  -6  -4    1.07    0.13
  -8   6   4    1.24    0.13
  -8   6   4    1.20    0.08
   6  -6  -4    5.62    0.25
  -6   6   4    5.98    0.21
  -6   6   4    5.83    0.25
   4  -6  -4    1.66    0.13
  -4   6   4    2.49    0.12
  -2   6   4    4.74    0.18
  -2   6   4    4.92    0.19
   0   6   4    7.24    0.26
   0   6   4    7.11    0.22
  -2  -6  -4   16.26    0.49
   2   6   4   16.60    0.42
   2   6   4   16.79    0.49
  -4  -6  -4    3.31    0.17
   4   6   4    3.12    0.16
  -6  -6  -4    4.16    0.21
   6   6   4    3.94    0.19
  -8  -6  -4    7.44    0.33
   8   6   4    6.98    0.28
 -10  -6  -4    1.73    0.20
  10   6   4    1.56    0.14
 -12  -6  -4    2.77    0.24
  12   6   4    2.43    0.17
 -14  -6  -4    0.92    0.19
  15  -7  -4    0.19    0.14
 -15   7   4    0.03    0.09
  13  -7  -4    0.95    0.17
 -13   7   4    1.17    0.17
  11  -7  -4    0.96    0.16
 -11   7   4    0.84    0.14
   9  -7  -4   11.01    0.43
  -9   7   4   10.63    0.34
  -9   7   4   10.90    0.41
   7  -7  -4    1.31    0.15
  -7   7   4    1.21    0.13
  -7   7   4    1.14    0.09
   5  -7  -4    1.00    0.12
  -5   7   4    0.91    0.10
  -5   7   4    1.07    0.10
  -3   7   4    0.49    0.07
  -3   7   4    0.34    0.06
  -1   7   4    2.42    0.14
  -1   7   4    2.28    0.12
  -1  -7  -4   25.06    0.70
   1   7   4   24.16    0.69
   1   7   4   24.18    0.63
  -3  -7  -4    0.28    0.07
   3   7   4    0.26    0.06
  -5  -7  -4    2.19    0.15
   5   7   4    1.96    0.14
  -7  -7  -4    2.25    0.17
   7   7   4    2.16    0.15
  -9  -7  -4    0.14    0.08
   9   7   4    0.11    0.06
 -11  -7  -4    0.47    0.13
  11   7   4    0.38    0.09
 -13  -7  -4    1.64    0.23
  13   7   4    1.78    0.17
 -15  -7  -4    0.45    0.16
  14  -8  -4    0.88    0.19
 -14   8   4    0.75    0.15
  12  -8  -4    2.92    0.26
 -12   8   4    2.60    0.25
  10  -8  -4    5.98    0.32
 -10   8   4    5.54    0.30
   8  -8  -4    8.94    0.38
  -8   8   4    9.03    0.31
  -8   8   4    8.91    0.36
   6  -8  -4   14.37    0.50
  -6   8   4   14.32    0.47
  -6   8   4   13.81    0.44
   4  -8  -4    2.25    0.16
  -4   8   4    2.09    0.13
  -4   8   4    1.89    0.13
   2  -8  -4   11.57    0.41
  -2   8   4   12.37    0.40
  -2   8   4   12.20    0.38
   0  -8  -4    6.33    0.26
   0   8   4    6.54    0.22
   0   8   4    6.06    0.26
  -2  -8  -4    3.92    0.20
   2   8   4    3.37    0.19
   2   8   4    3.42    0.12
  -4  -8  -4   10.82    0.40
   4   8   4   10.81    0.39
  -6  -8  -4    1.19    0.15
   6   8   4    1.37    0.14
  -8  -8  -4    1.80    0.19
   8   8   4    1.78    0.16
 -10  -8  -4    1.09    0.18
  10   8   4    0.95    0.13
 -12  -8  -4    1.63    0.22
  12   8   4    2.53    0.19
 -14  -8  -4    0.99    0.20
  13  -9  -4    0.45    0.16
 -13   9   4    0.27    0.11
  11  -9  -4    3.16    0.26
 -11   9   4    2.41    0.23
   9  -9  -4    0.26    0.12
  -9   9   4    0.25    0.09
   7  -9  -4    1.98    0.20
  -7   9   4    1.97    0.16
  -7   9   4    1.89    0.14
   5  -9  -4    0.36    0.10
  -5   9   4    0.35    0.08
  -5   9   4    0.35    0.08
   3  -9  -4    0.61    0.11
  -3   9   4    0.53    0.08
  -3   9   4    0.72    0.10
   1  -9  -4    1.16    0.13
  -1   9   4    1.03    0.12
  -1   9   4    1.05    0.09
  -1  -9  -4   10.62    0.39
   1   9   4   10.64    0.31
   1   9   4   10.08    0.37
  -3  -9  -4    1.79    0.15
   3   9   4    1.96    0.15
  -5  -9  -4    1.19    0.15
   5   9   4    1.13    0.13
  -7  -9  -4    1.44    0.17
   7   9   4    1.68    0.17
  -9  -9  -4    0.66    0.14
   9   9   4    0.65    0.12
 -11  -9  -4    0.59    0.15
  11   9   4    0.68    0.12
 -13  -9  -4    0.25    0.13
  13   9   4    0.53    0.12
  12 -10  -4    0.86    0.19
 -12  10   4    0.84    0.16
  10 -10  -4    2.10    0.25
 -10  10   4    2.49    0.23
   8 -10  -4    0.47    0.15
  -8  10   4    0.50    0.09
  -8  10   4    0.46    0.11
   6 -10  -4    0.35    0.12
  -6  10   4    0.23    0.07
  -6  10   4    0.22    0.08
   4 -10  -4    0.70    0.13
  -4  10   4    0.63    0.10
  -4  10   4    0.86    0.11
   2 -10  -4    7.38    0.33
  -2  10   4    7.53    0.31
  -2  10   4    7.15    0.27
   0 -10  -4    2.22    0.17
   0  10   4    2.26    0.17
   0  10   4    2.19    0.12
  -2 -10  -4    5.26    0.26
   2  10   4    5.26    0.26
  -4 -10  -4    5.54    0.28
   4  10   4    5.50    0.27
  -6 -10  -4    1.15    0.15
   6  10   4    1.31    0.16
  -8 -10  -4    1.96    0.21
   8  10   4    2.89    0.21
 -10 -10  -4    1.59    0.22
  10  10   4    1.44    0.18
 -12 -10  -4    1.93    0.26
  12  10   4    1.80    0.20
  11 -11  -4    1.36    0.23
 -11  11   4    0.94    0.16
   9 -11  -4    0.58    0.17
  -9  11   4    0.57    0.12
   7 -11  -4    0.70    0.16
  -7  11   4    0.53    0.10
  -7  11   4    0.76    0.12
   5 -11  -4    2.42    0.22
  -5  11   4    2.45    0.18
  -5  11   4    2.63    0.18
   3 -11  -4    0.89    0.15
  -3  11   4    1.00    0.13
  -3  11   4    0.95    0.12
   1 -11  -4    1.88    0.19
  -1  11   4    2.21    0.13
  -1  11   4    2.10    0.19
  -1 -11  -4    0.33    0.10
   1  11   4    0.35    0.09
  -3 -11  -4    1.52    0.18
   3  11   4    1.23    0.15
  -5 -11  -4    0.88    0.14
   5  11   4    0.77    0.13
  -7 -11  -4    0.11    0.08
   7  11   4    0.25    0.10
  -9 -11  -4    2.35    0.25
   9  11   4    2.20    0.22
 -11 -11  -4    0.13    0.11
  11  11   4    0.02    0.09
  10 -12  -4    1.32    0.23
 -10  12   4    1.63    0.20
   8 -12  -4    0.17    0.12
  -8  12   4    0.01    0.08
   6 -12  -4    2.75    0.27
  -6  12   4    2.59    0.20
  -6  12   4    2.68    0.20
   4 -12  -4    0.61    0.14
  -4  12   4    0.67    0.12
  -4  12   4    0.50    0.10
   2 -12  -4    3.73    0.25
  -2  12   4    3.66    0.23
  -2  12   4    3.46    0.19
   0 -12  -4    1.26    0.17
   0  12   4    1.42    0.17
  -2 -12  -4    1.18    0.16
   2  12   4    1.21    0.16
  -4 -12  -4    1.18    0.17
   4  12   4    0.96    0.14
  -6 -12  -4    0.33    0.11
   6  12   4    0.59    0.12
  -8 -12  -4    2.49    0.27
   8  12   4    2.53    0.24
 -10 -12  -4    1.11    0.20
  10  12   4    0.93    0.16
   9 -13  -4    0.78    0.21
  -9  13   4    0.87    0.16
   7 -13  -4    1.19    0.20
  -7  13   4    1.16    0.16
   5 -13  -4    1.54    0.21
  -5  13   4    1.51    0.18
  -5  13   4    1.59    0.17
   3 -13  -4    0.91    0.16
  -3  13   4    0.73    0.14
   1 -13  -4    2.33    0.24
  -1  13   4    2.34    0.21
  -1 -13  -4    0.29    0.11
   1  13   4    0.36    0.11
  -3 -13  -4    3.50    0.26
   3  13   4    3.60    0.25
  -5 -13  -4    0.75    0.15
   5  13   4    0.76    0.14
  -7 -13  -4    2.07    0.25
   7  13   4    1.88    0.21
  -9 -13  -4    0.76    0.18
   6 -14  -4    0.88    0.19
  -6  14   4    1.13    0.16
  -6  14   4    1.00    0.15
   4 -14  -4    0.59    0.14
  -4  14   4    0.42    0.13
   2 -14  -4    0.45    0.13
  -2  14   4    0.42    0.12
   0 -14  -4    0.25    0.11
   0  14   4    0.21    0.10
  -2 -14  -4    0.26    0.11
   2  14   4    0.40    0.12
  -4 -14  -4    0.92    0.17
   4  14   4    0.72    0.15
  -6 -14  -4    0.42    0.14
   6  14   4    0.18    0.11
   3 -15  -4    0.35    0.12
  -3  15   4    0.46    0.14
   1 -15  -4    2.05    0.24
  -1  15   4    2.79    0.26
  -1 -15  -4    0.07    0.09
   1  15   4    0.09    0.11
  -3 -15  -4    2.51    0.27
  -3 -15   5    0.28    0.13
   1  15  -5    0.06    0.11
  -1 -15   5    0.08    0.10
  -1  15  -5    0.34    0.13
   1 -15   5    0.31    0.13
   6  14  -5    3.05    0.28
  -6 -14   5    2.46    0.29
   4  14  -5    0.52    0.14
  -4 -14   5    0.62    0.15
   2  14  -5    1.28    0.19
  -2 -14   5    1.34    0.21
   0  14  -5    1.01    0.16
   0 -14   5    1.13    0.20
  -2  14  -5    0.56    0.14
   2 -14   5    0.59    0.15
   4 -14   5    1.01    0.20
   6 -14   5    0.34    0.16
   9  13  -5    0.09    0.12
  -9 -13   5    0.15    0.11
   7  13  -5    0.00    0.10
  -7 -13   5    0.19    0.11
   5  13  -5    0.61    0.14
  -5 -13   5    0.44    0.13
   3  13  -5    0.26    0.11
  -3 -13   5    0.26    0.11
   1  13  -5    1.07    0.16
  -1 -13   5    1.35    0.20
  -1  13  -5    0.11    0.10
   1 -13   5    0.33    0.13
   3 -13   5    1.51    0.22
   5 -13   5    0.62    0.17
   7 -13   5    0.66    0.22
  10  12  -5    1.11    0.18
 -10 -12   5    1.00    0.19
   8  12  -5    0.16    0.10
  -8 -12   5    0.14    0.10
   6  12  -5    1.64    0.19
  -6 -12   5    1.50    0.21
   4  12  -5    1.27    0.16
  -4 -12   5    1.18    0.18
   2  12  -5    5.52    0.30
  -2 -12   5    5.47    0.32
   0  12  -5    1.95    0.19
   0 -12   5    1.48    0.20
  -2  12  -5    2.10    0.20
   2 -12   5    1.88    0.23
   4 -12   5    2.12    0.25
   6 -12   5    0.16    0.14
   8 -12   5    2.73    0.32
  10 -12   5    1.92    0.29
  11  11  -5    1.97    0.21
 -11 -11   5    1.81    0.24
   9  11  -5    1.52    0.18
  -9 -11   5    1.58    0.21
   7  11  -5    2.28    0.21
  -7 -11   5    1.60    0.20
   5  11  -5    3.54    0.23
  -5 -11   5    3.45    0.25
   3  11  -5    0.85    0.13
  -3 -11   5    0.50    0.12
   1  11  -5    5.49    0.28
  -1 -11   5    5.35    0.31
  -1  11  -5    0.39    0.10
   1 -11   5    0.35    0.12
  -3  11  -5    3.09    0.21
   3 -11   5    3.01    0.25
   5 -11   5    2.03    0.25
  -9  11  -5    4.14    0.26
   9 -11   5    3.85    0.33
 -11  11  -5    0.00    0.08
  11 -11   5   -0.17    0.15
  12  10  -5    0.16    0.11
 -12 -10   5    0.25    0.12
  10  10  -5    0.60    0.12
 -10 -10   5    0.56    0.14
   8  10  -5    0.01    0.08
  -8 -10   5   -0.01    0.08
   6  10  -5    3.40    0.22
  -6 -10   5    3.35    0.23
   4  10  -5    0.91    0.13
  -4 -10   5    1.10    0.16
   2  10  -5    0.43    0.09
  -2 -10   5    0.44    0.12
   0  10  -5    0.28    0.08
   0 -10   5    0.19    0.10
  -2  10  -5    1.76    0.17
   2 -10   5    1.90    0.21
   4 -10   5    0.44    0.14
  -6  10  -5    0.52    0.10
   6 -10   5    0.44    0.14
  -8  10  -5    1.57    0.18
   8 -10   5    1.42    0.21
 -10  10  -5    0.09    0.09
  10 -10   5    0.05    0.12
 -12  10  -5    0.04    0.09
  12 -10   5    0.16    0.17
  13   9  -5    0.13    0.10
 -13  -9   5    0.10    0.11
  11   9  -5    5.46    0.29
 -11  -9   5    5.61    0.34
   9   9  -5    6.18    0.30
  -9  -9   5    5.86    0.33
   7   9  -5    0.39    0.10
  -7  -9   5    0.60    0.12
   5   9  -5    6.12    0.28
  -5  -9   5    6.53    0.31
   3   9  -5    0.00    0.05
  -3  -9   5    0.05    0.07
   1   9  -5    5.97    0.27
  -1  -9   5    5.89    0.29
  -1   9  -5    0.30    0.08
   1  -9   5    0.26    0.11
  -3   9  -5   12.10    0.42
   3  -9   5   13.14    0.50
  -5   9  -5    9.75    0.37
   5  -9   5    9.30    0.43
  -7   9  -5    3.49    0.22
   7  -9   5    3.60    0.27
  -9   9  -5    3.59    0.23
   9  -9   5    3.58    0.29
 -11   9  -5    0.66    0.14
  11  -9   5    0.69    0.18
 -13   9  -5    4.50    0.30
  13  -9   5    3.77    0.38
 -14  -8   5    0.09    0.11
  12   8  -5    0.77    0.13
 -12  -8   5    0.74    0.15
  10   8  -5    0.05    0.08
 -10  -8   5    0.21    0.09
   8   8  -5   10.25    0.39
  -8  -8   5   10.35    0.43
   6   8  -5    0.43    0.09
  -6  -8   5    0.40    0.10
   4   8  -5    0.20    0.07
  -4  -8   5    0.29    0.03
  -4  -8   5    0.24    0.08
   2   8  -5    0.24    0.06
  -2  -8   5    0.11    0.08
   0   8  -5    7.43    0.29
   0  -8   5    7.59    0.33
  -2   8  -5    7.82    0.29
   2  -8   5    6.99    0.33
  -4   8  -5    0.22    0.07
   4  -8   5    0.20    0.10
  -6   8  -5    1.10    0.13
   6  -8   5    0.80    0.14
  -8   8  -5    0.12    0.07
   8  -8   5    0.10    0.09
 -10   8  -5    2.25    0.21
  10  -8   5    2.32    0.26
 -12   8  -5    0.34    0.11
  12  -8   5    0.25    0.15
 -14   8  -5    0.06    0.10
  14  -8   5    0.23    0.16
 -15  -7   5    1.53    0.24
  13   7  -5    0.24    0.09
 -13  -7   5    0.17    0.10
  11   7  -5    2.73    0.19
 -11  -7   5    3.04    0.23
   9   7  -5    2.22    0.16
  -9  -7   5    1.88    0.20
   7   7  -5    5.10    0.23
  -7  -7   5    5.27    0.27
   5   7  -5    3.97    0.20
  -5  -7   5    3.86    0.22
   3   7  -5    1.28    0.12
  -3  -7   5    1.48    0.15
   1   7  -5   18.52    0.55
  -1  -7   5   18.35    0.58
  -1   7  -5    8.84    0.32
   1  -7   5    9.41    0.36
  -3   7  -5   10.41    0.33
   3  -7   5    8.62    0.37
  -5   7  -5    4.07    0.20
   5  -7   5    4.35    0.25
  -7   7  -5    6.28    0.27
   7  -7   5    5.11    0.29
  -9   7  -5    1.59    0.17
   9  -7   5    1.68    0.20
 -11   7  -5    2.35    0.22
  11  -7   5    2.81    0.28
 -13   7  -5    2.09    0.22
  13  -7   5    1.96    0.26
 -15   7  -5    0.16    0.12
  15  -7   5   -0.04    0.14
 -16  -6   5    0.44    0.14
 -14  -6   5    0.13    0.09
  12   6  -5    0.81    0.11
 -12  -6   5    0.84    0.15
  10   6  -5    1.38    0.13
 -10  -6   5    1.15    0.16
   8   6  -5    8.26    0.31
  -8  -6   5    8.44    0.24
  -8  -6   5    8.57    0.36
   6   6  -5    1.24    0.12
  -6  -6   5    1.34    0.14
   4   6  -5    7.54    0.28
  -4  -6   5    7.57    0.21
  -4  -6   5    7.60    0.30
   2   6  -5    4.10    0.18
  -2  -6   5    3.94    0.20
   0   6  -5    5.06    0.20
   0  -6   5    4.26    0.22
  -2   6  -5   32.62    0.83
   2  -6   5   29.20    0.88
  -4   6  -5    1.85    0.12
   4  -6   5    2.08    0.17
  -6   6  -5    5.23    0.23
   6  -6   5    5.05    0.26
  -8   6  -5    4.21    0.22
   8  -6   5    4.01    0.24
 -10   6  -5    1.12    0.15
  10  -6   5    1.07    0.17
 -12   6  -5    1.02    0.15
  12  -6   5    1.07    0.18
 -14   6  -5    1.79    0.21
  14  -6   5    1.51    0.23
 -15  -5   5    1.36    0.21
 -13  -5   5    1.77    0.22
  11   5  -5    1.74    0.13
 -11  -5   5    1.92    0.14
 -11  -5   5    2.20    0.19
   9   5  -5    1.38    0.12
  -9  -5   5    1.42    0.17
  -9  -5   5    1.36    0.08
   7   5  -5    6.90    0.26
  -7  -5   5    6.82    0.30
  -7  -5   5    6.94    0.20
   5   5  -5    5.87    0.22
  -5  -5   5    5.95    0.17
  -5  -5   5    5.56    0.24
   3   5  -5    0.55    0.07
  -3  -5   5    0.57    0.05
  -3  -5   5    0.60    0.08
   1   5  -5    6.77    0.24
  -1  -5   5    6.87    0.26
  -1   5  -5    2.52    0.13
   1  -5   5    2.79    0.16
  -3   5  -5    0.47    0.07
   3  -5   5    0.50    0.09
  -5   5  -5   13.73    0.43
   5  -5   5   13.45    0.46
  -7   5  -5    2.59    0.16
   7  -5   5    2.92    0.19
  -9   5  -5    3.14    0.19
   9  -5   5    3.35    0.23
 -11   5  -5    2.56    0.19
  11  -5   5    2.48    0.22
 -13   5  -5    1.27    0.17
  13  -5   5    1.46    0.22
 -15   5  -5    0.34    0.12
  15  -5   5    0.18    0.15
 -16  -4   5    0.24    0.13
 -14  -4   5    2.58    0.23
 -12  -4   5    1.24    0.18
 -12  -4   5    1.09    0.11
  10   4  -5   -0.03    0.04
 -10  -4   5    0.06    0.03
 -10  -4   5   -0.03    0.05
   8   4  -5    3.95    0.17
  -8  -4   5    4.01    0.15
  -8  -4   5    3.63    0.20
   6   4  -5    6.79    0.24
  -6  -4   5    6.63    0.20
  -6  -4   5    6.84    0.27
   4   4  -5   20.21    0.56
  -4  -4   5   20.72    0.59
  -4  -4   5   20.68    0.52
   2   4  -5    3.20    0.14
  -2  -4   5    3.34    0.16
   0   4  -5    2.82    0.12
   0  -4   5    2.46    0.14
   2  -4   5   13.57    0.43
  -4   4  -5    5.90    0.23
   4  -4   5    6.74    0.26
  -6   4  -5   11.55    0.38
   6  -4   5   11.71    0.41
  -8   4  -5    0.59    0.09
   8  -4   5    0.50    0.11
 -10   4  -5    1.34    0.15
  10  -4   5    0.72    0.13
 -12   4  -5    5.04    0.27
 -12   4  -5    4.75    0.30
 -14   4  -5    1.06    0.16
 -14   4  -5    0.91    0.19
  14  -4   5    0.41    0.15
 -16   4  -5    0.22    0.11
 -16   4  -5    0.30    0.15
  16  -4   5    0.29    0.16
 -17  -3   5    1.29    0.22
 -15  -3   5    0.47    0.14
 -13  -3   5    2.39    0.16
 -13  -3   5    2.39    0.24
 -11  -3   5    1.91    0.20
 -11  -3   5    1.72    0.12
   9   3  -5   10.15    0.32
  -9  -3   5   10.37    0.40
  -9  -3   5   10.55    0.32
   7   3  -5   27.59    0.73
  -7  -3   5   27.49    0.72
  -7  -3   5   28.90    0.80
   5   3  -5   11.02    0.33
  -5  -3   5   11.04    0.36
  -5  -3   5   11.56    0.31
   3   3  -5    1.64    0.09
  -3  -3   5    1.87    0.07
  -3  -3   5    1.84    0.10
  -1  -3   5    3.84    0.16
   1  -3   5    0.98    0.09
  -3   3  -5    2.59    0.12
   3  -3   5    2.75    0.14
  -5   3  -5   24.16    0.66
   5  -3   5   23.87    0.69
  -7   3  -5    7.90    0.29
  -7   3  -5    7.68    0.31
  -9   3  -5    2.74    0.17
  -9   3  -5    2.78    0.20
 -11   3  -5    4.21    0.27
 -11   3  -5    4.50    0.24
 -13   3  -5    0.84    0.17
 -13   3  -5    1.16    0.15
 -15   3  -5    0.92    0.20
 -15   3  -5    0.54    0.12
 -16  -2   5    0.09    0.08
 -16  -2   5    0.11    0.11
 -14  -2   5    1.72    0.16
 -14  -2   5    1.78    0.22
 -12  -2   5    0.67    0.10
 -12  -2   5    0.51    0.11
 -10  -2   5    6.76    0.25
 -10  -2   5    6.57    0.30
  -8  -2   5    4.02    0.21
  -8  -2   5    4.37    0.17
  -6  -2   5    5.21    0.18
  -6  -2   5    5.27    0.22
  -4  -2   5    0.87    0.08
  -4  -2   5    0.90    0.06
  -2  -2   5   62.65    1.57
  -2  -2   5   64.80    1.55
   0  -2   5    4.38    0.17
   2  -2   5  157.27    3.80
  -4   2  -5   13.73    0.40
  -4   2  -5   13.43    0.41
  -6   2  -5    0.71    0.08
  -6   2  -5    0.74    0.10
  -8   2  -5    1.82    0.15
  -8   2  -5    1.54    0.12
 -10   2  -5    2.88    0.18
 -10   2  -5    3.39    0.22
 -12   2  -5    2.05    0.17
 -12   2  -5    1.97    0.22
 -14   2  -5    0.84    0.17
 -14   2  -5    0.92    0.14
 -16   2  -5    0.27    0.13
 -17  -1   5    1.72    0.19
 -17  -1   5    2.68    0.30
 -15  -1   5    0.04    0.07
 -15  -1   5    0.23    0.11
 -13  -1   5    1.31    0.14
 -13  -1   5    1.36    0.18
 -11  -1   5    0.35    0.10
 -11  -1   5    0.49    0.08
  -9  -1   5    7.53    0.27
  -7  -1   5   21.98    0.64
  -3  -1   5  127.96    3.09
  -1  -1   5    3.81    0.13
  -1  -1   5    3.86    0.12
   1  -1   5  122.35    2.95
  -3   1  -5   25.41    0.68
  -5   1  -5    4.47    0.18
  -5   1  -5    4.73    0.20
  -7   1  -5   14.86    0.45
  -7   1  -5   14.83    0.48
  -9   1  -5    1.61    0.12
  -9   1  -5    1.63    0.17
   9  -1   5    1.60    0.08
 -11   1  -5   10.46    0.38
 -11   1  -5    9.56    0.42
 -13   1  -5    0.99    0.17
 -13   1  -5    0.93    0.13
 -15   1  -5    2.98    0.31
 -17   1  -5    0.34    0.14
 -16   0   5    0.06    0.07
 -16   0   5    0.00    0.09
 -14   0   5    0.08    0.07
 -14   0   5    0.03    0.08
 -12   0   5    0.04    0.06
 -12   0   5   -0.02    0.06
 -10   0   5   -0.02    0.04
 -10   0   5    0.04    0.05
  -8   0   5   -0.03    0.05
  -8   0   5    0.05    0.06
  -6   0   5   -0.03    0.03
  -6   0   5   -0.01    0.03
  -4   0   5    0.20    0.04
  -2   0   5    0.01    0.02
  -2   0   5   -0.03    0.02
   0   0   5   -0.02    0.02
   0   0   5   -0.05    0.02
  -2   0  -5    0.06    0.03
  -4   0  -5   -0.02    0.03
  -6   0  -5    0.04    0.03
  -6   0  -5    0.03    0.04
  -8   0  -5    0.05    0.05
  -8   0  -5    0.03    0.04
   8   0   5    0.00    0.02
 -10   0  -5    0.09    0.07
 -10   0  -5    0.07    0.05
  10   0   5    0.10    0.03
 -12   0  -5    0.08    0.08
 -12   0  -5    0.07    0.06
 -14   0  -5   -0.13    0.07
 -16   0  -5    0.03    0.10
 -17   1   5    2.09    0.27
 -17   1   5    2.96    0.23
 -15   1   5    0.06    0.08
 -15   1   5    0.21    0.11
 -13   1   5    1.35    0.18
 -13   1   5    1.48    0.16
 -11   1   5    0.39    0.08
 -11   1   5    0.28    0.08
  -9   1   5   10.76    0.39
  -9   1   5   10.57    0.36
  -7   1   5   20.76    0.60
  -7   1   5   20.82    0.59
  -5   1   5    3.10    0.14
  -5   1   5    3.33    0.14
  -3   1   5  132.96    3.27
  -3   1   5  133.62    3.22
  -1   1   5    3.91    0.13
  -1  -1  -5  130.67    3.18
  -3  -1  -5   24.28    0.64
  -5  -1  -5    3.82    0.17
  -7  -1  -5   12.75    0.45
   7   1   5   14.80    0.39
  -9  -1  -5    1.81    0.15
   9   1   5    1.57    0.09
 -11  -1  -5   10.46    0.43
  11   1   5    9.84    0.30
 -13  -1  -5    1.04    0.17
 -15  -1  -5    3.42    0.28
 -17  -1  -5    0.10    0.14
 -16   2   5    0.11    0.09
 -16   2   5    0.12    0.12
 -14   2   5    1.80    0.18
 -14   2   5    1.39    0.20
 -12   2   5    0.60    0.12
 -12   2   5    0.61    0.11
 -10   2   5    6.32    0.29
 -10   2   5    6.40    0.27
  -8   2   5    4.35    0.20
  -8   2   5    4.64    0.21
  -6   2   5    5.13    0.20
  -6   2   5    4.87    0.20
  -6   2   5    4.97    0.14
  -4   2   5    1.01    0.08
  -4   2   5    1.01    0.07
   2  -2  -5   69.05    1.61
  -2   2   5   64.52    1.63
   0  -2  -5    4.31    0.13
   0   2   5    4.38    0.14
  -4  -2  -5   12.96    0.40
   4   2   5   14.02    0.38
  -6  -2  -5    0.72    0.09
   6   2   5    0.76    0.06
  -8  -2  -5    1.55    0.14
   8   2   5    1.54    0.09
 -10  -2  -5    3.23    0.22
  10   2   5    3.32    0.14
 -12  -2  -5    1.52    0.19
 -14  -2  -5    0.88    0.18
 -16  -2  -5    0.19    0.13
 -17   3   5    1.00    0.16
 -17   3   5    0.97    0.20
 -15   3   5    0.54    0.14
 -15   3   5    0.38    0.11
 -13   3   5    2.45    0.19
 -13   3   5    2.53    0.22
 -11   3   5    1.98    0.19
 -11   3   5    1.52    0.16
  -9   3   5   10.46    0.39
  -9   3   5   11.05    0.39
  -7   3   5   29.21    0.79
  -7   3   5   28.01    0.70
  -7   3   5   27.74    0.78
  -5   3   5   11.86    0.31
  -5   3   5   11.43    0.36
  -5   3   5   11.78    0.36
   3  -3  -5    1.90    0.09
  -3   3   5    1.94    0.09
  -3   3   5    1.89    0.10
   1  -3  -5    3.82    0.13
  -1   3   5    3.87    0.13
  -1   3   5    3.81    0.14
  -1  -3  -5    1.26    0.07
   1   3   5    1.32    0.06
  -3  -3  -5    3.09    0.14
   3   3   5    2.90    0.10
   3   3   5    2.75    0.12
  -5  -3  -5   25.72    0.70
   5   3   5   23.75    0.66
  -7  -3  -5    8.50    0.33
   7   3   5    8.02    0.27
  -9  -3  -5    2.90    0.19
   9   3   5    2.75    0.14
 -11  -3  -5    4.36    0.27
  11   3   5    4.16    0.18
 -13  -3  -5    1.11    0.17
 -15  -3  -5    0.57    0.16
 -16   4   5    0.32    0.14
 -16   4   5    0.35    0.12
 -14   4   5    2.94    0.23
 -14   4   5    2.82    0.25
 -12   4   5    1.35    0.18
 -12   4   5    1.07    0.15
 -10   4   5    0.03    0.05
 -10   4   5    0.02    0.06
  -8   4   5    3.90    0.12
  -8   4   5    4.01    0.20
  -8   4   5    3.99    0.20
   6  -4  -5    7.18    0.26
  -6   4   5    6.20    0.25
  -6   4   5    6.78    0.20
   4  -4  -5   20.70    0.57
  -4   4   5   20.55    0.54
  -4   4   5   20.90    0.58
   2  -4  -5    2.88    0.12
  -2   4   5    3.10    0.13
  -2   4   5    3.02    0.12
   0  -4  -5    2.82    0.12
   0   4   5    2.92    0.11
   0   4   5    2.86    0.13
   2   4   5   13.09    0.39
   2   4   5   13.61    0.35
  -4  -4  -5    6.16    0.23
   4   4   5    6.17    0.18
   4   4   5    6.18    0.22
  -6  -4  -5   12.13    0.42
   6   4   5   12.66    0.38
  -8  -4  -5    0.55    0.10
   8   4   5    0.51    0.07
 -10  -4  -5    1.29    0.16
  10   4   5    1.31    0.11
 -12  -4  -5    4.75    0.30
  12   4   5    5.19    0.22
 -14  -4  -5    0.93    0.18
 -16  -4  -5    0.31    0.13
 -15   5   5    1.49    0.19
 -15   5   5    1.20    0.19
 -13   5   5    2.07    0.20
 -13   5   5    2.15    0.22
  11  -5  -5    1.54    0.18
 -11   5   5    2.11    0.20
 -11   5   5    2.00    0.20
   9  -5  -5    1.64    0.17
  -9   5   5    1.38    0.14
  -9   5   5    1.29    0.07
   7  -5  -5    7.23    0.28
  -7   5   5    7.21    0.22
  -7   5   5    7.04    0.28
  -5   5   5    5.72    0.23
  -5   5   5    5.69    0.19
   3  -5  -5    0.51    0.07
  -3   5   5    0.56    0.06
  -3   5   5    0.49    0.06
   1  -5  -5    7.26    0.24
  -1   5   5    7.06    0.24
  -1   5   5    7.13    0.23
  -1  -5  -5    2.57    0.13
   1   5   5    2.66    0.10
   1   5   5    2.61    0.13
  -3  -5  -5    0.53    0.07
   3   5   5    0.52    0.07
   3   5   5    0.50    0.03
  -5  -5  -5   14.47    0.46
   5   5   5   14.49    0.37
   5   5   5   14.19    0.44
  -7  -5  -5    3.17    0.19
   7   5   5    3.24    0.16
  -9  -5  -5    3.18    0.22
   9   5   5    3.29    0.17
 -11  -5  -5    2.79    0.22
  11   5   5    2.87    0.17
 -13  -5  -5    1.30    0.20
 -15  -5  -5    0.21    0.13
  16  -6  -5    0.44    0.16
 -16   6   5    0.84    0.17
  14  -6  -5    0.20    0.12
 -14   6   5    0.28    0.11
  12  -6  -5    1.08    0.17
 -12   6   5    0.71    0.13
  10  -6  -5    1.31    0.16
 -10   6   5    1.18    0.15
   8  -6  -5    8.26    0.34
  -8   6   5    8.84    0.27
  -8   6   5    8.61    0.34
   6  -6  -5    1.50    0.13
  -6   6   5    1.34    0.09
  -6   6   5    1.23    0.12
   4  -6  -5    7.03    0.27
  -4   6   5    7.83    0.27
   2  -6  -5    4.12    0.18
  -2   6   5    4.08    0.17
  -2   6   5    4.11    0.17
   0  -6  -5    4.76    0.20
   0   6   5    4.76    0.16
   0   6   5    4.78    0.20
   2   6   5   34.11    0.91
   2   6   5   33.89    0.84
  -4  -6  -5    1.95    0.13
   4   6   5    1.95    0.13
  -6  -6  -5    5.11    0.24
   6   6   5    5.42    0.23
  -8  -6  -5    4.15    0.24
   8   6   5    4.08    0.20
 -10  -6  -5    1.34    0.17
  10   6   5    1.46    0.14
 -12  -6  -5    0.87    0.16
  12   6   5    1.07    0.12
 -14  -6  -5    2.10    0.26
  15  -7  -5    1.85    0.24
 -15   7   5    1.55    0.21
  13  -7  -5    0.28    0.12
 -13   7   5    0.27    0.10
  11  -7  -5    2.89    0.23
 -11   7   5    3.02    0.22
   9  -7  -5    2.31    0.19
  -9   7   5    2.63    0.19
  -9   7   5    2.33    0.12
   7  -7  -5    5.17    0.26
  -7   7   5    5.10    0.20
  -7   7   5    5.22    0.24
  -5   7   5    3.72    0.19
  -5   7   5    3.86    0.17
   3  -7  -5    1.43    0.12
  -3   7   5    1.34    0.10
  -3   7   5    1.57    0.11
   1  -7  -5   18.25    0.54
  -1   7   5   18.04    0.53
  -1   7   5   17.76    0.50
   1   7   5    8.91    0.26
   1   7   5    9.43    0.32
  -3  -7  -5   10.85    0.37
   3   7   5   10.71    0.28
   3   7   5   10.69    0.37
  -5  -7  -5    4.01    0.21
   5   7   5    4.02    0.20
  -7  -7  -5    5.70    0.28
   7   7   5    5.54    0.25
  -9  -7  -5    1.62    0.18
   9   7   5    1.68    0.15
 -11  -7  -5    2.38    0.25
  11   7   5    2.53    0.18
 -13  -7  -5    1.65    0.22
  13   7   5    2.33    0.20
 -15  -7  -5    0.13    0.12
  14  -8  -5    0.18    0.14
 -14   8   5    0.08    0.10
  12  -8  -5    0.96    0.17
 -12   8   5    0.54    0.13
  10  -8  -5    0.21    0.11
 -10   8   5    0.10    0.08
   8  -8  -5   10.88    0.43
  -8   8   5   10.83    0.35
  -8   8   5   11.20    0.42
   6  -8  -5    0.41    0.10
  -6   8   5    0.48    0.08
  -6   8   5    0.47    0.09
  -4   8   5    0.24    0.06
  -4   8   5    0.27    0.06
   2  -8  -5    0.13    0.05
  -2   8   5    0.27    0.06
  -2   8   5    0.18    0.05
   0   8   5    7.31    0.29
   0   8   5    7.43    0.24
  -2  -8  -5    7.95    0.31
   2   8   5    8.10    0.31
   2   8   5    7.97    0.23
  -4  -8  -5    0.24    0.07
   4   8   5    0.25    0.07
  -6  -8  -5    1.19    0.15
   6   8   5    1.14    0.13
  -8  -8  -5    0.17    0.08
   8   8   5    0.14    0.07
 -10  -8  -5    2.44    0.22
  10   8   5    2.71    0.19
 -12  -8  -5    0.40    0.13
  12   8   5    0.41    0.10
 -14  -8  -5    0.32    0.14
  13  -9  -5   -0.05    0.12
 -13   9   5    0.18    0.10
  11  -9  -5    5.31    0.33
 -11   9   5    5.86    0.31
   9  -9  -5    6.16    0.34
  -9   9   5    6.29    0.31
   7  -9  -5    0.49    0.11
  -7   9   5    0.73    0.10
  -7   9   5    0.46    0.10
   5  -9  -5    6.22    0.30
  -5   9   5    6.71    0.28
  -5   9   5    6.72    0.27
   3  -9  -5    0.01    0.02
  -3   9   5   -0.01    0.04
  -3   9   5   -0.02    0.04
  -1   9   5    6.00    0.23
  -1   9   5    5.98    0.26
  -1  -9  -5    0.36    0.08
   1   9   5    0.11    0.06
   1   9   5    0.21    0.04
  -3  -9  -5   12.61    0.45
   3   9   5   12.35    0.44
  -5  -9  -5    9.12    0.37
   5   9   5    9.49    0.37
  -7  -9  -5    3.45    0.23
   7   9   5    3.95    0.22
  -9  -9  -5    3.78    0.26
   9   9   5    3.94    0.23
 -11  -9  -5    0.84    0.16
  11   9   5    0.74    0.13
 -13  -9  -5    4.09    0.32
  13   9   5    3.77    0.25
  12 -10  -5    0.38    0.15
 -12  10   5    0.17    0.10
  10 -10  -5    0.50    0.16
 -10  10   5    0.54    0.13
   8 -10  -5   -0.01    0.09
  -8  10   5    0.01    0.05
  -8  10   5    0.09    0.07
   6 -10  -5    3.33    0.24
  -6  10   5    3.71    0.21
  -6  10   5    2.54    0.16
   4 -10  -5    1.03    0.15
  -4  10   5    1.19    0.13
  -4  10   5    1.38    0.14
  -2  10   5    0.56    0.10
  -2  10   5    0.54    0.08
   0 -10  -5    0.20    0.08
   0  10   5    0.28    0.06
   0  10   5    0.40    0.09
  -2 -10  -5    1.37    0.15
   2  10   5    1.52    0.16
  -4 -10  -5    0.40    0.10
   4  10   5    0.50    0.10
  -6 -10  -5    0.69    0.13
   6  10   5    0.59    0.12
  -8 -10  -5    1.59    0.20
   8  10   5    1.36    0.17
 -10 -10  -5    0.17    0.10
  10  10   5    0.11    0.09
 -12 -10  -5    0.12    0.11
  12  10   5    0.16    0.10
  11 -11  -5    2.07    0.27
 -11  11   5    2.25    0.24
   9 -11  -5    1.46    0.21
  -9  11   5    1.73    0.19
   7 -11  -5    2.28    0.23
  -7  11   5    2.04    0.20
  -7  11   5    2.04    0.18
   5 -11  -5    3.38    0.25
  -5  11   5    3.51    0.21
  -5  11   5    3.60    0.21
   3 -11  -5    0.75    0.14
  -3  11   5    0.78    0.11
  -3  11   5    0.74    0.12
   1 -11  -5    5.38    0.28
  -1  11   5    5.30    0.22
  -1  11   5    5.48    0.28
  -1 -11  -5    0.35    0.09
   1  11   5    0.26    0.09
  -3 -11  -5    2.87    0.21
   3  11   5    2.80    0.21
  -5 -11  -5    2.54    0.20
   5  11   5    2.58    0.20
  -7 -11  -5    1.57    0.20
   7  11   5    1.37    0.17
  -9 -11  -5    4.32    0.30
   9  11   5    4.58    0.28
 -11 -11  -5    0.00    0.10
  11  11   5    0.07    0.09
  10 -12  -5    1.14    0.22
 -10  12   5    1.04    0.17
   8 -12  -5    0.12    0.13
  -8  12   5    0.01    0.07
   6 -12  -5    1.35    0.20
  -6  12   5    1.53    0.17
  -6  12   5    1.67    0.17
   4 -12  -5    1.39    0.18
  -4  12   5    1.43    0.15
  -4  12   5    1.50    0.17
   2 -12  -5    5.45    0.30
  -2  12   5    5.25    0.28
  -2  12   5    5.41    0.24
   0 -12  -5    1.83    0.19
   0  12   5    1.63    0.18
  -2 -12  -5    2.07    0.21
   2  12   5    1.67    0.18
  -4 -12  -5    2.24    0.20
   4  12   5    2.17    0.21
  -6 -12  -5   -0.03    0.07
   6  12   5    0.06    0.08
  -8 -12  -5    2.51    0.26
   8  12   5    2.11    0.22
 -10 -12  -5    1.81    0.25
  10  12   5    1.80    0.22
   9 -13  -5    0.27    0.15
  -9  13   5    0.07    0.09
   7 -13  -5    0.07    0.12
  -7  13   5    0.05    0.08
  -7  13   5    0.00    0.05
   5 -13  -5    0.54    0.15
  -5  13   5    0.62    0.12
  -5  13   5    0.64    0.13
   3 -13  -5    0.43    0.12
  -3  13   5    0.27    0.10
   1 -13  -5    1.53    0.19
  -1  13   5    1.20    0.16
  -1 -13  -5    0.19    0.09
   1  13   5    0.13    0.09
  -3 -13  -5    1.78    0.21
   3  13   5    1.61    0.19
  -5 -13  -5    0.64    0.14
   5  13   5    0.72    0.14
  -7 -13  -5    0.57    0.15
   7  13   5    0.54    0.13
   6 -14  -5    3.08    0.27
  -6  14   5    2.85    0.23
  -6  14   5    2.72    0.22
   4 -14  -5    0.65    0.15
  -4  14   5    0.65    0.14
   2 -14  -5    1.02    0.17
  -2  14   5    1.42    0.19
   0 -14  -5    0.95    0.16
   0  14   5    0.73    0.15
  -2 -14  -5    0.73    0.15
   2  14   5    0.55    0.14
  -4 -14  -5    1.33    0.20
   4  14   5    1.36    0.19
  -6 -14  -5    0.37    0.12
   6  14   5    0.17    0.11
   3 -15  -5    0.31    0.14
   1 -15  -5    0.22    0.11
  -1  15   5   -0.10    0.08
  -1 -15  -5    0.24    0.12
   1  15   5    0.10    0.10
  -3 -15   6    0.02    0.10
   1  15  -6    1.13    0.18
  -1 -15   6    1.16    0.20
   1 -15   6    0.19    0.14
   6  14  -6    1.49    0.21
  -6 -14   6    1.66    0.23
   4  14  -6    0.38    0.13
  -4 -14   6    0.61    0.15
   2  14  -6    0.82    0.16
  -2 -14   6    1.34    0.20
   0  14  -6    0.32    0.12
   0 -14   6    0.04    0.10
   2 -14   6    0.22    0.13
   4 -14   6    0.29    0.15
   6 -14   6    0.08    0.14
   9  13  -6    0.18    0.12
  -9 -13   6    0.29    0.13
   7  13  -6    0.96    0.17
  -7 -13   6    1.01    0.19
   5  13  -6    4.49    0.30
  -5 -13   6    4.71    0.32
   3  13  -6    1.01    0.17
  -3 -13   6    1.25    0.19
   1  13  -6    2.24    0.22
  -1 -13   6    1.96    0.24
  -1  13  -6    0.54    0.13
   1 -13   6    0.39    0.14
   3 -13   6    0.92    0.19
   5 -13   6    0.55    0.18
   7 -13   6    0.92    0.23
  10  12  -6    2.39    0.24
 -10 -12   6    1.92    0.24
   8  12  -6    0.29    0.12
  -8 -12   6    0.68    0.16
   6  12  -6    2.50    0.23
  -6 -12   6    2.24    0.24
   4  12  -6    1.18    0.16
  -4 -12   6    1.88    0.22
   2  12  -6    6.02    0.31
  -2 -12   6    6.22    0.35
   0  12  -6    0.95    0.15
   0 -12   6    1.09    0.18
  -2  12  -6   -0.09    0.07
   2 -12   6    0.04    0.11
   6 -12   6    0.16    0.15
   8 -12   6    2.55    0.32
  10 -12   6    2.14    0.30
  11  11  -6    0.30    0.12
 -11 -11   6    0.41    0.14
   9  11  -6    1.19    0.17
  -9 -11   6    1.15    0.18
   7  11  -6    0.60    0.13
  -7 -11   6    0.40    0.12
   5  11  -6    4.94    0.27
  -5 -11   6    5.03    0.30
   3  11  -6    0.32    0.10
  -3 -11   6    0.30    0.11
   1  11  -6    2.18    0.20
  -1 -11   6    1.87    0.21
  -1  11  -6    0.49    0.11
   1 -11   6    0.35    0.13
   3 -11   6    1.93    0.23
   5 -11   6    0.42    0.14
   7 -11   6    0.17    0.13
   9 -11   6    1.74    0.26
  11 -11   6    0.47    0.20
  12  10  -6    0.48    0.13
 -12 -10   6    0.72    0.16
  10  10  -6    6.20    0.32
 -10 -10   6    6.29    0.36
   8  10  -6    1.53    0.17
  -8 -10   6    1.26    0.18
   6  10  -6    0.03    0.07
  -6 -10   6   -0.07    0.06
   4  10  -6    4.38    0.25
  -4 -10   6    4.12    0.26
   2  10  -6    4.91    0.26
  -2 -10   6    5.34    0.29
   0  10  -6    7.18    0.31
   0 -10   6    6.81    0.35
  -2  10  -6    2.73    0.18
   2 -10   6    2.63    0.23
   4 -10   6    8.55    0.42
   6 -10   6    2.80    0.28
   8 -10   6    2.61    0.27
 -10  10  -6    2.70    0.21
  10 -10   6    2.70    0.31
  12 -10   6    1.59    0.28
  13   9  -6    0.38    0.12
 -13  -9   6    0.65    0.16
  11   9  -6    2.32    0.21
 -11  -9   6    2.64    0.27
   9   9  -6    0.25    0.09
  -9  -9   6    0.32    0.11
   7   9  -6    0.48    0.10
  -7  -9   6    0.42    0.11
   5   9  -6    0.27    0.08
  -5  -9   6    0.33    0.09
   3   9  -6    1.39    0.14
  -3  -9   6    1.58    0.17
   1   9  -6    2.43    0.17
  -1  -9   6    2.45    0.19
  -1   9  -6   12.42    0.42
   1  -9   6   11.81    0.47
   3  -9   6    1.84    0.21
   5  -9   6    5.91    0.34
  -7   9  -6    3.66    0.23
   7  -9   6    4.24    0.30
  -9   9  -6    0.71    0.13
   9  -9   6    0.33    0.14
 -11   9  -6    1.36    0.18
  11  -9   6    1.13    0.21
  13  -9   6    0.30    0.17
 -14  -8   6    1.09    0.20
  12   8  -6    0.03    0.08
 -12  -8   6    0.16    0.09
  10   8  -6    2.27    0.18
 -10  -8   6    2.45    0.21
   8   8  -6    3.70    0.21
  -8  -8   6    3.67    0.24
   6   8  -6    4.15    0.22
  -6  -8   6    4.36    0.24
   4   8  -6    1.63    0.15
  -4  -8   6    1.40    0.15
  -4  -8   6    1.41    0.07
   2   8  -6    6.13    0.26
  -2  -8   6    5.84    0.28
   0   8  -6    4.79    0.22
   0  -8   6    4.76    0.26
  -2   8  -6    0.21    0.06
   2  -8   6    0.19    0.10
   4  -8   6    9.85    0.42
  -6   8  -6    0.06    0.06
   6  -8   6    0.05    0.10
  -8   8  -6    0.03    0.06
   8  -8   6   -0.01    0.08
 -10   8  -6    1.66    0.19
  10  -8   6    1.74    0.22
 -12   8  -6    2.57    0.25
  12  -8   6    2.00    0.26
 -14   8  -6    1.94    0.23
  14  -8   6    2.17    0.29
 -15  -7   6    0.04    0.10
 -13  -7   6    1.17    0.19
  11   7  -6    1.83    0.17
 -11  -7   6    1.60    0.20
   9   7  -6    6.33    0.28
  -9  -7   6    6.97    0.33
   7   7  -6    2.45    0.16
  -7  -7   6    2.37    0.18
   5   7  -6    1.70    0.15
  -5  -7   6    1.72    0.14
  -5  -7   6    1.60    0.07
   3   7  -6    3.91    0.19
  -3  -7   6    3.70    0.21
   1   7  -6    2.52    0.15
  -1  -7   6    2.62    0.18
  -1   7  -6    9.38    0.33
   1  -7   6    9.57    0.37
   3  -7   6    2.14    0.18
  -5   7  -6    3.17    0.18
   5  -7   6    3.64    0.23
  -7   7  -6    4.65    0.24
   7  -7   6    4.73    0.28
  -9   7  -6    0.07    0.06
   9  -7   6    0.14    0.09
 -11   7  -6    1.42    0.17
  11  -7   6    1.22    0.20
 -13   7  -6    0.33    0.12
  13  -7   6    0.76    0.19
 -16  -6   6    0.44    0.14
 -14  -6   6    1.06    0.18
  12   6  -6    0.46    0.10
 -12  -6   6    0.50    0.13
  10   6  -6    2.55    0.16
 -10  -6   6    2.78    0.21
   8   6  -6    6.84    0.27
  -8  -6   6    6.99    0.31
  -8  -6   6    6.41    0.20
   6   6  -6   16.92    0.51
  -6  -6   6   16.55    0.55
  -6  -6   6   16.90    0.43
   4   6  -6   21.95    0.63
  -4  -6   6   21.96    0.66
  -4  -6   6   22.13    0.56
   2   6  -6    9.15    0.31
  -2  -6   6    9.15    0.34
   0   6  -6   19.20    0.56
   0  -6   6   19.73    0.60
   2  -6   6    9.78    0.37
  -4   6  -6    7.11    0.25
   4  -6   6    5.66    0.28
  -6   6  -6    1.17    0.12
   6  -6   6    1.12    0.15
  -8   6  -6    6.15    0.28
   8  -6   6    6.14    0.32
 -10   6  -6    0.19    0.08
  10  -6   6    0.14    0.11
 -12   6  -6    0.59    0.12
  12  -6   6    0.71    0.16
 -14   6  -6    2.31    0.24
  14  -6   6    2.25    0.27
 -15  -5   6    1.58    0.22
 -13  -5   6    1.26    0.18
  11   5  -6    1.73    0.13
 -11  -5   6    1.68    0.11
 -11  -5   6    1.73    0.19
   9   5  -6    1.20    0.11
  -9  -5   6    1.17    0.08
  -9  -5   6    1.20    0.15
   7   5  -6   17.05    0.51
  -7  -5   6   17.00    0.45
  -7  -5   6   17.11    0.55
   5   5  -6   12.06    0.37
  -5  -5   6   11.50    0.40
  -5  -5   6   11.91    0.32
   3   5  -6   15.29    0.46
  -3  -5   6   15.69    0.41
  -3  -5   6   15.50    0.48
   1   5  -6    0.94    0.09
  -1  -5   6    0.95    0.11
   1  -5   6    2.85    0.16
   3  -5   6    2.78    0.18
  -5   5  -6   23.39    0.65
   5  -5   6   21.69    0.68
  -7   5  -6    2.58    0.16
   7  -5   6    2.84    0.19
  -9   5  -6    1.62    0.16
   9  -5   6    1.35    0.17
 -11   5  -6    2.43    0.19
  11  -5   6    2.40    0.24
 -13   5  -6    1.00    0.15
  13  -5   6    1.18    0.20
 -15   5  -6    1.22    0.18
  15  -5   6    1.46    0.23
 -16  -4   6    1.23    0.21
 -14  -4   6    3.12    0.25
 -12  -4   6    2.25    0.14
 -12  -4   6    2.41    0.20
 -10  -4   6    0.23    0.05
 -10  -4   6    0.25    0.08
   8   4  -6    1.96    0.12
  -8  -4   6    2.09    0.16
  -8  -4   6    2.05    0.10
   6   4  -6    1.82    0.11
  -6  -4   6    2.02    0.14
  -6  -4   6    1.93    0.09
   4   4  -6   23.97    0.64
  -4  -4   6   23.39    0.67
  -4  -4   6   24.13    0.61
   2   4  -6    2.65    0.13
  -2  -4   6    2.93    0.15
   0  -4   6    0.35    0.07
   2  -4   6   13.02    0.42
  -4   4  -6   14.42    0.44
   4  -4   6   15.64    0.48
  -6   4  -6    8.22    0.30
   6  -4   6    8.67    0.33
  -8   4  -6    2.51    0.16
   8  -4   6    2.49    0.18
 -10   4  -6    1.77    0.17
  10  -4   6    1.56    0.19
 -12   4  -6    3.33    0.22
  12  -4   6    1.99    0.24
 -14   4  -6    0.26    0.10
 -14   4  -6    0.35    0.12
  14  -4   6    0.10    0.11
  16  -4   6    0.22    0.15
 -17  -3   6    0.23    0.13
 -15  -3   6    0.01    0.07
 -15  -3   6   -0.03    0.07
 -13  -3   6    1.43    0.19
 -13  -3   6    1.26    0.13
 -11  -3   6    2.30    0.14
 -11  -3   6    2.06    0.17
  -9  -3   6    9.27    0.29
  -9  -3   6    8.58    0.35
  -7  -3   6   17.26    0.55
  -7  -3   6   18.05    0.48
  -5  -3   6   10.85    0.30
  -5  -3   6   10.72    0.36
  -3  -3   6   10.03    0.27
  -3  -3   6    9.66    0.31
  -1  -3   6   13.06    0.39
   1  -3   6   17.36    0.50
   3  -3   6   15.49    0.46
  -5   3  -6   31.98    0.85
   5  -3   6   31.17    0.87
  -7   3  -6   10.50    0.34
  -7   3  -6    8.55    0.35
  -9   3  -6    0.03    0.05
  -9   3  -6    0.15    0.06
   9  -3   6   -0.08    0.06
 -11   3  -6    1.89    0.18
 -11   3  -6    1.76    0.21
 -13   3  -6    0.43    0.13
 -13   3  -6    0.44    0.11
 -15   3  -6    0.33    0.14
 -16  -2   6    1.35    0.21
 -16  -2   6    1.30    0.15
 -14  -2   6    1.16    0.13
 -14  -2   6    1.17    0.18
 -12  -2   6    1.28    0.16
 -12  -2   6    0.97    0.11
 -10  -2   6    2.21    0.17
 -10  -2   6    2.01    0.13
  -8  -2   6   52.01    1.31
  -8  -2   6   51.53    1.38
  -6  -2   6    3.95    0.15
  -6  -2   6    3.86    0.18
  -4  -2   6   18.97    0.53
  -4  -2   6   19.45    0.50
  -2  -2   6    3.29    0.11
   0  -2   6   21.97    0.59
   2  -2   6  186.92    4.61
   4  -2   6    0.35    0.07
  -6   2  -6    7.59    0.30
  -6   2  -6    8.11    0.28
  -8   2  -6    4.92    0.22
  -8   2  -6    4.68    0.24
 -10   2  -6    6.55    0.28
 -10   2  -6    6.63    0.33
 -12   2  -6    0.84    0.15
 -12   2  -6    0.97    0.13
 -14   2  -6    0.54    0.15
 -16   2  -6    0.55    0.18
 -17  -1   6    0.50    0.12
 -17  -1   6    0.47    0.15
 -15  -1   6    0.16    0.09
 -15  -1   6    0.06    0.07
 -13  -1   6    0.17    0.10
 -13  -1   6    0.27    0.08
 -11  -1   6    0.98    0.13
 -11  -1   6    0.86    0.10
  -9  -1   6   11.14    0.36
  -9  -1   6   11.10    0.40
  -7  -1   6   37.15    1.01
  -7  -1   6   41.49    1.06
  -5  -1   6    1.42    0.08
  -3  -1   6   86.67    2.10
  -3  -1   6   86.34    2.11
  -1  -1   6    3.74    0.13
  -1  -1   6    3.87    0.14
   1  -1   6   30.36    0.77
  -5   1  -6    0.19    0.05
  -7   1  -6    0.09    0.05
  -7   1  -6    0.16    0.05
  -9   1  -6    2.26    0.17
  -9   1  -6    2.04    0.14
 -11   1  -6    0.52    0.12
 -11   1  -6    0.79    0.11
 -13   1  -6    0.26    0.11
 -15   1  -6    0.17    0.12
 -16   0   6    1.41    0.17
 -16   0   6    1.78    0.23
 -14   0   6    2.09    0.17
 -14   0   6    2.57    0.22
 -12   0   6    1.62    0.15
 -12   0   6    1.52    0.18
 -10   0   6    2.56    0.18
 -10   0   6    2.48    0.15
  -8   0   6    8.95    0.30
  -8   0   6    8.86    0.33
  -6   0   6    5.46    0.21
  -6   0   6    5.24    0.20
  -4   0   6   18.91    0.51
  -4   0   6   18.86    0.51
  -2   0   6   17.06    0.44
  -2   0   6   17.17    0.45
   0   0   6    2.25    0.08
   0   0   6    2.12    0.09
  -2   0  -6  133.65    3.28
  -4   0  -6    3.28    0.15
  -6   0  -6   10.85    0.37
  -8   0  -6    9.81    0.40
   8   0   6   12.29    0.32
 -10   0  -6   16.55    0.56
  10   0   6   15.22    0.43
 -12   0  -6    2.53    0.21
 -14   0  -6    1.14    0.18
 -16   0  -6    2.30    0.29
 -17   1   6    0.53    0.16
 -17   1   6    0.54    0.13
 -15   1   6    0.12    0.08
 -15   1   6    0.08    0.09
 -13   1   6    0.15    0.08
 -13   1   6    0.21    0.10
 -11   1   6    0.81    0.13
 -11   1   6    0.84    0.11
  -9   1   6   11.05    0.37
  -9   1   6   10.14    0.38
  -7   1   6   37.61    1.05
  -7   1   6   41.90    1.05
  -5   1   6    2.33    0.12
  -5   1   6    2.44    0.12
  -3   1   6   89.68    2.17
  -1   1   6    3.87    0.13
  -1  -1  -6   31.55    0.78
   1   1   6   31.61    0.79
  -3  -1  -6    1.65    0.09
  -5  -1  -6    0.13    0.05
  -7  -1  -6    0.11    0.05
   7   1   6    0.09    0.03
  -9  -1  -6    2.29    0.17
   9   1   6    2.35    0.11
 -11  -1  -6    0.75    0.13
  11   1   6    0.52    0.06
 -13  -1  -6    0.04    0.07
 -15  -1  -6    0.19    0.10
 -16   2   6    1.59    0.23
 -16   2   6    1.32    0.18
 -14   2   6    0.99    0.16
 -14   2   6    1.27    0.15
 -12   2   6    0.92    0.14
 -12   2   6    0.75    0.11
 -10   2   6    2.18    0.15
 -10   2   6    2.02    0.16
  -8   2   6   53.33    1.40
  -8   2   6   53.16    1.38
  -6   2   6    3.93    0.17
  -6   2   6    3.92    0.17
  -4   2   6   19.57    0.54
  -4   2   6   19.78    0.52
   2  -2  -6   10.73    0.27
  -2   2   6    9.52    0.29
   0  -2  -6   22.25    0.55
   0   2   6   22.56    0.57
  -2  -2  -6  213.64    5.13
   2   2   6  210.24    5.12
  -4  -2  -6    0.45    0.06
   4   2   6    0.45    0.05
  -6  -2  -6    6.86    0.28
   6   2   6    8.48    0.25
  -8  -2  -6    4.97    0.25
   8   2   6    5.05    0.19
 -10  -2  -6    4.81    0.27
  10   2   6    6.22    0.21
 -12  -2  -6    1.04    0.17
 -14  -2  -6    0.57    0.15
 -16  -2  -6    0.53    0.17
 -17   3   6    0.67    0.18
 -17   3   6    0.61    0.14
 -15   3   6    0.03    0.07
 -15   3   6    0.00    0.10
 -13   3   6    1.34    0.18
 -13   3   6    1.49    0.17
 -11   3   6    2.35    0.17
 -11   3   6    2.25    0.18
  -9   3   6    8.42    0.34
  -9   3   6    9.06    0.33
  -7   3   6   17.83    0.45
  -7   3   6   17.09    0.52
  -7   3   6   17.69    0.53
  -5   3   6   11.18    0.30
  -5   3   6   10.96    0.35
  -5   3   6   11.06    0.34
   3  -3  -6   10.57    0.29
  -3   3   6   10.14    0.31
  -3   3   6   10.17    0.29
   1  -3  -6   13.28    0.35
  -1   3   6   13.67    0.37
  -1   3   6   13.39    0.37
  -1  -3  -6   16.54    0.44
   1   3   6   16.50    0.43
   1   3   6   16.33    0.45
   3   3   6   15.96    0.46
   3   3   6   16.98    0.43
  -5  -3  -6   32.65    0.88
   5   3   6   32.29    0.85
  -7  -3  -6   10.81    0.39
   7   3   6   10.87    0.34
  -9  -3  -6    0.13    0.07
   9   3   6    0.06    0.04
 -11  -3  -6    1.64    0.20
  11   3   6    1.62    0.11
 -13  -3  -6    0.59    0.15
 -15  -3  -6   -0.05    0.10
 -16   4   6    1.15    0.18
 -16   4   6    1.22    0.21
 -14   4   6    3.09    0.25
 -14   4   6    3.49    0.25
 -12   4   6    2.48    0.21
 -12   4   6    2.69    0.20
 -10   4   6    0.24    0.08
 -10   4   6    0.26    0.08
  -8   4   6    2.11    0.08
  -8   4   6    1.99    0.14
  -8   4   6    2.13    0.14
  -6   4   6    1.92    0.09
  -6   4   6    1.74    0.12
   4  -4  -6   25.23    0.67
  -4   4   6   25.37    0.66
  -4   4   6   25.09    0.69
   2  -4  -6    3.08    0.12
  -2   4   6    2.88    0.13
  -2   4   6    3.02    0.13
   0  -4  -6    0.40    0.05
   0   4   6    0.33    0.05
   0   4   6    0.38    0.05
  -2  -4  -6   12.54    0.37
   2   4   6   13.04    0.34
   2   4   6   12.64    0.38
  -4  -4  -6   15.65    0.47
   4   4   6   15.59    0.40
   4   4   6   15.00    0.45
  -6  -4  -6    8.50    0.32
   6   4   6    8.45    0.29
  -8  -4  -6    2.52    0.18
   8   4   6    2.44    0.13
 -10  -4  -6    1.50    0.18
  10   4   6    1.87    0.13
 -12  -4  -6    2.83    0.23
  12   4   6    2.80    0.16
 -14  -4  -6    0.45    0.14
 -16  -4  -6    0.14    0.11
 -15   5   6    1.60    0.20
 -15   5   6    1.75    0.23
 -13   5   6    1.27    0.18
 -13   5   6    1.20    0.16
  11  -5  -6    1.62    0.19
 -11   5   6    2.11    0.20
 -11   5   6    1.75    0.17
   9  -5  -6    1.30    0.15
  -9   5   6    1.32    0.14
  -9   5   6    1.09    0.06
   7  -5  -6   17.32    0.53
  -7   5   6   17.08    0.47
  -7   5   6   17.57    0.54
   5  -5  -6   11.95    0.38
  -5   5   6   12.10    0.35
  -5   5   6   11.71    0.38
   3  -5  -6   15.25    0.45
  -3   5   6   15.87    0.45
  -3   5   6   15.87    0.45
   1  -5  -6    0.81    0.07
  -1   5   6    0.87    0.08
  -1   5   6    0.90    0.07
   1   5   6    3.32    0.15
   1   5   6    3.25    0.12
   3   5   6    2.81    0.14
   3   5   6    2.77    0.10
  -5  -5  -6   24.97    0.71
   5   5   6   24.71    0.69
   5   5   6   23.99    0.61
  -7  -5  -6    2.33    0.16
   7   5   6    2.58    0.15
  -9  -5  -6    1.45    0.17
   9   5   6    1.27    0.12
 -11  -5  -6    2.23    0.20
  11   5   6    2.79    0.16
 -13  -5  -6    1.35    0.21
 -15  -5  -6    1.17    0.21
  16  -6  -6    0.21    0.16
 -16   6   6    0.26    0.12
  14  -6  -6    1.19    0.20
 -14   6   6    0.99    0.16
  12  -6  -6    0.53    0.13
 -12   6   6    0.19    0.09
  10  -6  -6    2.69    0.20
 -10   6   6    2.55    0.18
   8  -6  -6    7.07    0.30
  -8   6   6    6.91    0.23
  -8   6   6    6.85    0.29
  -6   6   6   17.57    0.54
  -6   6   6   17.62    0.49
   4  -6  -6   21.73    0.62
  -4   6   6   21.97    0.62
   2  -6  -6    9.35    0.30
  -2   6   6    8.67    0.29
  -2   6   6    8.78    0.30
   0  -6  -6   19.77    0.55
   0   6   6   19.48    0.53
   0   6   6   19.66    0.56
   2   6   6   10.09    0.33
   2   6   6    9.85    0.27
  -4  -6  -6    7.76    0.29
   4   6   6    8.01    0.29
   4   6   6    7.72    0.21
  -6  -6  -6    1.25    0.13
   6   6   6    1.34    0.12
  -8  -6  -6    6.27    0.30
   8   6   6    6.51    0.27
 -10  -6  -6    0.11    0.08
  10   6   6    0.27    0.07
 -12  -6  -6    0.72    0.15
  12   6   6    0.51    0.10
 -14  -6  -6    2.24    0.27
  15  -7  -6   -0.02    0.11
 -15   7   6    0.15    0.11
  13  -7  -6    1.12    0.18
 -13   7   6    1.40    0.19
  11  -7  -6    1.85    0.21
 -11   7   6    1.99    0.20
   9  -7  -6    6.71    0.31
  -9   7   6    6.72    0.30
  -9   7   6    6.75    0.23
   7  -7  -6    2.78    0.18
  -7   7   6    2.75    0.17
  -7   7   6    2.67    0.14
   5  -7  -6    1.67    0.13
  -5   7   6    1.68    0.12
  -5   7   6    1.71    0.11
   3  -7  -6    3.77    0.19
  -3   7   6    4.18    0.18
  -3   7   6    4.05    0.18
   1  -7  -6    2.39    0.14
  -1   7   6    2.44    0.14
  -1   7   6    2.40    0.12
  -1  -7  -6    9.41    0.32
   1   7   6    9.21    0.32
   1   7   6    9.19    0.27
  -3  -7  -6    1.86    0.13
   3   7   6    1.79    0.07
   3   7   6    1.66    0.13
  -5  -7  -6    3.37    0.19
   5   7   6    3.57    0.19
  -7  -7  -6    4.72    0.26
   7   7   6    4.89    0.23
  -9  -7  -6   -0.03    0.06
   9   7   6   -0.03    0.05
 -11  -7  -6    1.53    0.20
  11   7   6    1.47    0.15
 -13  -7  -6    0.52    0.15
  13   7   6    0.50    0.11
 -15  -7  -6    0.33    0.16
  14  -8  -6    1.23    0.21
 -14   8   6    1.19    0.18
  12  -8  -6    0.09    0.11
 -12   8   6    0.29    0.11
  10  -8  -6    2.48    0.23
 -10   8   6    2.75    0.20
   8  -8  -6    4.04    0.24
  -8   8   6    3.76    0.22
  -8   8   6    3.97    0.18
  -6   8   6    4.16    0.21
  -6   8   6    4.11    0.19
   4  -8  -6    1.52    0.15
  -4   8   6    1.35    0.12
  -4   8   6    1.49    0.12
   2  -8  -6    6.15    0.25
  -2   8   6    5.77    0.22
  -2   8   6    5.78    0.24
   0  -8  -6    4.95    0.22
   0   8   6    4.59    0.17
   0   8   6    4.94    0.22
  -2  -8  -6    0.05    0.03
   2   8   6    0.21    0.06
   2   8   6    0.19    0.04
  -4  -8  -6   10.01    0.38
   4   8   6   10.03    0.37
  -6  -8  -6    0.03    0.06
   6   8   6    0.08    0.06
  -8  -8  -6    0.04    0.07
   8   8   6    0.05    0.06
 -10  -8  -6    1.35    0.18
  10   8   6    1.90    0.17
 -12  -8  -6    2.29    0.26
  12   8   6    2.06    0.19
 -14  -8  -6    2.06    0.27
  13  -9  -6    0.29    0.15
 -13   9   6    0.22    0.11
  11  -9  -6    2.86    0.27
 -11   9   6    2.32    0.23
   9  -9  -6    0.09    0.10
  -9   9   6    0.28    0.09
   7  -9  -6    0.60    0.13
  -7   9   6    0.50    0.09
  -7   9   6    0.42    0.09
   5  -9  -6    0.03    0.05
  -5   9   6    0.29    0.07
  -5   9   6    0.22    0.07
   3  -9  -6    1.74    0.15
  -3   9   6    1.48    0.14
  -3   9   6    1.33    0.11
   1  -9  -6    2.46    0.16
  -1   9   6    2.23    0.16
  -1   9   6    2.45    0.13
   1   9   6   11.57    0.41
   1   9   6   11.77    0.34
  -3  -9  -6    1.60    0.14
   3   9   6    1.55    0.16
  -5  -9  -6    5.45    0.27
   5   9   6    5.47    0.27
  -7  -9  -6    3.61    0.24
   7   9   6    3.79    0.22
  -9  -9  -6    0.64    0.14
   9   9   6    0.46    0.10
 -11  -9  -6    1.21    0.20
  11   9   6    1.35    0.17
 -13  -9  -6    0.28    0.14
  13   9   6    0.31    0.11
  12 -10  -6    0.42    0.16
 -12  10   6    0.70    0.15
  10 -10  -6    5.89    0.35
 -10  10   6    7.02    0.34
   8 -10  -6    1.67    0.20
  -8  10   6    1.30    0.13
  -8  10   6    1.28    0.16
   6 -10  -6   -0.03    0.03
  -6  10   6    0.00    0.03
  -6  10   6    0.05    0.06
  -4  10   6    3.99    0.21
  -4  10   6    4.37    0.22
   2 -10  -6    4.29    0.23
  -2  10   6    5.00    0.21
  -2  10   6    4.99    0.24
   0  10   6    6.85    0.30
   0  10   6    6.61    0.24
  -2 -10  -6    2.55    0.18
   2  10   6    2.63    0.18
  -4 -10  -6    7.75    0.34
   4  10   6    7.94    0.34
  -6 -10  -6    3.18    0.23
   6  10   6    3.15    0.21
  -8 -10  -6    2.00    0.22
   8  10   6    1.97    0.19
 -10 -10  -6    2.77    0.24
  10  10   6    2.58    0.23
 -12 -10  -6    1.71    0.24
  12  10   6    1.56    0.19
  11 -11  -6    0.64    0.18
 -11  11   6    0.45    0.13
   9 -11  -6    1.29    0.20
  -9  11   6    1.12    0.16
   7 -11  -6    0.39    0.13
  -7  11   6    0.50    0.10
  -7  11   6    0.55    0.11
  -5  11   6    5.47    0.26
  -5  11   6    5.30    0.26
  -3  11   6    0.36    0.09
  -3  11   6    0.41    0.08
  -1  11   6    1.82    0.13
  -1  11   6    1.91    0.19
  -1 -11  -6    0.32    0.09
   1  11   6    0.41    0.10
  -3 -11  -6    1.65    0.18
   3  11   6    1.71    0.17
  -5 -11  -6    0.46    0.11
   5  11   6    0.47    0.11
  -7 -11  -6    0.19    0.10
   7  11   6    0.50    0.12
  -9 -11  -6    1.56    0.21
   9  11   6    1.84    0.20
 -11 -11  -6    0.40    0.15
  11  11   6    0.44    0.12
  10 -12  -6    2.45    0.28
 -10  12   6    2.54    0.25
   8 -12  -6    0.34    0.15
  -8  12   6    0.26    0.10
  -6  12   6    2.74    0.20
  -6  12   6    2.96    0.21
  -4  12   6    1.89    0.18
  -4  12   6    1.82    0.17
  -2  12   6    5.87    0.30
  -2  12   6    6.52    0.27
   0 -12  -6    0.90    0.13
   0  12   6    0.83    0.13
  -2 -12  -6    0.01    0.07
   2  12   6   -0.04    0.07
  -4 -12  -6    1.69    0.19
   4  12   6    1.60    0.19
  -6 -12  -6    0.14    0.09
   6  12   6    0.07    0.09
  -8 -12  -6    2.78    0.24
   8  12   6    2.54    0.24
 -10 -12  -6    2.10    0.26
  10  12   6    1.74    0.21
   9 -13  -6    0.16    0.13
  -9  13   6    0.20    0.10
   7 -13  -6    1.02    0.19
  -7  13   6    1.17    0.16
  -5  13   6    4.77    0.28
  -5  13   6    4.64    0.26
  -3  13   6    1.25    0.16
   1 -13  -6    1.33    0.17
  -1  13   6    2.25    0.21
  -1 -13  -6    0.35    0.10
   1  13   6    0.47    0.12
  -3 -13  -6    0.93    0.15
   3  13   6    0.94    0.15
  -5 -13  -6    0.31    0.11
   5  13   6    0.71    0.14
  -7 -13  -6    0.95    0.18
   7  13   6    0.75    0.15
  -6  14   6    1.97    0.20
  -6  14   6    1.74    0.20
  -4  14   6    0.49    0.13
   2 -14  -6    0.33    0.09
  -2  14   6    0.89    0.15
   0 -14  -6    0.25    0.10
   0  14   6    0.21    0.10
  -2 -14  -6    0.15    0.10
   2  14   6    0.18    0.10
  -4 -14  -6    0.19    0.11
   4  14   6    0.12    0.09
  -6 -14  -6    0.20    0.11
   6  14   6    0.17    0.11
   3 -15  -6    0.11    0.05
   1 -15  -6    1.78    0.22
  -1  15   6    1.52    0.20
  -1 -15  -6    0.06    0.09
   1  15   6    0.04    0.10
  -3 -15   7    0.48    0.15
  -1 -15   7    0.00    0.10
   1 -15   7    0.08    0.09
   6  14  -7    1.26    0.20
  -6 -14   7    1.04    0.19
   4  14  -7    1.17    0.19
  -4 -14   7    0.98    0.18
   2  14  -7    0.38    0.13
  -2 -14   7    0.47    0.14
   0 -14   7    1.23    0.20
   2 -14   7    0.02    0.10
   4 -14   7    0.88    0.20
   9  13  -7    0.69    0.16
  -9 -13   7    0.97    0.18
   7  13  -7    0.81    0.16
  -7 -13   7    0.66    0.16
   5  13  -7    3.35    0.25
  -5 -13   7    3.43    0.27
   3  13  -7    0.58    0.13
  -3 -13   7    0.72    0.16
   1  13  -7    1.04    0.16
  -1 -13   7    1.01    0.19
   1 -13   7    0.49    0.15
   3 -13   7    0.96    0.19
   5 -13   7    1.05    0.23
   7 -13   7    0.68    0.19
  10  12  -7    0.75    0.16
 -10 -12   7    0.74    0.17
   8  12  -7    0.54    0.13
  -8 -12   7    0.42    0.12
   6  12  -7    1.29    0.17
  -6 -12   7    1.27    0.19
   4  12  -7    0.30    0.10
  -4 -12   7    0.36    0.12
   2  12  -7    0.44    0.12
  -2 -12   7    0.50    0.14
   0  12  -7    0.25    0.10
   0 -12   7    0.40    0.13
   2 -12   7    0.21    0.12
   4 -12   7    1.44    0.23
   6 -12   7    0.18    0.14
   8 -12   7    0.81    0.22
  11  11  -7    0.84    0.15
 -11 -11   7    0.94    0.18
   9  11  -7    2.32    0.23
  -9 -11   7    1.93    0.24
   7  11  -7    0.75    0.14
  -7 -11   7    0.89    0.16
   5  11  -7    0.95    0.14
  -5 -11   7    1.52    0.20
   3  11  -7    0.68    0.12
  -3 -11   7    0.65    0.14
   1  11  -7    5.82    0.29
  -1 -11   7    5.92    0.33
  -1  11  -7    0.06    0.08
   1 -11   7    0.02    0.09
   3 -11   7    0.98    0.18
   5 -11   7    3.71    0.30
   7 -11   7    1.70    0.25
   9 -11   7    3.46    0.35
  11 -11   7    0.93    0.24
  12  10  -7    0.10    0.10
 -12 -10   7    0.22    0.12
  10  10  -7    1.60    0.18
 -10 -10   7    1.56    0.21
   8  10  -7    0.20    0.10
  -8 -10   7    0.28    0.11
   6  10  -7    1.36    0.16
  -6 -10   7    0.93    0.15
   4  10  -7    0.85    0.13
  -4 -10   7    0.93    0.14
   2  10  -7    2.46    0.19
  -2 -10   7    2.63    0.22
   0  10  -7    1.80    0.17
   0 -10   7    1.94    0.21
   2 -10   7    5.53    0.32
   4 -10   7    1.61    0.21
   6 -10   7    6.64    0.38
   8 -10   7    2.70    0.28
  10 -10   7    0.15    0.15
  12 -10   7    0.32    0.19
 -13  -9   7    0.13    0.11
  11   9  -7    3.00    0.22
 -11  -9   7    3.24    0.25
   9   9  -7    5.27    0.27
  -9  -9   7    4.80    0.29
   7   9  -7    2.70    0.19
  -7  -9   7    2.62    0.21
   5   9  -7    3.34    0.20
  -5  -9   7    3.48    0.22
   3   9  -7    0.08    0.06
  -3  -9   7    0.05    0.07
   1   9  -7    7.66    0.31
  -1  -9   7    7.54    0.35
  -1   9  -7    1.46    0.14
   1  -9   7    1.99    0.21
   3  -9   7    8.34    0.39
   5  -9   7    5.90    0.34
   7  -9   7    1.51    0.20
   9  -9   7    1.08    0.19
  11  -9   7    0.00    0.13
  13  -9   7    1.18    0.24
 -14  -8   7    0.22    0.12
  12   8  -7    0.48    0.11
 -12  -8   7    0.73    0.15
  10   8  -7    0.18    0.09
 -10  -8   7    0.24    0.10
   8   8  -7    4.58    0.24
  -8  -8   7    4.60    0.27
   6   8  -7    0.20    0.07
  -6  -8   7    0.28    0.09
   4   8  -7    0.58    0.10
  -4  -8   7    0.73    0.11
  -4  -8   7    0.69    0.06
   2   8  -7    6.76    0.28
  -2  -8   7    6.95    0.31
   0   8  -7    1.79    0.14
   0  -8   7    1.66    0.17
   2  -8   7   13.71    0.50
   4  -8   7    0.15    0.09
   6  -8   7    1.34    0.18
  -8   8  -7    1.74    0.17
   8  -8   7    1.36    0.19
 -10   8  -7    1.59    0.17
  10  -8   7    1.21    0.20
  12  -8   7    0.64    0.18
  14  -8   7    0.63    0.20
 -15  -7   7    0.77    0.18
 -13  -7   7    0.51    0.13
  11   7  -7    1.18    0.14
 -11  -7   7    1.25    0.18
   9   7  -7    1.44    0.14
  -9  -7   7    1.20    0.15
   7   7  -7    5.94    0.26
  -7  -7   7    5.51    0.28
  -7  -7   7    5.96    0.19
   5   7  -7    7.73    0.30
  -5  -7   7    7.25    0.21
  -5  -7   7    7.32    0.31
   3   7  -7    1.03    0.11
  -3  -7   7    1.04    0.13
   1   7  -7   13.41    0.42
  -1  -7   7   12.12    0.44
   1  -7   7    2.10    0.16
   3  -7   7    2.56    0.19
   5  -7   7    3.71    0.24
  -7   7  -7    3.27    0.19
   7  -7   7    3.12    0.23
  -9   7  -7    0.16    0.08
   9  -7   7    0.44    0.13
 -11   7  -7    0.70    0.13
  11  -7   7    0.61    0.16
  13  -7   7    5.47    0.38
 -16  -6   7    0.73    0.17
 -14  -6   7    0.54    0.14
 -12  -6   7    1.36    0.19
  10   6  -7    0.69    0.10
 -10  -6   7    0.68    0.13
   8   6  -7    6.85    0.27
  -8  -6   7    6.81    0.32
  -8  -6   7    6.83    0.21
   6   6  -7   11.06    0.37
  -6  -6   7   11.14    0.41
  -6  -6   7   11.31    0.31
   4   6  -7   14.29    0.44
  -4  -6   7   14.32    0.47
  -4  -6   7   13.90    0.38
   2   6  -7    4.04    0.19
  -2  -6   7    4.22    0.21
   0  -6   7    7.31    0.30
   2  -6   7   16.61    0.54
   4  -6   7    3.43    0.22
  -6   6  -7    9.46    0.35
   6  -6   7    9.91    0.40
  -8   6  -7    4.84    0.25
   8  -6   7    4.94    0.28
 -10   6  -7    0.04    0.07
  10  -6   7    0.03    0.09
 -12   6  -7    0.83    0.14
  12  -6   7    0.71    0.18
  14  -6   7    1.05    0.21
 -15  -5   7    0.18    0.11
 -13  -5   7    1.50    0.20
 -11  -5   7    4.31    0.18
 -11  -5   7    4.36    0.27
   9   5  -7    0.07    0.05
  -9  -5   7   -0.01    0.03
  -9  -5   7    0.02    0.05
   7   5  -7    6.83    0.25
  -7  -5   7    6.78    0.29
  -7  -5   7    6.35    0.21
   5   5  -7   14.30    0.44
  -5  -5   7   14.84    0.48
  -5  -5   7   14.59    0.39
   3   5  -7   10.78    0.35
  -3  -5   7   10.96    0.37
  -3  -5   7   10.95    0.31
  -1  -5   7    7.00    0.28
   1  -5   7    9.19    0.33
   3  -5   7   12.84    0.44
   5  -5   7   15.33    0.52
  -7   5  -7    4.70    0.23
   7  -5   7    4.58    0.26
  -9   5  -7    2.19    0.17
   9  -5   7    2.29    0.20
 -11   5  -7    1.88    0.19
  11  -5   7    1.50    0.19
 -13   5  -7    0.77    0.14
  13  -5   7    0.61    0.16
  15  -5   7    0.66    0.19
 -16  -4   7    0.71    0.16
 -14  -4   7    2.40    0.26
 -12  -4   7    3.60    0.18
 -12  -4   7    3.51    0.24
 -10  -4   7    1.73    0.11
 -10  -4   7    1.76    0.19
  -8  -4   7    4.26    0.22
  -8  -4   7    4.56    0.17
  -6  -4   7    6.73    0.28
  -6  -4   7    6.92    0.21
  -4  -4   7    8.83    0.31
  -4  -4   7    9.09    0.26
  -2  -4   7    1.58    0.11
   0  -4   7    0.39    0.07
   2  -4   7    7.19    0.28
   4  -4   7    5.87    0.25
  -6   4  -7   11.76    0.39
   6  -4   7   12.10    0.43
  -8   4  -7    1.67    0.13
   8  -4   7    1.70    0.17
 -10   4  -7    3.49    0.21
  10  -4   7    3.24    0.24
 -12   4  -7    5.81    0.29
  12  -4   7    5.58    0.34
  14  -4   7    0.72    0.17
  16  -4   7    0.53    0.18
 -17  -3   7    1.40    0.22
 -15  -3   7    0.18    0.11
 -15  -3   7    0.13    0.08
 -13  -3   7    2.56    0.16
 -13  -3   7    1.92    0.22
 -11  -3   7    2.03    0.13
 -11  -3   7    1.64    0.18
  -9  -3   7    1.05    0.10
  -9  -3   7    0.73    0.11
  -7  -3   7   20.21    0.61
  -7  -3   7   20.86    0.56
  -5  -3   7    5.99    0.19
  -5  -3   7    6.11    0.24
  -3  -3   7   11.28    0.36
  -3  -3   7   12.11    0.32
  -1  -3   7    9.73    0.31
   1  -3   7    8.85    0.30
   3  -3   7   27.38    0.75
   5  -3   7    8.82    0.32
  -7   3  -7   13.06    0.40
   7  -3   7   10.70    0.42
  -9   3  -7    1.86    0.17
  -9   3  -7    1.78    0.14
 -11   3  -7    9.87    0.43
 -11   3  -7    8.97    0.37
 -13   3  -7    0.75    0.16
  13  -3   7   -0.08    0.09
 -15   3  -7    1.00    0.20
  15  -3   7    0.07    0.13
 -16  -2   7    0.50    0.14
 -16  -2   7    0.63    0.12
 -14  -2   7    0.86    0.17
 -14  -2   7    0.81    0.12
 -12  -2   7    0.15    0.06
 -12  -2   7    0.21    0.08
 -10  -2   7    3.00    0.20
 -10  -2   7    3.01    0.16
  -8  -2   7    3.33    0.19
  -8  -2   7    3.13    0.15
  -6  -2   7    0.27    0.05
  -6  -2   7    0.35    0.07
  -4  -2   7   14.36    0.42
  -4  -2   7   14.52    0.39
  -2  -2   7    8.95    0.28
   0  -2   7    3.45    0.15
   2  -2   7   75.58    1.87
   4  -2   7    9.45    0.32
  -8   2  -7    6.04    0.24
  -8   2  -7    5.71    0.27
 -10   2  -7    3.09    0.22
 -10   2  -7    2.99    0.18
 -12   2  -7    0.98    0.16
 -14   2  -7    0.16    0.10
 -16   2  -7    0.05    0.13
 -17  -1   7    2.26    0.28
 -17  -1   7    3.02    0.22
 -15  -1   7    0.32    0.09
 -15  -1   7    0.68    0.15
 -13  -1   7    4.74    0.23
 -13  -1   7    4.33    0.27
 -11  -1   7    0.51    0.10
 -11  -1   7    0.61    0.09
  -9  -1   7   13.99    0.43
  -9  -1   7   13.77    0.47
  -7  -1   7   52.00    1.33
  -7  -1   7   52.74    1.36
  -5  -1   7   23.37    0.62
  -5  -1   7   23.86    0.64
  -3  -1   7   13.82    0.38
  -3  -1   7   13.86    0.39
  -1  -1   7   47.60    1.19
  -1  -1   7   48.47    1.19
   1  -1   7    7.83    0.24
  -5   1  -7    1.24    0.10
  -7   1  -7   16.85    0.54
  -9   1  -7    1.22    0.15
 -11   1  -7    6.82    0.35
 -13   1  -7    0.12    0.09
 -15   1  -7    2.53    0.29
 -16   0   7   -0.06    0.07
 -16   0   7    0.07    0.10
 -14   0   7    0.03    0.07
 -14   0   7   -0.05    0.06
 -12   0   7    0.04    0.06
 -12   0   7    0.01    0.06
 -10   0   7    0.03    0.04
 -10   0   7    0.10    0.07
  -8   0   7    0.11    0.06
  -8   0   7    0.05    0.05
  -6   0   7    0.02    0.04
  -6   0   7   -0.03    0.03
  -4   0   7    0.02    0.02
  -4   0   7    0.04    0.03
  -2   0   7   -0.01    0.02
  -2   0   7    0.00    0.03
   0   0   7    0.05    0.03
   0   0   7    0.00    0.03
  -2   0  -7   -0.02    0.03
  -4   0  -7   -0.02    0.03
  -6   0  -7   -0.03    0.04
  -8   0  -7   -0.02    0.04
 -10   0  -7    0.08    0.06
  10   0   7   -0.01    0.03
 -12   0  -7    0.05    0.07
 -14   0  -7    0.14    0.11
 -16   0  -7    0.14    0.11
 -17   1   7    3.45    0.25
 -17   1   7    3.14    0.28
 -15   1   7    0.58    0.14
 -15   1   7    0.59    0.12
 -13   1   7    5.01    0.25
 -13   1   7    4.81    0.28
 -11   1   7    0.39    0.08
 -11   1   7    0.44    0.10
  -9   1   7   14.23    0.46
  -9   1   7   14.58    0.48
  -7   1   7   54.62    1.37
  -7   1   7   52.26    1.38
  -5   1   7   24.44    0.66
  -5   1   7   24.51    0.65
  -3   1   7   13.94    0.37
   1  -1  -7   52.47    1.21
  -1   1   7   48.47    1.24
  -1  -1  -7    8.03    0.22
   1   1   7    7.89    0.23
  -3  -1  -7    2.07    0.10
  -5  -1  -7    1.47    0.11
  -7  -1  -7   17.71    0.55
   7   1   7   16.57    0.47
  -9  -1  -7    1.05    0.14
   9   1   7    1.01    0.08
 -11  -1  -7    6.46    0.33
  11   1   7    6.29    0.22
 -13  -1  -7    0.09    0.10
 -15  -1  -7    2.32    0.27
 -16   2   7    0.26    0.12
 -16   2   7    0.76    0.14
 -14   2   7    0.67    0.13
 -14   2   7    0.72    0.14
 -12   2   7    0.17    0.08
 -12   2   7    0.15    0.08
 -10   2   7    2.74    0.17
 -10   2   7    2.99    0.19
  -8   2   7    2.78    0.16
  -8   2   7    3.24    0.17
  -6   2   7    0.22    0.06
  -6   2   7    0.37    0.06
  -4   2   7   14.51    0.42
  -4   2   7   14.87    0.40
  -2   2   7    9.22    0.27
   0  -2  -7    4.44    0.13
   0   2   7    4.62    0.15
  -2  -2  -7   79.91    1.94
   2   2   7   78.75    1.93
  -4  -2  -7    9.38    0.30
  -6  -2  -7    5.06    0.23
   6   2   7    5.33    0.19
  -8  -2  -7    7.14    0.30
   8   2   7    6.51    0.23
 -10  -2  -7    3.13    0.21
  10   2   7    3.11    0.15
 -12  -2  -7    0.84    0.16
 -14  -2  -7    0.14    0.11
 -16  -2  -7    0.12    0.11
 -17   3   7    1.68    0.21
 -17   3   7    1.36    0.22
 -15   3   7    0.31    0.10
 -15   3   7    0.24    0.11
 -13   3   7    2.58    0.19
 -13   3   7    2.33    0.21
 -11   3   7    1.91    0.19
 -11   3   7    1.86    0.17
  -9   3   7    1.29    0.14
  -9   3   7    1.04    0.12
  -7   3   7   21.66    0.55
  -7   3   7   21.95    0.63
  -7   3   7   22.12    0.63
  -5   3   7    6.18    0.22
  -5   3   7    6.00    0.23
  -5   3   7    6.37    0.19
   3  -3  -7   12.24    0.33
  -3   3   7   11.99    0.36
   1  -3  -7    9.70    0.26
  -1   3   7    9.88    0.28
  -1  -3  -7    8.68    0.25
   1   3   7    8.86    0.25
   1   3   7    8.55    0.27
   3   3   7   31.49    0.82
   3   3   7   31.25    0.79
  -5  -3  -7    9.70    0.33
   5   3   7    9.46    0.30
  -7  -3  -7   13.47    0.46
   7   3   7   13.58    0.41
  -9  -3  -7    2.00    0.17
   9   3   7    1.75    0.11
 -11  -3  -7   10.09    0.43
  11   3   7    9.38    0.32
 -13  -3  -7    0.74    0.16
 -15  -3  -7    1.32    0.22
 -16   4   7    0.69    0.15
 -16   4   7    0.84    0.18
 -14   4   7    2.72    0.24
 -14   4   7    2.55    0.23
 -12   4   7    3.76    0.23
 -12   4   7    4.11    0.26
 -10   4   7    2.06    0.16
 -10   4   7    1.46    0.15
  -8   4   7    4.43    0.14
  -8   4   7    4.44    0.21
  -8   4   7    4.75    0.22
   6  -4  -7    7.37    0.26
  -6   4   7    7.22    0.22
  -6   4   7    7.27    0.27
   4  -4  -7    8.90    0.28
  -4   4   7    8.85    0.27
  -4   4   7    9.05    0.30
   2  -4  -7    1.69    0.08
  -2   4   7    1.70    0.09
  -2   4   7    1.60    0.09
   0  -4  -7    0.49    0.05
   0   4   7    0.60    0.07
   0   4   7    0.46    0.05
  -2  -4  -7    7.13    0.24
   2   4   7    7.42    0.21
   2   4   7    7.33    0.25
  -4  -4  -7    6.18    0.23
   4   4   7    6.07    0.19
   4   4   7    6.10    0.23
  -6  -4  -7   12.29    0.42
   6   4   7   12.09    0.38
  -8  -4  -7    1.73    0.17
   8   4   7    1.76    0.12
 -10  -4  -7    3.55    0.23
  10   4   7    3.17    0.17
 -12  -4  -7    6.77    0.36
  12   4   7    6.87    0.27
 -14  -4  -7    1.02    0.18
 -16  -4  -7    0.38    0.16
  15  -5  -7    0.27    0.13
 -15   5   7    0.15    0.10
 -15   5   7    0.41    0.12
 -13   5   7    1.58    0.19
 -13   5   7    1.59    0.19
  11  -5  -7    4.58    0.27
 -11   5   7    4.41    0.25
 -11   5   7    4.63    0.26
   9  -5  -7    0.05    0.07
  -9   5   7    0.03    0.02
  -9   5   7    0.08    0.05
  -7   5   7    6.60    0.21
  -7   5   7    6.65    0.27
   5  -5  -7   14.32    0.44
  -5   5   7   14.83    0.45
  -5   5   7   15.03    0.42
   3  -5  -7   10.93    0.34
  -3   5   7   10.94    0.34
  -3   5   7   11.58    0.35
   1  -5  -7    7.11    0.23
  -1   5   7    7.12    0.25
  -1   5   7    7.31    0.23
  -1  -5  -7   11.00    0.33
   1   5   7   10.86    0.30
   1   5   7   10.50    0.34
   3   5   7   12.05    0.38
   3   5   7   12.31    0.33
  -5  -5  -7   14.80    0.47
   5   5   7   14.58    0.39
   5   5   7   14.69    0.45
  -7  -5  -7    5.07    0.25
   7   5   7    4.62    0.21
  -9  -5  -7    2.66    0.20
   9   5   7    2.43    0.15
 -11  -5  -7    1.70    0.21
  11   5   7    1.74    0.14
 -13  -5  -7    0.88    0.16
 -15  -5  -7    0.75    0.18
  16  -6  -7    0.61    0.18
 -16   6   7    0.70    0.16
  14  -6  -7    0.86    0.17
 -14   6   7    0.77    0.15
  12  -6  -7    1.65    0.20
 -12   6   7    1.32    0.17
  10  -6  -7    0.72    0.13
 -10   6   7    0.77    0.12
   8  -6  -7    7.08    0.29
  -8   6   7    7.00    0.30
  -8   6   7    7.01    0.23
   6  -6  -7   11.59    0.39
  -6   6   7   11.58    0.35
  -6   6   7   11.25    0.39
   4  -6  -7   15.08    0.45
  -4   6   7   14.26    0.45
   2  -6  -7    4.57    0.18
  -2   6   7    4.50    0.19
  -2   6   7    4.30    0.18
   0  -6  -7    7.61    0.26
   0   6   7    7.28    0.24
   0   6   7    7.46    0.27
  -2  -6  -7   16.00    0.48
   2   6   7   16.01    0.49
   2   6   7   16.08    0.42
  -4  -6  -7    3.41    0.17
   4   6   7    3.21    0.11
   4   6   7    3.34    0.17
  -6  -6  -7   10.35    0.38
   6   6   7   10.45    0.36
   6   6   7   10.20    0.28
  -8  -6  -7    4.56    0.26
   8   6   7    5.00    0.23
 -10  -6  -7    0.01    0.06
  10   6   7    0.01    0.05
 -12  -6  -7    0.82    0.16
  12   6   7    0.81    0.12
 -14  -6  -7    1.12    0.21
  15  -7  -7    1.27    0.21
 -15   7   7    0.96    0.17
  13  -7  -7    0.72    0.16
 -13   7   7    0.77    0.14
  11  -7  -7    1.47    0.19
 -11   7   7    1.31    0.17
   9  -7  -7    1.52    0.16
  -9   7   7    1.42    0.10
  -9   7   7    1.30    0.15
  -7   7   7    5.77    0.22
  -7   7   7    5.70    0.26
   5  -7  -7    7.62    0.29
  -5   7   7    7.47    0.27
  -5   7   7    7.43    0.29
   3  -7  -7    1.07    0.11
  -3   7   7    1.07    0.10
  -3   7   7    0.95    0.10
   1  -7  -7   13.06    0.41
  -1   7   7   13.78    0.43
  -1   7   7   13.06    0.39
  -1  -7  -7    2.32    0.14
   1   7   7    2.45    0.11
   1   7   7    2.40    0.14
   3   7   7    2.19    0.14
   3   7   7    2.28    0.09
  -5  -7  -7    4.22    0.22
   5   7   7    4.91    0.22
  -7  -7  -7    3.06    0.21
   7   7   7    3.40    0.19
  -9  -7  -7    0.33    0.10
   9   7   7    0.31    0.08
 -11  -7  -7    0.66    0.14
  11   7   7    0.62    0.11
 -13  -7  -7    5.75    0.35
  13   7   7    4.95    0.26
  14  -8  -7    0.21    0.14
 -14   8   7    0.17    0.10
  12  -8  -7    0.77    0.15
 -12   8   7    0.68    0.14
  10  -8  -7    0.13    0.10
 -10   8   7    0.23    0.09
  -8   8   7    4.97    0.21
  -8   8   7    4.85    0.25
   6  -8  -7    0.24    0.08
  -6   8   7    0.22    0.07
  -6   8   7    0.24    0.06
   4  -8  -7    0.84    0.11
  -4   8   7    0.81    0.10
  -4   8   7    0.62    0.09
   2  -8  -7    7.18    0.28
  -2   8   7    6.86    0.25
  -2   8   7    7.15    0.28
   0  -8  -7    1.80    0.13
   0   8   7    1.84    0.10
   0   8   7    1.67    0.13
  -2  -8  -7   11.20    0.41
   2   8   7   12.72    0.35
   2   8   7   13.77    0.44
  -4  -8  -7    0.02    0.04
   4   8   7    0.04    0.06
  -6  -8  -7    1.05    0.13
   6   8   7    0.92    0.12
  -8  -8  -7    1.93    0.20
   8   8   7    1.81    0.17
 -10  -8  -7    0.86    0.16
  10   8   7    1.11    0.14
 -12  -8  -7    0.77    0.17
  12   8   7    0.74    0.12
 -14  -8  -7    0.86    0.19
  13  -9  -7    0.23    0.14
 -13   9   7    0.14    0.10
  11  -9  -7    2.92    0.25
 -11   9   7    3.38    0.24
   9  -9  -7    5.00    0.29
  -9   9   7    5.49    0.29
  -7   9   7    2.95    0.20
  -7   9   7    3.01    0.17
   5  -9  -7    3.46    0.21
  -5   9   7    3.56    0.19
  -5   9   7    3.79    0.20
   3  -9  -7   -0.01    0.07
  -3   9   7    0.10    0.05
  -3   9   7    0.00    0.05
   1  -9  -7    7.84    0.31
  -1   9   7    8.18    0.32
  -1   9   7    7.99    0.28
  -1  -9  -7    1.77    0.14
   1   9   7    1.51    0.14
   1   9   7    1.79    0.10
  -3  -9  -7    7.69    0.32
   3   9   7    8.72    0.34
  -5  -9  -7    5.81    0.29
   5   9   7    6.03    0.28
  -7  -9  -7    1.66    0.18
   7   9   7    1.60    0.17
  -9  -9  -7    1.26    0.18
   9   9   7    1.34    0.16
 -11  -9  -7    0.08    0.09
  11   9   7    0.04    0.08
 -13  -9  -7    1.42    0.23
  13   9   7    1.41    0.17
  12 -10  -7    0.08    0.12
 -12  10   7    0.39    0.12
  10 -10  -7    1.55    0.21
 -10  10   7    1.49    0.18
  -8  10   7    0.34    0.09
  -8  10   7    0.34    0.08
   6 -10  -7    1.38    0.17
  -6  10   7    1.04    0.13
   4 -10  -7    1.05    0.14
  -4  10   7    0.89    0.12
  -4  10   7    0.99    0.12
   2 -10  -7    2.56    0.18
  -2  10   7    2.26    0.16
  -2  10   7    2.25    0.14
   0 -10  -7    1.94    0.15
   0  10   7    1.72    0.16
   0  10   7    1.92    0.12
  -4 -10  -7    1.68    0.18
   4  10   7    1.60    0.16
  -6 -10  -7    6.95    0.33
   6  10   7    6.83    0.32
  -8 -10  -7    2.70    0.23
   8  10   7    3.39    0.23
 -10 -10  -7    0.28    0.12
  10  10   7    0.12    0.09
 -12 -10  -7    0.65    0.17
  12  10   7    0.64    0.14
  11 -11  -7    0.82    0.19
 -11  11   7    0.88    0.16
   9 -11  -7    2.13    0.24
  -9  11   7    2.30    0.22
  -7  11   7    0.63    0.11
  -7  11   7    0.91    0.14
   5 -11  -7    1.18    0.17
  -5  11   7    1.28    0.14
  -5  11   7    1.33    0.15
   3 -11  -7    0.98    0.14
  -3  11   7    0.67    0.10
  -3  11   7    0.95    0.13
   1 -11  -7    6.72    0.31
  -1  11   7    6.41    0.25
  -1  11   7    6.17    0.30
  -1 -11  -7    0.05    0.03
   1  11   7    0.06    0.07
  -3 -11  -7    0.90    0.14
   3  11   7    0.97    0.14
  -5 -11  -7    3.37    0.23
   5  11   7    3.42    0.23
  -7 -11  -7    1.58    0.20
   7  11   7    1.48    0.18
  -9 -11  -7    3.09    0.26
   9  11   7    3.57    0.25
 -11 -11  -7    0.58    0.16
  11  11   7    0.73    0.14
  10 -12  -7    0.77    0.19
 -10  12   7    0.62    0.14
  -8  12   7    0.38    0.11
   6 -12  -7    1.26    0.19
  -6  12   7    1.26    0.15
  -6  12   7    1.01    0.14
   4 -12  -7    0.39    0.12
  -4  12   7    0.45    0.09
  -4  12   7    0.21    0.09
   2 -12  -7    0.55    0.12
  -2  12   7    0.66    0.11
  -2  12   7    0.56    0.12
   0 -12  -7    0.26    0.08
   0  12   7    0.35    0.10
  -2 -12  -7    0.04    0.06
   2  12   7   -0.06    0.07
  -4 -12  -7    1.44    0.18
   4  12   7    1.38    0.17
  -6 -12  -7    0.14    0.10
   6  12   7    0.10    0.09
  -8 -12  -7    0.65    0.15
   8  12   7    0.52    0.13
 -10 -12  -7    1.50    0.22
   9 -13  -7    0.08    0.10
  -9  13   7    0.90    0.16
   7 -13  -7    0.13    0.08
  -7  13   7   -0.08    0.04
  -7  13   7    0.65    0.13
   5 -13  -7    3.10    0.25
  -5  13   7    3.41    0.24
  -5  13   7    3.49    0.22
   3 -13  -7    0.61    0.13
  -3  13   7    0.82    0.13
   1 -13  -7    1.00    0.15
  -1  13   7    1.40    0.18
   1  13   7    0.43    0.12
  -3 -13  -7    0.92    0.15
   3  13   7    1.05    0.16
  -5 -13  -7    1.00    0.16
   5  13   7    0.92    0.15
  -7 -13  -7    1.17    0.19
   7  13   7    0.53    0.14
   6 -14  -7    0.90    0.23
  -6  14   7    1.14    0.17
  -6  14   7    1.33    0.17
   4 -14  -7    1.17    0.18
  -4  14   7    1.05    0.17
   2 -14  -7    0.55    0.13
  -2  14   7    0.35    0.12
   0  14   7    1.68    0.20
  -2 -14  -7    0.00    0.08
   2  14   7   -0.06    0.08
  -4 -14  -7    1.03    0.17
   4  14   7    1.10    0.17
  -6 -14  -7    0.30    0.12
  -1  15   7    0.09    0.10
  -1 -15  -7    0.14    0.07
  -1 -15   8    0.95    0.19
   1 -15   8    0.50    0.15
   6  14  -8    0.59    0.15
  -6 -14   8    0.55    0.15
   4  14  -8    0.00    0.10
  -4 -14   8    0.17    0.10
  -2 -14   8    0.79    0.17
   0 -14   8    0.67    0.16
   2 -14   8    0.17    0.12
   4 -14   8    0.51    0.17
   9  13  -8    0.68    0.16
  -9 -13   8    0.73    0.17
   7  13  -8    0.73    0.16
  -7 -13   8    0.47    0.15
   5  13  -8    4.27    0.29
  -5 -13   8    4.33    0.30
   3  13  -8    0.11    0.10
  -3 -13   8   -0.03    0.09
  -1 -13   8    3.06    0.26
   1 -13   8    1.84    0.24
   3 -13   8    0.74    0.18
   5 -13   8    1.49    0.25
   7 -13   8    0.30    0.19
  10  12  -8    1.38    0.19
 -10 -12   8    1.54    0.23
   8  12  -8    0.98    0.16
  -8 -12   8    0.89    0.18
   6  12  -8    1.17    0.17
  -6 -12   8    0.64    0.14
   4  12  -8    0.67    0.13
  -4 -12   8    0.66    0.14
   2  12  -8    2.98    0.23
  -2 -12   8    3.02    0.25
   0 -12   8    1.85    0.24
   2 -12   8    0.01    0.10
   4 -12   8    4.22    0.33
   6 -12   8    2.29    0.29
   8 -12   8    1.46    0.27
  11  11  -8    0.29    0.12
 -11 -11   8    0.36    0.13
   9  11  -8    1.55    0.18
  -9 -11   8    1.44    0.20
   7  11  -8    0.32    0.10
  -7 -11   8    0.09    0.09
   5  11  -8    1.60    0.18
  -5 -11   8    1.34    0.18
   3  11  -8    0.07    0.08
  -3 -11   8    0.02    0.08
   1  11  -8    2.76    0.20
  -1 -11   8    2.81    0.24
   1 -11   8    0.26    0.12
   3 -11   8    0.54    0.16
   5 -11   8    4.26    0.33
   7 -11   8    1.93    0.27
   9 -11   8    0.91    0.21
  11 -11   8    0.47    0.20
 -12 -10   8    0.15    0.11
  10  10  -8    6.67    0.33
 -10 -10   8    6.65    0.37
   8  10  -8    2.92    0.21
  -8 -10   8    2.99    0.24
   6  10  -8    1.22    0.15
  -6 -10   8    1.15    0.17
   4  10  -8    7.94    0.34
  -4 -10   8    7.99    0.38
   2  10  -8    1.73    0.17
  -2 -10   8    1.81    0.20
   0 -10   8    5.68    0.31
   2 -10   8    5.77    0.33
   4 -10   8    5.24    0.34
   6 -10   8    3.23    0.29
   8 -10   8    2.92    0.30
  10 -10   8    1.59    0.25
  12 -10   8    0.61    0.21
 -13  -9   8    0.29    0.12
  11   9  -8    0.32    0.11
 -11  -9   8    0.36    0.12
   9   9  -8    0.09    0.08
  -9  -9   8    0.10    0.08
   7   9  -8    2.51    0.18
  -7  -9   8    2.40    0.20
   5   9  -8    0.20    0.07
  -5  -9   8    0.18    0.08
   3   9  -8    0.33    0.09
  -3  -9   8    0.48    0.11
   1   9  -8    3.27    0.20
  -1  -9   8    3.24    0.22
   1  -9   8    2.60    0.22
   3  -9   8    8.06    0.39
   5  -9   8    3.92    0.29
   7  -9   8    2.60    0.28
   9  -9   8    0.85    0.18
  11  -9   8    1.56    0.24
  13  -9   8    0.59    0.19
 -14  -8   8    1.79    0.24
 -12  -8   8    0.05    0.08
  10   8  -8    3.76    0.22
 -10  -8   8    3.50    0.25
   8   8  -8    0.03    0.07
  -8  -8   8    0.05    0.07
   6   8  -8    3.06    0.19
  -6  -8   8    3.06    0.21
   4   8  -8   12.60    0.43
  -4  -8   8   12.90    0.36
  -4  -8   8   12.73    0.47
   2   8  -8    2.04    0.15
  -2  -8   8    1.89    0.16
   0  -8   8   10.25    0.41
   2  -8   8    2.20    0.19
   4  -8   8   10.52    0.44
   6  -8   8    1.60    0.21
   8  -8   8    0.95    0.17
  10  -8   8    2.66    0.27
  12  -8   8    1.36    0.23
 -15  -7   8    0.23    0.12
 -13  -7   8    0.12    0.10
 -11  -7   8    0.78    0.15
   9   7  -8    0.17    0.07
  -9  -7   8    0.27    0.10
   7   7  -8    0.20    0.07
  -7  -7   8    0.13    0.03
  -7  -7   8    0.10    0.06
   5   7  -8    0.24    0.07
  -5  -7   8    0.28    0.04
  -5  -7   8    0.13    0.07
   3   7  -8    4.28    0.21
  -3  -7   8    4.38    0.23
  -1  -7   8    3.85    0.22
   1  -7   8    3.70    0.22
   3  -7   8    5.79    0.29
   5  -7   8    0.33    0.10
   7  -7   8    1.89    0.21
   9  -7   8    1.78    0.21
  11  -7   8    2.87    0.28
  13  -7   8    0.66    0.18
 -16  -6   8    0.20    0.13
 -14  -6   8    0.92    0.18
 -12  -6   8    0.12    0.09
 -10  -6   8    0.78    0.14
   8   6  -8    1.18    0.12
  -8  -6   8    1.56    0.08
  -8  -6   8    1.39    0.15
   6   6  -8    2.15    0.14
  -6  -6   8    1.94    0.15
  -6  -6   8    1.88    0.09
   4   6  -8   10.90    0.36
  -4  -6   8   10.55    0.31
  -4  -6   8   10.82    0.39
  -2  -6   8    2.37    0.16
   0  -6   8   13.69    0.46
   2  -6   8    1.57    0.16
   4  -6   8    6.31    0.30
   6  -6   8    1.67    0.18
   8  -6   8    1.58    0.19
  10  -6   8   -0.10    0.08
  12  -6   8    0.07    0.12
  14  -6   8    2.22    0.27
 -15  -5   8    1.34    0.21
 -13  -5   8    2.73    0.23
 -11  -5   8    2.22    0.19
 -11  -5   8    1.95    0.12
  -9  -5   8    0.93    0.08
  -9  -5   8    0.91    0.13
  -7  -5   8   10.83    0.32
  -7  -5   8   10.86    0.40
  -5  -5   8    3.79    0.14
  -5  -5   8    3.83    0.20
  -3  -5   8    7.61    0.23
  -3  -5   8    7.47    0.29
  -1  -5   8    9.16    0.33
   1  -5   8    4.92    0.23
   3  -5   8   38.24    1.06
   5  -5   8    6.08    0.28
   7  -5   8    2.70    0.19
   9  -5   8    1.42    0.17
  11  -5   8    1.07    0.17
  13  -5   8    0.35    0.14
  15  -5   8    1.19    0.22
 -16  -4   8    1.02    0.19
 -14  -4   8    3.33    0.25
 -12  -4   8    6.96    0.35
 -12  -4   8    7.55    0.28
 -10  -4   8    3.99    0.24
 -10  -4   8    4.00    0.17
  -8  -4   8    5.29    0.25
  -8  -4   8    5.39    0.19
  -6  -4   8   12.30    0.42
  -6  -4   8   12.38    0.35
  -4  -4   8    6.41    0.20
  -4  -4   8    6.65    0.26
  -2  -4   8    2.98    0.16
   0  -4   8    3.45    0.17
   2  -4   8    5.49    0.24
   4  -4   8   15.90    0.51
   6  -4   8    0.02    0.07
   8  -4   8    8.57    0.36
  10  -4   8    3.86    0.26
  12  -4   8    7.76    0.41
  14  -4   8    0.98    0.20
 -17  -3   8    0.42    0.15
 -15  -3   8    0.11    0.07
 -15  -3   8    0.05    0.08
 -13  -3   8    0.44    0.11
 -13  -3   8    0.40    0.08
 -11  -3   8    3.41    0.22
 -11  -3   8    3.43    0.17
  -9  -3   8    6.28    0.24
  -9  -3   8    6.91    0.30
  -7  -3   8    7.21    0.29
  -7  -3   8    7.27    0.24
  -5  -3   8    0.80    0.07
  -5  -3   8    0.66    0.08
  -3  -3   8    5.32    0.17
  -3  -3   8    4.80    0.19
  -1  -3   8    5.31    0.21
   1  -3   8    0.68    0.08
   3  -3   8   17.96    0.53
   5  -3   8    8.83    0.33
   7  -3   8    4.21    0.23
 -11   3  -8    2.88    0.23
 -13   3  -8    2.31    0.26
 -15   3  -8    0.35    0.14
  15  -3   8   -0.06    0.09
 -16  -2   8    0.99    0.18
 -16  -2   8    1.56    0.17
 -14  -2   8    0.02    0.06
 -14  -2   8    0.02    0.07
 -12  -2   8    1.21    0.12
 -12  -2   8    1.13    0.16
 -10  -2   8    4.13    0.23
 -10  -2   8    4.11    0.19
  -8  -2   8    5.98    0.26
  -8  -2   8    6.05    0.22
  -6  -2   8   21.37    0.57
  -6  -2   8   20.31    0.60
  -4  -2   8    9.69    0.31
  -2  -2   8    4.16    0.16
  -2  -2   8    4.39    0.15
   0  -2   8    6.14    0.22
   2  -2   8   90.62    2.24
   4  -2   8    5.08    0.21
  -8   2  -8    3.58    0.21
 -10   2  -8    2.66    0.21
 -12   2  -8    4.94    0.31
 -14   2  -8    0.13    0.11
 -16   2  -8    0.79    0.19
 -17  -1   8    0.16    0.12
 -17  -1   8    0.29    0.10
 -15  -1   8    0.20    0.09
 -15  -1   8    0.21    0.11
 -13  -1   8    1.07    0.16
 -13  -1   8    1.15    0.14
 -11  -1   8    1.39    0.13
 -11  -1   8    1.47    0.17
  -9  -1   8    8.08    0.29
  -9  -1   8    8.44    0.33
  -7  -1   8    1.90    0.12
  -7  -1   8    1.92    0.13
  -5  -1   8    2.36    0.11
  -5  -1   8    2.35    0.12
  -3  -1   8   18.82    0.51
  -3  -1   8   18.94    0.50
  -1  -1   8   10.28    0.30
  -1  -1   8   10.43    0.30
   1  -1   8    0.67    0.07
  -5   1  -8    0.23    0.06
  -7   1  -8    0.25    0.07
  -9   1  -8    0.28    0.09
 -11   1  -8    0.35    0.10
 -13   1  -8    0.19    0.09
 -15   1  -8    0.32    0.14
 -16   0   8    2.14    0.22
 -16   0   8    1.98    0.24
 -14   0   8    0.08    0.07
 -14   0   8    0.04    0.07
 -12   0   8    9.14    0.35
 -12   0   8    9.24    0.40
 -10   0   8    4.90    0.22
 -10   0   8    4.84    0.24
  -8   0   8  108.71    2.70
  -8   0   8  107.44    2.67
  -6   0   8    6.24    0.23
  -6   0   8    6.05    0.22
  -4   0   8   12.89    0.37
  -4   0   8   12.99    0.37
  -2   0   8   22.63    0.58
  -2   0   8   22.10    0.56
   0   0   8    6.72    0.20
   0   0   8    6.40    0.21
  -2   0  -8   18.89    0.51
  -4   0  -8   -0.02    0.03
  -6   0  -8   10.13    0.36
  -8   0  -8   22.76    0.70
 -10   0  -8    2.43    0.19
  10   0   8    2.43    0.12
 -12   0  -8    0.66    0.14
 -14   0  -8    0.20    0.11
 -16   0  -8    2.90    0.33
 -17   1   8    0.32    0.14
 -17   1   8    0.36    0.11
 -15   1   8    0.38    0.12
 -15   1   8    0.24    0.09
 -13   1   8    0.98    0.15
 -13   1   8    0.99    0.14
 -11   1   8    1.41    0.14
 -11   1   8    1.47    0.16
  -9   1   8    7.90    0.31
  -9   1   8    8.09    0.30
  -7   1   8    2.09    0.13
  -7   1   8    2.05    0.13
  -5   1   8    2.50    0.12
  -5   1   8    2.61    0.13
  -3   1   8   19.64    0.54
  -3   1   8   20.42    0.51
  -1   1   8   10.19    0.25
  -1   1   8   10.44    0.30
  -1  -1  -8    0.53    0.04
   1   1   8    0.55    0.05
  -3  -1  -8    2.64    0.12
  -5  -1  -8    0.20    0.05
  -7  -1  -8    0.22    0.07
  -9  -1  -8    0.38    0.09
   9   1   8    0.34    0.05
 -11  -1  -8    0.41    0.11
  11   1   8    0.41    0.06
 -13  -1  -8    0.13    0.10
 -15  -1  -8    0.42    0.16
 -16   2   8    1.41    0.21
 -16   2   8    1.58    0.19
 -14   2   8    0.01    0.07
 -14   2   8    0.09    0.08
 -12   2   8    1.13    0.14
 -12   2   8    1.18    0.16
 -10   2   8    3.68    0.20
 -10   2   8    3.74    0.21
  -8   2   8    6.23    0.25
  -8   2   8    6.27    0.25
  -6   2   8   21.19    0.60
  -6   2   8   20.73    0.58
  -4   2   8    9.94    0.28
  -4   2   8    9.90    0.31
  -2   2   8    4.31    0.16
   0  -2  -8    5.90    0.16
   0   2   8    6.21    0.19
  -2  -2  -8   95.86    2.31
   2   2   8   93.76    2.30
  -4  -2  -8    5.12    0.20
  -6  -2  -8   21.02    0.64
   6   2   8   22.73    0.60
  -8  -2  -8    4.09    0.22
   8   2   8    4.40    0.17
 -10  -2  -8    2.40    0.19
  10   2   8    2.29    0.12
 -12  -2  -8    4.07    0.27
 -14  -2  -8    0.08    0.10
 -16  -2  -8    0.73    0.18
 -17   3   8    0.38    0.12
 -17   3   8    0.74    0.17
 -15   3   8    0.23    0.10
 -15   3   8    0.18    0.10
 -13   3   8    0.36    0.10
 -13   3   8    0.31    0.11
 -11   3   8    3.78    0.21
 -11   3   8    3.48    0.22
  -9   3   8    6.92    0.29
  -9   3   8    6.60    0.28
  -7   3   8    7.52    0.27
  -7   3   8    7.25    0.28
  -7   3   8    7.33    0.22
  -5   3   8    0.78    0.07
  -5   3   8    0.70    0.08
   3  -3  -8    5.16    0.16
  -3   3   8    5.58    0.20
   1  -3  -8    5.24    0.15
  -1   3   8    5.11    0.18
  -1  -3  -8    0.75    0.05
   1   3   8    0.63    0.05
  -3  -3  -8   20.20    0.58
   3   3   8   21.72    0.55
   3   3   8   21.73    0.58
  -5  -3  -8    9.65    0.33
   5   3   8    9.42    0.30
  -7  -3  -8    4.18    0.21
   7   3   8    4.37    0.18
  -9  -3  -8    2.72    0.19
   9   3   8    2.42    0.13
 -11  -3  -8    3.35    0.24
  11   3   8    3.08    0.16
 -13  -3  -8    2.79    0.25
 -15  -3  -8    0.22    0.14
 -16   4   8    0.54    0.14
 -16   4   8    1.04    0.19
 -14   4   8    5.07    0.31
 -14   4   8    4.62    0.29
 -12   4   8    8.03    0.36
 -12   4   8    7.68    0.35
 -10   4   8    3.77    0.22
 -10   4   8    4.16    0.22
  -8   4   8    5.69    0.25
  -8   4   8    5.73    0.18
  -8   4   8    5.58    0.24
   6  -4  -8   13.59    0.41
  -6   4   8   13.01    0.37
  -6   4   8   12.93    0.42
   4  -4  -8    7.13    0.23
  -4   4   8    6.86    0.23
  -4   4   8    7.15    0.25
   2  -4  -8    2.83    0.11
  -2   4   8    3.12    0.13
  -2   4   8    2.85    0.13
   0  -4  -8    3.62    0.13
   0   4   8    3.64    0.14
   0   4   8    3.42    0.15
  -2  -4  -8    6.09    0.21
   2   4   8    6.06    0.22
   2   4   8    6.13    0.19
  -4  -4  -8   12.28    0.43
   4   4   8   15.27    0.39
   4   4   8   15.19    0.43
  -6  -4  -8    0.07    0.05
   6   4   8    0.09    0.04
  -8  -4  -8    8.84    0.36
   8   4   8    8.78    0.31
 -10  -4  -8    3.77    0.25
  10   4   8    4.38    0.20
 -12  -4  -8    7.96    0.40
  12   4   8    7.81    0.30
 -14  -4  -8    0.71    0.16
 -16  -4  -8    0.44    0.16
 -15   5   8    1.42    0.21
 -15   5   8    1.28    0.19
 -13   5   8    2.56    0.22
 -13   5   8    2.80    0.21
  11  -5  -8    1.86    0.20
 -11   5   8    2.15    0.18
 -11   5   8    2.09    0.18
   9  -5  -8    1.37    0.14
  -9   5   8    0.91    0.12
  -9   5   8    1.03    0.07
   7  -5  -8   11.22    0.37
  -7   5   8   10.75    0.32
  -7   5   8   11.27    0.39
   5  -5  -8    3.76    0.17
  -5   5   8    3.80    0.18
  -5   5   8    3.98    0.16
   3  -5  -8    7.32    0.24
  -3   5   8    7.36    0.25
  -3   5   8    7.77    0.26
   1  -5  -8    9.60    0.29
  -1   5   8    9.67    0.31
  -1   5   8    9.70    0.30
  -1  -5  -8    5.42    0.19
   1   5   8    5.13    0.17
   1   5   8    5.02    0.20
  -3  -5  -8   38.41    1.01
   3   5   8   38.10    1.01
   3   5   8   38.38    0.95
  -5  -5  -8    6.44    0.26
   5   5   8    6.29    0.24
   5   5   8    6.12    0.19
  -7  -5  -8    3.08    0.19
   7   5   8    3.51    0.17
  -9  -5  -8    1.38    0.16
   9   5   8    1.54    0.14
 -11  -5  -8    1.21    0.17
  11   5   8    1.01    0.12
 -13  -5  -8    0.19    0.11
 -15  -5  -8    1.37    0.23
  16  -6  -8    0.36    0.15
 -16   6   8    0.50    0.15
  14  -6  -8    1.28    0.20
 -14   6   8    1.07    0.17
  12  -6  -8    0.31    0.12
 -12   6   8    0.18    0.08
  10  -6  -8    0.70    0.13
 -10   6   8    0.62    0.11
  -8   6   8    1.41    0.09
  -8   6   8    1.56    0.15
   6  -6  -8    1.92    0.14
  -6   6   8    1.92    0.11
  -6   6   8    2.13    0.14
   4  -6  -8   10.62    0.34
  -4   6   8   10.32    0.34
  -4   6   8   11.12    0.36
   2  -6  -8    2.40    0.13
  -2   6   8    2.61    0.13
  -2   6   8    2.44    0.14
   0  -6  -8   13.17    0.40
   0   6   8   13.27    0.38
   0   6   8   13.54    0.42
  -2  -6  -8    1.66    0.11
   2   6   8    1.46    0.11
   2   6   8    1.60    0.08
   4   6   8    6.27    0.25
   4   6   8    6.11    0.19
  -6  -6  -8    1.66    0.14
   6   6   8    2.00    0.14
   6   6   8    1.80    0.08
  -8  -6  -8    1.30    0.15
   8   6   8    1.56    0.14
 -10  -6  -8    0.00    0.07
  10   6   8    0.02    0.05
 -12  -6  -8    0.23    0.10
  12   6   8    0.06    0.07
 -14  -6  -8    2.23    0.27
  15  -7  -8    0.47    0.16
 -15   7   8    0.20    0.11
  13  -7  -8    0.02    0.10
 -13   7   8    0.16    0.09
  11  -7  -8    0.92    0.16
 -11   7   8    0.61    0.12
   9  -7  -8    0.10    0.07
  -9   7   8    0.33    0.06
  -9   7   8    0.12    0.07
   7  -7  -8    0.13    0.08
  -7   7   8    0.10    0.05
  -7   7   8    0.10    0.05
   5  -7  -8    0.32    0.07
  -5   7   8    0.19    0.06
  -5   7   8    0.24    0.05
   3  -7  -8    4.52    0.20
  -3   7   8    4.27    0.19
  -3   7   8    4.20    0.19
   1  -7  -8    3.68    0.17
  -1   7   8    3.69    0.18
  -1   7   8    3.72    0.16
  -1  -7  -8    4.33    0.19
   1   7   8    4.01    0.19
   1   7   8    4.12    0.16
  -3  -7  -8    5.68    0.23
   3   7   8    5.37    0.24
   3   7   8    5.45    0.17
  -5  -7  -8    0.46    0.09
   5   7   8    0.52    0.09
   5   7   8    0.56    0.04
  -7  -7  -8    1.86    0.16
   7   7   8    1.81    0.16
  -9  -7  -8    1.56    0.19
   9   7   8    1.80    0.16
 -11  -7  -8    2.79    0.24
  11   7   8    2.81    0.19
 -13  -7  -8    0.57    0.14
  13   7   8    0.49    0.11
  14  -8  -8    2.11    0.26
 -14   8   8    1.91    0.23
  12  -8  -8   -0.05    0.09
 -12   8   8   -0.04    0.08
  10  -8  -8    3.65    0.25
 -10   8   8    3.69    0.23
   8  -8  -8    0.12    0.08
  -8   8   8    0.15    0.05
  -8   8   8    0.10    0.07
   6  -8  -8    2.89    0.19
  -6   8   8    3.29    0.17
  -6   8   8    3.45    0.19
   4  -8  -8   12.84    0.43
  -4   8   8   13.29    0.42
  -4   8   8   12.52    0.42
   2  -8  -8    2.14    0.14
  -2   8   8    2.01    0.14
  -2   8   8    2.17    0.13
   0  -8  -8   10.60    0.36
   0   8   8   10.33    0.32
   0   8   8   10.50    0.37
  -2  -8  -8    2.42    0.15
   2   8   8    2.43    0.16
   2   8   8    2.43    0.11
  -4  -8  -8    8.34    0.34
   4   8   8    9.36    0.35
  -6  -8  -8    1.94    0.16
   6   8   8    1.79    0.16
  -8  -8  -8    0.81    0.14
   8   8   8    0.98    0.13
 -10  -8  -8    2.89    0.24
  10   8   8    2.99    0.21
 -12  -8  -8    0.89    0.18
  12   8   8    1.36    0.16
 -14  -8  -8    2.95    0.31
  13  -9  -8    0.33    0.14
 -13   9   8    0.31    0.12
  11  -9  -8    0.45    0.14
 -11   9   8    0.68    0.14
   9  -9  -8   -0.05    0.03
  -9   9   8    0.05    0.07
   7  -9  -8    2.04    0.18
  -7   9   8    2.41    0.15
  -7   9   8    2.26    0.17
   5  -9  -8    0.08    0.08
  -5   9   8    0.33    0.07
  -5   9   8    0.17    0.06
   3  -9  -8    0.61    0.10
  -3   9   8    0.48    0.09
  -3   9   8    0.55    0.08
   1  -9  -8    3.14    0.18
  -1   9   8    3.27    0.19
  -1   9   8    3.18    0.15
  -1  -9  -8    2.47    0.16
   1   9   8    2.21    0.11
   1   9   8    2.08    0.16
  -5  -9  -8    3.83    0.22
   5   9   8    3.69    0.22
  -7  -9  -8    2.52    0.20
   7   9   8    2.40    0.19
  -9  -9  -8    0.97    0.16
   9   9   8    0.75    0.13
 -11  -9  -8    1.62    0.22
  11   9   8    1.40    0.16
 -13  -9  -8    0.93    0.18
  13   9   8    0.81    0.14
  12 -10  -8    0.05    0.12
 -12  10   8    0.18    0.10
  10 -10  -8    3.47    0.25
   8 -10  -8    2.99    0.23
  -8  10   8    3.29    0.22
  -8  10   8    3.15    0.18
   6 -10  -8    0.99    0.15
  -6  10   8    1.13    0.13
   4 -10  -8    7.93    0.34
  -4  10   8    7.50    0.31
  -4  10   8    7.88    0.32
   2 -10  -8    1.63    0.16
  -2  10   8    1.83    0.13
  -2  10   8    1.74    0.17
   0 -10  -8    6.00    0.27
   0  10   8    5.78    0.22
   0  10   8    5.65    0.27
  -2 -10  -8    5.99    0.28
   2  10   8    6.43    0.30
  -4 -10  -8    4.74    0.25
   4  10   8    4.97    0.26
  -6 -10  -8    2.91    0.21
   6  10   8    2.73    0.21
  -8 -10  -8    2.42    0.21
   8  10   8    2.62    0.20
 -10 -10  -8    1.26    0.19
  10  10   8    1.62    0.19
 -12 -10  -8    0.56    0.16
  12  10   8    0.56    0.13
  11 -11  -8    0.04    0.11
 -11  11   8    0.47    0.13
  -9  11   8    1.40    0.18
   7 -11  -8    0.43    0.12
  -7  11   8    0.36    0.09
  -7  11   8    0.21    0.09
   5 -11  -8    1.53    0.18
  -5  11   8    1.32    0.15
  -5  11   8    1.65    0.16
   3 -11  -8    0.22    0.08
  -3  11   8    0.03    0.06
  -3  11   8    0.05    0.07
   1 -11  -8    2.59    0.19
  -1  11   8    2.65    0.15
  -1  11   8    2.81    0.20
  -1 -11  -8    0.55    0.11
   1  11   8    0.53    0.11
   3  11   8    0.63    0.12
  -5 -11  -8    3.81    0.25
   5  11   8    4.21    0.25
  -7 -11  -8    1.58    0.19
   7  11   8    1.00    0.15
  -9 -11  -8    0.88    0.17
   9  11   8    0.78    0.15
 -11 -11  -8    0.29    0.13
  11  11   8    0.32    0.12
 -10  12   8    1.42    0.19
   8 -12  -8    0.81    0.17
  -8  12   8    0.84    0.17
  -8  12   8    0.80    0.14
   6 -12  -8    1.13    0.17
  -6  12   8    1.00    0.14
  -6  12   8    0.86    0.13
   4 -12  -8    0.77    0.13
  -4  12   8    0.68    0.11
  -4  12   8    0.94    0.14
   2 -12  -8    3.32    0.22
  -2  12   8    3.26    0.21
  -2  12   8    3.20    0.22
   0 -12  -8    1.67    0.17
   0  12   8    1.41    0.17
  -2 -12  -8    0.03    0.05
   2  12   8   -0.13    0.05
  -4 -12  -8    4.02    0.26
   4  12   8    4.36    0.26
  -6 -12  -8    2.14    0.23
   6  12   8    1.84    0.20
  -8 -12  -8    1.32    0.20
   8  12   8    0.92    0.16
  -9  13   8    0.79    0.15
   7 -13  -8    0.83    0.17
  -7  13   8    0.77    0.14
   5 -13  -8    4.33    0.28
  -5  13   8    4.67    0.26
  -5  13   8    4.68    0.27
   3 -13  -8    0.15    0.09
  -3  13   8   -0.02    0.07
   1 -13  -8    3.21    0.23
  -1  13   8    2.50    0.23
  -1 -13  -8    1.72    0.19
   1  13   8    1.60    0.19
  -3 -13  -8    0.72    0.13
   3  13   8    0.95    0.15
  -5 -13  -8    1.36    0.19
   5  13   8    1.44    0.19
  -7 -13  -8    0.38    0.12
   7  13   8    0.29    0.12
  -6  14   8    0.89    0.14
  -6  14   8    0.66    0.14
  -4  14   8    0.16    0.10
   2 -14  -8    0.69    0.14
  -2  14   8    0.65    0.13
   0 -14  -8    0.84    0.14
   0  14   8    0.89    0.15
  -2 -14  -8    0.06    0.05
   2  14   8    0.15    0.10
  -4 -14  -8    0.60    0.14
   4  14   8    0.60    0.14
  -1 -15   9    0.10    0.11
  -6 -14   9    1.21    0.21
  -4 -14   9    3.03    0.27
  -2 -14   9    0.31    0.12
   0 -14   9    1.11    0.20
   2 -14   9    0.07    0.10
   4 -14   9    0.36    0.15
  -9 -13   9    1.99    0.26
  -7 -13   9   -0.02    0.08
   5  13  -9    3.17    0.28
  -5 -13   9    3.09    0.26
  -3 -13   9    0.24    0.12
  -1 -13   9    1.03    0.18
   1 -13   9    0.10    0.11
   3 -13   9    0.24    0.14
   5 -13   9    0.49    0.20
   7 -13   9    0.09    0.17
 -10 -12   9    1.33    0.22
   8  12  -9    2.11    0.22
  -8 -12   9    2.44    0.26
   6  12  -9    4.31    0.27
  -6 -12   9    4.03    0.29
   4  12  -9    3.91    0.26
  -4 -12   9    3.62    0.26
  -2 -12   9    0.33    0.13
   0 -12   9    0.40    0.13
   2 -12   9    0.30    0.12
   4 -12   9    3.29    0.33
   6 -12   9    1.84    0.26
   8 -12   9    0.47    0.21
 -11 -11   9    0.17    0.11
   9  11  -9    4.62    0.28
  -9 -11   9    4.94    0.32
   7  11  -9    1.23    0.16
  -7 -11   9    1.27    0.19
   5  11  -9    0.44    0.11
  -5 -11   9    0.50    0.13
   3  11  -9    0.03    0.08
  -3 -11   9    0.18    0.11
  -1 -11   9    5.70    0.33
   1 -11   9    1.13    0.19
   3 -11   9    2.20    0.25
   5 -11   9   10.77    0.52
   7 -11   9    0.78    0.20
   9 -11   9    0.57    0.20
 -12 -10   9    0.20    0.11
 -10 -10   9    0.77    0.15
   8  10  -9    0.20    0.09
  -8 -10   9    0.06    0.08
   6  10  -9    0.51    0.11
  -6 -10   9    0.47    0.12
   4  10  -9    1.01    0.14
  -4 -10   9    0.93    0.15
  -2 -10   9    0.06    0.09
   0 -10   9    1.60    0.20
   2 -10   9    4.40    0.30
   4 -10   9    4.24    0.31
   6 -10   9    0.11    0.14
   8 -10   9    1.23    0.21
  10 -10   9    1.08    0.22
 -13  -9   9    1.82    0.24
 -11  -9   9    0.17    0.10
   9   9  -9    3.89    0.23
  -9  -9   9    3.71    0.26
   7   9  -9    1.84    0.17
  -7  -9   9    1.91    0.20
   5   9  -9    3.07    0.20
  -5  -9   9    2.90    0.21
   3   9  -9    7.30    0.31
  -3  -9   9    7.60    0.35
  -1  -9   9   12.14    0.47
   1  -9   9    8.42    0.39
   3  -9   9    6.39    0.35
   5  -9   9    9.10    0.44
   7  -9   9    0.55    0.15
   9  -9   9    5.22    0.35
  11  -9   9    0.38    0.15
 -14  -8   9    0.04    0.09
 -12  -8   9    1.52    0.22
 -10  -8   9    0.51    0.13
   8   8  -9    2.29    0.18
  -8  -8   9    2.44    0.20
   6   8  -9    0.36    0.09
  -6  -8   9    0.40    0.10
   4   8  -9    0.13    0.06
  -4  -8   9    0.13    0.07
  -4  -8   9    0.10    0.04
  -2  -8   9    1.88    0.19
   0  -8   9    1.06    0.15
   2  -8   9   11.99    0.47
   4  -8   9    0.22    0.12
   6  -8   9    0.34    0.13
   8  -8   9    0.24    0.13
  10  -8   9    0.15    0.13
  12  -8   9    0.82    0.19
 -15  -7   9    1.80    0.25
 -13  -7   9    1.57    0.22
 -11  -7   9    0.41    0.12
  -9  -7   9    0.12    0.08
  -7  -7   9    0.26    0.04
  -7  -7   9    0.21    0.08
  -5  -7   9   12.86    0.46
  -5  -7   9   12.89    0.36
  -3  -7   9    4.36    0.23
  -1  -7   9   10.43    0.40
   1  -7   9    8.85    0.36
   3  -7   9    1.16    0.15
   5  -7   9    4.96    0.28
   7  -7   9    0.37    0.11
   9  -7   9    0.88    0.16
  11  -7   9    0.23    0.12
  13  -7   9    1.90    0.26
 -16  -6   9    1.20    0.21
 -14  -6   9    0.74    0.16
 -12  -6   9    2.20    0.23
 -10  -6   9    1.80    0.19
  -8  -6   9    3.27    0.13
  -8  -6   9    3.35    0.21
  -6  -6   9    3.30    0.20
  -6  -6   9    3.49    0.13
  -4  -6   9    2.56    0.11
  -4  -6   9    2.57    0.17
  -2  -6   9    3.83    0.21
   0  -6   9    1.63    0.16
   2  -6   9    8.53    0.35
   4  -6   9    3.33    0.22
   6  -6   9    5.77    0.30
   8  -6   9    0.27    0.11
  10  -6   9    0.49    0.14
  12  -6   9    4.09    0.30
  14  -6   9    0.55    0.18
 -15  -5   9    0.79    0.17
 -13  -5   9    0.26    0.11
 -11  -5   9    2.12    0.12
 -11  -5   9    2.15    0.19
  -9  -5   9    1.45    0.10
  -9  -5   9    1.52    0.17
  -7  -5   9    4.49    0.23
  -7  -5   9    4.58    0.17
  -5  -5   9   10.64    0.31
  -5  -5   9   10.50    0.38
  -3  -5   9    5.74    0.19
  -3  -5   9    5.84    0.25
  -1  -5   9    2.90    0.17
   1  -5   9   11.60    0.40
   3  -5   9    4.45    0.23
   5  -5   9   11.06    0.41
   7  -5   9    0.89    0.14
   9  -5   9    2.04    0.22
  11  -5   9    0.13    0.11
  13  -5   9    0.95    0.19
  15  -5   9    1.05    0.22
 -16  -4   9    1.13    0.21
 -14  -4   9    0.90    0.17
 -12  -4   9    2.63    0.15
 -12  -4   9    2.57    0.21
 -10  -4   9    2.08    0.17
 -10  -4   9    2.50    0.13
  -8  -4   9    7.56    0.32
  -8  -4   9    8.00    0.26
  -6  -4   9   10.57    0.32
  -6  -4   9   10.80    0.38
  -4  -4   9   11.99    0.39
  -4  -4   9   11.90    0.34
  -2  -4   9   12.24    0.39
   0  -4   9    6.54    0.26
   2  -4   9   34.99    0.96
   4  -4   9    8.05    0.32
   6  -4   9    1.08    0.14
   8  -4   9    0.30    0.10
  10  -4   9    1.17    0.17
  12  -4   9    4.44    0.31
  14  -4   9    0.43    0.17
 -17  -3   9    0.92    0.19
 -15  -3   9    1.81    0.22
 -15  -3   9    1.55    0.16
 -13  -3   9    5.01    0.23
 -13  -3   9    4.63    0.29
 -11  -3   9    3.75    0.23
 -11  -3   9    4.14    0.19
  -9  -3   9    2.19    0.16
  -9  -3   9    2.11    0.13
  -7  -3   9    3.13    0.14
  -7  -3   9    3.54    0.18
  -5  -3   9   11.06    0.37
  -5  -3   9   11.03    0.32
  -3  -3   9   13.76    0.38
  -3  -3   9   13.53    0.41
  -1  -3   9    0.12    0.05
   1  -3   9   22.02    0.62
   3  -3   9   47.52    1.25
   5  -3   9    8.21    0.32
   7  -3   9    4.33    0.24
  -9   3  -9    0.80    0.13
   9  -3   9    0.56    0.12
 -11   3  -9    2.21    0.24
 -13   3  -9    2.40    0.26
 -15   3  -9    0.68    0.18
  15  -3   9    0.13    0.13
 -16  -2   9    0.78    0.17
 -16  -2   9    0.71    0.12
 -14  -2   9    1.66    0.16
 -14  -2   9    1.62    0.20
 -12  -2   9    0.87    0.11
 -12  -2   9    1.01    0.15
 -10  -2   9    4.17    0.23
 -10  -2   9    4.22    0.19
  -8  -2   9    4.12    0.21
  -8  -2   9    4.02    0.17
  -6  -2   9    4.46    0.20
  -4  -2   9    5.51    0.21
  -2  -2   9    0.17    0.05
  -2  -2   9    0.24    0.04
   0  -2   9    0.52    0.07
   2  -2   9   44.61    1.15
   4  -2   9   10.91    0.36
  -8   2  -9    5.28    0.26
 -10   2  -9    4.12    0.26
 -12   2  -9    0.14    0.10
 -14   2  -9    0.02    0.11
 -16   2  -9    0.01    0.14
 -17  -1   9    1.08    0.15
 -17  -1   9    0.75    0.17
 -15  -1   9    0.78    0.16
 -15  -1   9    0.84    0.13
 -13  -1   9    0.42    0.12
 -13  -1   9    0.47    0.09
 -11  -1   9    8.23    0.35
 -11  -1   9    7.56    0.30
  -9  -1   9    2.24    0.14
  -9  -1   9    2.20    0.16
  -7  -1   9  110.34    2.74
  -7  -1   9  112.66    2.77
  -5  -1   9   10.51    0.32
  -5  -1   9   10.26    0.33
  -3  -1   9   22.50    0.59
  -3  -1   9   22.28    0.59
  -1  -1   9    4.01    0.15
  -1  -1   9    4.09    0.15
   1  -1   9    8.17    0.26
   3  -1   9    4.11    0.18
  -5   1  -9    3.87    0.19
  -7   1  -9   29.87    0.86
  -9   1  -9    0.78    0.12
 -11   1  -9    5.31    0.30
 -13   1  -9    0.26    0.11
 -15   1  -9    0.80    0.19
 -16   0   9   -0.03    0.07
 -16   0   9   -0.03    0.09
 -14   0   9    0.07    0.07
 -14   0   9    0.03    0.06
 -12   0   9    0.00    0.05
 -12   0   9    0.00    0.06
 -10   0   9   -0.03    0.04
 -10   0   9    0.05    0.05
  -8   0   9    0.20    0.06
  -8   0   9    0.23    0.06
  -6   0   9    0.06    0.04
  -6   0   9    0.08    0.04
  -4   0   9   -0.03    0.03
  -4   0   9    0.03    0.03
  -2   0   9    0.00    0.03
  -2   0   9    0.00    0.02
   0   0   9   -0.03    0.03
   0   0   9    0.02    0.03
  -2   0  -9   -0.02    0.01
   2   0   9   -0.01    0.03
  -4   0  -9   -0.01    0.03
  -6   0  -9   -0.01    0.04
  -8   0  -9    0.09    0.06
 -10   0  -9    0.03    0.06
  10   0   9    0.01    0.03
 -12   0  -9   -0.02    0.08
 -14   0  -9    0.00    0.09
 -16   0  -9   -0.09    0.08
 -17   1   9    1.01    0.16
 -17   1   9    1.09    0.20
 -15   1   9    0.81    0.16
 -15   1   9    0.67    0.13
 -13   1   9    0.33    0.10
 -13   1   9    0.35    0.10
 -11   1   9    7.29    0.32
 -11   1   9    7.91    0.32
  -9   1   9    2.11    0.14
  -9   1   9    1.52    0.13
  -7   1   9  110.42    2.74
  -7   1   9  111.61    2.74
  -5   1   9   10.09    0.32
  -5   1   9   10.34    0.31
  -3   1   9   23.13    0.58
  -3   1   9   22.53    0.61
  -1   1   9    3.90    0.15
  -1  -1  -9    8.15    0.23
   1   1   9    8.19    0.25
  -5  -1  -9    3.76    0.18
  -7  -1  -9   40.79    1.12
  -9  -1  -9    1.25    0.15
   9   1   9    1.17    0.09
 -11  -1  -9    6.20    0.33
  11   1   9    6.39    0.23
 -13  -1  -9    0.29    0.11
 -15  -1  -9    0.92    0.19
 -16   2   9    0.68    0.13
 -16   2   9    0.85    0.17
 -14   2   9    1.57    0.18
 -14   2   9    1.48    0.19
 -12   2   9    0.89    0.14
 -12   2   9    0.87    0.13
 -10   2   9    4.39    0.22
 -10   2   9    4.11    0.22
  -8   2   9    4.02    0.20
  -8   2   9    4.02    0.19
  -6   2   9    4.44    0.19
  -6   2   9    4.40    0.18
  -4   2   9    5.85    0.21
  -4   2   9    5.62    0.18
  -2   2   9    0.20    0.04
   0  -2  -9    0.55    0.03
   0   2   9    0.58    0.06
  -2  -2  -9   42.43    1.07
   2   2   9   42.59    1.07
  -4  -2  -9   11.80    0.37
  -6  -2  -9   11.99    0.40
  -8  -2  -9    6.19    0.29
   8   2   9    6.49    0.23
 -10  -2  -9    3.45    0.23
  10   2   9    3.44    0.16
 -12  -2  -9    0.17    0.09
 -14  -2  -9    0.08    0.10
 -16  -2  -9    0.25    0.14
 -17   3   9    0.88    0.18
 -17   3   9    0.93    0.16
 -15   3   9    2.07    0.22
 -15   3   9    1.53    0.21
 -13   3   9    5.03    0.28
 -13   3   9    5.94    0.32
 -11   3   9    4.40    0.24
 -11   3   9    4.56    0.24
  -9   3   9    2.19    0.15
  -9   3   9    1.96    0.08
  -9   3   9    2.15    0.15
  -7   3   9    3.39    0.18
  -7   3   9    3.19    0.16
  -7   3   9    3.36    0.12
  -5   3   9   11.89    0.35
  -5   3   9   11.88    0.37
   3  -3  -9   14.95    0.39
  -3   3   9   14.58    0.43
   1  -3  -9    0.12    0.02
  -1   3   9    0.09    0.03
  -1  -3  -9   21.46    0.55
   1   3   9   20.91    0.56
  -3  -3  -9   46.50    1.17
   3   3   9   45.05    1.14
  -5  -3  -9    8.71    0.31
   5   3   9    8.62    0.29
  -7  -3  -9    4.06    0.21
   7   3   9    4.19    0.18
  -9  -3  -9    1.26    0.16
   9   3   9    1.29    0.10
 -11  -3  -9    2.31    0.20
  11   3   9    2.28    0.14
 -13  -3  -9    2.61    0.28
 -15  -3  -9    0.81    0.18
 -16   4   9    0.97    0.17
 -16   4   9    0.96    0.19
 -14   4   9    0.75    0.15
 -14   4   9    1.09    0.16
 -12   4   9    2.44    0.20
 -12   4   9    2.37    0.19
 -10   4   9    2.32    0.17
 -10   4   9    2.49    0.18
  -8   4   9    8.44    0.25
  -8   4   9    8.48    0.32
  -8   4   9    8.63    0.32
  -6   4   9   10.61    0.36
  -6   4   9   10.68    0.31
   4  -4  -9   12.31    0.34
  -4   4   9   10.86    0.34
  -4   4   9   12.25    0.37
   2  -4  -9   12.15    0.34
  -2   4   9   12.53    0.37
  -2   4   9   12.95    0.37
   0  -4  -9    7.12    0.21
   0   4   9    6.76    0.22
  -2  -4  -9   39.14    0.99
   2   4   9   37.90    0.97
   2   4   9   38.57    1.01
   4   4   9    8.55    0.26
   4   4   9    8.58    0.29
  -6  -4  -9    1.49    0.12
   6   4   9    1.29    0.10
  -8  -4  -9    0.37    0.09
   8   4   9    0.31    0.06
 -10  -4  -9    1.45    0.18
  10   4   9    1.24    0.12
 -12  -4  -9    4.70    0.30
  12   4   9    4.23    0.21
 -14  -4  -9    0.40    0.14
 -15   5   9    0.64    0.14
 -15   5   9    0.80    0.16
 -13   5   9    0.14    0.09
 -13   5   9    0.34    0.11
  11  -5  -9    2.47    0.19
 -11   5   9    2.23    0.17
 -11   5   9    2.17    0.20
  -9   5   9    1.44    0.14
  -9   5   9    1.34    0.08
   7  -5  -9    4.69    0.21
  -7   5   9    4.19    0.21
  -7   5   9    4.54    0.17
   5  -5  -9   10.62    0.34
  -5   5   9   10.87    0.37
  -5   5   9   11.02    0.33
   3  -5  -9    6.21    0.21
  -3   5   9    5.72    0.22
  -3   5   9    5.93    0.22
   1  -5  -9    3.40    0.13
  -1   5   9    3.49    0.16
  -1   5   9    3.55    0.15
  -1  -5  -9   15.74    0.44
   1   5   9   15.95    0.43
   1   5   9   15.34    0.47
  -3  -5  -9    4.07    0.18
   3   5   9    4.33    0.15
   3   5   9    4.33    0.19
  -5  -5  -9   11.79    0.39
   5   5   9   11.41    0.33
   5   5   9   11.43    0.38
  -7  -5  -9    0.87    0.12
   7   5   9    0.90    0.10
  -9  -5  -9    2.19    0.18
   9   5   9    1.91    0.14
 -11  -5  -9    0.29    0.10
  11   5   9    0.27    0.07
 -13  -5  -9    0.87    0.18
 -15  -5  -9    1.57    0.24
  16  -6  -9    1.52    0.23
 -16   6   9    1.55    0.21
  14  -6  -9    0.92    0.17
 -14   6   9    0.92    0.16
  12  -6  -9    2.66    0.23
 -12   6   9    2.49    0.20
  10  -6  -9    2.01    0.18
 -10   6   9    2.11    0.17
   8  -6  -9    3.35    0.19
  -8   6   9    3.36    0.19
  -8   6   9    3.31    0.14
   6  -6  -9    3.72    0.18
  -6   6   9    3.69    0.16
  -6   6   9    3.76    0.19
   4  -6  -9    2.84    0.15
  -4   6   9    2.75    0.15
  -4   6   9    3.02    0.15
   2  -6  -9    4.27    0.17
  -2   6   9    4.10    0.18
  -2   6   9    3.86    0.17
   0  -6  -9    1.52    0.10
   0   6   9    1.61    0.09
   0   6   9    1.62    0.11
  -2  -6  -9    8.09    0.27
   2   6   9    7.55    0.24
   2   6   9    7.69    0.28
   4   6   9    3.21    0.12
   4   6   9    3.25    0.17
  -6  -6  -9    5.61    0.26
   6   6   9    5.64    0.18
   6   6   9    5.80    0.25
  -8  -6  -9    0.29    0.09
   8   6   9    0.27    0.07
 -10  -6  -9    0.73    0.14
  10   6   9    0.54    0.10
 -12  -6  -9    4.42    0.30
  12   6   9    5.07    0.25
 -14  -6  -9    0.53    0.15
  15  -7  -9    1.21    0.20
 -15   7   9    1.48    0.20
  13  -7  -9    1.20    0.18
 -13   7   9    1.40    0.19
  11  -7  -9    0.41    0.12
 -11   7   9    0.36    0.11
   9  -7  -9    0.19    0.07
  -9   7   9    0.14    0.05
  -9   7   9    0.14    0.08
   7  -7  -9    0.27    0.09
  -7   7   9    0.06    0.06
  -7   7   9    0.21    0.05
   5  -7  -9   13.07    0.43
  -5   7   9   13.73    0.44
   3  -7  -9    4.37    0.19
  -3   7   9    4.60    0.20
  -3   7   9    4.35    0.20
   1  -7  -9   10.17    0.33
  -1   7   9   10.24    0.33
  -1   7   9   10.45    0.36
  -1  -7  -9    9.65    0.32
   1   7   9    9.06    0.28
   1   7   9    9.16    0.33
  -3  -7  -9    1.06    0.11
   3   7   9    0.97    0.11
   3   7   9    1.06    0.07
  -5  -7  -9    6.49    0.28
   5   7   9    6.51    0.19
   5   7   9    6.23    0.27
  -7  -7  -9    0.37    0.09
   7   7   9    0.47    0.10
  -9  -7  -9    0.87    0.14
   9   7   9    1.17    0.14
 -11  -7  -9    0.25    0.11
  11   7   9    0.29    0.09
 -13  -7  -9    2.47    0.28
  13   7   9    2.09    0.21
  14  -8  -9    0.01    0.11
 -14   8   9    0.01    0.09
  12  -8  -9    1.94    0.21
 -12   8   9    1.75    0.20
 -10   8   9    0.58    0.12
   8  -8  -9    2.59    0.19
  -8   8   9    2.42    0.14
  -8   8   9    2.53    0.19
   6  -8  -9    0.51    0.10
  -6   8   9    0.40    0.09
  -6   8   9    0.31    0.07
   4  -8  -9    0.10    0.07
  -4   8   9    0.14    0.05
  -4   8   9    0.07    0.05
   2  -8  -9    2.03    0.13
  -2   8   9    1.80    0.13
  -2   8   9    1.86    0.12
   0  -8  -9    1.27    0.11
   0   8   9    1.20    0.09
   0   8   9    1.26    0.13
  -2  -8  -9   11.93    0.40
   2   8   9   12.14    0.42
   2   8   9   11.93    0.34
  -4  -8  -9   -0.01    0.02
   4   8   9    0.11    0.06
  -6  -8  -9    0.13    0.07
   6   8   9    0.31    0.08
  -8  -8  -9    0.27    0.10
   8   8   9    0.27    0.09
 -10  -8  -9    0.30    0.11
  10   8   9    0.23    0.09
 -12  -8  -9    0.70    0.15
  12   8   9    0.68    0.12
  13  -9  -9    1.91    0.24
 -13   9   9    1.77    0.21
  11  -9  -9    0.15    0.11
 -11   9   9    0.14    0.09
   9  -9  -9    3.37    0.24
  -9   9   9    3.91    0.24
   7  -9  -9    2.11    0.19
  -7   9   9    2.13    0.14
  -7   9   9    1.81    0.18
   5  -9  -9    2.47    0.18
  -5   9   9    2.64    0.16
  -5   9   9    2.60    0.16
   3  -9  -9    8.04    0.32
  -3   9   9    8.49    0.31
  -3   9   9    8.32    0.32
   1  -9  -9   12.26    0.41
  -1   9   9   11.90    0.42
  -1   9   9   11.79    0.38
  -1  -9  -9    8.08    0.31
   1   9   9    8.32    0.33
   1   9   9    7.81    0.26
  -3  -9  -9    6.90    0.30
   3   9   9    6.87    0.30
  -5  -9  -9    8.54    0.36
   5   9   9    8.93    0.36
  -7  -9  -9    0.66    0.13
   7   9   9    0.34    0.09
  -9  -9  -9    5.96    0.33
   9   9   9    5.76    0.29
 -11  -9  -9    0.39    0.13
  11   9   9    0.22    0.10
 -13  -9  -9    1.32    0.22
  12 -10  -9    0.04    0.12
 -12  10   9    0.21    0.11
  10 -10  -9    0.91    0.16
 -10  10   9    0.76    0.14
   8 -10  -9    0.14    0.10
  -8  10   9    0.16    0.08
  -8  10   9    0.09    0.06
   6 -10  -9    0.60    0.13
  -6  10   9    0.51    0.10
   4 -10  -9    0.80    0.13
  -4  10   9    0.94    0.12
  -4  10   9    0.93    0.12
   2 -10  -9   -0.02    0.05
  -2  10   9    0.02    0.04
  -2  10   9   -0.01    0.06
   0 -10  -9    1.51    0.15
   0  10   9    1.64    0.17
   0  10   9    1.59    0.11
  -2 -10  -9    3.96    0.22
   2  10   9    3.70    0.22
  -6 -10  -9    0.28    0.09
   6  10   9    0.16    0.08
  -8 -10  -9    1.11    0.17
   8  10   9    1.44    0.17
 -10 -10  -9    0.98    0.18
  10  10   9    1.20    0.16
 -12 -10  -9    0.59    0.16
  11 -11  -9   -0.08    0.05
 -11  11   9    0.49    0.13
   9 -11  -9    4.97    0.31
  -9  11   9    4.56    0.28
   7 -11  -9    1.28    0.17
  -7  11   9    1.41    0.17
  -7  11   9    1.34    0.15
   5 -11  -9    0.59    0.12
  -5  11   9    0.46    0.10
  -5  11   9    0.41    0.10
   3 -11  -9    0.05    0.07
  -3  11   9    0.17    0.06
  -3  11   9    0.18    0.08
   1 -11  -9    5.15    0.26
  -1  11   9    4.86    0.26
  -1  11   9    4.69    0.21
  -1 -11  -9    1.28    0.15
   1  11   9    1.10    0.15
  -3 -11  -9    2.22    0.18
   3  11   9    2.35    0.19
  -5 -11  -9   11.02    0.45
   5  11   9   11.21    0.45
  -7 -11  -9    0.81    0.15
   7  11   9    0.67    0.13
  -9 -11  -9    0.84    0.17
   9  11   9    0.68    0.14
 -11 -11  -9    0.59    0.16
 -10  12   9    1.54    0.20
   8 -12  -9    2.21    0.24
  -8  12   9    2.12    0.21
  -8  12   9    2.14    0.21
   6 -12  -9    3.77    0.26
  -6  12   9    4.24    0.25
  -6  12   9    4.14    0.24
   4 -12  -9    4.19    0.26
  -4  12   9    4.04    0.22
  -4  12   9    4.33    0.25
   2 -12  -9    0.38    0.10
  -2  12   9    0.50    0.11
   0 -12  -9    0.61    0.11
   0  12   9    0.90    0.14
  -2 -12  -9    0.15    0.08
   2  12   9    0.16    0.09
  -6 -12  -9    2.40    0.21
   6  12   9    2.03    0.21
  -8 -12  -9    0.54    0.15
   8  12   9    0.49    0.13
  -9  13   9    2.07    0.22
  -7  13   9    0.09    0.08
  -7  13   9   -0.07    0.06
   5 -13  -9    3.06    0.38
  -5  13   9    3.24    0.21
  -5  13   9    3.01    0.22
   3 -13  -9    0.13    0.09
  -3  13   9    0.12    0.08
   1 -13  -9    1.33    0.16
  -1  13   9    1.08    0.16
  -1 -13  -9    0.15    0.09
   1  13   9    0.23    0.10
  -3 -13  -9    0.19    0.08
   3  13   9    0.21    0.11
  -5 -13  -9    0.62    0.14
   5  13   9    0.63    0.14
  -7 -13  -9    0.11    0.09
   7  13   9    0.09    0.10
  -6  14   9    1.29    0.17
  -6  14   9    1.26    0.17
  -4  14   9    2.47    0.23
  -2  14   9    0.71    0.14
   0  14   9    1.50    0.19
  -2 -14  -9    0.22    0.10
   2  14   9    0.16    0.11
   4  14   9    0.69    0.15
  -6 -14  10    0.60    0.16
  -4 -14  10    0.63    0.16
  -2 -14  10    0.35    0.14
   0 -14  10    1.23    0.22
   2 -14  10    0.15    0.12
   4 -14  10    0.80    0.19
  -9 -13  10    1.25    0.21
  -7 -13  10    0.82    0.18
  -5 -13  10    1.55    0.22
  -3 -13  10    0.10    0.11
  -1 -13  10    0.36    0.13
   1 -13  10    0.50    0.15
   3 -13  10    0.33    0.14
   5 -13  10    2.44    0.31
   7 -13  10    0.31    0.20
 -10 -12  10    1.35    0.21
  -8 -12  10    1.27    0.20
  -6 -12  10    0.21    0.11
  -4 -12  10    0.30    0.11
  -2 -12  10    0.18    0.10
   0 -12  10    1.15    0.19
   2 -12  10    0.17    0.13
   4 -12  10    4.29    0.34
   6 -12  10    3.90    0.34
   8 -12  10    0.44    0.18
 -11 -11  10    0.12    0.11
  -9 -11  10    1.75    0.22
  -7 -11  10    0.24    0.10
  -5 -11  10    0.72    0.15
  -3 -11  10    1.40    0.20
  -1 -11  10    5.30    0.32
   1 -11  10    0.79    0.17
   3 -11  10    1.01    0.19
   5 -11  10    4.46    0.34
   7 -11  10    0.97    0.21
   9 -11  10    1.44    0.26
 -12 -10  10    1.25    0.20
 -10 -10  10    2.58    0.23
  -8 -10  10    3.90    0.27
  -6 -10  10    2.40    0.21
  -4 -10  10    6.88    0.35
  -2 -10  10    1.68    0.20
   0 -10  10    4.65    0.30
   2 -10  10    1.84    0.23
   4 -10  10    0.35    0.14
   6 -10  10    6.25    0.38
   8 -10  10    2.17    0.27
  10 -10  10    2.80    0.32
 -13  -9  10    0.01    0.10
 -11  -9  10   -0.07    0.06
  -9  -9  10    0.06    0.07
  -7  -9  10    4.43    0.27
  -5  -9  10    1.18    0.15
  -3  -9  10    2.93    0.22
  -1  -9  10    2.89    0.21
   1  -9  10    2.14    0.22
   3  -9  10    1.80    0.21
   5  -9  10    3.39    0.28
   7  -9  10    2.35    0.26
   9  -9  10    1.99    0.26
  11  -9  10    0.23    0.16
 -14  -8  10    1.57    0.24
 -12  -8  10    0.45    0.12
 -10  -8  10    1.40    0.18
  -8  -8  10    0.34    0.11
  -6  -8  10    1.10    0.15
  -6  -8  10    1.00    0.08
  -4  -8  10    6.24    0.21
  -4  -8  10    6.12    0.30
  -2  -8  10    0.59    0.11
   0  -8  10   12.97    0.49
   2  -8  10    0.64    0.13
   4  -8  10    0.65    0.13
   6  -8  10    1.87    0.22
   8  -8  10    1.53    0.21
  10  -8  10    5.64    0.37
  12  -8  10    0.04    0.14
 -15  -7  10    0.58    0.16
 -13  -7  10    0.32    0.12
 -11  -7  10    1.35    0.18
  -9  -7  10    0.18    0.09
  -7  -7  10    3.97    0.15
  -7  -7  10    4.13    0.24
  -5  -7  10    2.09    0.10
  -5  -7  10    2.07    0.16
  -3  -7  10    4.51    0.24
  -3  -7  10    4.53    0.17
  -1  -7  10    4.93    0.25
   1  -7  10    3.14    0.21
   3  -7  10   16.54    0.58
   5  -7  10    1.05    0.16
   7  -7  10    2.12    0.22
   9  -7  10    0.44    0.13
  11  -7  10    1.18    0.19
  13  -7  10    0.24    0.13
 -16  -6  10    0.63    0.17
 -14  -6  10    2.10    0.25
 -12  -6  10    0.65    0.14
 -10  -6  10    3.06    0.22
  -8  -6  10    1.07    0.14
  -8  -6  10    1.13    0.08
  -6  -6  10    3.55    0.21
  -6  -6  10    3.48    0.14
  -4  -6  10   17.56    0.48
  -4  -6  10   17.25    0.56
  -2  -6  10    3.53    0.20
   0  -6  10   10.87    0.40
   2  -6  10   12.69    0.46
   4  -6  10    3.73    0.23
   6  -6  10    1.07    0.15
   8  -6  10    1.46    0.19
  10  -6  10    0.39    0.13
  12  -6  10    0.93    0.19
  14  -6  10    2.41    0.29
 -15  -5  10    1.99    0.25
 -13  -5  10    0.40    0.11
 -11  -5  10    3.21    0.16
 -11  -5  10    3.45    0.23
  -9  -5  10    1.99    0.11
  -9  -5  10    2.14    0.17
  -7  -5  10   11.13    0.33
  -7  -5  10   11.01    0.41
  -5  -5  10    7.90    0.25
  -5  -5  10    7.81    0.31
  -3  -5  10   13.99    0.46
  -3  -5  10   14.36    0.40
  -1  -5  10    3.18    0.18
   1  -5  10   10.05    0.37
   3  -5  10   33.59    0.96
   5  -5  10    1.58    0.16
   7  -5  10    0.40    0.10
   9  -5  10    3.06    0.24
  11  -5  10    0.95    0.16
  13  -5  10    2.20    0.25
  15  -5  10    1.22    0.24
 -16  -4  10    0.72    0.17
 -14  -4  10    0.81    0.16
 -12  -4  10    2.59    0.15
 -12  -4  10    2.66    0.21
 -10  -4  10    2.22    0.18
 -10  -4  10    2.17    0.13
  -8  -4  10    2.27    0.12
  -8  -4  10    2.28    0.16
  -6  -4  10   11.44    0.33
  -6  -4  10   11.01    0.39
  -4  -4  10    7.30    0.28
  -4  -4  10    7.31    0.23
   0  -4  10    6.72    0.27
   2  -4  10   32.16    0.90
   4  -4  10   10.44    0.38
   6  -4  10    0.82    0.12
   8  -4  10    0.21    0.09
  10  -4  10    0.62    0.13
  12  -4  10    5.74    0.35
  14  -4  10    1.06    0.20
 -17  -3  10    0.15    0.12
 -15  -3  10    1.05    0.18
 -15  -3  10    0.99    0.13
 -13  -3  10    2.83    0.17
 -13  -3  10    2.77    0.23
 -11  -3  10    3.67    0.18
 -11  -3  10    3.41    0.22
  -9  -3  10    5.44    0.21
  -9  -3  10    5.23    0.26
  -7  -3  10    5.87    0.21
  -7  -3  10    5.98    0.25
  -5  -3  10    0.41    0.07
  -5  -3  10    0.47    0.06
  -1  -3  10    3.28    0.16
   1  -3  10    2.76    0.15
   3  -3  10  143.01    3.52
   5  -3  10    1.87    0.15
   7  -3  10    1.90    0.16
   9  -3  10    0.02    0.08
 -13   3 -10    2.84    0.29
 -15   3 -10    0.30    0.15
  15  -3  10    0.03    0.12
 -16  -2  10    1.80    0.19
 -16  -2  10    1.78    0.24
 -14  -2  10    0.94    0.13
 -14  -2  10    0.68    0.14
 -12  -2  10    7.27    0.29
 -10  -2  10    4.34    0.24
  -6  -2  10   41.03    1.08
  -4  -2  10   11.43    0.33
  -4  -2  10   10.96    0.35
  -2  -2  10   33.48    0.86
  -2  -2  10   33.78    0.87
   0  -2  10    3.74    0.16
   2  -2  10   18.42    0.53
   4  -2  10   16.36    0.50
  -6   2 -10    6.85    0.29
 -10   2 -10    0.29    0.10
 -12   2 -10    3.32    0.25
 -14   2 -10    0.27    0.14
 -16   2 -10    0.89    0.21
  16  -2  10   -0.11    0.12
 -17  -1  10    0.33    0.10
 -17  -1  10    0.32    0.13
 -15  -1  10    0.03    0.07
 -15  -1  10    0.07    0.09
 -13  -1  10    4.38    0.27
 -13  -1  10    4.23    0.23
 -11  -1  10    4.81    0.25
 -11  -1  10    4.79    0.23
  -9  -1  10    1.20    0.11
  -9  -1  10    1.21    0.14
  -7  -1  10    5.59    0.22
  -7  -1  10    5.69    0.23
  -5  -1  10    6.23    0.22
  -5  -1  10    6.15    0.22
  -3  -1  10    4.48    0.16
  -3  -1  10    4.37    0.16
  -1  -1  10    0.37    0.05
  -1  -1  10    0.41    0.05
   1  -1  10    4.57    0.17
   3  -1  10   15.50    0.46
  -7   1 -10    4.18    0.22
  -9   1 -10    1.96    0.16
 -11   1 -10    0.05    0.08
 -13   1 -10    0.10    0.09
 -15   1 -10    0.11    0.12
 -16   0  10    0.52    0.16
 -16   0  10    0.51    0.13
 -14   0  10    0.16    0.08
 -14   0  10    0.23    0.10
 -12   0  10    0.91    0.14
 -12   0  10    0.60    0.10
 -10   0  10    2.09    0.15
 -10   0  10    2.08    0.15
  -8   0  10   20.16    0.57
  -8   0  10   18.50    0.57
  -6   0  10   35.28    0.93
  -6   0  10   35.19    0.93
  -4   0  10    2.17    0.11
  -4   0  10    2.13    0.10
  -2   0  10   29.46    0.73
  -2   0  10   28.96    0.76
   0   0  10   27.37    0.73
   0   0  10   28.75    0.71
  -4   0 -10    1.91    0.12
  -6   0 -10    9.63    0.35
  -8   0 -10   26.21    0.79
 -10   0 -10    0.61    0.12
  10   0  10    0.59    0.07
 -12   0 -10    3.38    0.26
 -14   0 -10    0.00    0.10
 -16   0 -10    1.45    0.24
 -17   1  10    0.49    0.13
 -17   1  10    0.61    0.16
 -15   1  10    0.05    0.09
 -15   1  10    0.01    0.07
 -13   1  10    4.32    0.24
 -13   1  10    4.45    0.27
 -11   1  10    5.04    0.26
 -11   1  10    4.90    0.24
  -9   1  10    1.21    0.13
  -9   1  10    1.23    0.13
  -7   1  10    5.41    0.23
  -7   1  10    5.92    0.23
  -5   1  10    6.25    0.21
  -5   1  10    6.07    0.22
  -3   1  10    4.30    0.17
  -3   1  10    4.41    0.14
  -1   1  10    0.48    0.03
  -1   1  10    0.34    0.05
  -1  -1 -10    4.52    0.15
   1   1  10    4.49    0.16
  -3  -1 -10   -0.01    0.01
  -5  -1 -10    3.89    0.19
  -7  -1 -10    4.47    0.23
  -9  -1 -10    2.35    0.18
   9   1  10    2.05    0.12
 -11  -1 -10    0.10    0.08
  11   1  10    0.06    0.04
 -13  -1 -10    0.02    0.09
 -15  -1 -10    0.07    0.11
 -16   2  10    2.16    0.23
 -16   2  10    1.75    0.23
 -14   2  10    0.77    0.13
 -14   2  10    0.87    0.15
 -12   2  10   12.23    0.47
 -12   2  10   11.96    0.45
 -10   2  10    3.65    0.20
 -10   2  10    3.90    0.21
  -8   2  10    2.96    0.16
  -8   2  10    3.08    0.17
  -6   2  10   41.77    1.10
  -6   2  10   42.27    1.08
  -4   2  10   11.30    0.35
  -4   2  10   11.62    0.32
  -2   2  10   33.91    0.88
   0  -2 -10    3.69    0.11
   0   2  10    3.55    0.14
  -2  -2 -10   18.93    0.50
   2   2  10   18.62    0.51
  -4  -2 -10   13.03    0.40
  -6  -2 -10    7.56    0.29
  -8  -2 -10    2.74    0.18
   8   2  10    2.98    0.15
 -10  -2 -10    0.32    0.10
  10   2  10    0.15    0.05
 -12  -2 -10    3.41    0.26
 -14  -2 -10    0.21    0.10
 -16  -2 -10    0.69    0.19
 -17   3  10    0.23    0.11
 -17   3  10    0.20    0.13
 -15   3  10    0.97    0.17
 -15   3  10    0.99    0.15
 -13   3  10    2.84    0.22
 -13   3  10    2.55    0.20
 -11   3  10    3.33    0.20
 -11   3  10    3.18    0.20
  -9   3  10    6.10    0.25
  -9   3  10    5.22    0.25
  -9   3  10    5.41    0.17
  -7   3  10    6.92    0.27
  -7   3  10    6.10    0.24
  -5   3  10    0.50    0.07
  -5   3  10    0.44    0.05
   3  -3 -10    3.24    0.11
   1  -3 -10    2.95    0.09
  -1   3  10    3.23    0.13
  -1  -3 -10    2.68    0.11
   1   3  10    2.60    0.11
  -3  -3 -10  134.78    3.31
   3   3  10  137.10    3.29
  -5  -3 -10    1.43    0.11
   5   3  10    1.60    0.10
  -7  -3 -10    2.06    0.15
   7   3  10    2.06    0.12
  -9  -3 -10    0.07    0.07
   9   3  10    0.04    0.04
 -11  -3 -10    3.78    0.25
  11   3  10    3.47    0.18
 -13  -3 -10    2.57    0.23
 -15  -3 -10    0.37    0.14
 -16   4  10    1.24    0.20
 -16   4  10    0.93    0.18
 -14   4  10    1.42    0.19
 -14   4  10    0.98    0.16
 -12   4  10    2.64    0.19
 -12   4  10    2.66    0.20
 -10   4  10    2.03    0.16
 -10   4  10    1.99    0.16
  -8   4  10    2.15    0.14
  -8   4  10    2.40    0.16
  -8   4  10    2.30    0.10
  -6   4  10   11.95    0.40
  -6   4  10   12.24    0.35
   4  -4 -10    7.07    0.22
  -4   4  10    7.33    0.26
   2  -4 -10    1.84    0.08
  -2   4  10    2.05    0.11
   0  -4 -10    6.64    0.20
   0   4  10    6.65    0.22
   0   4  10    6.81    0.24
  -2  -4 -10   32.10    0.82
   2   4  10   31.38    0.84
   2   4  10   31.42    0.81
  -4  -4 -10   10.33    0.35
   4   4  10   10.59    0.35
   4   4  10   10.69    0.31
  -6  -4 -10    0.77    0.11
   6   4  10    0.65    0.08
  -8  -4 -10    0.29    0.09
   8   4  10    0.23    0.06
 -10  -4 -10    0.76    0.14
  10   4  10    0.60    0.09
 -12  -4 -10    5.23    0.32
  12   4  10    5.58    0.24
 -14  -4 -10    0.84    0.18
 -15   5  10    2.61    0.25
 -15   5  10    2.67    0.27
 -13   5  10    0.54    0.13
 -13   5  10    0.40    0.11
  11  -5 -10    3.27    0.22
 -11   5  10    3.47    0.22
 -11   5  10    3.18    0.21
   9  -5 -10    1.89    0.14
  -9   5  10    2.32    0.17
  -9   5  10    2.00    0.10
   7  -5 -10   11.29    0.37
  -7   5  10   11.63    0.34
  -7   5  10   10.83    0.39
   5  -5 -10    8.37    0.27
  -5   5  10    7.92    0.30
  -5   5  10    8.24    0.27
   3  -5 -10   14.43    0.40
  -3   5  10   14.35    0.43
  -3   5  10   14.94    0.44
   1  -5 -10    3.31    0.13
  -1   5  10    3.35    0.15
  -1   5  10    3.39    0.16
  -1  -5 -10   10.09    0.31
   1   5  10   10.12    0.33
   1   5  10   10.13    0.30
  -3  -5 -10   32.45    0.85
   3   5  10   31.11    0.81
   3   5  10   31.14    0.86
  -5  -5 -10    1.55    0.12
   5   5  10    1.87    0.10
   5   5  10    1.99    0.13
  -7  -5 -10    0.54    0.10
   7   5  10    0.49    0.08
  -9  -5 -10    3.74    0.23
   9   5  10    3.43    0.19
 -11  -5 -10    1.13    0.17
  11   5  10    1.03    0.12
 -13  -5 -10    2.22    0.26
 -15  -5 -10    0.93    0.20
  16  -6 -10    0.90    0.19
 -16   6  10    1.01    0.18
  14  -6 -10    1.86    0.22
 -14   6  10    2.17    0.23
  12  -6 -10    0.81    0.15
 -12   6  10    0.74    0.14
   8  -6 -10    1.13    0.13
  -8   6  10    1.27    0.09
  -8   6  10    1.26    0.14
   6  -6 -10    3.48    0.17
  -6   6  10    3.67    0.16
  -6   6  10    3.51    0.19
   4  -6 -10   18.13    0.52
  -4   6  10   18.70    0.55
  -4   6  10   18.22    0.53
   2  -6 -10    3.43    0.14
  -2   6  10    3.45    0.17
  -2   6  10    3.51    0.16
   0  -6 -10   11.53    0.34
   0   6  10   11.27    0.37
   0   6  10   11.42    0.34
  -2  -6 -10   11.87    0.37
   2   6  10   11.74    0.34
   2   6  10   11.77    0.39
  -4  -6 -10    3.55    0.18
   4   6  10    3.59    0.14
   4   6  10    3.83    0.19
  -6  -6 -10    1.33    0.14
   6   6  10    1.18    0.12
   6   6  10    1.16    0.07
  -8  -6 -10    1.78    0.19
   8   6  10    1.88    0.14
 -10  -6 -10    0.30    0.10
  10   6  10    0.29    0.08
 -12  -6 -10    1.03    0.18
  12   6  10    0.93    0.12
 -14  -6 -10    2.07    0.26
  15  -7 -10    0.79    0.17
 -15   7  10    0.51    0.14
  13  -7 -10    0.40    0.13
 -13   7  10    0.47    0.12
  11  -7 -10    0.72    0.13
 -11   7  10    1.46    0.17
   9  -7 -10    0.22    0.09
  -9   7  10    0.20    0.08
  -9   7  10    0.30    0.06
   7  -7 -10    4.23    0.21
  -7   7  10    4.04    0.22
  -7   7  10    3.96    0.18
   5  -7 -10    2.14    0.14
  -5   7  10    2.14    0.15
   3  -7 -10    4.47    0.19
  -3   7  10    4.70    0.21
  -3   7  10    4.62    0.20
   1  -7 -10    5.27    0.21
  -1   7  10    5.43    0.23
  -1   7  10    5.16    0.20
  -1  -7 -10    3.03    0.15
   1   7  10    3.22    0.14
   1   7  10    2.97    0.17
  -3  -7 -10   15.42    0.48
   3   7  10   15.21    0.42
   3   7  10   15.51    0.50
   5   7  10    1.27    0.07
   5   7  10    1.09    0.12
  -7  -7 -10    2.69    0.19
   7   7  10    2.03    0.16
  -9  -7 -10    0.39    0.10
   9   7  10    0.59    0.10
 -11  -7 -10    1.64    0.21
  11   7  10    1.67    0.17
 -13  -7 -10    0.39    0.14
  13   7  10    0.25    0.12
  14  -8 -10    1.58    0.22
 -14   8  10    1.74    0.21
  12  -8 -10    0.46    0.13
 -12   8  10    0.21    0.10
  10  -8 -10    1.40    0.18
 -10   8  10    0.98    0.14
   8  -8 -10    0.26    0.10
  -8   8  10    0.36    0.07
  -8   8  10    0.32    0.09
   6  -8 -10    1.41    0.14
  -6   8  10    1.18    0.11
  -6   8  10    0.95    0.12
   4  -8 -10    6.43    0.26
  -4   8  10    6.81    0.27
  -4   8  10    6.48    0.27
   2  -8 -10    0.73    0.09
  -2   8  10    0.71    0.09
  -2   8  10    0.80    0.09
   0  -8 -10   12.76    0.41
   0   8  10   13.04    0.39
   0   8  10   12.99    0.44
  -2  -8 -10    0.74    0.09
   2   8  10    0.72    0.07
   2   8  10    0.60    0.09
  -4  -8 -10    0.45    0.09
   4   8  10    0.54    0.10
  -6  -8 -10    1.95    0.16
   6   8  10    1.92    0.17
  -8  -8 -10    2.07    0.21
   8   8  10    1.97    0.18
 -10  -8 -10    6.40    0.35
  10   8  10    5.62    0.29
 -12  -8 -10    0.00    0.08
  12   8  10    0.05    0.08
  13  -9 -10    0.04    0.12
 -13   9  10    0.06    0.08
  11  -9 -10    0.11    0.08
 -11   9  10    0.24    0.10
   9  -9 -10    0.04    0.09
  -9   9  10    0.12    0.08
   7  -9 -10    4.27    0.24
  -7   9  10    4.76    0.22
  -7   9  10    4.89    0.25
   5  -9 -10    1.66    0.16
  -5   9  10    1.53    0.14
  -5   9  10    1.58    0.15
   3  -9 -10    3.18    0.18
  -3   9  10    2.93    0.18
  -3   9  10    3.00    0.17
   1  -9 -10    3.07    0.17
  -1   9  10    2.99    0.15
  -1   9  10    2.91    0.18
  -1  -9 -10    2.23    0.15
   1   9  10    2.11    0.11
   1   9  10    2.20    0.16
  -3  -9 -10    2.33    0.16
   3   9  10    2.22    0.17
  -7  -9 -10    2.48    0.20
   7   9  10    2.16    0.19
  -9  -9 -10    1.89    0.22
   9   9  10    2.17    0.20
 -11  -9 -10    0.52    0.15
  11   9  10    0.48    0.12
 -12  10  10    1.15    0.18
  10 -10 -10    3.14    0.26
 -10  10  10    3.38    0.25
   8 -10 -10    3.94    0.25
  -8  10  10    3.69    0.23
  -8  10  10    3.52    0.20
   6 -10 -10    2.46    0.20
  -6  10  10    1.92    0.17
  -6  10  10    2.80    0.19
   4 -10 -10    7.26    0.31
  -4  10  10    7.78    0.32
  -4  10  10    7.22    0.30
   2 -10 -10    1.73    0.15
  -2  10  10    1.74    0.17
  -2  10  10    1.51    0.12
   0 -10 -10    5.01    0.24
   0  10  10    4.65    0.25
   0  10  10    4.88    0.20
  -2 -10 -10    2.03    0.16
   2  10  10    1.77    0.17
  -4 -10 -10    0.45    0.10
   4  10  10    0.34    0.09
  -6 -10 -10    6.30    0.32
   6  10  10    6.26    0.31
  -8 -10 -10    2.44    0.22
   8  10  10    2.40    0.21
 -10 -10 -10    2.80    0.29
  10  10  10    3.01    0.23
  11 -11 -10   -0.01    0.12
 -11  11  10    0.00    0.09
   9 -11 -10    1.78    0.22
  -9  11  10    1.79    0.21
   7 -11 -10    0.27    0.11
  -7  11  10    0.30    0.10
  -7  11  10    0.34    0.09
   5 -11 -10    0.66    0.13
  -5  11  10    0.72    0.12
  -5  11  10    0.77    0.12
   3 -11 -10    1.92    0.16
  -3  11  10    1.53    0.15
  -3  11  10    1.47    0.17
   1 -11 -10    5.32    0.26
  -1  11  10    5.33    0.27
  -1  11  10    5.29    0.23
  -1 -11 -10    0.99    0.13
   1  11  10    0.92    0.13
  -3 -11 -10    1.34    0.16
   3  11  10    0.94    0.14
  -7 -11 -10    0.95    0.16
   7  11  10    1.11    0.16
  -9 -11 -10    0.96    0.17
   9  11  10    0.98    0.15
 -10  12  10    1.92    0.22
  -8  12  10    1.73    0.20
  -8  12  10    1.63    0.18
   6 -12 -10    0.35    0.12
  -6  12  10    0.19    0.09
  -6  12  10    0.25    0.09
   4 -12 -10    0.14    0.08
  -4  12  10    0.12    0.08
  -4  12  10    0.16    0.08
   2 -12 -10    0.21    0.09
  -2  12  10    0.26    0.09
   0 -12 -10    1.26    0.15
   0  12  10    1.09    0.15
  -2 -12 -10    0.16    0.08
   2  12  10    0.13    0.09
  -4 -12 -10    3.97    0.25
   4  12  10    3.65    0.25
  -6 -12 -10    4.08    0.27
   6  12  10    4.80    0.29
  -8 -12 -10    0.39    0.13
   8  12  10    0.52    0.13
  -9  13  10    1.63    0.21
  -7  13  10    0.64    0.13
  -7  13  10    0.46    0.11
  -5  13  10    1.86    0.20
  -5  13  10    1.57    0.17
  -3  13  10    0.04    0.08
   1 -13 -10    0.35    0.10
  -1  13  10    0.27    0.11
  -1 -13 -10    0.32    0.10
   1  13  10    0.32    0.11
  -3 -13 -10    0.16    0.09
   3  13  10   -0.01    0.08
   5  13  10    1.64    0.20
  -7 -13 -10    0.09    0.09
   7  13  10    0.11    0.11
  -6  14  10    0.34    0.11
  -6  14  10    0.54    0.13
  -4  14  10    0.65    0.14
  -2  14  10    0.28    0.11
   0  14  10    1.26    0.18
   2  14  10    0.24    0.11
   4  14  10    1.11    0.18
  -6 -14  11    0.44    0.16
  -4 -14  11    3.26    0.29
  -2 -14  11    0.16    0.11
   0 -14  11    1.23    0.21
   2 -14  11    0.68    0.17
   4 -14  11    0.22    0.13
  -9 -13  11    2.39    0.28
  -7 -13  11    0.25    0.13
  -5 -13  11    1.34    0.20
  -3 -13  11    0.32    0.13
  -1 -13  11    1.42    0.21
   1 -13  11    0.72    0.16
   3 -13  11   -0.04    0.12
   5 -13  11    1.75    0.27
   7 -13  11    0.57    0.22
 -10 -12  11    0.66    0.15
  -8 -12  11    0.85    0.18
  -6 -12  11    0.82    0.17
  -4 -12  11    3.80    0.28
  -2 -12  11    0.64    0.15
   0 -12  11    0.50    0.14
   2 -12  11    0.73    0.18
   4 -12  11    0.69    0.17
   6 -12  11    3.13    0.33
   8 -12  11    0.85    0.23
 -11 -11  11    0.13    0.11
  -9 -11  11    6.22    0.36
  -7 -11  11    1.60    0.21
  -5 -11  11    0.14    0.10
  -3 -11  11    0.45    0.13
  -1 -11  11    3.72    0.27
   1 -11  11    1.29    0.19
   3 -11  11    1.35    0.21
   5 -11  11   16.07    0.67
   7 -11  11    2.29    0.30
   9 -11  11    3.34    0.35
 -12 -10  11    0.27    0.13
 -10 -10  11    0.94    0.18
  -8 -10  11    0.71    0.15
  -6 -10  11    4.54    0.28
  -4 -10  11    0.73    0.14
  -2 -10  11    0.47    0.13
   0 -10  11    4.44    0.29
   2 -10  11   11.19    0.49
   4 -10  11    2.34    0.26
   6 -10  11    0.68    0.18
   8 -10  11    1.33    0.22
  10 -10  11    0.03    0.15
 -13  -9  11    2.09    0.26
 -11  -9  11    0.04    0.08
  -9  -9  11    3.62    0.26
  -7  -9  11    2.10    0.22
  -5  -9  11    2.35    0.23
  -3  -9  11    3.83    0.25
  -1  -9  11    6.83    0.34
   1  -9  11    8.76    0.41
   3  -9  11    0.99    0.17
   5  -9  11    0.71    0.17
   7  -9  11    0.13    0.12
   9  -9  11    1.22    0.22
  11  -9  11    1.97    0.27
 -14  -8  11    0.06    0.10
 -12  -8  11    0.69    0.15
 -10  -8  11    0.04    0.07
  -8  -8  11    0.96    0.15
  -6  -8  11    3.38    0.22
  -6  -8  11    3.26    0.14
  -4  -8  11    1.35    0.09
  -4  -8  11    1.31    0.16
  -2  -8  11    4.41    0.25
   0  -8  11    1.36    0.16
   2  -8  11    8.85    0.39
   4  -8  11    1.02    0.17
   6  -8  11    3.64    0.28
   8  -8  11    2.29    0.25
  10  -8  11    0.57    0.17
  12  -8  11    1.17    0.22
 -15  -7  11    0.70    0.17
 -13  -7  11    1.48    0.21
 -11  -7  11    0.76    0.14
  -9  -7  11    1.07    0.15
  -7  -7  11    0.75    0.07
  -7  -7  11    0.63    0.12
  -5  -7  11   11.31    0.33
  -5  -7  11   10.47    0.41
  -3  -7  11    8.08    0.26
  -3  -7  11    7.64    0.33
  -1  -7  11    1.54    0.17
   1  -7  11    7.12    0.32
   3  -7  11    0.54    0.12
   5  -7  11    1.93    0.21
   7  -7  11    1.58    0.21
   9  -7  11    5.06    0.32
  11  -7  11    1.12    0.20
  13  -7  11    0.17    0.13
 -16  -6  11    1.87    0.25
 -14  -6  11    0.65    0.15
 -12  -6  11    1.19    0.17
 -10  -6  11    1.95    0.16
 -10  -6  11    2.22    0.22
  -8  -6  11    0.59    0.11
  -8  -6  11    0.57    0.07
  -6  -6  11    1.98    0.16
  -6  -6  11    1.72    0.10
  -4  -6  11    2.89    0.13
  -4  -6  11    2.76    0.18
  -2  -6  11   11.69    0.42
   0  -6  11    1.92    0.16
   2  -6  11    8.80    0.36
   4  -6  11   16.06    0.57
   6  -6  11    0.70    0.13
   8  -6  11    0.20    0.11
  10  -6  11    0.32    0.14
  12  -6  11    4.07    0.32
  14  -6  11    0.24    0.14
 -15  -5  11    2.27    0.27
 -13  -5  11    0.42    0.12
 -11  -5  11    0.44    0.11
 -11  -5  11    0.51    0.08
  -9  -5  11    1.03    0.14
  -9  -5  11    0.96    0.09
  -7  -5  11    8.98    0.35
  -7  -5  11    8.74    0.28
  -5  -5  11    8.06    0.31
  -5  -5  11    7.76    0.25
  -3  -5  11    7.39    0.29
  -3  -5  11    7.01    0.24
  -1  -5  11   20.51    0.62
   1  -5  11    3.03    0.19
   3  -5  11    6.55    0.30
   5  -5  11    3.37    0.21
   7  -5  11    0.27    0.10
   9  -5  11    0.01    0.08
  11  -5  11    0.48    0.14
  13  -5  11    0.70    0.18
  15  -5  11    0.84    0.20
 -16  -4  11    1.26    0.21
 -14  -4  11    0.77    0.16
 -12  -4  11    1.03    0.16
 -12  -4  11    1.07    0.12
 -10  -4  11    1.01    0.10
 -10  -4  11    1.30    0.16
  -8  -4  11    5.35    0.26
  -8  -4  11    5.54    0.21
  -6  -4  11   10.45    0.32
  -6  -4  11   10.21    0.37
  -4  -4  11    6.52    0.22
  -4  -4  11    6.54    0.26
  -2  -4  11    4.96    0.18
   0  -4  11   17.45    0.53
   2  -4  11   24.46    0.71
   4  -4  11   10.93    0.40
   6  -4  11    7.72    0.33
   8  -4  11    1.75    0.18
  10  -4  11    0.96    0.16
  12  -4  11    1.86    0.23
  14  -4  11   -0.03    0.11
 -17  -3  11    0.05    0.11
 -15  -3  11    1.98    0.18
 -15  -3  11    1.79    0.22
 -13  -3  11    2.91    0.18
 -13  -3  11    2.95    0.23
 -11  -3  11    5.52    0.29
 -11  -3  11    5.54    0.23
  -9  -3  11    6.00    0.23
  -9  -3  11    5.83    0.27
  -7  -3  11    3.14    0.18
  -7  -3  11    3.22    0.15
  -5  -3  11    8.49    0.27
  -5  -3  11    8.80    0.31
  -3  -3  11    0.40    0.07
  -3  -3  11    0.29    0.05
  -1  -3  11   15.10    0.46
   1  -3  11    1.36    0.12
   3  -3  11  125.40    3.11
   5  -3  11    6.29    0.28
   7  -3  11   10.78    0.41
   9  -3  11    0.53    0.12
  11  -3  11    1.32    0.20
 -13   3 -11    2.24    0.26
  15  -3  11    0.21    0.12
 -16  -2  11    0.56    0.15
 -16  -2  11    0.64    0.12
 -14  -2  11    0.21    0.10
 -14  -2  11    0.05    0.04
 -12  -2  11    1.78    0.19
  -6  -2  11   13.27    0.39
  -6  -2  11   13.07    0.42
  -4  -2  11    2.09    0.11
  -4  -2  11    2.04    0.12
  -2  -2  11   22.30    0.60
  -2  -2  11   22.41    0.61
   0  -2  11    2.59    0.14
   2  -2  11   15.57    0.47
   4  -2  11   26.77    0.75
   6  -2  11    4.25    0.23
 -10   2 -11    0.23    0.09
  10  -2  11   -0.05    0.08
 -12   2 -11    0.93    0.17
 -14   2 -11    0.32    0.15
  14  -2  11    0.10    0.12
 -17  -1  11    1.15    0.20
 -17  -1  11    1.19    0.17
 -15  -1  11    0.74    0.15
 -15  -1  11    0.72    0.13
 -13  -1  11    2.30    0.17
 -13  -1  11    1.90    0.20
 -11  -1  11    5.03    0.23
 -11  -1  11    4.73    0.25
  -9  -1  11    0.95    0.12
  -9  -1  11    0.88    0.10
  -7  -1  11    7.67    0.27
  -7  -1  11    7.21    0.28
  -5  -1  11    8.37    0.28
  -5  -1  11    8.58    0.28
  -3  -1  11    4.37    0.16
  -3  -1  11    4.52    0.17
  -1  -1  11    8.03    0.25
  -1  -1  11    7.68    0.24
   1  -1  11    0.13    0.04
   3  -1  11   15.51    0.46
  -5   1 -11    1.00    0.11
  -7   1 -11   12.54    0.45
  -9   1 -11    5.07    0.27
 -11   1 -11    5.40    0.31
 -13   1 -11    1.17    0.19
 -15   1 -11    0.09    0.12
 -16   0  11    0.05    0.08
 -16   0  11   -0.05    0.08
 -14   0  11    0.12    0.08
 -14   0  11    0.00    0.07
 -12   0  11    0.10    0.07
 -12   0  11    0.00    0.06
 -10   0  11   -0.01    0.05
 -10   0  11   -0.01    0.04
  -8   0  11    0.11    0.05
  -8   0  11    0.06    0.05
  -6   0  11    0.01    0.04
  -6   0  11    0.13    0.05
  -4   0  11    0.02    0.03
  -4   0  11    0.03    0.03
  -2   0  11   -0.01    0.02
  -2   0  11   -0.04    0.03
   0   0  11    0.02    0.03
   0   0  11    0.01    0.03
   2   0  11    0.06    0.04
  -4   0 -11    0.01    0.04
  -6   0 -11    0.04    0.05
  -8   0 -11    0.06    0.06
 -10   0 -11    0.02    0.07
 -12   0 -11    0.04    0.08
 -14   0 -11    0.01    0.09
 -16   0 -11    0.03    0.12
 -17   1  11    1.07    0.17
 -17   1  11    1.39    0.22
 -15   1  11    0.55    0.12
 -15   1  11    0.60    0.14
 -13   1  11    2.06    0.19
 -13   1  11    2.30    0.20
 -11   1  11    5.17    0.25
 -11   1  11    4.89    0.25
  -9   1  11    1.12    0.12
  -9   1  11    0.92    0.11
  -7   1  11    7.83    0.27
  -7   1  11    7.62    0.28
  -5   1  11    8.82    0.27
  -5   1  11    8.55    0.29
  -3   1  11    4.59    0.14
  -3   1  11    4.40    0.17
  -1   1  11    8.09    0.26
  -1   1  11    7.92    0.21
  -1  -1 -11    0.16    0.03
   1   1  11    0.13    0.04
   1   1  11    0.07    0.03
  -3  -1 -11    9.82    0.31
  -5  -1 -11    0.87    0.10
  -7  -1 -11   13.45    0.46
  -9  -1 -11    4.96    0.26
 -11  -1 -11    3.97    0.26
  11   1  11    4.50    0.19
 -13  -1 -11    1.23    0.19
 -15  -1 -11    0.04    0.11
 -16   2  11    0.23    0.12
 -16   2  11    0.86    0.15
 -14   2  11    0.10    0.08
 -14   2  11   -0.01    0.07
 -12   2  11    2.00    0.19
 -12   2  11    1.63    0.17
 -10   2  11    1.92    0.15
 -10   2  11    1.92    0.15
  -8   2  11    3.86    0.19
  -8   2  11    3.84    0.18
  -6   2  11   13.54    0.42
  -6   2  11   13.19    0.39
  -4   2  11    2.04    0.08
  -4   2  11    1.99    0.12
  -2   2  11   21.33    0.58
   0  -2 -11    2.77    0.09
   0   2  11    2.78    0.12
  -2  -2 -11   18.42    0.50
   2   2  11   18.14    0.50
  -4  -2 -11    0.01    0.01
  -6  -2 -11    4.53    0.22
  -8  -2 -11    3.57    0.21
   8   2  11    3.54    0.16
 -10  -2 -11    0.29    0.09
  10   2  11    0.36    0.06
 -12  -2 -11    0.91    0.16
 -14  -2 -11    0.40    0.14
 -17   3  11    0.18    0.13
 -17   3  11    0.20    0.10
 -15   3  11    2.02    0.24
 -15   3  11    2.07    0.21
 -13   3  11    2.90    0.21
 -13   3  11    2.68    0.21
 -11   3  11    6.00    0.28
 -11   3  11    5.61    0.27
  -9   3  11    6.34    0.27
  -9   3  11    5.62    0.25
  -9   3  11    5.42    0.18
  -7   3  11    3.49    0.18
  -7   3  11    3.15    0.15
  -5   3  11    9.01    0.27
  -5   3  11    8.61    0.30
   3  -3 -11    0.27    0.03
  -3   3  11    0.36    0.06
  -1   3  11   14.73    0.42
  -1  -3 -11    1.30    0.07
   1   3  11    1.41    0.08
  -3  -3 -11  125.31    3.01
   3   3  11  121.46    3.00
  -5  -3 -11    6.90    0.27
  -7  -3 -11   12.23    0.43
   7   3  11   11.65    0.38
  -9  -3 -11    0.91    0.13
   9   3  11    0.70    0.09
 -11  -3 -11    1.75    0.20
  11   3  11    1.89    0.13
 -13  -3 -11    2.98    0.25
 -15  -3 -11    0.24    0.13
 -16   4  11    1.61    0.22
 -16   4  11    1.48    0.20
 -14   4  11    0.65    0.14
 -14   4  11    0.63    0.13
 -12   4  11    1.07    0.15
 -12   4  11    1.16    0.15
 -10   4  11    0.98    0.12
 -10   4  11    1.01    0.13
  -8   4  11    5.62    0.23
  -8   4  11    5.54    0.19
  -8   4  11    5.57    0.25
  -6   4  11   11.01    0.33
  -6   4  11   10.51    0.37
   4  -4 -11    6.17    0.20
  -4   4  11    6.27    0.24
   2  -4 -11    7.83    0.21
  -2   4  11    7.55    0.26
   0  -4 -11   16.77    0.44
   0   4  11   17.05    0.47
  -2  -4 -11   23.63    0.63
   2   4  11   23.59    0.62
   2   4  11   22.96    0.65
  -4  -4 -11   13.11    0.41
   4   4  11   12.82    0.41
   4   4  11   12.82    0.37
  -6  -4 -11    9.39    0.35
   6   4  11    9.38    0.32
  -8  -4 -11    1.89    0.16
   8   4  11    2.27    0.14
 -10  -4 -11    0.88    0.14
  10   4  11    0.96    0.11
 -12  -4 -11    2.11    0.24
  12   4  11    1.96    0.15
 -14  -4 -11    0.22    0.13
 -15   5  11    2.61    0.27
 -15   5  11    2.80    0.26
 -13   5  11    0.45    0.11
 -13   5  11    0.28    0.10
  11  -5 -11    0.63    0.12
 -11   5  11    0.54    0.11
 -11   5  11    0.54    0.11
   9  -5 -11    1.04    0.13
  -9   5  11    0.93    0.07
  -9   5  11    0.89    0.12
   7  -5 -11    9.10    0.32
  -7   5  11    9.79    0.30
  -7   5  11   10.05    0.36
   5  -5 -11    8.42    0.27
  -5   5  11    8.46    0.31
  -5   5  11    8.08    0.27
   3  -5 -11    7.38    0.23
  -3   5  11    7.35    0.27
  -3   5  11    7.63    0.26
   1  -5 -11   21.72    0.56
  -1   5  11   21.79    0.61
  -1   5  11   21.32    0.59
  -1  -5 -11    3.21    0.13
   1   5  11    3.24    0.16
   1   5  11    2.88    0.13
  -3  -5 -11    6.03    0.23
   3   5  11    5.89    0.24
   3   5  11    5.78    0.20
   5   5  11    3.49    0.14
   5   5  11    3.88    0.19
  -7  -5 -11    0.44    0.09
   7   5  11    0.37    0.06
   7   5  11    0.40    0.07
  -9  -5 -11    0.00    0.06
   9   5  11    0.17    0.06
 -11  -5 -11    0.71    0.14
  11   5  11    0.66    0.10
 -13  -5 -11    0.89    0.17
 -15  -5 -11    1.00    0.20
  16  -6 -11    1.58    0.22
 -16   6  11    1.75    0.22
  14  -6 -11    0.71    0.16
 -14   6  11    0.64    0.14
  12  -6 -11    1.19    0.17
 -12   6  11    0.96    0.15
  10  -6 -11    1.95    0.17
 -10   6  11    2.26    0.18
   8  -6 -11    0.66    0.10
  -8   6  11    0.64    0.10
  -8   6  11    0.51    0.07
   6  -6 -11    1.91    0.13
  -6   6  11    1.95    0.14
  -6   6  11    1.82    0.11
   4  -6 -11    2.81    0.14
  -4   6  11    2.83    0.16
  -4   6  11    2.95    0.15
   2  -6 -11   11.76    0.35
  -2   6  11   12.18    0.39
  -2   6  11   11.96    0.38
   0  -6 -11    2.14    0.11
   0   6  11    1.90    0.11
   0   6  11    2.21    0.13
  -2  -6 -11   10.47    0.33
   2   6  11   10.14    0.31
   2   6  11    9.80    0.35
  -4  -6 -11   16.10    0.50
   4   6  11   15.82    0.44
   4   6  11   15.96    0.50
  -6  -6 -11    0.69    0.11
   6   6  11    0.66    0.09
   6   6  11    0.68    0.07
  -8  -6 -11    0.12    0.07
   8   6  11    0.15    0.06
 -10  -6 -11    0.56    0.12
  10   6  11    0.34    0.08
 -12  -6 -11    3.88    0.28
  12   6  11    3.62    0.22
 -14  -6 -11    0.34    0.14
  15  -7 -11    0.49    0.16
 -15   7  11    0.64    0.15
  13  -7 -11    1.41    0.19
 -13   7  11    1.53    0.19
  11  -7 -11    0.71    0.12
 -11   7  11    1.02    0.15
   9  -7 -11    1.37    0.15
  -9   7  11    1.23    0.15
  -9   7  11    1.26    0.10
   7  -7 -11    0.83    0.11
  -7   7  11    0.80    0.11
  -7   7  11    0.84    0.09
   5  -7 -11   11.21    0.37
  -5   7  11   11.40    0.39
   3  -7 -11    7.91    0.27
  -3   7  11    7.80    0.29
  -3   7  11    8.47    0.30
   1  -7 -11    1.53    0.10
  -1   7  11    1.62    0.12
  -1   7  11    1.54    0.10
  -1  -7 -11    7.82    0.27
   1   7  11    7.91    0.26
   1   7  11    7.88    0.30
  -3  -7 -11    0.41    0.07
   3   7  11    0.52    0.06
   3   7  11    0.52    0.09
  -5  -7 -11    1.41    0.14
   5   7  11    2.07    0.15
   5   7  11    1.98    0.09
  -7  -7 -11    1.81    0.18
   7   7  11    1.74    0.16
  -9  -7 -11    6.07    0.32
   9   7  11    5.63    0.27
 -11  -7 -11    1.78    0.22
  11   7  11    1.41    0.16
 -13  -7 -11    0.15    0.11
  14  -8 -11    0.01    0.11
 -14   8  11   -0.02    0.09
 -12   8  11    0.71    0.14
  10  -8 -11    0.04    0.09
 -10   8  11    0.15    0.08
   8  -8 -11    0.88    0.13
  -8   8  11    1.06    0.11
  -8   8  11    1.05    0.14
   6  -8 -11    3.38    0.19
  -6   8  11    3.52    0.20
  -6   8  11    3.35    0.17
   4  -8 -11    1.44    0.12
  -4   8  11    1.63    0.13
  -4   8  11    1.46    0.14
   2  -8 -11    4.48    0.19
  -2   8  11    4.44    0.20
  -2   8  11    4.71    0.22
   0  -8 -11    1.48    0.11
   0   8  11    1.14    0.09
   0   8  11    1.29    0.13
  -2  -8 -11    9.31    0.33
   2   8  11    9.59    0.36
   2   8  11    9.34    0.29
  -4  -8 -11    0.98    0.12
   4   8  11    0.91    0.12
  -6  -8 -11    3.69    0.22
   6   8  11    3.12    0.20
  -8  -8 -11    2.69    0.22
   8   8  11    2.86    0.19
 -10  -8 -11    0.42    0.13
  10   8  11    0.64    0.12
 -12  -8 -11    1.09    0.19
  12   8  11    0.75    0.13
 -13   9  11    2.67    0.27
  11  -9 -11   -0.03    0.10
 -11   9  11   -0.05    0.08
   9  -9 -11    3.72    0.25
  -9   9  11    4.33    0.26
   7  -9 -11    2.17    0.18
  -7   9  11    2.09    0.15
  -7   9  11    2.32    0.18
   5  -9 -11    2.03    0.16
  -5   9  11    2.22    0.16
  -5   9  11    2.09    0.15
   3  -9 -11    4.09    0.20
  -3   9  11    4.22    0.20
  -3   9  11    3.80    0.21
   1  -9 -11    7.38    0.28
  -1   9  11    7.33    0.31
  -1   9  11    7.07    0.27
  -1  -9 -11    8.83    0.33
   1   9  11    8.70    0.29
   1   9  11    8.66    0.35
  -3  -9 -11    1.17    0.13
   3   9  11    1.13    0.14
  -5  -9 -11    0.60    0.11
   5   9  11    0.57    0.11
  -7  -9 -11    0.15    0.09
   7   9  11    0.31    0.09
  -9  -9 -11    1.56    0.20
   9   9  11    1.62    0.18
 -11  -9 -11    2.49    0.27
  11   9  11    2.56    0.23
  12 -10 -11    0.27    0.14
 -12  10  11    0.26    0.12
  10 -10 -11    0.81    0.16
 -10  10  11    1.00    0.16
   8 -10 -11    0.99    0.15
  -8  10  11    1.05    0.12
  -8  10  11    1.08    0.15
   6 -10 -11    5.20    0.26
  -6  10  11    5.33    0.27
  -6  10  11    5.19    0.25
   4 -10 -11    0.73    0.12
  -4  10  11    0.70    0.10
  -4  10  11    0.72    0.11
   2 -10 -11    0.88    0.12
  -2  10  11    0.53    0.09
  -2  10  11    0.82    0.12
   0 -10 -11    4.30    0.21
   0  10  11    3.63    0.17
   0  10  11    3.92    0.23
  -2 -10 -11   11.11    0.41
   2  10  11   11.06    0.43
  -4 -10 -11    2.82    0.19
   4  10  11    2.19    0.20
  -6 -10 -11    0.25    0.08
   6  10  11    0.43    0.10
  -8 -10 -11    1.78    0.21
   8  10  11    1.65    0.19
 -10 -10 -11    0.09    0.11
  10  10  11    0.20    0.09
 -11  11  11    0.01    0.09
  -9  11  11    6.34    0.33
   7 -11 -11    1.99    0.20
  -7  11  11    1.79    0.17
  -7  11  11    2.40    0.19
   5 -11 -11    0.19    0.09
  -5  11  11    0.13    0.08
  -5  11  11    0.11    0.07
   3 -11 -11    0.48    0.10
  -3  11  11    0.47    0.09
  -3  11  11    0.48    0.10
   1 -11 -11    3.46    0.20
  -1  11  11    3.55    0.18
  -1  11  11    3.37    0.22
  -1 -11 -11    1.67    0.17
   1  11  11    1.59    0.17
  -3 -11 -11    1.49    0.16
   3  11  11    1.47    0.17
  -5 -11 -11   14.09    0.54
   5  11  11   15.23    0.55
  -7 -11 -11    2.10    0.22
   7  11  11    2.47    0.22
  -9 -11 -11    3.51    0.26
   9  11  11    3.30    0.25
 -10  12  11    0.70    0.15
  -8  12  11    1.04    0.15
  -8  12  11    1.12    0.17
  -6  12  11    0.88    0.14
  -6  12  11    0.69    0.12
  -4  12  11    3.68    0.23
  -4  12  11    3.72    0.22
   2 -12 -11    0.76    0.12
  -2  12  11    0.66    0.13
   0 -12 -11    0.39    0.09
   0  12  11    0.74    0.13
  -2 -12 -11    0.86    0.13
   2  12  11    0.73    0.13
  -4 -12 -11    0.96    0.15
   4  12  11    0.87    0.14
   6  12  11    2.84    0.23
  -8 -12 -11    0.44    0.13
   8  12  11    0.50    0.13
  -7  13  11    0.25    0.10
  -7  13  11    0.23    0.10
  -5  13  11    1.60    0.17
  -5  13  11    1.87    0.20
  -3  13  11    0.12    0.09
  -1  13  11    1.38    0.18
   1  13  11    1.21    0.17
  -3 -13 -11    0.14    0.08
   3  13  11    0.02    0.09
  -5 -13 -11    1.76    0.21
   5  13  11    1.63    0.20
  -7 -13 -11    0.72    0.16
   7  13  11    0.49    0.13
  -6  14  11    0.44    0.13
  -6  14  11    0.53    0.13
  -4  14  11    3.63    0.26
  -2  14  11    0.14    0.11
   0  14  11    1.71    0.21
   2  14  11    0.90    0.16
   4  14  11    0.14    0.10
  -6 -14  12    0.00    0.10
  -4 -14  12    0.94    0.19
  -2 -14  12    0.16    0.12
   0 -14  12    0.43    0.14
   2 -14  12    0.06    0.12
  -7 -13  12    0.55    0.16
  -5 -13  12    1.42    0.21
  -3 -13  12    1.49    0.22
  -1 -13  12    0.12    0.11
   1 -13  12    0.95    0.19
   3 -13  12   -0.03    0.10
   5 -13  12    2.74    0.33
 -10 -12  12    0.69    0.16
  -8 -12  12    5.19    0.33
  -6 -12  12    0.71    0.15
  -4 -12  12    0.60    0.15
  -2 -12  12    1.10    0.18
   0 -12  12    1.16    0.19
   2 -12  12    0.76    0.18
   4 -12  12    1.27    0.22
   6 -12  12    2.30    0.30
   8 -12  12    0.10    0.15
 -11 -11  12    0.02    0.10
  -9 -11  12    1.88    0.23
  -7 -11  12    0.35    0.11
  -5 -11  12    1.68    0.22
  -3 -11  12    0.23    0.12
  -1 -11  12    2.44    0.26
   1 -11  12    0.98    0.18
   3 -11  12    3.31    0.28
   5 -11  12    2.70    0.30
   7 -11  12    0.74    0.19
   9 -11  12    1.72    0.27
 -12 -10  12    2.76    0.29
 -10 -10  12    0.86    0.16
  -8 -10  12    3.25    0.25
  -6 -10  12    2.26    0.20
  -4 -10  12    4.04    0.27
  -2 -10  12    3.79    0.26
   0 -10  12    6.73    0.36
   2 -10  12    3.81    0.28
   4 -10  12    0.11    0.13
   6 -10  12    4.23    0.33
   8 -10  12    0.13    0.13
  10 -10  12    0.59    0.21
 -13  -9  12    0.24    0.12
 -11  -9  12    0.29    0.11
  -9  -9  12    0.22    0.09
  -7  -9  12    1.52    0.20
  -5  -9  12    1.80    0.20
  -3  -9  12    0.74    0.13
  -1  -9  12    8.47    0.39
   1  -9  12    1.39    0.18
   3  -9  12    7.41    0.39
   5  -9  12    6.25    0.37
   7  -9  12    0.09    0.12
   9  -9  12    1.95    0.26
  11  -9  12    0.09    0.15
 -14  -8  12    1.30    0.21
 -12  -8  12    1.97    0.23
 -10  -8  12    0.44    0.11
  -8  -8  12    2.70    0.21
  -6  -8  12    2.46    0.19
  -6  -8  12    1.96    0.11
  -4  -8  12    6.86    0.24
  -4  -8  12    6.74    0.32
  -2  -8  12    6.02    0.31
   0  -8  12   15.23    0.56
   2  -8  12    4.38    0.27
   4  -8  12    2.17    0.23
   6  -8  12    2.32    0.24
   8  -8  12    1.95    0.24
  10  -8  12    2.89    0.30
  12  -8  12    0.32    0.16
 -15  -7  12    0.53    0.15
 -13  -7  12    0.17    0.11
 -11  -7  12    0.97    0.16
  -9  -7  12    0.74    0.13
  -7  -7  12    2.88    0.13
  -7  -7  12    3.07    0.20
  -5  -7  12    4.24    0.24
  -5  -7  12    4.43    0.17
  -3  -7  12    3.11    0.15
  -3  -7  12    2.98    0.20
  -1  -7  12    3.48    0.22
   1  -7  12    1.27    0.16
   3  -7  12    1.31    0.17
   5  -7  12    1.22    0.18
   7  -7  12    1.88    0.22
   9  -7  12    1.75    0.23
  11  -7  12    0.63    0.17
  13  -7  12    0.70    0.19
 -16  -6  12    0.67    0.17
 -14  -6  12    1.25    0.19
 -12  -6  12   -0.07    0.06
 -10  -6  12    1.09    0.10
 -10  -6  12    1.23    0.16
  -8  -6  12    0.83    0.08
  -8  -6  12    0.83    0.13
  -6  -6  12    1.35    0.09
  -6  -6  12    1.57    0.16
  -4  -6  12   20.17    0.56
  -4  -6  12   19.92    0.63
  -2  -6  12    1.21    0.13
   0  -6  12    5.25    0.26
   2  -6  12    9.54    0.39
   4  -6  12    0.67    0.13
   6  -6  12    1.25    0.17
   8  -6  12    0.38    0.12
  10  -6  12    1.58    0.21
  12  -6  12    1.57    0.23
  14  -6  12    1.35    0.24
 -15  -5  12    2.30    0.27
 -13  -5  12    0.09    0.08
 -11  -5  12    2.06    0.18
 -11  -5  12    2.33    0.14
  -9  -5  12    1.97    0.12
  -9  -5  12    2.02    0.17
  -7  -5  12    4.54    0.23
  -7  -5  12    4.12    0.17
  -5  -5  12   10.28    0.38
  -5  -5  12   10.79    0.32
  -3  -5  12    7.63    0.31
  -3  -5  12    7.74    0.26
  -1  -5  12   16.32    0.52
   1  -5  12    6.63    0.29
   3  -5  12    6.46    0.30
   5  -5  12    1.13    0.15
   7  -5  12    0.95    0.15
   9  -5  12    0.67    0.16
  11  -5  12    0.32    0.13
  13  -5  12    1.89    0.24
 -16  -4  12    1.51    0.22
 -14  -4  12    1.14    0.18
 -12  -4  12    0.20    0.09
 -12  -4  12    0.10    0.06
 -10  -4  12    0.67    0.12
 -10  -4  12    0.83    0.09
  -8  -4  12    0.96    0.09
  -8  -4  12    1.09    0.13
  -6  -4  12    6.85    0.23
  -6  -4  12    6.52    0.27
  -4  -4  12    9.39    0.33
  -4  -4  12    9.15    0.29
  -2  -4  12   18.56    0.55
  -2  -4  12   18.10    0.52
   0  -4  12   19.56    0.59
   2  -4  12   23.27    0.69
   4  -4  12   50.29    1.36
   6  -4  12    4.35    0.24
   8  -4  12    1.27    0.16
  10  -4  12    0.47    0.13
  12  -4  12    2.02    0.24
  14  -4  12    0.36    0.15
 -17  -3  12    0.10    0.12
 -15  -3  12    3.19    0.26
 -15  -3  12    2.93    0.20
 -13  -3  12    4.93    0.30
 -13  -3  12    4.81    0.24
 -11  -3  12    1.30    0.16
 -11  -3  12    1.49    0.13
  -9  -3  12    1.94    0.15
  -9  -3  12    2.13    0.13
  -7  -3  12    0.77    0.08
  -7  -3  12    0.96    0.12
  -3  -3  12    5.78    0.23
  -3  -3  12    6.08    0.21
  -1  -3  12    4.04    0.19
   1  -3  12    3.20    0.17
   3  -3  12    3.93    0.20
   5  -3  12    7.19    0.31
   7  -3  12    7.60    0.33
   9  -3  12    2.66    0.22
  11  -3  12    0.70    0.15
  13  -3  12    0.34    0.12
  15  -3  12    0.23    0.14
 -16  -2  12    1.02    0.14
 -16  -2  12    1.10    0.19
 -14  -2  12    1.43    0.19
 -10  -2  12    2.33    0.14
  -8  -2  12    1.93    0.12
  -8  -2  12    1.79    0.14
  -6  -2  12   10.58    0.35
  -6  -2  12    9.80    0.32
  -4  -2  12   13.65    0.40
  -4  -2  12   13.46    0.41
  -2  -2  12   28.07    0.73
  -2  -2  12   27.21    0.74
   0  -2  12    2.57    0.14
   2  -2  12   18.72    0.55
   4  -2  12   10.99    0.38
   6  -2  12    2.94    0.19
 -10   2 -12    0.38    0.11
  10  -2  12   -0.11    0.08
 -14   2 -12    1.07    0.21
  14  -2  12    0.11    0.12
 -17  -1  12    0.38    0.11
 -17  -1  12    0.46    0.14
 -15  -1  12    0.02    0.07
 -15  -1  12    0.09    0.09
 -13  -1  12    0.15    0.08
 -13  -1  12    0.05    0.06
 -11  -1  12    0.26    0.07
 -11  -1  12    0.20    0.08
  -9  -1  12    0.20    0.07
  -9  -1  12    0.25    0.06
  -7  -1  12    0.21    0.06
  -7  -1  12    0.18    0.05
  -5  -1  12    8.62    0.28
  -5  -1  12    8.57    0.28
  -3  -1  12    0.21    0.05
  -3  -1  12    0.26    0.05
  -1  -1  12    0.36    0.06
  -1  -1  12    0.33    0.05
   1  -1  12    2.04    0.11
   3  -1  12   14.17    0.43
  -7   1 -12   13.79    0.48
  -9   1 -12    1.81    0.19
 -11   1 -12    0.23    0.10
 -13   1 -12    0.34    0.13
 -15   1 -12   -0.07    0.11
 -16   0  12    1.73    0.19
 -16   0  12    1.76    0.23
 -14   0  12    1.25    0.16
 -14   0  12    0.79    0.15
 -12   0  12   13.05    0.50
 -12   0  12   14.39    0.48
 -10   0  12    6.12    0.28
 -10   0  12    6.52    0.27
  -8   0  12   14.23    0.45
  -8   0  12   14.57    0.46
  -6   0  12   22.96    0.64
  -6   0  12   22.85    0.63
  -4   0  12    2.49    0.11
  -4   0  12    2.31    0.12
  -2   0  12    9.65    0.30
  -2   0  12    9.65    0.27
   0   0  12   23.10    0.60
   0   0  12   23.17    0.63
   2   0  12   11.66    0.35
  -4   0 -12    9.11    0.32
  -6   0 -12    1.61    0.13
  -8   0 -12   11.29    0.43
 -10   0 -12    0.41    0.11
 -12   0 -12    4.37    0.30
 -14   0 -12    0.21    0.12
 -17   1  12    0.50    0.13
 -17   1  12    0.42    0.14
 -15   1  12    0.17    0.09
 -15   1  12    0.18    0.09
 -13   1  12    0.10    0.07
 -13   1  12    0.00    0.07
 -11   1  12    0.29    0.08
 -11   1  12    0.20    0.07
  -9   1  12    0.32    0.07
  -9   1  12    0.36    0.08
  -7   1  12    0.17    0.05
  -7   1  12    0.22    0.05
  -5   1  12    9.15    0.28
  -5   1  12    8.59    0.30
  -3   1  12    0.26    0.05
  -3   1  12    0.24    0.03
  -1   1  12    0.39    0.04
  -1   1  12    0.29    0.05
   1   1  12    2.07    0.11
   1   1  12    1.87    0.09
  -3  -1 -12   15.36    0.45
  -5  -1 -12    4.01    0.19
  -7  -1 -12   12.10    0.43
  -9  -1 -12    1.31    0.16
 -11  -1 -12    0.15    0.09
  11   1  12    0.25    0.06
 -13  -1 -12    0.28    0.11
 -15  -1 -12    0.12    0.12
 -16   2  12    1.27    0.18
 -16   2  12    1.32    0.20
 -14   2  12    1.46    0.19
 -14   2  12    1.43    0.18
 -12   2  12    9.58    0.39
 -12   2  12   10.25    0.40
 -10   2  12    4.30    0.22
 -10   2  12    4.50    0.23
  -8   2  12    2.08    0.13
  -8   2  12    1.87    0.14
  -6   2  12   10.33    0.32
  -6   2  12   10.25    0.35
  -4   2  12   13.80    0.42
  -4   2  12   13.98    0.37
  -2   2  12   27.41    0.73
   0  -2 -12    2.31    0.08
   0   2  12    2.08    0.08
   0   2  12    2.27    0.11
  -2  -2 -12   17.48    0.48
   2   2  12   18.18    0.50
  -4  -2 -12    3.40    0.16
  -6  -2 -12    4.63    0.22
  -8  -2 -12    6.65    0.31
   8   2  12    7.29    0.26
 -10  -2 -12    0.48    0.11
  10   2  12    0.29    0.06
 -12  -2 -12    3.46    0.26
 -14  -2 -12    0.26    0.12
 -17   3  12    0.23    0.11
 -17   3  12    0.34    0.14
 -15   3  12    3.69    0.26
 -15   3  12    3.06    0.26
 -13   3  12    4.58    0.27
 -13   3  12    5.15    0.29
 -11   3  12    1.21    0.14
 -11   3  12    1.23    0.14
  -9   3  12    2.35    0.15
  -9   3  12    2.44    0.17
  -7   3  12    0.78    0.10
  -7   3  12    0.91    0.09
  -5   3  12    2.42    0.11
  -5   3  12    2.62    0.15
   3  -3 -12    6.05    0.16
  -3   3  12    5.91    0.22
  -1   3  12    4.06    0.17
  -1  -3 -12    3.44    0.12
   1   3  12    3.12    0.14
  -3  -3 -12    4.31    0.17
   3   3  12    4.15    0.17
  -5  -3 -12    2.72    0.15
  -7  -3 -12    8.18    0.33
   7   3  12    8.23    0.29
  -9  -3 -12    2.14    0.18
   9   3  12    2.49    0.14
 -11  -3 -12    2.03    0.21
  11   3  12    1.88    0.13
 -13  -3 -12    1.54    0.22
 -15  -3 -12    0.27    0.14
 -16   4  12    2.20    0.25
 -16   4  12    1.94    0.22
 -14   4  12    1.11    0.17
 -14   4  12    1.60    0.20
 -12   4  12    0.17    0.08
 -12   4  12    0.11    0.08
 -10   4  12    0.73    0.11
 -10   4  12    0.92    0.12
  -8   4  12    1.03    0.08
  -8   4  12    1.12    0.11
  -8   4  12    0.79    0.10
  -6   4  12    6.90    0.27
   4  -4 -12    9.59    0.27
  -4   4  12    9.08    0.32
   2  -4 -12   18.55    0.46
  -2   4  12   18.69    0.53
   0  -4 -12   19.82    0.50
   0   4  12   19.37    0.54
  -2  -4 -12   24.58    0.65
   2   4  12   23.66    0.64
  -4  -4 -12   46.12    1.21
   4   4  12   46.83    1.18
   4   4  12   47.11    1.22
  -6  -4 -12    4.75    0.23
   6   4  12    4.56    0.20
  -8  -4 -12    1.49    0.16
   8   4  12    1.61    0.12
 -10  -4 -12    0.80    0.14
  10   4  12    0.72    0.10
 -12  -4 -12    2.27    0.25
  12   4  12    2.21    0.16
 -14  -4 -12    0.14    0.10
 -15   5  12    3.12    0.25
 -15   5  12    2.60    0.26
 -13   5  12    0.24    0.10
 -13   5  12    0.08    0.09
 -11   5  12    2.28    0.17
 -11   5  12    1.95    0.19
   9  -5 -12    2.05    0.16
  -9   5  12    1.93    0.10
  -9   5  12    1.98    0.16
   7  -5 -12    4.49    0.19
  -7   5  12    4.35    0.22
  -7   5  12    4.48    0.18
   5  -5 -12   10.74    0.33
  -5   5  12   11.03    0.37
   3  -5 -12    7.68    0.23
  -3   5  12    7.43    0.27
  -3   5  12    7.94    0.27
   1  -5 -12   16.16    0.43
  -1   5  12   16.30    0.48
  -1   5  12   15.95    0.47
  -1  -5 -12    7.17    0.23
   1   5  12    7.37    0.24
   1   5  12    7.37    0.27
  -3  -5 -12    5.87    0.23
   3   5  12    6.03    0.21
   3   5  12    6.01    0.24
  -5  -5 -12    1.13    0.12
   5   5  12    1.21    0.08
   5   5  12    1.19    0.11
  -7  -5 -12    1.22    0.14
   7   5  12    1.04    0.11
   7   5  12    1.13    0.09
  -9  -5 -12    0.95    0.15
   9   5  12    0.90    0.11
 -11  -5 -12    0.14    0.10
  11   5  12    0.14    0.06
 -13  -5 -12    1.98    0.25
  16  -6 -12    0.45    0.15
 -16   6  12    0.77    0.16
  14  -6 -12    1.11    0.18
 -14   6  12    1.17    0.17
  12  -6 -12    0.02    0.05
 -12   6  12    0.18    0.09
  10  -6 -12    1.04    0.14
 -10   6  12    1.19    0.15
   8  -6 -12    1.06    0.12
  -8   6  12    1.11    0.13
  -8   6  12    0.84    0.09
   6  -6 -12    1.59    0.11
  -6   6  12    1.57    0.15
  -6   6  12    1.55    0.11
   4  -6 -12   21.26    0.58
  -4   6  12   21.01    0.62
  -4   6  12   21.85    0.61
   2  -6 -12    1.07    0.08
  -2   6  12    1.17    0.11
  -2   6  12    1.06    0.11
   0  -6 -12    5.24    0.19
   0   6  12    5.31    0.20
   0   6  12    5.43    0.23
  -2  -6 -12    9.11    0.30
   2   6  12    9.22    0.29
   2   6  12    9.16    0.33
  -4  -6 -12    0.56    0.08
   4   6  12    0.65    0.07
   4   6  12    0.50    0.08
   6   6  12    1.24    0.09
   6   6  12    1.39    0.13
  -8  -6 -12    0.40    0.10
   8   6  12    0.47    0.09
 -10  -6 -12    1.63    0.19
  10   6  12    1.76    0.16
 -12  -6 -12    1.69    0.22
  12   6  12    1.66    0.16
 -14  -6 -12    1.60    0.23
  15  -7 -12    0.38    0.14
 -15   7  12    0.41    0.13
  13  -7 -12    0.08    0.09
 -13   7  12    0.27    0.10
  11  -7 -12    1.52    0.18
 -11   7  12    1.07    0.15
   9  -7 -12    0.79    0.12
  -9   7  12    0.89    0.09
  -9   7  12    0.70    0.12
   7  -7 -12    3.16    0.18
  -7   7  12    2.92    0.19
  -7   7  12    3.16    0.16
   5  -7 -12    4.29    0.19
  -5   7  12    4.65    0.22
  -5   7  12    4.72    0.21
   3  -7 -12    3.30    0.15
  -3   7  12    3.26    0.17
  -3   7  12    3.15    0.17
   1  -7 -12    3.57    0.15
  -1   7  12    3.32    0.18
  -1   7  12    3.51    0.16
  -1  -7 -12    1.36    0.10
   1   7  12    1.46    0.14
   1   7  12    1.38    0.09
  -3  -7 -12    1.46    0.11
   3   7  12    1.36    0.13
   3   7  12    1.26    0.08
  -5  -7 -12    1.51    0.15
   5   7  12    1.25    0.08
   5   7  12    1.30    0.14
  -7  -7 -12    1.88    0.17
   7   7  12    2.11    0.16
  -9  -7 -12    2.13    0.22
   9   7  12    2.04    0.18
 -11  -7 -12    0.71    0.15
  11   7  12    0.58    0.11
 -13  -7 -12    1.15    0.20
  14  -8 -12    1.55    0.21
 -14   8  12    1.71    0.22
  12  -8 -12    1.96    0.21
 -12   8  12    2.08    0.22
  10  -8 -12    0.48    0.12
 -10   8  12    0.50    0.11
   8  -8 -12    2.94    0.19
  -8   8  12    2.71    0.19
  -8   8  12    2.53    0.15
   6  -8 -12    2.01    0.14
  -6   8  12    2.19    0.16
  -6   8  12    1.43    0.11
   4  -8 -12    7.41    0.28
  -4   8  12    7.59    0.29
  -4   8  12    7.24    0.29
   2  -8 -12    6.10    0.23
  -2   8  12    6.02    0.26
  -2   8  12    5.83    0.24
   0  -8 -12   15.05    0.46
   0   8  12   15.45    0.45
   0   8  12   15.24    0.50
  -2  -8 -12    4.81    0.22
   2   8  12    5.04    0.24
   2   8  12    4.74    0.18
  -4  -8 -12    2.12    0.15
   4   8  12    2.32    0.17
  -8  -8 -12    2.58    0.21
   8   8  12    2.79    0.19
 -10  -8 -12    3.70    0.26
  10   8  12    3.83    0.24
 -12  -8 -12    0.64    0.16
  12   8  12    0.71    0.13
  13  -9 -12   -0.05    0.10
 -13   9  12    0.14    0.11
  11  -9 -12    0.31    0.12
 -11   9  12    0.17    0.10
   9  -9 -12    0.13    0.10
  -9   9  12    0.16    0.08
   7  -9 -12    1.94    0.18
  -7   9  12    1.96    0.19
  -7   9  12    2.11    0.15
   5  -9 -12    1.66    0.14
  -5   9  12    1.85    0.16
  -5   9  12    1.94    0.17
   3  -9 -12    0.84    0.10
  -3   9  12    0.83    0.12
  -3   9  12    0.96    0.11
   1  -9 -12    8.10    0.30
  -1   9  12    8.79    0.34
  -1   9  12    8.24    0.30
  -1  -9 -12    1.37    0.12
   1   9  12    1.47    0.10
   1   9  12    1.38    0.15
  -3  -9 -12    7.63    0.31
   3   9  12    7.16    0.32
  -5  -9 -12    5.73    0.28
   5   9  12    6.15    0.30
  -7  -9 -12    0.32    0.10
   7   9  12    0.24    0.08
  -9  -9 -12    2.17    0.24
   9   9  12    2.56    0.22
 -11  -9 -12    0.08    0.10
  11   9  12    0.04    0.08
 -12  10  12    3.07    0.29
  10 -10 -12    1.01    0.20
 -10  10  12    1.09    0.17
   8 -10 -12    3.62    0.23
  -8  10  12    3.09    0.22
  -8  10  12    3.42    0.20
   6 -10 -12    3.13    0.20
  -6  10  12    2.57    0.18
  -6  10  12    2.53    0.19
   4 -10 -12    4.49    0.23
  -4  10  12    4.60    0.23
  -4  10  12    4.42    0.24
   2 -10 -12    3.92    0.21
  -2  10  12    3.72    0.19
  -2  10  12    4.09    0.23
   0 -10 -12    6.91    0.29
   0  10  12    7.05    0.26
   0  10  12    7.53    0.32
  -2 -10 -12    4.58    0.24
   2  10  12    4.70    0.26
  -4 -10 -12    0.05    0.06
   4  10  12    0.06    0.07
  -8 -10 -12    0.15    0.10
   8  10  12    0.09    0.09
 -10 -10 -12    0.55    0.15
  10  10  12    0.37    0.12
 -11  11  12    0.07    0.10
  -9  11  12    1.67    0.20
  -7  11  12    0.19    0.07
  -7  11  12    0.52    0.12
  -5  11  12    1.90    0.18
  -5  11  12    1.66    0.17
   3 -11 -12    0.37    0.09
  -3  11  12    0.35    0.08
  -3  11  12    0.23    0.09
   1 -11 -12    2.34    0.16
  -1  11  12    1.86    0.18
  -1  11  12    2.48    0.15
  -1 -11 -12    1.42    0.15
   1  11  12    1.26    0.15
  -3 -11 -12    3.37    0.21
   3  11  12    3.49    0.23
  -5 -11 -12    2.86    0.21
   5  11  12    3.01    0.22
  -7 -11 -12    0.37    0.11
   7  11  12    0.45    0.12
  -9 -11 -12    1.63    0.22
   9  11  12    1.41    0.19
 -10  12  12    0.80    0.15
  -8  12  12    5.48    0.31
  -8  12  12    4.95    0.27
  -6  12  12    0.91    0.14
  -6  12  12    0.99    0.14
  -4  12  12    0.58    0.10
  -4  12  12    0.52    0.12
  -2  12  12    1.34    0.17
   0  12  12    1.39    0.18
  -2 -12 -12    0.93    0.14
   2  12  12    0.85    0.14
  -4 -12 -12    1.23    0.17
   4  12  12    1.60    0.19
  -6 -12 -12    1.87    0.21
   6  12  12    2.67    0.25
  -8 -12 -12    0.27    0.12
   8  12  12    0.19    0.10
  -7  13  12    0.86    0.14
  -7  13  12    0.67    0.13
  -5  13  12    1.58    0.17
  -5  13  12    1.34    0.17
  -3  13  12    1.37    0.17
  -1  13  12    0.22    0.10
   1  13  12    1.16    0.16
   3  13  12    0.00    0.08
   5  13  12    2.71    0.25
  -7 -13 -12    0.04    0.06
  -4  14  12    1.15    0.17
  -2  14  12    0.12    0.10
   0  14  12    0.52    0.13
   2  14  12    0.01    0.08
  -4 -14  13    1.27    0.21
  -2 -14  13    0.13    0.12
   0 -14  13    0.73    0.18
   2 -14  13    0.65    0.18
  -7 -13  13    0.07    0.09
  -5 -13  13    0.27    0.12
  -3 -13  13    0.19    0.12
  -1 -13  13    0.05    0.11
   1 -13  13    1.44    0.24
   3 -13  13    0.35    0.16
   5 -13  13    1.38    0.26
 -10 -12  13    0.19    0.12
  -8 -12  13    1.86    0.23
  -6 -12  13    0.61    0.15
  -4 -12  13    1.41    0.20
  -2 -12  13    0.02    0.10
   0 -12  13    1.15    0.20
   2 -12  13    1.33    0.22
   4 -12  13    0.06    0.12
   6 -12  13    0.87    0.22
   8 -12  13    0.14    0.18
 -11 -11  13    0.05    0.10
  -9 -11  13    3.66    0.28
  -7 -11  13    2.68    0.24
  -5 -11  13    0.14    0.09
  -3 -11  13    4.77    0.31
   1 -11  13    2.42    0.26
   3 -11  13    1.83    0.24
   5 -11  13    2.54    0.28
   7 -11  13    1.45    0.25
   9 -11  13    0.75    0.21
 -12 -10  13    0.47    0.15
 -10 -10  13    0.15    0.10
  -8 -10  13    0.63    0.14
  -6 -10  13    2.59    0.22
  -4 -10  13    3.26    0.25
  -2 -10  13    9.67    0.44
   0 -10  13    5.07    0.32
   2 -10  13    1.75    0.23
   4 -10  13    5.55    0.35
   6 -10  13    1.96    0.25
   8 -10  13    0.29    0.14
  10 -10  13    0.63    0.21
 -13  -9  13    1.44    0.22
 -11  -9  13    1.16    0.18
  -9  -9  13    3.21    0.24
  -7  -9  13    0.65    0.13
  -5  -9  13    2.63    0.14
  -5  -9  13    2.55    0.21
  -3  -9  13   14.13    0.43
  -3  -9  13   13.81    0.53
  -1  -9  13    1.94    0.21
   1  -9  13   10.79    0.47
   3  -9  13    1.81    0.23
   5  -9  13   11.08    0.51
   7  -9  13    0.70    0.17
   9  -9  13    2.02    0.27
  11  -9  13    1.26    0.24
 -14  -8  13    0.08    0.11
 -12  -8  13    0.21    0.10
 -10  -8  13    0.53    0.13
  -8  -8  13    0.19    0.09
  -6  -8  13    1.08    0.15
  -6  -8  13    1.24    0.09
  -4  -8  13    2.28    0.19
  -4  -8  13    2.08    0.12
  -2  -8  13    7.36    0.34
   0  -8  13    3.99    0.25
   2  -8  13    0.51    0.13
   4  -8  13    0.71    0.15
   6  -8  13    0.10    0.11
   8  -8  13    2.67    0.28
  10  -8  13    0.37    0.15
  12  -8  13    1.34    0.24
 -15  -7  13    0.20    0.12
 -13  -7  13    1.05    0.18
 -11  -7  13    0.16    0.09
  -9  -7  13    1.54    0.18
  -7  -7  13    0.67    0.13
  -7  -7  13    0.71    0.08
  -5  -7  13   11.08    0.43
  -5  -7  13   11.36    0.35
  -3  -7  13   17.36    0.58
  -3  -7  13   16.74    0.50
  -1  -7  13    0.51    0.11
   1  -7  13    8.66    0.38
   3  -7  13    2.98    0.23
   5  -7  13    0.24    0.10
   7  -7  13    0.99    0.18
   9  -7  13    1.64    0.22
  11  -7  13    2.32    0.27
  13  -7  13    0.08    0.13
 -16  -6  13    1.48    0.23
 -14  -6  13    1.60    0.22
 -12  -6  13    0.32    0.11
 -10  -6  13    2.03    0.21
 -10  -6  13    1.82    0.12
  -8  -6  13    0.03    0.05
  -8  -6  13    0.05    0.04
  -6  -6  13    2.47    0.18
  -6  -6  13    2.42    0.12
  -4  -6  13    3.34    0.15
  -4  -6  13    3.52    0.20
  -2  -6  13   13.35    0.46
   0  -6  13    2.99    0.20
   2  -6  13    5.97    0.30
   4  -6  13   10.74    0.44
   6  -6  13    2.11    0.22
   8  -6  13    2.74    0.27
  10  -6  13    0.60    0.16
  12  -6  13    1.52    0.24
  14  -6  13    0.21    0.16
 -15  -5  13    1.80    0.23
 -13  -5  13    0.15    0.10
 -11  -5  13    1.41    0.13
 -11  -5  13    1.61    0.19
  -9  -5  13    0.77    0.13
  -9  -5  13    0.78    0.09
  -7  -5  13    1.45    0.10
  -7  -5  13    1.61    0.14
  -5  -5  13    4.29    0.22
  -5  -5  13    4.07    0.17
  -3  -5  13   13.50    0.45
  -3  -5  13   13.33    0.40
  -1  -5  13    3.56    0.20
   1  -5  13    5.65    0.27
   3  -5  13    2.11    0.17
   5  -5  13    4.34    0.25
   7  -5  13    0.41    0.11
   9  -5  13    0.31    0.13
  11  -5  13    1.09    0.19
  13  -5  13    1.71    0.25
 -16  -4  13    0.88    0.18
 -14  -4  13    1.07    0.14
 -14  -4  13    1.47    0.21
 -12  -4  13    1.39    0.18
 -12  -4  13    1.03    0.11
 -10  -4  13    1.60    0.17
 -10  -4  13    1.76    0.12
  -8  -4  13    4.59    0.19
  -8  -4  13    4.81    0.24
  -6  -4  13    6.58    0.28
  -6  -4  13    6.49    0.23
  -4  -4  13    5.71    0.24
  -2  -4  13   23.20    0.67
  -2  -4  13   23.16    0.64
   0  -4  13   12.50    0.42
   2  -4  13    0.67    0.11
   4  -4  13    8.40    0.34
   6  -4  13    3.28    0.22
   8  -4  13    2.07    0.21
  10  -4  13    0.56    0.14
  12  -4  13    1.05    0.18
  14  -4  13    0.16    0.13
 -17  -3  13    0.24    0.13
 -15  -3  13    3.39    0.21
 -15  -3  13    2.70    0.24
 -13  -3  13    1.40    0.14
 -13  -3  13    1.00    0.17
 -11  -3  13    1.78    0.13
 -11  -3  13    1.70    0.18
  -9  -3  13    0.60    0.10
  -9  -3  13    0.62    0.08
  -7  -3  13    3.64    0.16
  -5  -3  13   13.69    0.42
  -5  -3  13   15.60    0.46
  -3  -3  13   11.99    0.39
  -3  -3  13   12.55    0.37
  -1  -3  13    6.94    0.26
   1  -3  13   15.39    0.48
   3  -3  13    2.35    0.16
   5  -3  13    4.35    0.23
   7  -3  13    5.25    0.27
   9  -3  13    3.05    0.23
  11  -3  13    2.30    0.26
  13  -3  13    3.79    0.31
  15  -3  13    0.12    0.13
 -16  -2  13    1.20    0.21
 -14  -2  13    0.77    0.15
 -12  -2  13    4.47    0.22
 -12  -2  13    4.87    0.28
 -10  -2  13    0.12    0.05
 -10  -2  13    0.15    0.07
  -8  -2  13    1.37    0.12
  -8  -2  13    1.30    0.10
  -6  -2  13    3.13    0.15
  -6  -2  13    3.10    0.16
  -4  -2  13    0.61    0.08
  -4  -2  13    0.50    0.07
  -2  -2  13    4.56    0.18
  -2  -2  13    4.30    0.18
   0  -2  13   13.04    0.40
   2  -2  13    4.31    0.20
   4  -2  13    1.24    0.13
   6  -2  13    3.76    0.21
   8  -2  13    1.07    0.15
 -10   2 -13    1.24    0.17
 -12   2 -13    1.18    0.19
  12  -2  13    0.00    0.11
 -14   2 -13    0.49    0.16
  14  -2  13    0.19    0.14
 -17  -1  13    0.11    0.08
 -17  -1  13   -0.05    0.08
 -15  -1  13    2.38    0.19
 -15  -1  13    2.35    0.25
 -13  -1  13    0.33    0.09
 -13  -1  13    0.47    0.12
 -11  -1  13   15.87    0.51
 -11  -1  13   15.10    0.53
  -9  -1  13    0.18    0.06
  -9  -1  13    0.13    0.05
  -7  -1  13   16.99    0.50
  -7  -1  13   16.69    0.51
  -5  -1  13   17.75    0.51
  -5  -1  13   17.86    0.51
  -3  -1  13   16.66    0.48
  -3  -1  13   16.83    0.47
  -1  -1  13   23.46    0.62
  -1  -1  13   23.26    0.64
   1  -1  13    2.25    0.13
   3  -1  13   69.74    1.76
   5  -1  13   -0.05    0.05
  -9   1 -13    6.33    0.32
 -11   1 -13    0.90    0.16
 -13   1 -13    1.93    0.25
 -15   1 -13    0.02    0.12
 -16   0  13    0.06    0.10
 -16   0  13    0.04    0.08
 -14   0  13    0.02    0.07
 -14   0  13    0.02    0.07
 -12   0  13    0.17    0.09
 -12   0  13    0.13    0.07
 -10   0  13    0.12    0.06
 -10   0  13    0.04    0.05
  -8   0  13   -0.04    0.04
  -8   0  13    0.01    0.05
  -6   0  13    0.07    0.04
  -6   0  13    0.01    0.04
  -4   0  13    0.04    0.03
  -4   0  13    0.08    0.04
  -2   0  13    0.00    0.02
  -2   0  13    0.03    0.03
   0   0  13    0.03    0.03
   0   0  13    0.03    0.04
   2   0  13   -0.04    0.03
  -4   0 -13    0.08    0.04
   4   0  13    0.00    0.05
  -6   0 -13   -0.05    0.04
  -8   0 -13    0.04    0.06
 -10   0 -13    0.06    0.07
 -12   0 -13    0.05    0.08
 -14   0 -13    0.10    0.11
 -17   1  13    0.09    0.11
 -17   1  13    0.00    0.08
 -15   1  13    1.98    0.20
 -15   1  13    2.41    0.24
 -13   1  13    0.41    0.10
 -13   1  13    0.18    0.08
 -11   1  13   15.70    0.54
 -11   1  13   16.47    0.54
  -9   1  13    0.39    0.08
  -9   1  13    0.24    0.07
  -7   1  13   17.29    0.52
  -7   1  13   17.18    0.50
  -5   1  13   18.43    0.54
  -5   1  13   19.15    0.51
  -3   1  13   17.06    0.44
  -3   1  13   17.06    0.49
  -1   1  13   24.22    0.60
  -1   1  13   23.10    0.64
   1   1  13    1.90    0.10
   1   1  13    2.06    0.11
  -3  -1 -13   73.02    1.82
  -5  -1 -13    0.17    0.06
  -7  -1 -13    7.94    0.33
  -9  -1 -13    6.59    0.32
 -11  -1 -13    0.76    0.15
  11   1  13    1.00    0.10
 -13  -1 -13    1.79    0.24
 -15  -1 -13    0.13    0.12
 -16   2  13    1.01    0.18
 -16   2  13    0.94    0.16
 -14   2  13    0.91    0.15
 -14   2  13    0.74    0.13
 -12   2  13    5.68    0.28
 -12   2  13    5.66    0.29
 -10   2  13    0.07    0.06
 -10   2  13    0.12    0.06
  -8   2  13    1.14    0.10
  -8   2  13    1.22    0.12
  -6   2  13    3.18    0.14
  -6   2  13    3.14    0.16
  -4   2  13    0.53    0.07
  -4   2  13    0.47    0.04
  -2   2  13    4.16    0.17
   0   2  13   11.96    0.32
   0   2  13   13.04    0.38
  -2  -2 -13    4.32    0.16
   2   2  13    4.29    0.17
  -4  -2 -13    1.36    0.10
  -6  -2 -13    3.73    0.20
  -8  -2 -13    2.30    0.17
 -10  -2 -13    1.27    0.17
  10   2  13    1.42    0.13
 -12  -2 -13    1.05    0.18
 -14  -2 -13    0.67    0.16
 -17   3  13    0.16    0.10
 -17   3  13    0.13    0.12
 -15   3  13    3.19    0.24
 -15   3  13    3.54    0.27
 -13   3  13    1.08    0.15
 -13   3  13    1.14    0.16
 -11   3  13    1.66    0.17
 -11   3  13    1.65    0.15
  -9   3  13    0.42    0.08
  -9   3  13    0.52    0.09
  -7   3  13    6.85    0.27
  -7   3  13    6.94    0.24
  -5   3  13   16.42    0.45
  -5   3  13   16.74    0.50
  -3   3  13   12.22    0.38
  -1   3  13    7.28    0.25
  -1  -3 -13   14.46    0.39
   1   3  13   14.44    0.42
  -3  -3 -13    2.29    0.12
   3   3  13    2.38    0.12
  -5  -3 -13    0.01    0.02
  -7  -3 -13    5.79    0.27
   7   3  13    5.73    0.23
  -9  -3 -13    3.17    0.22
   9   3  13    2.98    0.16
 -11  -3 -13    1.95    0.21
  11   3  13    1.71    0.13
 -13  -3 -13    4.46    0.31
 -15  -3 -13    0.26    0.14
 -16   4  13    1.24    0.19
 -16   4  13    1.36    0.20
 -14   4  13    0.92    0.16
 -14   4  13    1.18    0.17
 -12   4  13    1.23    0.16
 -12   4  13    1.18    0.15
 -10   4  13    1.63    0.14
 -10   4  13    1.80    0.10
 -10   4  13    1.56    0.16
  -8   4  13    5.02    0.21
  -8   4  13    4.77    0.18
  -8   4  13    4.71    0.23
  -6   4  13    6.35    0.26
   4  -4 -13    5.49    0.17
  -4   4  13    5.64    0.23
  -2   4  13   22.76    0.63
   0  -4 -13   13.06    0.34
   0   4  13   12.73    0.39
  -2  -4 -13    0.48    0.06
   2   4  13    0.45    0.06
  -4  -4 -13    8.92    0.31
   4   4  13    8.63    0.28
   4   4  13    8.58    0.31
  -6  -4 -13    3.55    0.19
   6   4  13    3.78    0.19
  -8  -4 -13    2.41    0.18
   8   4  13    2.24    0.14
 -10  -4 -13    0.73    0.13
  10   4  13    0.54    0.09
 -12  -4 -13    1.09    0.18
  12   4  13    1.15    0.13
 -14  -4 -13    0.32    0.13
 -15   5  13    2.49    0.25
 -15   5  13    1.96    0.23
 -13   5  13    0.13    0.09
 -13   5  13    0.12    0.08
 -11   5  13    1.43    0.15
 -11   5  13    1.28    0.15
   9  -5 -13    0.60    0.10
  -9   5  13    0.71    0.11
  -9   5  13    0.55    0.06
   7  -5 -13    1.57    0.11
  -7   5  13    1.74    0.11
  -7   5  13    1.40    0.14
   5  -5 -13    4.46    0.17
  -5   5  13    4.32    0.20
   3  -5 -13   14.60    0.39
  -3   5  13   14.75    0.45
  -3   5  13   14.63    0.45
   1  -5 -13    3.74    0.12
  -1   5  13    3.67    0.16
  -1   5  13    3.52    0.17
  -1  -5 -13    5.63    0.19
   1   5  13    5.82    0.21
   1   5  13    5.58    0.23
  -3  -5 -13    2.49    0.14
   3   5  13    2.48    0.12
   3   5  13    2.69    0.15
  -5  -5 -13    4.17    0.20
   5   5  13    4.16    0.17
   5   5  13    4.15    0.20
  -7  -5 -13    0.61    0.11
   7   5  13    0.59    0.09
   7   5  13    0.52    0.07
  -9  -5 -13    0.55    0.12
   9   5  13    0.42    0.08
 -11  -5 -13    1.23    0.18
  11   5  13    1.01    0.13
 -13  -5 -13    1.58    0.22
  16  -6 -13    1.63    0.22
 -16   6  13    1.26    0.20
  14  -6 -13    1.69    0.21
 -14   6  13    1.67    0.20
  12  -6 -13    0.43    0.12
 -12   6  13    0.29    0.09
  10  -6 -13    1.96    0.16
 -10   6  13    1.90    0.18
   8  -6 -13    0.11    0.06
  -8   6  13    0.05    0.04
  -8   6  13    0.07    0.06
   6  -6 -13    2.48    0.14
  -6   6  13    2.52    0.14
  -6   6  13    2.45    0.16
   4  -6 -13    3.46    0.14
  -4   6  13    3.76    0.19
  -4   6  13    3.48    0.17
   2  -6 -13   15.00    0.42
  -2   6  13   15.37    0.47
  -2   6  13   15.36    0.46
   0  -6 -13    2.90    0.12
   0   6  13    2.85    0.14
   0   6  13    2.54    0.15
  -2  -6 -13    6.03    0.22
   2   6  13    5.85    0.21
   2   6  13    4.91    0.23
  -4  -6 -13   11.25    0.38
   4   6  13   11.18    0.39
   4   6  13   11.12    0.34
   6   6  13    1.93    0.11
   6   6  13    1.86    0.14
  -8  -6 -13    2.37    0.19
   8   6  13    2.53    0.17
 -10  -6 -13    0.87    0.16
  10   6  13    0.72    0.11
 -12  -6 -13    1.58    0.22
  12   6  13    1.96    0.18
 -14  -6 -13    0.31    0.13
  15  -7 -13    0.00    0.10
 -15   7  13    0.19    0.10
  13  -7 -13    0.75    0.13
 -13   7  13    1.10    0.16
  11  -7 -13    0.18    0.10
 -11   7  13    0.04    0.07
   9  -7 -13    1.85    0.17
  -9   7  13    1.74    0.12
  -9   7  13    1.98    0.18
   7  -7 -13    0.68    0.10
  -7   7  13    0.83    0.10
  -7   7  13    0.94    0.12
   5  -7 -13   11.65    0.37
  -5   7  13   12.03    0.41
  -5   7  13   12.14    0.39
   3  -7 -13   16.95    0.48
  -3   7  13   16.56    0.52
  -3   7  13   17.19    0.53
   1  -7 -13    0.66    0.07
  -1   7  13    0.59    0.09
  -1   7  13    0.53    0.08
  -1  -7 -13    8.57    0.29
   1   7  13    8.76    0.33
   1   7  13    8.77    0.29
  -3  -7 -13    2.85    0.16
   3   7  13    3.35    0.19
   3   7  13    3.32    0.14
  -5  -7 -13    0.34    0.08
   5   7  13    0.34    0.08
   5   7  13    0.28    0.05
  -7  -7 -13    1.23    0.16
   7   7  13    1.06    0.13
  -9  -7 -13    2.30    0.21
   9   7  13    2.45    0.18
 -11  -7 -13    2.43    0.26
  11   7  13    2.85    0.20
 -13  -7 -13   -0.08    0.09
  14  -8 -13   -0.02    0.07
 -14   8  13    0.14    0.11
  12  -8 -13    0.20    0.11
 -12   8  13    0.22    0.10
  10  -8 -13    0.56    0.12
 -10   8  13    0.57    0.12
   8  -8 -13    0.05    0.08
  -8   8  13    0.14    0.08
  -8   8  13    0.07    0.05
   6  -8 -13    1.34    0.13
  -6   8  13    1.11    0.14
   4  -8 -13    2.06    0.13
  -4   8  13    2.26    0.15
  -4   8  13    2.14    0.15
   2  -8 -13    7.51    0.27
  -2   8  13    7.83    0.31
  -2   8  13    7.60    0.29
   0  -8 -13    4.79    0.20
   0   8  13    4.43    0.19
   0   8  13    4.62    0.23
  -2  -8 -13    0.36    0.07
   2   8  13    0.54    0.07
   2   8  13    0.39    0.08
  -4  -8 -13    0.80    0.11
   4   8  13    0.76    0.12
  -6  -8 -13   -0.03    0.05
   6   8  13    0.06    0.06
  -8  -8 -13    2.67    0.22
   8   8  13    2.94    0.20
 -10  -8 -13    0.32    0.12
  10   8  13    0.33    0.09
 -12  -8 -13    1.65    0.23
  12   8  13    1.39    0.17
 -13   9  13    1.91    0.23
  11  -9 -13    1.14    0.16
 -11   9  13    0.88    0.15
   9  -9 -13    3.55    0.26
  -9   9  13    3.79    0.24
  -9   9  13    4.20    0.28
   7  -9 -13    0.68    0.12
  -7   9  13    0.59    0.09
  -7   9  13    0.51    0.10
   5  -9 -13    3.03    0.18
  -5   9  13    2.73    0.18
  -5   9  13    2.71    0.18
   3  -9 -13   13.81    0.43
  -3   9  13   13.76    0.45
  -3   9  13   13.64    0.47
   1  -9 -13    2.41    0.15
  -1   9  13    2.36    0.17
  -1   9  13    2.29    0.14
  -1  -9 -13   10.42    0.36
   1   9  13   10.46    0.34
   1   9  13   10.59    0.40
  -3  -9 -13    1.79    0.14
   3   9  13    1.57    0.17
  -5  -9 -13   10.73    0.41
   5   9  13   10.82    0.42
  -7  -9 -13    0.13    0.06
   7   9  13    0.74    0.13
  -9  -9 -13    2.40    0.25
   9   9  13    1.83    0.19
 -11  -9 -13    2.09    0.25
  11   9  13    1.79    0.20
 -12  10  13    0.40    0.13
 -10  10  13    0.15    0.10
  -8  10  13    0.72    0.13
  -8  10  13    0.85    0.12
  -6  10  13    2.47    0.19
  -6  10  13    2.59    0.18
   4 -10 -13    3.57    0.20
  -4  10  13    3.85    0.22
  -4  10  13    3.86    0.21
   2 -10 -13   10.04    0.36
  -2  10  13   10.05    0.40
  -2  10  13   10.12    0.36
   0 -10 -13    5.05    0.23
   0  10  13    4.97    0.26
   0  10  13    4.87    0.21
  -2 -10 -13    1.66    0.14
   2  10  13    1.75    0.18
  -4 -10 -13    5.63    0.27
   4  10  13    5.52    0.29
  -6 -10 -13    1.74    0.19
   6  10  13    1.91    0.19
  -8 -10 -13    0.66    0.14
   8  10  13    0.57    0.13
 -10 -10 -13    0.33    0.13
  10  10  13    0.49    0.12
 -11  11  13    0.20    0.12
  -9  11  13    4.36    0.27
  -5  11  13    0.17    0.08
  -5  11  13    0.13    0.08
  -3  11  13    4.51    0.23
  -3  11  13    4.88    0.26
  -1  11  13    3.30    0.22
  -1  11  13    2.99    0.17
  -1 -11 -13    2.65    0.17
   1  11  13    2.44    0.22
  -3 -11 -13    2.31    0.18
   3  11  13    2.11    0.20
  -5 -11 -13    3.01    0.22
   5  11  13    2.95    0.23
   7  11  13    1.26    0.17
  -9 -11 -13    0.73    0.16
   9  11  13    0.95    0.16
 -10  12  13    0.19    0.10
  -8  12  13    2.09    0.20
  -8  12  13    2.13    0.21
  -6  12  13    0.82    0.14
  -6  12  13    0.57    0.12
  -4  12  13    1.64    0.18
  -4  12  13    2.02    0.18
  -2  12  13    0.06    0.07
   0  12  13    1.30    0.17
   2  12  13    1.45    0.18
  -4 -12 -13    0.13    0.09
   4  12  13    0.15    0.09
  -6 -12 -13    1.52    0.19
   6  12  13    0.99    0.16
  -8 -12 -13    0.07    0.10
   8  12  13    0.10    0.10
  -7  13  13    0.01    0.08
  -7  13  13    0.09    0.08
  -5  13  13    0.18    0.10
  -5  13  13    0.37    0.10
  -3  13  13    0.17    0.09
  -1  13  13    0.05    0.08
   1  13  13    1.73    0.20
   3  13  13    0.45    0.12
   5  13  13    1.55    0.19
  -4  14  13    1.05    0.17
  -2  14  13   -0.04    0.08
   0  14  13    0.77    0.15
   2  14  13    0.79    0.15
  -4 -14  14    0.78    0.17
  -2 -14  14    0.06    0.10
   0 -14  14    1.18    0.21
   2 -14  14    0.25    0.15
  -7 -13  14    0.91    0.18
  -5 -13  14    0.82    0.17
  -3 -13  14    1.32    0.21
  -1 -13  14   -0.06    0.10
   1 -13  14    1.23    0.21
   3 -13  14    1.00    0.21
   5 -13  14    0.83    0.22
 -10 -12  14    0.16    0.12
  -8 -12  14    4.07    0.31
  -6 -12  14    1.86    0.24
  -4 -12  14    0.62    0.15
  -2 -12  14    0.40    0.13
   0 -12  14    2.30    0.26
   2 -12  14    2.02    0.27
   4 -12  14    1.01    0.20
   6 -12  14    2.49    0.32
 -11 -11  14    0.40    0.14
  -9 -11  14    0.97    0.17
  -7 -11  14    1.26    0.19
  -5 -11  14    7.19    0.38
  -3 -11  14    0.15    0.09
  -1 -11  14    0.25    0.11
   1 -11  14    2.54    0.27
   3 -11  14    0.41    0.14
   5 -11  14    2.89    0.32
   7 -11  14    0.01    0.13
   9 -11  14   -0.07    0.14
 -12 -10  14    2.36    0.28
 -10 -10  14    0.45    0.13
  -8 -10  14    3.56    0.26
  -6 -10  14    0.28    0.11
  -4 -10  14    1.18    0.17
  -2 -10  14    4.71    0.30
   0 -10  14    2.39    0.25
   2 -10  14    7.13    0.40
   4 -10  14    2.90    0.30
   6 -10  14   10.49    0.51
   8 -10  14   -0.01    0.12
  10 -10  14    1.20    0.24
 -13  -9  14   -0.03    0.09
 -11  -9  14    0.71    0.15
  -9  -9  14    0.59    0.13
  -7  -9  14    0.83    0.15
  -5  -9  14    1.28    0.11
  -5  -9  14    0.76    0.14
  -3  -9  14    0.32    0.07
  -3  -9  14    0.31    0.11
  -1  -9  14    2.89    0.24
   1  -9  14    3.26    0.27
   3  -9  14    2.23    0.24
   5  -9  14    3.96    0.31
   7  -9  14    0.61    0.16
   9  -9  14    0.75    0.19
  11  -9  14    0.29    0.15
 -14  -8  14    0.18    0.13
 -12  -8  14    0.28    0.11
 -10  -8  14    0.12    0.09
  -8  -8  14    2.55    0.20
  -6  -8  14    2.29    0.13
  -6  -8  14    2.51    0.20
  -4  -8  14    9.78    0.41
  -4  -8  14   10.38    0.33
  -2  -8  14   13.01    0.50
   0  -8  14    1.67    0.19
   2  -8  14    2.81    0.24
   4  -8  14    0.41    0.13
   6  -8  14    7.81    0.41
   8  -8  14    0.34    0.15
  10  -8  14    3.16    0.32
  12  -8  14    1.25    0.24
 -15  -7  14    0.51    0.15
 -13  -7  14    0.26    0.12
 -11  -7  14    1.24    0.18
  -9  -7  14    2.41    0.20
  -7  -7  14    0.43    0.11
  -7  -7  14    0.42    0.07
  -5  -7  14    7.45    0.33
  -5  -7  14    7.06    0.25
  -3  -7  14    2.39    0.19
  -3  -7  14    2.27    0.13
  -1  -7  14   20.78    0.67
   1  -7  14    0.25    0.09
   3  -7  14    3.12    0.24
   5  -7  14    0.67    0.15
   7  -7  14    4.10    0.30
   9  -7  14    1.60    0.23
  11  -7  14    0.40    0.16
  13  -7  14    1.65    0.26
 -16  -6  14    0.59    0.16
 -14  -6  14    1.56    0.22
 -12  -6  14    0.13    0.10
 -10  -6  14    0.91    0.10
 -10  -6  14    0.82    0.14
  -8  -6  14    2.05    0.12
  -8  -6  14    1.96    0.17
  -6  -6  14    4.18    0.18
  -6  -6  14    4.21    0.23
  -4  -6  14   12.47    0.45
  -4  -6  14   12.44    0.38
  -2  -6  14    7.21    0.31
   0  -6  14    2.36    0.18
   2  -6  14    1.68    0.18
   4  -6  14    2.00    0.20
   6  -6  14    0.64    0.15
   8  -6  14    0.25    0.11
  10  -6  14    0.70    0.16
  12  -6  14    1.53    0.24
 -15  -5  14    1.80    0.23
 -13  -5  14    0.38    0.12
 -11  -5  14    1.20    0.17
 -11  -5  14    1.40    0.13
  -9  -5  14    0.47    0.07
  -9  -5  14    0.44    0.10
  -7  -5  14    2.09    0.12
  -7  -5  14    2.07    0.16
  -5  -5  14    3.53    0.16
  -5  -5  14    3.63    0.20
  -1  -5  14   11.73    0.42
   1  -5  14    2.33    0.17
   3  -5  14    0.58    0.11
   5  -5  14    9.67    0.40
   7  -5  14    3.02    0.24
   9  -5  14    1.71    0.22
  11  -5  14    0.02    0.12
  13  -5  14    2.59    0.30
 -16  -4  14    0.74    0.16
 -14  -4  14    3.30    0.26
 -14  -4  14    3.21    0.20
 -12  -4  14    2.55    0.17
 -12  -4  14    2.55    0.21
 -10  -4  14    0.38    0.09
 -10  -4  14    0.43    0.08
  -8  -4  14    3.82    0.17
  -8  -4  14    3.87    0.22
  -6  -4  14    4.04    0.17
  -6  -4  14    3.84    0.20
  -4  -4  14    0.49    0.07
  -2  -4  14   34.71    0.93
  -2  -4  14   35.37    0.96
   0  -4  14    2.42    0.17
   2  -4  14    2.48    0.18
   4  -4  14   11.14    0.42
   6  -4  14    2.68    0.20
   8  -4  14    1.23    0.17
  10  -4  14    0.57    0.14
  12  -4  14    0.55    0.15
  14  -4  14    0.21    0.14
 -17  -3  14    0.21    0.12
 -15  -3  14    3.85    0.28
 -15  -3  14    4.52    0.24
 -13  -3  14    2.22    0.16
 -13  -3  14    2.26    0.23
 -11  -3  14    0.44    0.08
 -11  -3  14    0.52    0.11
  -9  -3  14    1.62    0.14
  -9  -3  14    1.40    0.11
  -5  -3  14    8.10    0.30
  -5  -3  14    8.16    0.28
  -3  -3  14    5.14    0.20
  -3  -3  14    5.17    0.22
  -1  -3  14   47.50    1.24
   1  -3  14    2.15    0.15
   3  -3  14    9.77    0.36
   5  -3  14    7.33    0.32
   7  -3  14    5.35    0.28
   9  -3  14    1.51    0.19
  11  -3  14    0.84    0.17
  13  -3  14    0.18    0.12
  15  -3  14    0.50    0.19
 -16  -2  14    1.39    0.21
 -14  -2  14    2.33    0.24
 -14  -2  14    2.06    0.17
 -12  -2  14    5.07    0.28
 -12  -2  14    4.80    0.24
 -10  -2  14    9.21    0.37
 -10  -2  14    9.33    0.34
  -8  -2  14    0.99    0.11
  -8  -2  14    1.05    0.12
  -6  -2  14   15.81    0.47
  -6  -2  14   15.73    0.48
  -4  -2  14   10.59    0.34
  -4  -2  14   11.19    0.35
  -2  -2  14    0.98    0.09
  -2  -2  14    1.01    0.10
   0  -2  14   19.28    0.55
   2  -2  14    0.76    0.10
   4  -2  14    6.78    0.28
   6  -2  14    0.78    0.12
   8  -2  14    2.85    0.22
 -10   2 -14    2.38    0.21
 -12   2 -14    2.20    0.24
 -14   2 -14    1.37    0.22
 -17  -1  14    0.41    0.12
 -17  -1  14    0.21    0.13
 -15  -1  14    0.24    0.11
 -15  -1  14    0.22    0.09
 -13  -1  14   -0.02    0.06
 -13  -1  14    0.09    0.07
 -11  -1  14    1.00    0.14
 -11  -1  14    1.27    0.14
  -9  -1  14    0.05    0.05
  -9  -1  14    0.08    0.05
  -7  -1  14    1.75    0.12
  -7  -1  14    1.99    0.13
  -5  -1  14    1.50    0.10
  -5  -1  14    1.43    0.10
  -3  -1  14    2.10    0.12
  -3  -1  14    2.01    0.11
  -1  -1  14    4.38    0.18
  -1  -1  14    4.37    0.17
   1  -1  14   11.17    0.35
   3  -1  14    0.89    0.10
   5  -1  14    0.48    0.09
  -9   1 -14    0.02    0.06
   9  -1  14    0.03    0.08
 -11   1 -14    0.18    0.10
 -13   1 -14    0.26    0.12
 -15   1 -14    0.12    0.12
  15  -1  14    0.20    0.13
 -16   0  14    0.09    0.10
 -16   0  14   -0.04    0.07
 -14   0  14    1.53    0.17
 -14   0  14    1.71    0.20
 -12   0  14    3.76    0.23
 -12   0  14    3.96    0.22
 -10   0  14   12.53    0.43
 -10   0  14   13.15    0.45
  -8   0  14    0.26    0.07
  -8   0  14    0.25    0.06
  -6   0  14   44.20    1.16
  -6   0  14   44.68    1.14
  -4   0  14   18.01    0.49
  -4   0  14   18.03    0.52
  -2   0  14    2.39    0.13
  -2   0  14    2.56    0.11
   0   0  14   25.46    0.66
   0   0  14   24.66    0.68
   2   0  14    5.03    0.20
  -4   0 -14   32.74    0.89
  -6   0 -14    3.02    0.18
  -8   0 -14   23.78    0.75
 -10   0 -14    1.49    0.19
 -12   0 -14    2.10    0.25
 -14   0 -14    2.81    0.31
 -17   1  14    0.19    0.11
 -17   1  14    0.17    0.10
 -15   1  14    0.35    0.12
 -15   1  14    0.32    0.10
 -13   1  14    0.18    0.08
 -13   1  14    0.17    0.08
 -11   1  14    1.12    0.14
 -11   1  14    0.97    0.13
  -9   1  14    0.02    0.05
  -9   1  14    0.08    0.05
  -7   1  14    1.74    0.13
  -7   1  14    1.88    0.11
  -5   1  14    1.69    0.12
  -5   1  14    1.56    0.09
  -3   1  14    1.92    0.12
  -3   1  14    2.08    0.08
  -1   1  14    4.52    0.18
   1   1  14   10.42    0.31
   1   1  14   10.74    0.34
  -3  -1 -14    0.97    0.10
  -5  -1 -14    0.64    0.09
  -7  -1 -14    3.28    0.20
  -9  -1 -14    0.02    0.06
 -11  -1 -14    0.03    0.09
  11   1  14    0.22    0.06
 -13  -1 -14    0.41    0.14
 -15  -1 -14    0.09    0.11
 -16   2  14    1.54    0.20
 -16   2  14    1.37    0.20
 -14   2  14    2.44    0.20
 -14   2  14    1.99    0.21
 -12   2  14    4.75    0.26
 -12   2  14    4.94    0.26
 -10   2  14    9.37    0.37
 -10   2  14   10.33    0.37
  -8   2  14    1.08    0.09
  -8   2  14    0.95    0.11
  -6   2  14   16.42    0.46
  -6   2  14   16.41    0.50
  -4   2  14   11.43    0.30
  -4   2  14   10.98    0.36
  -2   2  14    0.80    0.08
   0   2  14   19.84    0.56
   0   2  14   19.72    0.50
  -2  -2 -14    0.84    0.07
   2   2  14    0.90    0.09
  -4  -2 -14    6.51    0.25
  -6  -2 -14    0.68    0.10
  -8  -2 -14    6.55    0.30
 -10  -2 -14    2.30    0.19
  10   2  14    2.46    0.15
 -12  -2 -14    2.16    0.24
 -14  -2 -14    1.93    0.26
 -17   3  14    0.11    0.10
 -17   3  14    0.18    0.13
 -15   3  14    4.01    0.26
 -15   3  14    4.30    0.29
 -13   3  14    2.51    0.20
 -13   3  14    2.24    0.19
 -11   3  14    0.36    0.09
 -11   3  14    0.45    0.10
  -9   3  14    1.59    0.12
  -9   3  14    1.88    0.15
  -7   3  14    2.39    0.15
  -7   3  14    2.31    0.12
  -5   3  14    8.45    0.25
  -5   3  14    8.48    0.31
  -3   3  14    5.19    0.21
  -1   3  14   46.85    1.20
  -1  -3 -14    1.91    0.09
   1   3  14    1.80    0.11
  -3  -3 -14    9.47    0.30
   3   3  14    9.31    0.31
  -5  -3 -14    6.23    0.25
  -7  -3 -14    5.87    0.27
  -9  -3 -14    1.59    0.18
   9   3  14    1.65    0.12
 -11  -3 -14    1.02    0.16
  11   3  14    0.79    0.10
 -13  -3 -14    0.23    0.11
 -15  -3 -14    0.45    0.15
 -16   4  14    0.65    0.15
 -16   4  14    0.47    0.14
 -14   4  14    3.59    0.25
 -14   4  14    3.23    0.24
 -12   4  14    2.67    0.20
 -12   4  14    2.87    0.20
 -10   4  14    0.35    0.09
 -10   4  14    0.36    0.08
 -10   4  14    0.37    0.05
  -8   4  14    4.18    0.19
  -8   4  14    4.40    0.22
  -6   4  14    3.95    0.20
   4  -4 -14    1.11    0.06
  -4   4  14    1.11    0.11
  -2   4  14   34.99    0.93
   0  -4 -14    2.23    0.09
   0   4  14    2.49    0.13
  -2  -4 -14    2.65    0.12
   2   4  14    2.45    0.13
  -4  -4 -14   11.41    0.37
   4   4  14   11.53    0.36
   6   4  14    2.82    0.15
   6   4  14    2.95    0.16
  -8  -4 -14    1.56    0.17
   8   4  14    1.43    0.13
 -10  -4 -14    0.78    0.14
  10   4  14    0.73    0.10
 -12  -4 -14    0.43    0.13
  12   4  14    0.54    0.10
 -14  -4 -14    0.39    0.15
 -15   5  14    2.12    0.23
 -15   5  14    1.78    0.21
 -13   5  14    0.36    0.11
 -13   5  14    0.42    0.11
 -11   5  14    1.23    0.14
 -11   5  14    1.42    0.17
   9  -5 -14    0.40    0.08
  -9   5  14    0.44    0.09
  -9   5  14    0.44    0.06
   7  -5 -14    2.25    0.13
  -7   5  14    2.30    0.16
  -7   5  14    2.18    0.13
   5  -5 -14    3.59    0.14
  -5   5  14    3.54    0.18
  -5   5  14    2.75    0.15
   3  -5 -14    6.50    0.19
  -3   5  14    6.45    0.25
   1  -5 -14   11.86    0.32
  -1   5  14   12.55    0.38
  -1  -5 -14    2.19    0.10
   1   5  14    2.18    0.12
  -3  -5 -14    0.63    0.08
   3   5  14    0.52    0.08
   3   5  14    0.74    0.08
  -5  -5 -14   10.39    0.37
   5   5  14   10.53    0.33
   5   5  14   10.68    0.37
  -7  -5 -14    2.57    0.18
   7   5  14    2.89    0.15
   7   5  14    2.79    0.17
  -9  -5 -14    1.60    0.19
   9   5  14    1.63    0.15
 -11  -5 -14    0.26    0.10
  11   5  14    0.03    0.06
 -13  -5 -14    2.80    0.30
  16  -6 -14    0.49    0.15
 -16   6  14    0.51    0.15
  14  -6 -14    0.71    0.13
 -14   6  14    1.58    0.20
  12  -6 -14    0.10    0.10
 -12   6  14    0.16    0.09
  10  -6 -14    1.16    0.14
 -10   6  14    1.05    0.14
   8  -6 -14    2.09    0.15
  -8   6  14    2.48    0.18
  -8   6  14    2.40    0.13
   6  -6 -14    4.03    0.18
  -6   6  14    4.47    0.19
  -6   6  14    4.18    0.22
   4  -6 -14   12.49    0.36
  -4   6  14   13.32    0.42
  -4   6  14   12.90    0.42
   2  -6 -14    7.15    0.22
  -2   6  14    6.96    0.27
  -2   6  14    7.43    0.28
   0  -6 -14    2.32    0.11
   0   6  14    2.61    0.13
   0   6  14    2.12    0.14
  -2  -6 -14    1.89    0.11
   2   6  14    1.57    0.10
   2   6  14    1.89    0.13
  -4  -6 -14    1.78    0.13
   4   6  14    1.77    0.11
   4   6  14    1.83    0.14
  -6  -6 -14    0.91    0.12
   6   6  14    0.79    0.11
   6   6  14    0.76    0.08
  -8  -6 -14    0.17    0.08
   8   6  14    0.25    0.08
 -10  -6 -14    1.29    0.18
  10   6  14    1.23    0.14
 -12  -6 -14    1.36    0.20
  12   6  14    1.81    0.17
  15  -7 -14    0.25    0.11
 -15   7  14    0.45    0.13
  13  -7 -14    0.19    0.11
 -13   7  14    0.15    0.09
  11  -7 -14    1.30    0.16
 -11   7  14    1.43    0.18
   9  -7 -14    2.24    0.17
  -9   7  14    2.43    0.19
  -9   7  14    2.24    0.14
   7  -7 -14    0.46    0.09
  -7   7  14    0.46    0.08
  -7   7  14    0.42    0.09
   5  -7 -14    7.53    0.27
  -5   7  14    8.38    0.30
  -5   7  14    8.02    0.32
   3  -7 -14    2.17    0.11
  -3   7  14    2.20    0.15
  -3   7  14    2.25    0.14
   1  -7 -14   20.94    0.57
  -1   7  14   20.13    0.62
  -1   7  14   21.38    0.60
  -1  -7 -14    0.32    0.06
   1   7  14    0.28    0.07
   1   7  14    0.30    0.06
  -3  -7 -14    2.69    0.15
   3   7  14    2.96    0.14
   3   7  14    2.90    0.18
  -5  -7 -14    0.85    0.11
   5   7  14    0.76    0.08
   5   7  14    0.79    0.11
  -9  -7 -14    1.67    0.19
   9   7  14    1.60    0.16
 -11  -7 -14    0.37    0.12
  11   7  14    0.38    0.10
 -13  -7 -14    1.84    0.25
 -14   8  14    0.25    0.12
  12  -8 -14    0.43    0.12
 -12   8  14    0.47    0.12
  10  -8 -14    0.06    0.08
 -10   8  14    0.09    0.08
   8  -8 -14    2.55    0.18
  -8   8  14    2.49    0.15
  -8   8  14    2.64    0.20
   6  -8 -14    2.47    0.16
  -6   8  14    2.36    0.17
   4  -8 -14   10.33    0.34
  -4   8  14   10.67    0.38
  -4   8  14   10.13    0.37
   2  -8 -14   12.92    0.39
  -2   8  14   13.07    0.42
  -2   8  14   13.02    0.45
   0  -8 -14    1.63    0.11
   0   8  14    1.67    0.15
   0   8  14    1.72    0.12
  -2  -8 -14    2.69    0.15
   2   8  14    2.60    0.14
   2   8  14    2.70    0.18
  -4  -8 -14    0.45    0.09
   4   8  14    0.62    0.10
  -6  -8 -14    7.31    0.32
   6   8  14    7.18    0.32
  -8  -8 -14    0.58    0.12
   8   8  14    0.38    0.09
 -10  -8 -14    3.54    0.26
  10   8  14    3.55    0.23
 -12  -8 -14    1.66    0.23
  12   8  14    1.41    0.17
 -13   9  14    0.09    0.10
 -11   9  14    1.07    0.17
  -9   9  14    0.93    0.14
  -9   9  14    0.76    0.12
   7  -9 -14    0.70    0.14
  -7   9  14    0.78    0.10
  -7   9  14    0.81    0.13
   5  -9 -14    1.14    0.12
  -5   9  14    1.32    0.14
  -5   9  14    1.01    0.12
   3  -9 -14    0.32    0.07
  -3   9  14    0.22    0.07
  -3   9  14    0.22    0.07
   1  -9 -14    3.03    0.16
  -1   9  14    2.83    0.19
  -1   9  14    2.91    0.16
  -1  -9 -14    3.32    0.17
   1   9  14    3.25    0.16
   1   9  14    3.09    0.20
  -3  -9 -14    2.78    0.17
   3   9  14    2.86    0.20
  -5  -9 -14    3.77    0.22
   5   9  14    4.19    0.24
  -7  -9 -14    0.48    0.11
   7   9  14    0.86    0.13
  -9  -9 -14    0.65    0.14
   9   9  14    0.73    0.13
 -11  -9 -14    0.05    0.10
  11   9  14   -0.04    0.08
 -12  10  14    2.25    0.24
 -10  10  14    0.29    0.11
  -8  10  14    4.29    0.26
  -8  10  14    3.58    0.21
  -6  10  14    0.40    0.10
  -6  10  14    0.43    0.10
  -4  10  14    1.38    0.15
  -4  10  14    1.12    0.14
  -2  10  14    4.88    0.26
  -2  10  14    4.97    0.23
   0 -10 -14    2.82    0.17
   0  10  14    2.89    0.16
   0  10  14    3.20    0.21
  -2 -10 -14    7.10    0.30
   2  10  14    7.49    0.34
  -4 -10 -14    2.84    0.19
   4  10  14    3.13    0.21
  -6 -10 -14   12.36    0.48
   6  10  14   12.25    0.48
  -8 -10 -14    0.18    0.09
   8  10  14    0.27    0.10
 -10 -10 -14    1.07    0.18
  10  10  14    1.12    0.17
 -11  11  14    0.47    0.13
  -9  11  14    1.47    0.19
  -7  11  14    0.91    0.14
  -5  11  14    7.34    0.33
  -5  11  14    7.67    0.33
  -3  11  14    0.16    0.08
  -3  11  14    0.14    0.07
  -1  11  14    0.29    0.09
  -1  11  14    0.30    0.08
   1  11  14    2.97    0.22
  -3 -11 -14    0.37    0.09
   3  11  14    0.36    0.10
  -5 -11 -14    3.31    0.23
   5  11  14    3.17    0.24
  -7 -11 -14    0.13    0.09
   7  11  14    0.02    0.08
  -9 -11 -14   -0.04    0.09
   9  11  14    0.09    0.09
 -10  12  14    0.46    0.13
  -8  12  14    4.46    0.26
  -8  12  14    5.00    0.29
  -6  12  14    2.45    0.20
  -6  12  14    2.18    0.20
  -4  12  14    0.94    0.13
  -4  12  14    0.68    0.13
  -2  12  14    0.22    0.09
   0  12  14    3.47    0.24
   2  12  14    1.94    0.20
   4  12  14    1.17    0.17
   6  12  14    1.83    0.21
  -8 -12 -14    0.01    0.07
  -7  13  14    0.84    0.15
  -7  13  14    0.98    0.16
  -5  13  14    0.85    0.15
  -5  13  14    0.71    0.12
  -3  13  14    1.49    0.18
  -1  13  14   -0.07    0.08
   1  13  14    1.54    0.19
   3  13  14    0.78    0.15
   5  13  14    0.88    0.16
  -4  14  14    1.13    0.17
  -2  14  14    0.12    0.10
   0  14  14    1.41    0.19
   2  14  14    0.12    0.10
  -4 -14  15    0.74    0.17
  -2 -14  15    0.63    0.16
   0 -14  15    0.02    0.13
   2 -14  15    1.19    0.22
  -7 -13  15    0.65    0.16
  -5 -13  15    0.36    0.13
  -3 -13  15    0.73    0.17
  -1 -13  15    0.05    0.10
   1 -13  15    0.87    0.18
   3 -13  15    0.44    0.18
   5 -13  15    0.13    0.19
 -10 -12  15    0.05    0.09
  -8 -12  15    1.54    0.22
  -6 -12  15    1.32    0.20
  -4 -12  15    0.61    0.16
  -2 -12  15    0.76    0.17
   0 -12  15    0.95    0.18
   2 -12  15    4.38    0.34
   4 -12  15    0.85    0.21
   6 -12  15    2.13    0.32
 -11 -11  15    0.74    0.18
  -9 -11  15    2.86    0.26
  -7 -11  15    0.96    0.18
  -5 -11  15    2.00    0.22
  -3 -11  15    1.60    0.21
  -1 -11  15    1.03    0.18
   1 -11  15    7.76    0.42
   3 -11  15    0.84    0.18
   5 -11  15    2.26    0.28
   7 -11  15    1.41    0.26
   9 -11  15    0.01    0.16
 -12 -10  15    0.23    0.11
 -10 -10  15    0.07    0.10
  -8 -10  15    0.98    0.17
  -6 -10  15    4.35    0.29
  -4 -10  15    6.67    0.35
  -2 -10  15    7.14    0.37
   0 -10  15    2.94    0.26
   2 -10  15    0.51    0.14
   4 -10  15    1.72    0.24
   6 -10  15    0.22    0.15
   8 -10  15    0.16    0.15
  10 -10  15    0.05    0.16
 -13  -9  15    1.41    0.21
 -11  -9  15    0.89    0.17
  -9  -9  15    2.11    0.23
  -7  -9  15    0.86    0.15
  -5  -9  15    3.84    0.26
  -5  -9  15    3.92    0.18
  -3  -9  15    5.47    0.31
  -3  -9  15    5.70    0.24
  -1  -9  15    0.36    0.11
   1  -9  15    0.05    0.11
   3  -9  15    0.46    0.16
   5  -9  15    1.34    0.21
   7  -9  15    6.82    0.41
   9  -9  15    0.30    0.17
  11  -9  15    2.49    0.32
 -14  -8  15    0.10    0.11
 -12  -8  15    0.15    0.10
 -10  -8  15    2.10    0.23
  -8  -8  15    0.19    0.09
  -6  -8  15    1.30    0.16
  -6  -8  15    1.38    0.11
  -4  -8  15    1.30    0.17
  -4  -8  15    1.29    0.12
  -2  -8  15   10.13    0.43
   0  -8  15    1.82    0.20
   2  -8  15    0.84    0.15
   4  -8  15    0.98    0.18
   6  -8  15    0.85    0.17
   8  -8  15    0.75    0.17
  10  -8  15    0.16    0.14
  12  -8  15    0.65    0.20
 -15  -7  15   -0.02    0.10
 -13  -7  15    1.32    0.20
 -11  -7  15    0.71    0.15
  -9  -7  15    1.88    0.20
  -7  -7  15    2.08    0.13
  -7  -7  15    2.17    0.18
  -5  -7  15    2.31    0.13
  -5  -7  15    2.22    0.18
  -3  -7  15   10.95    0.36
  -3  -7  15   10.96    0.42
  -1  -7  15    1.27    0.16
   1  -7  15    6.25    0.32
   3  -7  15    5.04    0.31
   5  -7  15    4.50    0.29
   7  -7  15    2.76    0.27
   9  -7  15    0.22    0.12
  11  -7  15    2.70    0.31
 -16  -6  15    0.48    0.15
 -14  -6  15    1.35    0.21
 -12  -6  15    0.79    0.16
 -10  -6  15    2.46    0.15
 -10  -6  15    2.46    0.20
  -8  -6  15    0.93    0.10
  -8  -6  15    0.88    0.14
  -6  -6  15   10.73    0.41
  -6  -6  15   10.66    0.34
  -4  -6  15    2.53    0.14
  -4  -6  15    2.77    0.19
  -2  -6  15    6.03    0.29
   0  -6  15    2.72    0.20
   2  -6  15    1.37    0.17
   4  -6  15    1.76    0.20
   6  -6  15    0.57    0.14
   8  -6  15    3.51    0.27
  10  -6  15    0.31    0.14
  12  -6  15    0.82    0.20
 -15  -5  15    1.34    0.21
 -13  -5  15    0.36    0.12
 -11  -5  15    0.69    0.09
 -11  -5  15    0.95    0.15
  -9  -5  15    0.90    0.14
  -9  -5  15    0.67    0.09
  -7  -5  15    4.64    0.24
  -7  -5  15    4.26    0.19
  -5  -5  15    6.32    0.23
  -5  -5  15    6.28    0.28
  -3  -5  15    7.38    0.27
  -3  -5  15    7.64    0.31
  -1  -5  15    4.29    0.23
   1  -5  15    2.94    0.20
   3  -5  15    2.39    0.18
   5  -5  15    5.03    0.28
   7  -5  15    2.89    0.24
   9  -5  15    0.25    0.12
  11  -5  15    0.27    0.14
  13  -5  15    1.18    0.22
 -16  -4  15    0.75    0.16
 -14  -4  15    3.03    0.25
 -14  -4  15    2.83    0.19
 -12  -4  15    1.59    0.19
 -12  -4  15    1.65    0.16
 -10  -4  15    0.28    0.07
 -10  -4  15    0.19    0.08
  -8  -4  15    1.00    0.10
  -8  -4  15    0.81    0.12
  -6  -4  15    2.27    0.13
  -6  -4  15    2.84    0.17
  -4  -4  15   14.83    0.47
  -4  -4  15   14.53    0.44
  -2  -4  15   27.57    0.75
  -2  -4  15   26.87    0.77
   0  -4  15    2.38    0.17
   2  -4  15    1.24    0.15
   4  -4  15   16.47    0.55
   6  -4  15    2.04    0.20
   8  -4  15    2.26    0.23
  10  -4  15    0.65    0.15
  12  -4  15    0.66    0.17
  14  -4  15    0.65    0.19
 -17  -3  15    0.03    0.10
 -15  -3  15    3.37    0.27
 -15  -3  15    3.89    0.23
 -13  -3  15    0.84    0.12
 -13  -3  15    0.78    0.14
 -11  -3  15    0.52    0.09
 -11  -3  15    0.53    0.11
  -9  -3  15    1.30    0.14
  -7  -3  15    0.62    0.08
  -7  -3  15    0.70    0.10
  -5  -3  15   28.12    0.77
  -5  -3  15   28.25    0.79
  -3  -3  15   24.19    0.68
  -3  -3  15   23.73    0.66
  -1  -3  15   46.30    1.20
  -1  -3  15   46.26    1.21
   1  -3  15    3.44    0.19
   3  -3  15    8.70    0.34
   5  -3  15    6.78    0.30
   7  -3  15    3.52    0.23
   9  -3  15    1.56    0.20
  11  -3  15    0.09    0.09
  13  -3  15    1.55    0.24
 -16  -2  15    0.34    0.13
 -16  -2  15    0.16    0.07
 -14  -2  15    1.53    0.16
 -14  -2  15    1.50    0.20
 -12  -2  15    5.42    0.29
 -12  -2  15    4.83    0.25
 -10  -2  15    1.00    0.12
 -10  -2  15    0.78    0.12
  -8  -2  15    0.39    0.07
  -8  -2  15    0.44    0.09
  -6  -2  15    6.15    0.23
  -6  -2  15    5.78    0.24
  -4  -2  15   14.19    0.42
  -4  -2  15   13.53    0.42
  -2  -2  15    7.25    0.26
  -2  -2  15    7.22    0.26
   0  -2  15   38.43    1.02
   2  -2  15   -0.03    0.06
   4  -2  15    8.82    0.34
   6  -2  15    0.01    0.07
   8  -2  15    2.96    0.22
  10  -2  15    0.87    0.17
 -12   2 -15    1.07    0.18
  12  -2  15    0.73    0.17
 -14   2 -15   -0.07    0.11
  14  -2  15    0.27    0.14
 -17  -1  15    0.21    0.12
 -17  -1  15    0.09    0.09
 -15  -1  15    1.18    0.19
 -15  -1  15    0.91    0.14
 -13  -1  15    1.57    0.18
 -13  -1  15    1.54    0.16
 -11  -1  15   10.60    0.39
 -11  -1  15   10.98    0.42
  -9  -1  15    1.25    0.13
  -9  -1  15    1.39    0.14
  -7  -1  15    4.31    0.19
  -7  -1  15    4.19    0.19
  -5  -1  15   11.40    0.36
  -5  -1  15   11.59    0.37
  -3  -1  15    0.88    0.08
  -3  -1  15    0.86    0.09
  -1  -1  15    0.71    0.08
  -1  -1  15    0.73    0.08
   1  -1  15   19.73    0.56
   3  -1  15    8.74    0.32
   5  -1  15    1.46    0.14
 -11   1 -15    0.57    0.13
  11  -1  15   -0.10    0.09
 -13   1 -15    0.50    0.15
  13  -1  15   -0.01    0.10
 -15   1 -15    1.46    0.25
  15  -1  15    0.06    0.14
 -16   0  15    0.04    0.08
 -16   0  15    0.02    0.07
 -14   0  15    0.08    0.08
 -14   0  15    0.08    0.08
 -12   0  15   -0.05    0.06
 -12   0  15    0.06    0.07
 -10   0  15    0.06    0.06
 -10   0  15    0.03    0.05
  -8   0  15    0.04    0.04
  -8   0  15   -0.02    0.04
  -6   0  15    0.04    0.04
  -6   0  15    0.05    0.04
  -4   0  15    0.01    0.04
  -4   0  15    0.04    0.03
  -2   0  15    0.00    0.03
  -2   0  15    0.03    0.03
   0   0  15    0.11    0.04
   0   0  15    0.01    0.04
   2   0  15    0.02    0.05
  -4   0 -15    0.02    0.04
   4   0  15   -0.02    0.05
  -6   0 -15   -0.03    0.05
   6   0  15   -0.12    0.05
  -8   0 -15    0.05    0.07
 -10   0 -15    0.02    0.07
 -12   0 -15   -0.09    0.07
 -14   0 -15   -0.06    0.10
 -17   1  15    0.02    0.09
 -17   1  15    0.13    0.10
 -15   1  15    1.29    0.17
 -15   1  15    0.99    0.17
 -13   1  15    1.60    0.17
 -13   1  15    1.44    0.17
 -11   1  15   11.44    0.42
 -11   1  15   10.75    0.41
  -9   1  15    1.16    0.13
  -9   1  15    1.29    0.13
  -7   1  15    4.33    0.18
  -7   1  15    4.49    0.21
  -5   1  15   11.61    0.33
  -5   1  15   11.03    0.37
  -3   1  15    0.85    0.05
  -3   1  15    0.97    0.10
  -1   1  15    0.66    0.08
  -1   1  15    0.72    0.06
   1   1  15   18.29    0.52
   1   1  15   17.55    0.49
  -5  -1 -15    1.42    0.12
  -7  -1 -15    5.54    0.27
  -9  -1 -15    8.96    0.39
 -11  -1 -15    0.50    0.12
  11   1  15    0.70    0.09
 -13  -1 -15    0.82    0.18
 -15  -1 -15    1.01    0.21
 -16   2  15    0.30    0.12
 -16   2  15    0.36    0.11
 -14   2  15    1.32    0.17
 -14   2  15    1.33    0.18
 -12   2  15    5.20    0.26
 -12   2  15    4.35    0.25
 -10   2  15    0.86    0.12
 -10   2  15    0.92    0.12
  -8   2  15    0.38    0.08
  -8   2  15    0.41    0.07
  -6   2  15    6.01    0.25
  -6   2  15    5.92    0.20
  -4   2  15   14.37    0.37
  -4   2  15   14.13    0.44
  -2   2  15    7.27    0.26
   0   2  15   42.01    1.09
   0   2  15   41.83    1.03
  -2  -2 -15    0.01    0.03
   2   2  15   -0.02    0.03
  -4  -2 -15    9.14    0.32
  -6  -2 -15    0.10    0.06
  -8  -2 -15    3.23    0.21
 -10  -2 -15    1.10    0.17
  10   2  15    0.90    0.11
 -12  -2 -15    1.34    0.20
 -14  -2 -15    0.27    0.14
 -17   3  15    0.09    0.10
 -17   3  15    0.01    0.09
 -15   3  15    3.40    0.24
 -15   3  15    3.07    0.24
 -13   3  15    0.88    0.14
 -13   3  15    0.69    0.13
 -11   3  15    0.64    0.11
 -11   3  15    0.40    0.09
  -9   3  15    1.48    0.12
  -9   3  15    1.85    0.17
  -7   3  15    0.63    0.07
  -7   3  15    0.79    0.11
  -5   3  15   28.72    0.80
  -5   3  15   28.97    0.73
  -3   3  15   23.86    0.67
  -1   3  15   45.54    1.18
   1   3  15    3.58    0.16
  -3  -3 -15    8.47    0.28
   3   3  15    8.25    0.28
  -5  -3 -15    6.57    0.26
  -7  -3 -15    3.72    0.21
  -9  -3 -15    1.23    0.16
   9   3  15    1.56    0.14
 -11  -3 -15    0.13    0.09
  11   3  15    0.06    0.05
 -13  -3 -15    1.43    0.22
 -16   4  15    0.55    0.14
 -16   4  15    0.59    0.14
 -14   4  15    2.90    0.23
 -14   4  15    2.93    0.23
 -12   4  15    1.47    0.17
 -12   4  15    1.62    0.17
 -10   4  15    0.26    0.09
 -10   4  15    0.34    0.05
 -10   4  15    0.21    0.07
  -8   4  15    1.13    0.11
  -8   4  15    1.23    0.14
  -6   4  15    3.09    0.17
   4  -4 -15   14.46    0.38
  -4   4  15   15.48    0.47
  -2   4  15   27.49    0.76
   0  -4 -15    2.40    0.09
   0   4  15    2.69    0.14
  -2  -4 -15    0.99    0.07
   2   4  15    1.07    0.09
  -4  -4 -15   18.43    0.54
   4   4  15   17.74    0.52
   6   4  15    2.10    0.13
   6   4  15    2.03    0.14
  -8  -4 -15    2.41    0.18
   8   4  15    2.09    0.15
 -10  -4 -15    0.77    0.14
  10   4  15    0.79    0.11
 -12  -4 -15    0.54    0.14
  12   4  15    0.54    0.10
 -14  -4 -15    0.71    0.17
 -15   5  15    1.31    0.19
 -15   5  15    1.34    0.19
 -13   5  15    0.06    0.08
 -13   5  15    0.17    0.09
 -11   5  15    0.65    0.11
 -11   5  15    0.83    0.13
  -9   5  15    0.73    0.08
  -9   5  15    0.71    0.12
   7  -5 -15    4.28    0.18
  -7   5  15    4.33    0.22
  -7   5  15    4.53    0.19
   5  -5 -15    6.24    0.20
   5  -5 -15    6.29    0.20
  -5   5  15    6.38    0.26
  -3   5  15    7.88    0.29
   1  -5 -15    3.81    0.12
  -1   5  15    3.96    0.18
  -1  -5 -15    3.15    0.13
   1   5  15    3.44    0.16
  -3  -5 -15    2.49    0.13
   3   5  15    2.50    0.13
   3   5  15    2.64    0.16
  -5  -5 -15    5.00    0.23
   5   5  15    5.15    0.24
   5   5  15    4.88    0.20
  -7  -5 -15    2.51    0.17
   7   5  15    2.67    0.17
   7   5  15    2.50    0.14
  -9  -5 -15    0.31    0.09
   9   5  15    0.28    0.08
 -11  -5 -15    0.13    0.10
  11   5  15    0.42    0.09
 -13  -5 -15    0.82    0.18
  16  -6 -15    0.38    0.14
 -16   6  15    0.40    0.15
  14  -6 -15    1.36    0.18
 -14   6  15    1.16    0.18
  12  -6 -15    0.99    0.15
 -12   6  15    0.94    0.15
  10  -6 -15    2.74    0.18
 -10   6  15    2.57    0.19
   8  -6 -15    0.95    0.11
  -8   6  15    0.95    0.10
  -8   6  15    0.81    0.12
   6  -6 -15   10.21    0.32
  -6   6  15   10.78    0.38
   4  -6 -15    2.55    0.11
  -4   6  15    2.61    0.16
  -4   6  15    2.83    0.16
   2  -6 -15    5.91    0.18
  -2   6  15    6.16    0.24
  -2   6  15    6.09    0.26
   0  -6 -15    2.78    0.12
   0   6  15    2.89    0.17
   0   6  15    3.17    0.15
  -2  -6 -15    1.46    0.10
   2   6  15    1.49    0.10
   2   6  15    1.43    0.13
  -4  -6 -15    1.67    0.12
   4   6  15    1.59    0.14
   4   6  15    1.70    0.11
  -6  -6 -15    0.48    0.09
   6   6  15    0.54    0.10
   6   6  15    0.55    0.07
  -8  -6 -15    3.16    0.22
   8   6  15    2.92    0.19
 -10  -6 -15    0.36    0.11
  10   6  15    0.37    0.10
 -12  -6 -15    1.59    0.22
  12   6  15    1.28    0.16
  15  -7 -15    0.06    0.09
 -15   7  15    0.02    0.09
  13  -7 -15    1.48    0.18
 -13   7  15    1.37    0.18
  11  -7 -15    0.71    0.12
 -11   7  15    0.51    0.12
   9  -7 -15    2.00    0.16
  -9   7  15    1.71    0.18
  -9   7  15    1.89    0.13
   7  -7 -15    2.23    0.15
  -7   7  15    2.34    0.14
  -7   7  15    2.17    0.17
   5  -7 -15    2.24    0.12
  -5   7  15    2.23    0.15
  -5   7  15    2.41    0.16
   3  -7 -15   11.57    0.34
  -3   7  15   12.23    0.41
  -3   7  15   11.71    0.40
   1  -7 -15    1.44    0.09
  -1   7  15    1.51    0.14
  -1   7  15    1.35    0.11
  -1  -7 -15    6.32    0.23
   1   7  15    6.21    0.23
   1   7  15    5.85    0.26
  -3  -7 -15    4.73    0.21
   3   7  15    5.15    0.24
   3   7  15    4.64    0.19
  -5  -7 -15    4.97    0.24
   5   7  15    4.69    0.24
   5   7  15    4.58    0.19
  -7  -7 -15    1.91    0.16
  -9  -7 -15    0.29    0.10
   9   7  15    0.26    0.09
 -11  -7 -15    3.15    0.26
  11   7  15    3.45    0.23
 -13  -7 -15    0.28    0.14
 -14   8  15   -0.03    0.09
 -12   8  15    0.38    0.11
 -10   8  15    2.42    0.22
   8  -8 -15    0.19    0.09
  -8   8  15    0.15    0.07
  -8   8  15    0.13    0.08
   6  -8 -15    1.43    0.12
  -6   8  15    1.41    0.15
  -6   8  15    1.50    0.14
   4  -8 -15    1.28    0.10
  -4   8  15    1.11    0.13
  -4   8  15    1.32    0.14
   2  -8 -15   10.00    0.32
  -2   8  15   11.07    0.39
  -2   8  15    9.94    0.36
   0  -8 -15    1.88    0.11
   0   8  15    1.98    0.13
   0   8  15    2.08    0.16
  -2  -8 -15    1.02    0.11
   2   8  15    1.01    0.12
   2   8  15    1.00    0.10
  -4  -8 -15    1.06    0.13
   4   8  15    0.93    0.13
  -6  -8 -15    0.98    0.14
   6   8  15    1.06    0.14
  -8  -8 -15    0.35    0.09
   8   8  15    0.41    0.10
 -10  -8 -15    0.28    0.11
  10   8  15    0.24    0.09
 -12  -8 -15    0.55    0.15
  12   8  15    0.64    0.13
 -13   9  15    1.42    0.20
 -11   9  15    1.27    0.18
  -9   9  15    2.51    0.20
  -9   9  15    2.25    0.16
  -7   9  15    0.83    0.11
  -7   9  15    0.82    0.14
  -5   9  15    4.23    0.23
  -5   9  15    4.48    0.23
  -3   9  15    5.82    0.26
  -3   9  15    5.88    0.27
   1  -9 -15    0.41    0.07
  -1   9  15    0.49    0.10
  -1   9  15    0.31    0.07
  -1  -9 -15    0.16    0.06
   1   9  15    0.07    0.05
   1   9  15    0.02    0.06
  -3  -9 -15    0.86    0.11
   3   9  15    0.62    0.11
  -5  -9 -15    1.45    0.16
   5   9  15    1.12    0.14
  -7  -9 -15    7.00    0.34
   7   9  15    6.49    0.32
  -9  -9 -15    0.48    0.13
   9   9  15    0.30    0.10
 -11  -9 -15    2.56    0.27
  11   9  15    3.16    0.24
 -12  10  15    0.11    0.10
 -10  10  15    0.03    0.08
  -8  10  15    1.01    0.13
  -8  10  15    0.99    0.15
  -6  10  15    4.41    0.25
  -6  10  15    4.26    0.24
  -4  10  15    6.73    0.31
  -4  10  15    7.25    0.31
  -2  10  15    8.19    0.35
  -2  10  15    8.08    0.31
   0  10  15    3.06    0.21
   0  10  15    3.01    0.17
  -2 -10 -15    0.61    0.10
   2  10  15    0.76    0.13
  -4 -10 -15    1.90    0.16
   4  10  15    1.88    0.19
  -6 -10 -15    0.29    0.09
   6  10  15    0.18    0.09
  -8 -10 -15   -0.01    0.05
   8  10  15    0.16    0.09
 -10 -10 -15    0.16    0.10
  10  10  15    0.18    0.10
 -11  11  15    1.20    0.18
  -9  11  15    3.14    0.24
  -7  11  15    1.08    0.15
  -7  11  15    0.70    0.12
  -5  11  15    1.89    0.18
  -5  11  15    1.97    0.18
  -3  11  15    2.05    0.20
  -3  11  15    1.85    0.17
  -1  11  15    1.01    0.14
  -1  11  15    1.14    0.16
   1  11  15    8.33    0.37
   3  11  15    0.78    0.14
   5  11  15    2.36    0.22
  -7 -11 -15    1.55    0.20
   7  11  15    1.57    0.19
  -9 -11 -15    0.12    0.09
   9  11  15    0.19    0.11
 -10  12  15    0.10    0.10
  -8  12  15    2.28    0.23
  -8  12  15    2.00    0.19
  -6  12  15    1.86    0.19
  -6  12  15    1.80    0.19
  -4  12  15    0.43    0.11
  -4  12  15    0.41    0.10
  -2  12  15    0.59    0.13
   0  12  15    0.91    0.15
   2  12  15    3.97    0.26
   4  12  15    0.56    0.13
   6  12  15    2.16    0.22
  -7  13  15    0.78    0.14
  -7  13  15    0.89    0.15
  -5  13  15    0.25    0.09
  -5  13  15    0.07    0.09
  -3  13  15    0.70    0.14
  -1  13  15   -0.01    0.08
   1  13  15    1.29    0.18
   3  13  15    0.75    0.15
   5  13  15    0.11    0.10
  -2  14  15    0.72    0.16
   0  14  15    0.07    0.09
  -2 -14  16    0.01    0.10
   0 -14  16    0.14    0.12
  -7 -13  16    1.16    0.21
  -5 -13  16    0.33    0.14
  -3 -13  16    1.70    0.24
  -1 -13  16    0.01    0.10
   1 -13  16    1.90    0.26
   3 -13  16    1.13    0.23
  -8 -12  16    2.13    0.26
  -6 -12  16    1.26    0.20
  -4 -12  16    1.31    0.21
  -2 -12  16    0.82    0.18
   0 -12  16    0.27    0.14
   2 -12  16    2.16    0.27
   4 -12  16    0.54    0.18
   6 -12  16    2.68    0.33
 -11 -11  16    0.37    0.13
  -9 -11  16    0.11    0.09
  -7 -11  16    0.18    0.11
  -5 -11  16    1.01    0.18
  -3 -11  16    1.76    0.22
  -1 -11  16    2.30    0.26
   1 -11  16    2.05    0.25
   3 -11  16    0.04    0.13
   5 -11  16    1.55    0.25
   7 -11  16    0.79    0.22
 -12 -10  16    1.72    0.24
 -10 -10  16    0.16    0.10
  -8 -10  16    4.91    0.31
  -6 -10  16    1.39    0.19
  -4 -10  16   -0.01    0.09
  -2 -10  16    5.72    0.34
   0 -10  16    0.34    0.13
   2 -10  16    1.98    0.24
   4 -10  16   -0.01    0.13
   6 -10  16    2.91    0.32
   8 -10  16    1.79    0.28
  10 -10  16    1.00    0.23
 -13  -9  16    0.02    0.10
 -11  -9  16    0.58    0.15
  -9  -9  16    0.75    0.15
  -7  -9  16    0.77    0.15
  -5  -9  16    6.55    0.34
  -5  -9  16    6.31    0.25
  -3  -9  16    2.31    0.15
  -3  -9  16    2.12    0.22
  -1  -9  16    7.67    0.39
   1  -9  16   11.21    0.50
   3  -9  16    0.11    0.11
   5  -9  16    3.45    0.30
   7  -9  16    2.11    0.28
   9  -9  16    2.16    0.29
  11  -9  16    0.07    0.16
 -14  -8  16    0.38    0.14
 -12  -8  16    1.24    0.20
 -10  -8  16    0.06    0.08
  -8  -8  16    3.65    0.25
  -6  -8  16    1.71    0.12
  -6  -8  16    1.57    0.19
  -4  -8  16    9.12    0.32
  -4  -8  16    9.19    0.40
  -2  -8  16   21.01    0.71
   0  -8  16    5.27    0.31
   2  -8  16    0.92    0.17
   4  -8  16    0.82    0.18
   6  -8  16    0.84    0.18
   8  -8  16    0.05    0.12
  10  -8  16    0.52    0.18
 -15  -7  16    0.47    0.15
 -13  -7  16    0.74    0.17
 -11  -7  16    0.69    0.14
  -9  -7  16    2.54    0.21
  -9  -7  16    2.32    0.17
  -7  -7  16    0.21    0.06
  -7  -7  16    0.35    0.10
  -5  -7  16    1.99    0.17
  -5  -7  16    1.81    0.13
  -3  -7  16    1.84    0.19
  -3  -7  16    1.81    0.13
  -1  -7  16    4.49    0.26
   1  -7  16    4.47    0.28
   3  -7  16    1.33    0.19
   5  -7  16    1.31    0.20
   7  -7  16    3.06    0.27
   9  -7  16    1.13    0.20
  11  -7  16    0.45    0.16
 -16  -6  16    0.63    0.17
 -14  -6  16    0.63    0.16
 -12  -6  16    0.33    0.11
 -10  -6  16    0.48    0.08
 -10  -6  16    0.49    0.12
  -8  -6  16    4.56    0.20
  -8  -6  16    4.29    0.25
  -6  -6  16    1.12    0.14
  -6  -6  16    0.94    0.10
  -4  -6  16    6.67    0.25
  -4  -6  16    6.93    0.31
  -2  -6  16    3.38    0.17
  -2  -6  16    3.25    0.20
   0  -6  16    1.48    0.17
   2  -6  16    3.39    0.23
   4  -6  16    1.56    0.18
   6  -6  16    2.15    0.23
   8  -6  16    1.42    0.20
  10  -6  16    1.24    0.21
  12  -6  16    1.51    0.24
 -15  -5  16    2.31    0.27
 -13  -5  16    1.60    0.21
 -11  -5  16    0.55    0.12
 -11  -5  16    0.35    0.08
  -9  -5  16    0.75    0.13
  -9  -5  16    0.76    0.09
  -7  -5  16    1.30    0.10
  -7  -5  16    1.22    0.14
  -5  -5  16    8.05    0.33
  -5  -5  16    8.16    0.28
  -3  -5  16    8.05    0.32
  -3  -5  16    8.14    0.29
  -1  -5  16   13.72    0.48
   1  -5  16    0.27    0.09
   3  -5  16    0.39    0.10
   5  -5  16   11.35    0.46
   7  -5  16    1.32    0.19
   9  -5  16    0.45    0.14
  11  -5  16    0.11    0.12
  13  -5  16    1.85    0.27
 -16  -4  16    0.13    0.11
 -14  -4  16    4.47    0.24
 -14  -4  16    4.62    0.30
 -12  -4  16    0.93    0.15
 -12  -4  16    1.02    0.12
 -10  -4  16    1.12    0.12
 -10  -4  16    0.98    0.14
  -8  -4  16    1.16    0.11
  -8  -4  16    1.42    0.15
  -4  -4  16   24.36    0.71
  -4  -4  16   24.59    0.68
  -2  -4  16    9.30    0.32
  -2  -4  16    9.27    0.34
   0  -4  16   11.31    0.40
   2  -4  16    0.78    0.13
   4  -4  16   15.94    0.55
   6  -4  16    0.57    0.13
   8  -4  16    1.50    0.20
  10  -4  16    0.29    0.13
  12  -4  16    0.31    0.13
  14  -4  16    1.07    0.22
 -17  -3  16    0.16    0.12
 -15  -3  16    2.33    0.19
 -15  -3  16    1.92    0.23
 -13  -3  16    0.21    0.09
 -13  -3  16    0.25    0.08
 -11  -3  16    0.98    0.14
  -9  -3  16    0.68    0.09
  -9  -3  16    1.26    0.14
  -7  -3  16    1.61    0.12
  -7  -3  16    1.71    0.13
  -5  -3  16   15.66    0.49
  -5  -3  16   15.61    0.47
  -3  -3  16    7.81    0.28
  -3  -3  16    7.41    0.28
  -1  -3  16    0.21    0.07
  -1  -3  16    0.24    0.06
   1  -3  16   10.60    0.38
   3  -3  16    6.65    0.29
   5  -3  16    3.51    0.22
   7  -3  16    3.36    0.23
   9  -3  16    1.24    0.17
  11  -3  16    0.32    0.13
  13  -3  16    0.19    0.12
 -16  -2  16    0.46    0.13
 -16  -2  16    0.59    0.12
 -14  -2  16    1.28    0.18
 -14  -2  16    1.37    0.16
 -12  -2  16    2.84    0.21
 -12  -2  16    2.97    0.19
 -10  -2  16    2.70    0.18
 -10  -2  16    2.50    0.16
  -8  -2  16    0.42    0.08
  -8  -2  16    0.49    0.08
  -6  -2  16   24.00    0.67
  -6  -2  16   23.48    0.68
  -4  -2  16   22.23    0.63
  -4  -2  16   22.32    0.63
  -2  -2  16    4.63    0.20
  -2  -2  16    4.39    0.19
   0  -2  16   20.23    0.59
   2  -2  16    1.75    0.14
   4  -2  16   22.23    0.67
   6  -2  16    0.92    0.13
   8  -2  16    6.29    0.32
  10  -2  16    1.72    0.22
  12  -2  16    0.26    0.14
  14  -2  16    0.75    0.18
 -17  -1  16   -0.02    0.09
 -17  -1  16    0.11    0.09
 -15  -1  16    0.09    0.08
 -15  -1  16    0.12    0.09
 -13  -1  16    0.04    0.08
 -13  -1  16    0.13    0.07
 -11  -1  16    1.17    0.14
 -11  -1  16    1.58    0.17
  -9  -1  16    0.66    0.10
  -9  -1  16    0.69    0.10
  -7  -1  16    1.65    0.12
  -7  -1  16    1.58    0.12
  -5  -1  16    1.24    0.11
  -5  -1  16    1.16    0.09
  -3  -1  16    0.72    0.08
  -3  -1  16    0.97    0.09
  -1  -1  16    7.21    0.25
  -1  -1  16    7.18    0.26
   1  -1  16   11.44    0.37
   3  -1  16    1.25    0.13
   5  -1  16    0.41    0.09
   7  -1  16    0.41    0.11
  -9   1 -16    0.86    0.14
   9  -1  16    0.04    0.10
 -11   1 -16    0.70    0.14
  11  -1  16   -0.07    0.10
 -13   1 -16    0.19    0.11
  13  -1  16   -0.07    0.11
 -16   0  16    0.37    0.11
 -16   0  16    0.40    0.12
 -14   0  16    2.11    0.21
 -14   0  16    1.99    0.20
 -12   0  16    0.45    0.10
 -12   0  16    0.36    0.09
 -10   0  16   10.32    0.39
 -10   0  16   11.06    0.39
  -8   0  16    1.45    0.11
  -8   0  16    1.45    0.14
  -6   0  16   11.82    0.36
  -6   0  16   11.87    0.39
  -4   0  16   11.96    0.38
  -4   0  16   11.82    0.34
  -2   0  16   21.30    0.61
  -2   0  16   21.56    0.57
   0   0  16   14.11    0.41
   0   0  16   14.02    0.43
   2   0  16    0.99    0.10
   4   0  16   11.51    0.39
  -6   0 -16    0.15    0.06
   6   0  16   -0.02    0.06
  -8   0 -16   21.81    0.71
 -10   0 -16    0.22    0.11
 -12   0 -16    0.30    0.12
 -14   0 -16    1.44    0.24
 -17   1  16    0.05    0.10
 -17   1  16   -0.05    0.08
 -15   1  16    0.10    0.08
 -15   1  16    0.00    0.08
 -13   1  16    0.24    0.09
 -13   1  16    0.17    0.09
 -11   1  16    1.31    0.15
 -11   1  16    1.37    0.15
  -9   1  16    0.65    0.09
  -9   1  16    0.80    0.12
  -7   1  16    1.72    0.11
  -7   1  16    1.68    0.13
  -5   1  16    1.26    0.08
  -5   1  16    1.07    0.11
  -3   1  16    0.83    0.05
  -3   1  16    0.82    0.09
  -1   1  16    7.26    0.21
  -1   1  16    6.96    0.26
   1   1  16   10.82    0.33
   1   1  16   11.02    0.36
   3   1  16    0.55    0.08
  -5  -1 -16    0.54    0.09
  -7  -1 -16    0.65    0.11
  -9  -1 -16    0.73    0.13
 -11  -1 -16    0.87    0.16
  11   1  16    0.79    0.10
 -13  -1 -16    0.24    0.12
 -16   2  16    0.61    0.14
 -16   2  16    0.63    0.15
 -14   2  16    1.25    0.17
 -14   2  16    1.25    0.17
 -12   2  16    2.82    0.21
 -12   2  16    2.94    0.20
 -10   2  16    2.57    0.16
 -10   2  16    2.55    0.18
  -8   2  16    0.58    0.10
  -8   2  16    0.44    0.07
  -6   2  16   24.87    0.65
  -6   2  16   24.05    0.70
  -4   2  16   23.10    0.66
  -2   2  16    4.20    0.19
   0   2  16   21.20    0.54
   0   2  16   20.26    0.59
  -2  -2 -16    1.78    0.10
   2   2  16    1.62    0.11
  -4  -2 -16   21.90    0.63
  -6  -2 -16    0.83    0.11
  -8  -2 -16    5.47    0.28
 -10  -2 -16    1.60    0.20
  10   2  16    1.87    0.14
 -12  -2 -16    0.38    0.13
 -14  -2 -16    1.96    0.26
 -17   3  16    0.16    0.11
 -17   3  16    0.05    0.11
 -15   3  16    2.39    0.24
 -15   3  16    1.93    0.22
 -13   3  16    0.26    0.10
 -13   3  16    0.32    0.10
 -11   3  16    0.86    0.14
 -11   3  16    0.97    0.13
  -9   3  16    1.33    0.15
  -9   3  16    1.28    0.12
  -7   3  16    1.80    0.10
  -7   3  16    1.73    0.14
  -5   3  16   15.96    0.50
  -5   3  16   16.31    0.43
  -3   3  16    7.63    0.28
  -1   3  16    0.19    0.05
  -1  -3 -16    9.69    0.28
   1   3  16    9.44    0.32
  -3  -3 -16    5.74    0.22
   3   3  16    6.04    0.23
  -5  -3 -16    3.45    0.18
   5   3  16    3.52    0.17
  -7  -3 -16    3.68    0.21
  -9  -3 -16    1.19    0.16
   9   3  16    1.23    0.13
 -11  -3 -16    0.35    0.11
  11   3  16    0.55    0.09
 -13  -3 -16    0.14    0.10
 -16   4  16    0.25    0.11
 -16   4  16    0.11    0.11
 -14   4  16    4.45    0.28
 -14   4  16    3.80    0.25
 -12   4  16    0.89    0.13
 -12   4  16    1.02    0.15
 -10   4  16    1.22    0.15
 -10   4  16    1.22    0.13
  -8   4  16    1.22    0.10
  -8   4  16    1.22    0.13
  -6   4  16    5.75    0.25
  -4   4  16   25.00    0.71
  -2   4  16    9.43    0.32
   0  -4 -16   12.82    0.34
   0   4  16   12.88    0.40
  -2  -4 -16    0.71    0.07
   2   4  16    0.81    0.09
  -4  -4 -16   17.79    0.53
   4   4  16   17.74    0.52
  -6  -4 -16    0.58    0.09
   6   4  16    0.61    0.08
   6   4  16    0.59    0.09
  -8  -4 -16    1.61    0.18
   8   4  16    1.66    0.13
 -10  -4 -16    0.12    0.09
  10   4  16    0.18    0.07
 -12  -4 -16    0.30    0.13
  12   4  16    0.25    0.09
 -14  -4 -16    1.53    0.23
 -15   5  16    1.64    0.21
 -15   5  16    2.06    0.22
 -13   5  16    1.34    0.18
 -13   5  16    1.68    0.19
 -11   5  16    0.50    0.10
 -11   5  16    0.34    0.10
  -9   5  16    0.78    0.09
  -9   5  16    0.78    0.12
   7  -5 -16    1.52    0.10
  -7   5  16    1.42    0.15
  -7   5  16    1.53    0.11
   5  -5 -16    8.30    0.25
  -5   5  16    8.48    0.32
  -3   5  16    8.83    0.32
  -1   5  16   14.60    0.45
  -1  -5 -16    0.39    0.05
   1   5  16    0.50    0.07
  -3  -5 -16    0.52    0.07
   3   5  16    0.42    0.07
   3   5  16    0.32    0.07
  -5  -5 -16   12.06    0.41
   5   5  16   11.57    0.37
   5   5  16   11.62    0.41
   7   5  16    1.32    0.12
   7   5  16    1.35    0.14
  -9  -5 -16    0.72    0.13
   9   5  16    0.62    0.10
   9   5  16    0.66    0.10
 -11  -5 -16    0.15    0.10
  11   5  16    0.13    0.07
 -13  -5 -16    2.43    0.27
  14  -6 -16    0.51    0.13
 -14   6  16    0.30    0.11
  12  -6 -16    0.36    0.10
 -12   6  16    0.19    0.09
  10  -6 -16    0.65    0.11
 -10   6  16    0.61    0.12
   8  -6 -16    4.50    0.20
  -8   6  16    4.84    0.25
  -8   6  16    4.59    0.20
   6  -6 -16    1.04    0.09
  -6   6  16    1.00    0.12
   4  -6 -16    7.04    0.21
  -4   6  16    7.49    0.28
  -4   6  16    7.07    0.29
   2  -6 -16    3.45    0.11
  -2   6  16    3.73    0.19
  -2   6  16    3.42    0.17
   0  -6 -16    1.46    0.08
   0   6  16    1.48    0.11
   0   6  16    1.31    0.13
  -2  -6 -16    3.81    0.16
   2   6  16    3.61    0.17
   2   6  16    3.51    0.19
  -4  -6 -16    1.78    0.13
   4   6  16    1.77    0.11
   4   6  16    1.78    0.16
  -6  -6 -16    2.32    0.16
   6   6  16    2.37    0.17
   6   6  16    2.13    0.13
  -8  -6 -16    1.82    0.19
   8   6  16    1.37    0.15
 -10  -6 -16    1.13    0.17
  10   6  16    1.31    0.15
 -12  -6 -16    2.03    0.25
  12   6  16    1.71    0.18
 -15   7  16    0.49    0.14
 -13   7  16    0.64    0.14
  11  -7 -16    0.63    0.12
 -11   7  16    0.66    0.13
   9  -7 -16    2.45    0.17
  -9   7  16    2.59    0.20
  -9   7  16    2.79    0.16
   7  -7 -16    0.25    0.07
  -7   7  16    0.29    0.07
  -7   7  16    0.21    0.08
   5  -7 -16    1.90    0.11
  -5   7  16    2.03    0.14
  -5   7  16    2.30    0.16
   3  -7 -16    1.94    0.09
  -3   7  16    1.90    0.14
  -3   7  16    1.90    0.14
   1  -7 -16    4.46    0.16
  -1   7  16    4.68    0.21
  -1   7  16    4.95    0.23
  -1  -7 -16    4.23    0.17
   1   7  16    4.21    0.22
   1   7  16    4.58    0.19
  -3  -7 -16    1.37    0.11
   3   7  16    1.23    0.10
   3   7  16    1.42    0.14
  -5  -7 -16    1.36    0.14
   5   7  16    1.11    0.13
   5   7  16    1.50    0.11
  -7  -7 -16    3.04    0.20
   7   7  16    3.11    0.20
  -9  -7 -16    0.97    0.16
   9   7  16    0.92    0.13
 -11  -7 -16    0.52    0.14
  11   7  16    0.56    0.11
 -14   8  16    0.15    0.11
 -12   8  16    1.12    0.16
 -10   8  16    0.12    0.08
  -8   8  16    3.90    0.20
  -8   8  16    4.20    0.25
  -6   8  16    1.85    0.16
  -6   8  16    1.75    0.17
  -4   8  16    9.21    0.35
  -4   8  16    9.39    0.36
  -2   8  16   22.03    0.67
  -2   8  16   21.46    0.64
   0  -8 -16    5.32    0.20
   0   8  16    5.48    0.26
   0   8  16    5.42    0.23
  -2  -8 -16    1.10    0.11
   2   8  16    1.09    0.10
   2   8  16    0.77    0.12
  -4  -8 -16    0.80    0.11
   4   8  16    0.80    0.12
  -6  -8 -16    0.91    0.13
   6   8  16    0.64    0.11
  -8  -8 -16    0.03    0.05
   8   8  16    0.20    0.09
 -10  -8 -16    0.68    0.15
  10   8  16    0.65    0.13
 -12  -8 -16    1.65    0.24
 -13   9  16    0.01    0.09
 -11   9  16    0.82    0.15
  -9   9  16    0.80    0.11
  -9   9  16    1.10    0.16
  -7   9  16    0.58    0.12
  -7   9  16    0.38    0.08
  -5   9  16    6.73    0.31
  -5   9  16    7.12    0.31
  -3   9  16    2.46    0.18
  -3   9  16    2.32    0.17
  -1   9  16    7.00    0.28
  -1   9  16    7.45    0.32
  -1  -9 -16    9.87    0.40
   1   9  16   10.76    0.41
   1   9  16   10.81    0.35
  -3  -9 -16    0.02    0.05
   3   9  16    0.02    0.06
  -5  -9 -16    3.34    0.21
   5   9  16    3.45    0.23
  -7  -9 -16    2.23    0.21
   7   9  16    2.19    0.20
  -9  -9 -16    2.45    0.25
   9   9  16    1.90    0.20
 -11  -9 -16    0.14    0.11
  11   9  16    0.05    0.09
 -12  10  16    1.53    0.21
 -10  10  16    0.24    0.10
  -8  10  16    5.17    0.29
  -8  10  16    5.72    0.27
  -6  10  16    1.53    0.17
  -6  10  16    1.81    0.17
  -4  10  16    0.04    0.07
  -4  10  16    0.01    0.06
  -2  10  16    6.04    0.27
  -2  10  16    5.98    0.30
   0  10  16    0.57    0.09
   0  10  16    0.35    0.10
   2  10  16    2.12    0.20
  -4 -10 -16    0.09    0.11
   4  10  16    0.09    0.07
  -6 -10 -16    3.08    0.22
   6  10  16    3.34    0.23
  -8 -10 -16    1.62    0.20
   8  10  16    1.53    0.19
 -10 -10 -16    1.09    0.19
  10  10  16    0.81    0.15
 -11  11  16    0.76    0.16
  -9  11  16    0.18    0.09
  -7  11  16    0.11    0.09
  -7  11  16    0.08    0.07
  -5  11  16    0.97    0.14
  -5  11  16    1.11    0.15
  -3  11  16    2.53    0.18
  -3  11  16    2.53    0.20
  -1  11  16    2.07    0.20
   1  11  16    1.67    0.18
   3  11  16    0.06    0.08
   5  11  16    1.23    0.17
   7  11  16    0.80    0.15
  -8  12  16    2.15    0.20
  -8  12  16    2.14    0.22
  -6  12  16    1.52    0.17
  -6  12  16    1.31    0.16
  -4  12  16    1.31    0.17
  -4  12  16    1.17    0.15
  -2  12  16    0.96    0.15
   0  12  16    0.61    0.14
   2  12  16    2.25    0.22
   4  12  16    0.55    0.13
   6  12  16    2.91    0.26
  -7  13  16    1.84    0.21
  -7  13  16    1.43    0.18
  -5  13  16    0.51    0.13
  -5  13  16    0.35    0.10
  -3  13  16    1.54    0.19
  -1  13  16    0.13    0.10
   1  13  16    1.88    0.21
   3  13  16    1.34    0.19
  -2  14  16    0.08    0.10
  -7 -13  17    1.57    0.24
  -5 -13  17    0.46    0.15
  -3 -13  17    0.83    0.19
  -1 -13  17    0.46    0.15
   1 -13  17    1.03    0.21
   3 -13  17    0.87    0.20
  -8 -12  17    1.28    0.21
  -6 -12  17    1.30    0.20
  -4 -12  17    0.06    0.10
  -2 -12  17    1.50    0.22
   0 -12  17    0.14    0.13
   2 -12  17    1.54    0.24
   4 -12  17    0.73    0.20
   6 -12  17    0.94    0.23
 -11 -11  17    1.97    0.26
  -9 -11  17    0.68    0.16
  -7 -11  17    4.55    0.31
  -5 -11  17    0.12    0.10
  -3 -11  17    1.88    0.23
  -1 -11  17    1.63    0.23
   1 -11  17    3.14    0.28
   3 -11  17    0.87    0.19
   5 -11  17    0.51    0.19
   7 -11  17    1.96    0.30
 -12 -10  17    0.16    0.11
 -10 -10  17    0.18    0.11
  -8 -10  17    0.52    0.14
  -6 -10  17    4.94    0.31
  -4 -10  17    4.62    0.23
  -4 -10  17    4.21    0.29
  -2 -10  17    4.52    0.31
   0 -10  17    4.07    0.30
   2 -10  17    1.05    0.20
   4 -10  17    0.29    0.16
   6 -10  17    0.21    0.15
   8 -10  17    0.73    0.20
 -13  -9  17    0.74    0.16
 -11  -9  17    2.12    0.25
  -9  -9  17    0.80    0.15
  -7  -9  17    2.82    0.23
  -5  -9  17    1.22    0.12
  -5  -9  17    1.21    0.17
  -3  -9  17    6.76    0.36
  -3  -9  17    6.79    0.28
  -1  -9  17    2.74    0.24
   1  -9  17   16.52    0.63
   3  -9  17    0.78    0.16
   5  -9  17    0.95    0.20
   7  -9  17    6.88    0.42
   9  -9  17    0.12    0.14
 -14  -8  17   -0.03    0.10
 -12  -8  17    0.12    0.10
 -10  -8  17    1.60    0.20
  -8  -8  17    1.48    0.19
  -6  -8  17    1.18    0.16
  -6  -8  17    1.25    0.11
  -4  -8  17   10.84    0.37
  -4  -8  17   11.23    0.46
  -2  -8  17    2.71    0.22
   0  -8  17    1.49    0.19
   2  -8  17    0.51    0.15
   4  -8  17    4.70    0.33
   6  -8  17    1.74    0.24
   8  -8  17    1.49    0.23
  10  -8  17    1.04    0.23
 -15  -7  17    0.21    0.13
 -13  -7  17    0.70    0.16
 -11  -7  17    0.18    0.10
  -9  -7  17    3.06    0.16
  -9  -7  17    2.83    0.21
  -7  -7  17    6.64    0.33
  -7  -7  17    6.73    0.26
  -5  -7  17    0.59    0.09
  -5  -7  17    0.51    0.12
  -3  -7  17    7.69    0.34
  -3  -7  17    6.48    0.26
  -1  -7  17    1.66    0.19
   1  -7  17    0.46    0.13
   3  -7  17    0.88    0.17
   5  -7  17    1.41    0.20
   7  -7  17    2.04    0.25
   9  -7  17   -0.11    0.11
  11  -7  17    2.00    0.28
 -14  -6  17    0.74    0.17
 -12  -6  17    0.06    0.09
 -10  -6  17    1.17    0.12
 -10  -6  17    0.74    0.13
  -8  -6  17    2.16    0.18
  -8  -6  17    1.94    0.13
  -6  -6  17    8.69    0.37
  -6  -6  17    9.17    0.31
  -4  -6  17    1.29    0.15
  -4  -6  17    0.98    0.10
  -2  -6  17    4.26    0.24
  -2  -6  17    4.13    0.20
   0  -6  17    9.03    0.38
   2  -6  17    1.82    0.20
   4  -6  17    3.05    0.24
   6  -6  17    3.36    0.26
   8  -6  17    2.09    0.25
  10  -6  17    0.30    0.15
  12  -6  17    0.25    0.16
 -15  -5  17    0.56    0.15
 -13  -5  17    1.28    0.18
 -11  -5  17    0.14    0.09
 -11  -5  17    0.23    0.07
  -9  -5  17    0.70    0.09
  -9  -5  17    0.85    0.13
  -7  -5  17    3.44    0.21
  -7  -5  17    3.43    0.17
  -3  -5  17    3.22    0.20
  -3  -5  17    3.67    0.18
  -1  -5  17    5.12    0.26
   1  -5  17    3.22    0.21
   3  -5  17    2.01    0.20
   5  -5  17    8.33    0.39
   7  -5  17    3.07    0.25
   9  -5  17    1.26    0.19
  11  -5  17    0.25    0.13
  13  -5  17    0.78    0.20
 -16  -4  17    0.11    0.11
 -14  -4  17    3.94    0.28
 -14  -4  17    3.82    0.22
 -12  -4  17    1.48    0.18
 -12  -4  17    1.61    0.15
 -10  -4  17    0.62    0.09
 -10  -4  17    0.75    0.12
  -8  -4  17    0.89    0.12
  -8  -4  17    0.93    0.11
  -6  -4  17    0.65    0.08
  -6  -4  17    0.57    0.10
  -4  -4  17   17.83    0.53
  -4  -4  17   17.57    0.55
  -2  -4  17    2.93    0.16
  -2  -4  17    3.02    0.18
   0  -4  17    0.56    0.11
   2  -4  17    1.61    0.17
   4  -4  17   14.84    0.53
   6  -4  17    1.99    0.21
   8  -4  17    1.76    0.22
  10  -4  17    0.10    0.11
  12  -4  17    0.05    0.12
 -17  -3  17   -0.05    0.10
 -15  -3  17    2.14    0.24
 -15  -3  17    1.93    0.19
 -13  -3  17    0.91    0.12
 -11  -3  17    0.76    0.13
  -9  -3  17    0.89    0.12
  -9  -3  17    0.79    0.10
  -7  -3  17    0.12    0.05
  -7  -3  17    0.18    0.06
  -5  -3  17   14.47    0.46
  -5  -3  17   14.08    0.44
  -3  -3  17    0.97    0.10
  -3  -3  17    0.83    0.11
  -1  -3  17    1.87    0.14
  -1  -3  17    2.03    0.14
   1  -3  17    3.03    0.19
   3  -3  17    3.62    0.22
   5  -3  17   16.95    0.58
   7  -3  17    3.29    0.24
   9  -3  17    3.06    0.25
  11  -3  17    0.30    0.13
  13  -3  17    0.57    0.16
 -16  -2  17    0.15    0.09
 -16  -2  17   -0.04    0.09
 -14  -2  17    0.71    0.13
 -14  -2  17    0.79    0.15
 -12  -2  17    1.93    0.16
 -12  -2  17    1.97    0.20
 -10  -2  17    0.58    0.09
 -10  -2  17    0.50    0.10
  -8  -2  17    0.29    0.07
  -8  -2  17    0.24    0.07
  -6  -2  17    5.18    0.22
  -6  -2  17    5.51    0.23
  -4  -2  17    1.41    0.11
  -4  -2  17    1.49    0.11
  -2  -2  17    2.46    0.14
  -2  -2  17    2.33    0.14
   0  -2  17    0.03    0.05
   0  -2  17    0.08    0.05
   2  -2  17    7.25    0.29
   4  -2  17    3.04    0.19
   6  -2  17    3.18    0.21
   8  -2  17    2.82    0.22
  10  -2  17    1.01    0.17
  12  -2  17    0.29    0.13
  14  -2  17   -0.01    0.12
 -17  -1  17    0.27    0.10
 -17  -1  17    0.08    0.09
 -15  -1  17    1.29    0.16
 -15  -1  17    1.40    0.20
 -13  -1  17    1.36    0.17
 -13  -1  17    1.14    0.15
 -11  -1  17   18.06    0.60
 -11  -1  17   17.74    0.57
  -9  -1  17    9.49    0.35
  -9  -1  17    9.49    0.35
  -7  -1  17    0.04    0.04
  -7  -1  17   -0.04    0.04
  -5  -1  17   20.83    0.60
  -5  -1  17   20.76    0.58
  -3  -1  17    8.32    0.27
  -3  -1  17    8.18    0.29
  -1  -1  17   21.40    0.59
  -1  -1  17   21.30    0.62
   1  -1  17    8.92    0.31
   3  -1  17    3.99    0.20
   5  -1  17    8.86    0.34
   7  -1  17    4.35    0.25
  -9   1 -17    7.76    0.37
 -11   1 -17    0.01    0.09
  11  -1  17    0.04    0.11
 -13   1 -17    1.88    0.25
 -16   0  17    0.00    0.09
 -16   0  17   -0.08    0.07
 -14   0  17   -0.06    0.06
 -14   0  17    0.11    0.09
 -12   0  17    0.03    0.07
 -12   0  17    0.06    0.06
 -10   0  17    0.10    0.06
 -10   0  17    0.07    0.06
  -8   0  17    0.05    0.04
  -8   0  17    0.00    0.04
  -6   0  17    0.03    0.04
  -6   0  17   -0.02    0.03
  -4   0  17    0.09    0.05
  -4   0  17    0.05    0.03
  -2   0  17    0.00    0.03
  -2   0  17    0.00    0.04
   0   0  17    0.05    0.05
   0   0  17   -0.01    0.04
   2   0  17    0.00    0.05
   4   0  17   -0.02    0.05
  -6   0 -17    0.00    0.05
   6   0  17    0.15    0.07
  -8   0 -17    0.03    0.07
   8   0  17    0.00    0.09
 -10   0 -17   -0.05    0.06
 -12   0 -17   -0.06    0.09
 -14   0 -17   -0.04    0.12
 -17   1  17    0.10    0.10
 -17   1  17    0.02    0.08
 -15   1  17    1.10    0.17
 -15   1  17    1.48    0.18
 -13   1  17    1.11    0.15
 -13   1  17    1.22    0.16
 -11   1  17   18.01    0.59
 -11   1  17   18.31    0.60
  -9   1  17    9.29    0.36
  -9   1  17    9.43    0.33
  -7   1  17    0.05    0.05
  -7   1  17    0.01    0.03
  -5   1  17   21.34    0.56
  -5   1  17   20.84    0.62
  -3   1  17    8.10    0.23
  -3   1  17    7.86    0.29
  -1   1  17   22.69    0.64
  -1   1  17   22.09    0.58
   1   1  17    8.44    0.27
   1   1  17    8.42    0.30
   3   1  17    4.21    0.19
   5   1  17    0.01    0.05
  -7  -1 -17    4.06    0.23
  -9  -1 -17    7.96    0.37
 -11  -1 -17    0.02    0.08
 -13  -1 -17    2.00    0.25
 -16   2  17    0.41    0.13
 -16   2  17    0.08    0.10
 -14   2  17    0.57    0.12
 -14   2  17    0.67    0.13
 -12   2  17    2.16    0.17
 -12   2  17    2.08    0.20
 -10   2  17    0.57    0.10
 -10   2  17    0.61    0.09
  -8   2  17    0.23    0.07
  -8   2  17    0.35    0.06
  -6   2  17    5.37    0.23
  -4   2  17    1.49    0.12
  -2   2  17    2.49    0.14
   0   2  17    0.02    0.04
   0   2  17    0.05    0.04
  -2  -2 -17    7.01    0.23
   2   2  17    7.25    0.26
   2   2  17    5.99    0.23
  -4  -2 -17    3.27    0.17
  -6  -2 -17    1.95    0.14
  -8  -2 -17    3.10    0.21
 -10  -2 -17    0.83    0.15
  10   2  17    0.94    0.11
 -12  -2 -17    0.39    0.13
 -14  -2 -17    0.04    0.12
 -17   3  17    0.20    0.11
 -15   3  17    2.20    0.23
 -15   3  17    1.65    0.20
 -13   3  17    2.67    0.21
 -13   3  17    2.78    0.20
 -11   3  17    0.67    0.11
 -11   3  17    0.68    0.12
  -9   3  17    0.79    0.11
  -9   3  17    0.79    0.10
  -7   3  17    0.15    0.04
  -7   3  17    0.23    0.07
  -5   3  17   14.90    0.38
  -5   3  17   14.22    0.47
  -3   3  17    0.70    0.09
  -1   3  17    2.06    0.13
  -1  -3 -17    3.02    0.12
   1   3  17    2.57    0.12
   1   3  17    3.12    0.16
  -3  -3 -17    3.67    0.16
   3   3  17    3.67    0.17
  -5  -3 -17   20.30    0.62
   5   3  17   21.40    0.61
  -7  -3 -17    3.15    0.20
  -9  -3 -17    2.79    0.21
   9   3  17    2.46    0.16
 -11  -3 -17    0.64    0.14
  11   3  17    0.52    0.09
 -13  -3 -17    0.38    0.14
 -16   4  17    0.34    0.13
 -16   4  17    0.37    0.13
 -14   4  17    4.16    0.27
 -14   4  17    4.49    0.28
 -12   4  17    1.65    0.19
 -12   4  17    1.71    0.17
 -10   4  17    0.69    0.12
 -10   4  17    0.52    0.09
  -8   4  17    1.08    0.10
  -8   4  17    0.88    0.12
  -6   4  17    0.63    0.10
  -4   4  17   17.73    0.54
  -2   4  17    3.05    0.16
   0  -4 -17    0.47    0.04
   0   4  17    0.50    0.07
  -2  -4 -17    1.53    0.09
   2   4  17    1.58    0.11
  -4  -4 -17   17.59    0.53
   4   4  17   17.87    0.53
  -6  -4 -17    1.85    0.14
   6   4  17    2.19    0.14
  -8  -4 -17    2.12    0.17
   8   4  17    2.25    0.16
 -10  -4 -17    0.11    0.08
  10   4  17    0.11    0.06
 -12  -4 -17    0.19    0.11
  12   4  17    0.13    0.09
 -15   5  17    0.68    0.15
 -15   5  17    0.59    0.15
 -13   5  17    1.74    0.20
 -13   5  17    1.66    0.19
 -11   5  17    0.26    0.08
 -11   5  17    0.23    0.09
  -9   5  17    0.71    0.09
  -9   5  17    0.72    0.12
   7  -5 -17    3.56    0.15
  -7   5  17    3.36    0.20
   5  -5 -17    3.07    0.11
  -5   5  17    3.25    0.18
  -3   5  17    3.31    0.17
  -1   5  17    5.38    0.22
  -1  -5 -17    3.54    0.14
   1   5  17    3.40    0.17
  -3  -5 -17    1.92    0.12
   3   5  17    1.94    0.12
  -5  -5 -17    9.16    0.33
   5   5  17    8.68    0.31
   5   5  17    8.66    0.34
  -7  -5 -17    2.83    0.19
   7   5  17    3.45    0.17
   7   5  17    3.42    0.20
  -9  -5 -17    1.38    0.18
   9   5  17    1.27    0.14
   9   5  17    1.45    0.15
 -11  -5 -17    0.60    0.14
  11   5  17    0.54    0.10
 -13  -5 -17    0.74    0.18
  14  -6 -17    0.77    0.15
 -14   6  17    0.82    0.15
  12  -6 -17    0.28    0.10
 -12   6  17    0.11    0.08
  10  -6 -17    1.36    0.14
 -10   6  17    0.89    0.14
   8  -6 -17    1.97    0.13
  -8   6  17    2.24    0.14
  -8   6  17    2.27    0.18
   6  -6 -17    8.74    0.26
  -6   6  17    9.55    0.34
  -6   6  17    6.55    0.29
  -4   6  17    1.48    0.14
  -4   6  17    1.45    0.13
  -2   6  17    4.14    0.20
  -2   6  17    4.02    0.20
   0  -6 -17    8.22    0.25
   0   6  17    8.28    0.32
   0   6  17    8.30    0.30
  -2  -6 -17    1.59    0.10
   2   6  17    1.69    0.15
   2   6  17    1.92    0.12
  -4  -6 -17    3.37    0.17
   4   6  17    3.08    0.19
   4   6  17    3.06    0.16
  -6  -6 -17    3.76    0.21
   6   6  17    3.33    0.20
   6   6  17    3.58    0.17
 -10  -6 -17    0.02    0.09
  10   6  17    0.09    0.07
 -12  -6 -17    0.41    0.14
  12   6  17    0.32    0.10
 -15   7  17    0.12    0.11
 -13   7  17    0.73    0.15
 -11   7  17    0.22    0.10
  -9   7  17    3.38    0.18
  -9   7  17    3.61    0.23
  -7   7  17    6.45    0.30
  -7   7  17    6.74    0.27
  -5   7  17    0.76    0.11
  -5   7  17    0.68    0.10
  -3   7  17    7.97    0.31
  -3   7  17    7.36    0.30
   1  -7 -17    1.27    0.07
  -1   7  17    1.35    0.14
  -1   7  17    1.35    0.12
  -1  -7 -17    0.54    0.07
   1   7  17    0.57    0.10
   1   7  17    0.63    0.08
  -3  -7 -17    1.10    0.11
   3   7  17    0.89    0.12
   3   7  17    0.88    0.09
  -5  -7 -17    1.49    0.14
   5   7  17    1.20    0.14
   5   7  17    1.31    0.11
  -7  -7 -17    2.06    0.17
   7   7  17    2.28    0.18
  -9  -7 -17    0.09    0.08
   9   7  17   -0.01    0.06
 -11  -7 -17    2.22    0.24
  11   7  17    2.01    0.19
 -14   8  17    0.13    0.10
 -12   8  17    0.21    0.10
 -10   8  17    1.88    0.20
  -8   8  17    1.61    0.15
  -8   8  17    1.46    0.17
  -6   8  17    1.25    0.15
  -6   8  17    1.18    0.13
  -4   8  17   11.19    0.41
  -4   8  17   11.71    0.42
  -2   8  17    2.57    0.16
  -2   8  17    2.67    0.18
   0   8  17    1.40    0.15
   0   8  17    1.39    0.13
  -2  -8 -17    0.52    0.08
   2   8  17    0.36    0.07
   2   8  17    0.46    0.10
  -4  -8 -17    4.13    0.21
   4   8  17    4.00    0.23
  -6  -8 -17    1.55    0.16
   6   8  17    1.77    0.18
  -8  -8 -17    1.95    0.20
   8   8  17    1.76    0.19
 -10  -8 -17    1.16    0.19
  10   8  17    1.11    0.16
 -13   9  17    0.81    0.16
 -11   9  17    2.58    0.24
  -9   9  17    0.72    0.13
  -9   9  17    0.61    0.10
  -5   9  17    1.20    0.14
  -5   9  17    1.15    0.15
  -3   9  17    7.27    0.30
  -3   9  17    7.22    0.32
  -1   9  17    2.21    0.15
  -1   9  17    2.42    0.19
   1   9  17   17.73    0.53
   1   9  17   17.02    0.58
   3   9  17    0.62    0.11
  -5  -9 -17    0.61    0.12
   5   9  17    0.58    0.12
  -7  -9 -17    6.12    0.31
   7   9  17    5.88    0.31
  -9  -9 -17    0.03    0.04
   9   9  17   -0.02    0.08
 -12  10  17    0.25    0.12
 -10  10  17    0.05    0.09
  -8  10  17    0.53    0.12
  -8  10  17    0.52    0.10
  -6  10  17    5.83    0.29
  -6  10  17    6.18    0.30
  -4  10  17    4.70    0.26
  -4  10  17    4.46    0.24
  -2  10  17    4.34    0.23
  -2  10  17    4.44    0.26
   0  10  17    3.91    0.20
   0  10  17    3.82    0.24
   2  10  17    1.08    0.16
   4  10  17    0.27    0.09
   6  10  17    0.06    0.08
  -8 -10 -17    0.35    0.11
   8  10  17    0.59    0.13
 -11  11  17    2.08    0.24
  -9  11  17    0.62    0.14
  -7  11  17    4.34    0.26
  -7  11  17    4.11    0.25
  -5  11  17    0.21    0.08
  -5  11  17    0.14    0.08
  -3  11  17    2.06    0.19
  -3  11  17    2.16    0.20
  -1  11  17    1.73    0.18
   1  11  17    3.37    0.23
   3  11  17    1.18    0.16
   5  11  17    0.57    0.13
   7  11  17    1.93    0.21
  -8  12  17    1.44    0.17
  -8  12  17    1.70    0.20
  -6  12  17    1.34    0.17
  -6  12  17    1.63    0.18
  -4  12  17    0.00    0.06
  -4  12  17    0.06    0.09
  -2  12  17    1.65    0.19
   0  12  17    0.07    0.09
   2  12  17    1.53    0.18
   4  12  17    1.07    0.17
   6  12  17    0.61    0.14
  -7  13  17    1.39    0.19
  -5  13  17    0.38    0.10
  -5  13  17    0.27    0.11
  -3  13  17    0.71    0.14
  -1  13  17    0.63    0.14
   1  13  17    1.38    0.19
   3  13  17    0.56    0.14
  -5 -13  18    0.09    0.10
  -3 -13  18    0.73    0.17
  -1 -13  18    0.56    0.17
   1 -13  18    0.61    0.17
   3 -13  18    0.86    0.21
  -8 -12  18    0.41    0.14
  -6 -12  18    0.32    0.13
  -4 -12  18    1.70    0.23
  -2 -12  18    3.45    0.29
   0 -12  18    0.31    0.14
   2 -12  18    1.26    0.23
   4 -12  18    0.89    0.22
   6 -12  18    0.90    0.22
 -11 -11  18    0.54    0.16
  -9 -11  18    0.78    0.17
  -7 -11  18    1.29    0.20
  -5 -11  18    0.18    0.10
  -3 -11  18    1.57    0.22
  -1 -11  18    2.09    0.25
   1 -11  18    2.44    0.28
   3 -11  18    0.13    0.14
   5 -11  18    0.01    0.15
   7 -11  18    0.90    0.20
 -12 -10  18    0.73    0.17
 -10 -10  18    0.40    0.14
  -8 -10  18    3.15    0.26
  -6 -10  18    2.74    0.23
  -4 -10  18   -0.06    0.08
  -4 -10  18   -0.01    0.05
  -2 -10  18   10.58    0.48
   0 -10  18    1.93    0.23
   2 -10  18    5.86    0.36
   4 -10  18    0.04    0.13
   6 -10  18    1.02    0.22
   8 -10  18    1.69    0.28
 -13  -9  18   -0.03    0.10
 -11  -9  18    0.46    0.14
  -9  -9  18    0.61    0.14
  -7  -9  18    0.03    0.08
  -5  -9  18    4.07    0.20
  -5  -9  18    4.14    0.27
  -3  -9  18    2.42    0.25
  -3  -9  18    2.23    0.15
  -1  -9  18    0.22    0.11
   1  -9  18    0.51    0.15
   3  -9  18    0.54    0.15
   5  -9  18    0.16    0.13
   7  -9  18    1.23    0.21
   9  -9  18    2.07    0.30
 -14  -8  18    0.01    0.09
 -12  -8  18    2.26    0.25
 -10  -8  18    0.07    0.09
  -8  -8  18    4.94    0.30
  -6  -8  18    4.29    0.27
  -6  -8  18    4.59    0.21
  -4  -8  18    0.45    0.08
  -4  -8  18    0.32    0.11
  -2  -8  18    5.42    0.31
   0  -8  18    0.12    0.11
   2  -8  18   14.53    0.58
   4  -8  18    2.28    0.26
   6  -8  18    2.99    0.30
   8  -8  18    2.43    0.28
  10  -8  18    0.39    0.18
 -15  -7  18    0.21    0.12
 -13  -7  18    0.88    0.17
 -11  -7  18    0.47    0.12
  -9  -7  18    4.66    0.21
  -9  -7  18    4.94    0.29
  -7  -7  18    0.35    0.10
  -7  -7  18    0.45    0.08
  -5  -7  18    5.99    0.30
  -5  -7  18    5.81    0.24
  -3  -7  18    0.58    0.12
  -1  -7  18    9.46    0.41
   1  -7  18    0.46    0.12
   3  -7  18    0.16    0.10
   5  -7  18    1.02    0.18
   7  -7  18    0.62    0.17
   9  -7  18    1.96    0.26
  11  -7  18    0.29    0.16
 -14  -6  18    0.23    0.11
 -12  -6  18    0.19    0.10
 -10  -6  18    1.43    0.13
 -10  -6  18    1.33    0.18
  -8  -6  18    1.96    0.14
  -8  -6  18    2.04    0.20
  -6  -6  18    5.26    0.27
  -6  -6  18    5.51    0.23
  -2  -6  18    0.68    0.10
  -2  -6  18    0.61    0.12
   0  -6  18    1.41    0.17
   2  -6  18    3.01    0.23
   4  -6  18    1.77    0.21
   6  -6  18    2.74    0.27
   8  -6  18    3.27    0.28
  10  -6  18    0.61    0.17
  12  -6  18    1.27    0.25
 -15  -5  18    1.34    0.21
 -13  -5  18    2.36    0.24
 -11  -5  18    0.94    0.15
 -11  -5  18    0.90    0.12
  -9  -5  18    1.12    0.15
  -9  -5  18    1.39    0.13
  -7  -5  18    0.84    0.12
  -7  -5  18    0.99    0.11
  -5  -5  18    1.92    0.13
  -5  -5  18    2.45    0.17
  -3  -5  18    2.63    0.15
  -3  -5  18    2.57    0.18
  -1  -5  18    2.94    0.20
   1  -5  18    4.09    0.25
   3  -5  18    0.55    0.12
   5  -5  18   15.23    0.57
   7  -5  18    0.33    0.12
   9  -5  18    1.10    0.19
  11  -5  18    0.45    0.15
  13  -5  18    0.86    0.21
 -16  -4  18    0.38    0.14
 -14  -4  18    3.83    0.22
 -14  -4  18    3.73    0.28
 -12  -4  18    0.20    0.09
 -12  -4  18    0.41    0.09
 -10  -4  18    1.75    0.18
 -10  -4  18    1.91    0.14
  -8  -4  18    1.25    0.14
  -6  -4  18    3.31    0.17
  -6  -4  18    3.48    0.20
  -4  -4  18    2.45    0.15
  -4  -4  18    2.35    0.16
  -2  -4  18    4.63    0.23
  -2  -4  18    4.62    0.21
   0  -4  18    1.18    0.14
   2  -4  18    4.32    0.24
   4  -4  18    4.38    0.26
   6  -4  18    2.76    0.23
   8  -4  18    1.55    0.20
  10  -4  18    0.07    0.12
  12  -4  18    0.40    0.17
 -15  -3  18    0.40    0.13
 -15  -3  18    0.44    0.11
 -13  -3  18    0.53    0.13
 -11  -3  18    1.68    0.15
 -11  -3  18    1.38    0.17
  -9  -3  18    1.38    0.13
  -9  -3  18    1.42    0.16
  -7  -3  18    0.37    0.08
  -7  -3  18    0.32    0.07
  -5  -3  18   19.40    0.59
  -5  -3  18   20.00    0.58
  -3  -3  18    2.70    0.15
  -3  -3  18    2.60    0.16
  -1  -3  18    0.49    0.08
  -1  -3  18    0.51    0.09
   1  -3  18    2.44    0.18
   3  -3  18    2.48    0.18
   5  -3  18    6.99    0.33
   7  -3  18    1.44    0.19
   9  -3  18    1.50    0.21
  11  -3  18    0.14    0.12
  13  -3  18    0.22    0.14
 -16  -2  18    0.19    0.11
 -16  -2  18    0.07    0.08
 -14  -2  18    2.51    0.19
 -14  -2  18    2.32    0.24
 -12  -2  18    0.21    0.08
 -12  -2  18    0.08    0.08
 -10  -2  18    1.98    0.15
 -10  -2  18    1.89    0.16
  -8  -2  18    0.19    0.06
  -8  -2  18    0.13    0.06
  -6  -2  18    4.52    0.21
  -6  -2  18    4.69    0.21
  -4  -2  18   14.67    0.45
  -4  -2  18   14.70    0.46
  -2  -2  18    1.20    0.12
  -2  -2  18    1.41    0.11
   0  -2  18    2.25    0.14
   0  -2  18    2.13    0.15
   2  -2  18    4.29    0.22
   4  -2  18   12.85    0.46
   6  -2  18    5.28    0.28
   8  -2  18    2.57    0.22
  10  -2  18    2.44    0.24
  12  -2  18    0.77    0.17
  14  -2  18    1.86    0.27
 -17  -1  18   -0.02    0.08
 -17  -1  18    0.06    0.09
 -15  -1  18    0.14    0.10
 -15  -1  18    0.16    0.09
 -13  -1  18    0.17    0.08
 -13  -1  18    0.10    0.08
 -11  -1  18    3.90    0.23
 -11  -1  18    4.09    0.23
  -9  -1  18    1.14    0.12
  -9  -1  18    1.22    0.13
  -7  -1  18    0.25    0.07
  -7  -1  18    0.42    0.07
  -5  -1  18    1.12    0.09
  -5  -1  18    0.90    0.10
  -3  -1  18    5.39    0.20
  -3  -1  18    5.20    0.22
  -1  -1  18    3.79    0.19
  -1  -1  18    3.96    0.18
   1  -1  18    0.47    0.08
   1  -1  18    0.41    0.08
   3  -1  18    0.11    0.06
   5  -1  18   -0.08    0.06
   7  -1  18    0.75    0.13
   9  -1  18    0.07    0.11
 -11   1 -18    2.15    0.24
 -13   1 -18    0.22    0.14
  13  -1  18   -0.01    0.10
 -16   0  18    0.19    0.11
 -16   0  18    0.08    0.09
 -14   0  18    2.40    0.20
 -14   0  18    2.24    0.21
 -12   0  18    0.91    0.13
 -12   0  18    0.61    0.11
 -10   0  18   30.20    0.87
 -10   0  18   30.31    0.88
  -8   0  18    2.30    0.14
  -8   0  18    2.36    0.16
  -6   0  18    0.38    0.07
  -6   0  18    0.32    0.06
  -4   0  18   18.06    0.54
  -4   0  18   17.78    0.49
  -2   0  18    2.49    0.12
  -2   0  18    2.19    0.14
   0   0  18   16.24    0.50
   0   0  18   16.79    0.48
   2   0  18    0.48    0.08
   4   0  18   10.72    0.37
  -6   0 -18    4.53    0.23
 -12   0 -18    2.59    0.28
 -14   0 -18    3.06    0.33
 -17   1  18    0.02    0.09
 -17   1  18   -0.01    0.10
 -15   1  18    0.08    0.09
 -15   1  18    0.09    0.08
 -13   1  18    0.20    0.09
 -13   1  18    0.17    0.08
 -11   1  18    4.05    0.24
 -11   1  18    4.05    0.22
  -9   1  18    1.21    0.13
  -9   1  18    1.09    0.11
  -7   1  18    0.37    0.06
  -7   1  18    0.26    0.07
  -5   1  18    1.15    0.08
  -5   1  18    1.01    0.11
  -3   1  18    5.29    0.23
  -3   1  18    5.42    0.17
  -1   1  18    4.15    0.15
  -1   1  18    3.88    0.19
   1   1  18    0.37    0.06
   1   1  18    0.42    0.07
   3   1  18    0.02    0.05
   3   1  18    0.06    0.04
  -5  -1 -18   -0.02    0.02
   5   1  18   -0.02    0.06
  -7  -1 -18    0.72    0.12
  -9  -1 -18    0.29    0.10
 -11  -1 -18    2.44    0.25
 -13  -1 -18    0.07    0.11
 -16   2  18   -0.04    0.08
 -16   2  18   -0.03    0.08
 -14   2  18    2.77    0.21
 -14   2  18    2.79    0.22
 -12   2  18    0.16    0.08
 -12   2  18    0.16    0.08
 -10   2  18    2.03    0.16
 -10   2  18    2.05    0.14
  -8   2  18    0.10    0.04
  -8   2  18    0.06    0.06
  -6   2  18    4.24    0.21
  -4   2  18   15.35    0.48
  -2   2  18    1.46    0.11
   0   2  18    2.30    0.14
   0   2  18    2.22    0.10
   2   2  18    3.60    0.17
   2   2  18    3.36    0.15
  -4  -2 -18   12.56    0.41
   4   2  18   12.81    0.42
  -6  -2 -18   -0.01    0.02
  -8  -2 -18    2.73    0.20
 -10  -2 -18    2.31    0.20
 -12  -2 -18    0.56    0.15
 -14  -2 -18    1.82    0.26
 -15   3  18    0.49    0.13
 -15   3  18    0.55    0.13
 -13   3  18    0.68    0.12
 -13   3  18    0.83    0.14
 -11   3  18    1.69    0.15
 -11   3  18    1.62    0.18
  -9   3  18    1.30    0.11
  -9   3  18    1.33    0.14
  -7   3  18    0.36    0.08
  -7   3  18    0.42    0.06
  -5   3  18   18.72    0.57
  -3   3  18    2.58    0.15
  -1   3  18    0.46    0.08
   1   3  18    2.19    0.14
  -3  -3 -18    2.75    0.14
   3   3  18    2.59    0.15
  -5  -3 -18    6.89    0.28
   5   3  18    6.81    0.27
  -7  -3 -18    1.31    0.15
  -9  -3 -18    1.80    0.20
   9   3  18    1.71    0.14
 -11  -3 -18    0.06    0.09
  11   3  18    0.24    0.07
 -13  -3 -18    0.20    0.12
 -16   4  18    0.27    0.13
 -16   4  18    0.54    0.15
 -14   4  18    3.92    0.27
 -14   4  18    3.75    0.25
 -12   4  18    0.33    0.10
 -12   4  18    0.33    0.09
 -10   4  18    1.87    0.14
 -10   4  18    1.44    0.16
  -8   4  18    1.21    0.10
  -8   4  18    0.97    0.13
  -6   4  18    3.40    0.19
  -4   4  18    2.38    0.15
  -2   4  18    4.32    0.20
   0   4  18    1.22    0.12
  -2  -4 -18    4.12    0.16
   2   4  18    4.21    0.19
  -4  -4 -18    5.50    0.23
   4   4  18    5.48    0.23
  -6  -4 -18    2.87    0.18
   6   4  18    2.92    0.16
  -8  -4 -18    1.63    0.17
   8   4  18    1.67    0.16
 -10  -4 -18    0.45    0.12
  10   4  18    0.38    0.09
 -12  -4 -18    0.13    0.10
 -15   5  18    1.09    0.18
 -13   5  18    2.03    0.27
 -13   5  18    2.12    0.22
 -11   5  18    1.03    0.15
  -9   5  18    1.39    0.12
  -9   5  18    1.16    0.14
   7  -5 -18    0.99    0.08
  -7   5  18    0.97    0.13
  -5   5  18    2.65    0.17
  -3   5  18    2.60    0.16
  -1   5  18    2.95    0.16
  -1  -5 -18    3.64    0.14
   1   5  18    3.70    0.18
  -3  -5 -18    0.52    0.07
   3   5  18    0.46    0.07
  -5  -5 -18   15.16    0.49
   5   5  18   14.73    0.47
   5   5  18   15.63    0.51
  -7  -5 -18    0.48    0.10
   7   5  18    0.35    0.09
   7   5  18    0.44    0.08
  -9  -5 -18    1.37    0.18
   9   5  18    1.70    0.22
   9   5  18    1.47    0.15
 -11  -5 -18    0.68    0.15
  11   5  18    0.58    0.10
 -13  -5 -18    0.75    0.18
 -14   6  18    0.26    0.11
 -12   6  18    0.07    0.09
 -10   6  18    1.47    0.17
  -8   6  18    2.07    0.19
  -8   6  18    2.36    0.15
  -6   6  18    5.63    0.27
  -6   6  18    5.75    0.24
  -4   6  18    2.17    0.15
  -4   6  18    2.28    0.15
  -2   6  18    0.61    0.09
  -2   6  18    0.59    0.09
   0  -6 -18    1.24    0.07
   0   6  18    1.41    0.12
   0   6  18    1.27    0.13
  -2  -6 -18    3.17    0.14
   2   6  18    3.22    0.16
   2   6  18    3.17    0.19
  -4  -6 -18    1.74    0.12
   4   6  18    1.53    0.15
   4   6  18    1.67    0.12
  -6  -6 -18    2.82    0.19
   6   6  18    2.88    0.19
   6   6  18    2.92    0.16
  -8  -6 -18    1.78    0.18
 -10  -6 -18    0.37    0.12
  10   6  18    0.30    0.09
 -12  -6 -18    0.97    0.17
  12   6  18    1.22    0.16
 -15   7  18    0.19    0.12
 -13   7  18    0.63    0.14
 -11   7  18    0.83    0.15
  -9   7  18    5.01    0.23
  -9   7  18    5.24    0.28
  -7   7  18    0.39    0.08
  -7   7  18    0.33    0.09
  -5   7  18    6.51    0.27
  -5   7  18    6.05    0.28
  -3   7  18    0.55    0.10
  -3   7  18    0.60    0.10
  -1   7  18    9.09    0.35
  -1   7  18    9.10    0.33
  -1  -7 -18    0.39    0.06
   1   7  18    0.49    0.08
   1   7  18    0.32    0.08
  -3  -7 -18    0.18    0.05
   3   7  18    0.27    0.06
   3   7  18    0.29    0.08
  -5  -7 -18    1.03    0.12
   5   7  18    1.30    0.12
   5   7  18    0.98    0.13
  -7  -7 -18    0.42    0.10
   7   7  18    0.42    0.10
   9   7  18    2.11    0.19
 -11  -7 -18    0.17    0.11
  11   7  18    0.16    0.09
 -14   8  18    0.08    0.10
 -12   8  18    2.75    0.26
 -10   8  18    0.04    0.08
  -8   8  18    5.57    0.26
  -8   8  18    6.09    0.30
  -6   8  18    4.95    0.27
  -6   8  18    5.21    0.25
  -4   8  18    0.33    0.08
  -4   8  18    0.46    0.09
  -2   8  18    5.63    0.27
  -2   8  18    5.32    0.25
   0   8  18    0.05    0.05
   0   8  18    0.11    0.07
   2   8  18   14.13    0.45
   2   8  18   14.57    0.50
  -4  -8 -18    2.42    0.16
   4   8  18    2.51    0.19
  -6  -8 -18    2.84    0.19
   6   8  18    2.79    0.20
  -8  -8 -18    3.93    0.25
   8   8  18    3.27    0.23
 -10  -8 -18    0.23    0.11
  10   8  18    0.32    0.11
 -13   9  18    0.12    0.10
 -11   9  18    0.58    0.13
  -9   9  18    0.49    0.12
  -9   9  18    0.54    0.10
  -7   9  18   -0.02    0.06
  -7   9  18   -0.01    0.04
  -5   9  18    4.23    0.24
  -5   9  18    4.55    0.24
  -3   9  18    2.75    0.19
  -3   9  18    2.63    0.17
  -1   9  18    0.27    0.08
  -1   9  18    0.36    0.08
   1   9  18    0.69    0.09
   1   9  18    0.66    0.11
   3   9  18    0.53    0.11
   5   9  18    0.24    0.09
  -7  -9 -18    1.33    0.17
   7   9  18    1.60    0.18
  -9  -9 -18    1.75    0.21
   9   9  18    1.46    0.18
 -12  10  18    0.85    0.17
 -10  10  18    0.61    0.14
  -8  10  18    3.36    0.21
  -8  10  18    3.10    0.23
  -6  10  18    2.73    0.20
  -6  10  18    2.89    0.21
  -4  10  18    0.06    0.07
  -4  10  18    0.00    0.07
  -2  10  18   11.18    0.44
  -2  10  18   11.37    0.41
   0  10  18    1.96    0.15
   0  10  18    2.09    0.20
   2  10  18    6.57    0.33
   4  10  18   -0.05    0.06
   6  10  18    0.87    0.15
   8  10  18    2.30    0.23
  -9  11  18    0.87    0.16
  -7  11  18    1.02    0.14
  -7  11  18    1.15    0.17
  -5  11  18    0.17    0.08
  -5  11  18    0.11    0.08
  -3  11  18    1.44    0.17
  -3  11  18    1.27    0.15
  -1  11  18    1.58    0.18
   1  11  18    2.15    0.21
   3  11  18    0.07    0.08
   5  11  18    0.25    0.10
   7  11  18    1.33    0.18
  -8  12  18    0.69    0.14
  -6  12  18    0.10    0.08
  -6  12  18    0.19    0.09
  -4  12  18    2.07    0.19
  -4  12  18    1.93    0.21
  -2  12  18    3.68    0.26
   0  12  18    0.27    0.11
   2  12  18    1.14    0.17
   4  12  18    0.51    0.12
   6  12  18    0.99    0.17
  -5  13  18    0.31    0.11
  -5  13  18    0.47    0.12
  -3  13  18    0.85    0.15
  -1  13  18    0.43    0.12
   1  13  18    0.53    0.13
   3  13  18    1.06    0.17
  -5 -13  19    0.04    0.11
  -3 -13  19    1.01    0.20
  -1 -13  19    0.49    0.16
   1 -13  19    0.40    0.17
  -8 -12  19    0.42    0.14
  -6 -12  19    0.93    0.18
  -4 -12  19    1.45    0.22
  -2 -12  19    3.66    0.30
   0 -12  19    0.13    0.13
   2 -12  19    0.98    0.20
   4 -12  19    0.07    0.15
  -9 -11  19   -0.01    0.09
  -7 -11  19    0.95    0.17
  -5 -11  19    0.16    0.10
  -3 -11  19    3.09    0.27
  -1 -11  19    4.00    0.31
   1 -11  19    1.56    0.23
   3 -11  19    1.32    0.23
   5 -11  19    0.03    0.15
   7 -11  19    2.20    0.30
 -12 -10  19    0.22    0.12
 -10 -10  19    1.72    0.23
  -8 -10  19    1.49    0.21
  -6 -10  19    1.28    0.19
  -4 -10  19    1.33    0.20
  -4 -10  19    1.39    0.14
  -2 -10  19    1.24    0.19
   0 -10  19    2.37    0.26
   2 -10  19    0.35    0.15
   4 -10  19    0.06    0.13
   6 -10  19    0.43    0.18
   8 -10  19    0.64    0.20
 -13  -9  19    0.43    0.15
 -11  -9  19    1.25    0.20
  -9  -9  19    1.26    0.18
  -7  -9  19    4.53    0.29
  -5  -9  19    2.09    0.15
  -5  -9  19    2.02    0.22
  -3  -9  19    3.48    0.26
  -3  -9  19    3.44    0.20
  -1  -9  19    2.55    0.25
   1  -9  19    2.32    0.26
   3  -9  19    3.39    0.28
   5  -9  19    0.13    0.13
   7  -9  19    5.10    0.39
   9  -9  19    0.30    0.18
 -14  -8  19    0.25    0.13
 -12  -8  19    0.12    0.11
 -10  -8  19    1.92    0.22
  -8  -8  19    0.59    0.13
  -6  -8  19    1.65    0.13
  -6  -8  19    1.42    0.18
  -4  -8  19    4.54    0.28
  -4  -8  19    4.62    0.22
  -2  -8  19    2.52    0.24
  -2  -8  19    2.40    0.16
   0  -8  19    0.63    0.14
   2  -8  19    2.73    0.27
   4  -8  19    1.23    0.21
   6  -8  19    0.64    0.17
   8  -8  19    3.70    0.37
  10  -8  19    0.32    0.15
 -13  -7  19    0.50    0.14
 -11  -7  19    0.99    0.17
  -9  -7  19    0.07    0.05
  -9  -7  19    0.10    0.09
  -7  -7  19    7.61    0.36
  -7  -7  19    7.17    0.28
  -5  -7  19    0.73    0.13
  -5  -7  19    0.60    0.09
  -3  -7  19   10.64    0.38
  -3  -7  19   11.08    0.44
  -1  -7  19    5.34    0.30
   1  -7  19    1.73    0.20
   3  -7  19    6.50    0.36
   5  -7  19    0.97    0.19
   7  -7  19    2.60    0.29
   9  -7  19    0.19    0.13
  11  -7  19    0.11    0.16
 -14  -6  19    0.77    0.17
 -12  -6  19    1.10    0.18
 -10  -6  19    1.82    0.14
 -10  -6  19    1.82    0.21
  -8  -6  19    3.84    0.24
  -8  -6  19    3.82    0.19
  -6  -6  19    2.83    0.16
  -6  -6  19    2.95    0.20
  -4  -6  19    0.30    0.09
  -4  -6  19    0.24    0.06
  -2  -6  19    0.68    0.12
  -2  -6  19    0.85    0.11
   0  -6  19    5.43    0.29
   2  -6  19    1.08    0.16
   4  -6  19    2.90    0.25
   6  -6  19    4.72    0.32
   8  -6  19    1.53    0.22
  10  -6  19    0.69    0.18
  12  -6  19    0.08    0.15
 -15  -5  19    0.13    0.11
 -13  -5  19    2.11    0.24
 -11  -5  19    2.83    0.22
 -11  -5  19    2.70    0.17
  -9  -5  19    2.03    0.20
  -9  -5  19    2.27    0.15
  -7  -5  19    1.73    0.12
  -5  -5  19    1.83    0.15
  -5  -5  19    1.73    0.13
  -3  -5  19    1.72    0.15
  -3  -5  19    1.67    0.13
  -1  -5  19    2.76    0.20
   1  -5  19    3.71    0.23
   3  -5  19    1.36    0.18
   5  -5  19    3.17    0.25
   7  -5  19    0.59    0.14
   9  -5  19    0.93    0.19
  11  -5  19    0.91    0.20
 -16  -4  19    0.36    0.14
 -14  -4  19    2.38    0.26
 -14  -4  19    2.61    0.19
 -12  -4  19    0.59    0.11
 -12  -4  19    0.64    0.14
 -10  -4  19    0.93    0.14
 -10  -4  19    0.48    0.08
  -8  -4  19    2.31    0.15
  -8  -4  19    2.60    0.18
  -6  -4  19    3.98    0.20
  -6  -4  19    4.07    0.22
  -4  -4  19    7.71    0.31
  -4  -4  19    7.87    0.30
  -2  -4  19    6.70    0.27
  -2  -4  19    6.61    0.29
   0  -4  19    3.22    0.20
   2  -4  19    3.73    0.23
   4  -4  19    5.09    0.28
   6  -4  19    2.46    0.24
   8  -4  19    1.46    0.21
  10  -4  19    0.37    0.16
  12  -4  19    0.40    0.15
 -15  -3  19    1.11    0.19
 -13  -3  19    4.93    0.28
 -13  -3  19    3.41    0.21
 -11  -3  19    0.81    0.12
 -11  -3  19    0.81    0.14
  -9  -3  19    3.00    0.17
  -9  -3  19    3.02    0.20
  -7  -3  19    1.48    0.14
  -7  -3  19    1.33    0.14
  -5  -3  19   25.49    0.73
  -5  -3  19   25.41    0.73
  -3  -3  19    2.12    0.14
  -3  -3  19    2.07    0.14
  -1  -3  19    8.80    0.32
  -1  -3  19    8.52    0.33
   1  -3  19    5.10    0.26
   3  -3  19    1.14    0.15
   5  -3  19   10.92    0.44
   7  -3  19    0.02    0.09
   9  -3  19    0.84    0.17
  11  -3  19    0.55    0.17
  13  -3  19    0.06    0.13
 -16  -2  19   -0.08    0.08
 -16  -2  19    0.00    0.07
 -14  -2  19    0.44    0.12
 -14  -2  19    0.32    0.10
 -12  -2  19    0.28    0.09
 -12  -2  19    0.14    0.08
 -10  -2  19    0.70    0.11
 -10  -2  19    0.88    0.12
  -8  -2  19    1.39    0.14
  -8  -2  19    1.41    0.14
  -6  -2  19    0.50    0.09
  -6  -2  19    0.68    0.09
  -4  -2  19   18.48    0.54
  -4  -2  19   18.58    0.56
  -2  -2  19    8.29    0.31
  -2  -2  19    8.14    0.30
   0  -2  19   10.95    0.38
   0  -2  19   10.73    0.38
   2  -2  19    2.09    0.16
   4  -2  19    4.78    0.25
   6  -2  19    3.33    0.23
   8  -2  19    1.40    0.18
  10  -2  19    1.86    0.21
  12  -2  19    0.27    0.13
 -17  -1  19    0.25    0.12
 -17  -1  19    0.10    0.10
 -15  -1  19    0.09    0.10
 -15  -1  19    0.17    0.10
 -13  -1  19    1.35    0.17
 -13  -1  19    1.46    0.17
 -11  -1  19    6.30    0.30
 -11  -1  19    6.39    0.29
  -9  -1  19    4.69    0.23
  -9  -1  19    4.63    0.23
  -7  -1  19    0.22    0.06
  -7  -1  19    0.07    0.05
  -5  -1  19    4.85    0.20
  -5  -1  19    4.79    0.22
  -3  -1  19   27.40    0.74
  -3  -1  19   27.31    0.77
  -1  -1  19   12.07    0.40
  -1  -1  19   11.81    0.37
   1  -1  19    5.77    0.25
   1  -1  19    5.98    0.24
   3  -1  19    1.83    0.14
   5  -1  19   10.24    0.39
   7  -1  19    0.45    0.11
   9  -1  19    1.75    0.21
  13  -1  19    0.66    0.17
 -16   0  19    0.13    0.09
 -16   0  19    0.04    0.09
 -14   0  19   -0.01    0.07
 -14   0  19   -0.02    0.07
 -12   0  19    0.01    0.07
 -12   0  19   -0.02    0.06
 -10   0  19    0.37    0.09
 -10   0  19    0.32    0.08
  -8   0  19    0.01    0.04
  -8   0  19    0.01    0.05
  -6   0  19    0.01    0.03
  -6   0  19   -0.01    0.05
  -4   0  19    0.01    0.04
  -4   0  19    0.02    0.03
  -2   0  19    0.03    0.04
  -2   0  19   -0.05    0.04
   0   0  19    0.10    0.05
   0   0  19    0.08    0.05
   2   0  19   -0.01    0.05
   2   0  19   -0.03    0.04
   4   0  19    0.01    0.06
   6   0  19    0.01    0.07
  -8   0 -19    0.05    0.06
   8   0  19    0.06    0.09
 -10   0 -19    0.08    0.09
  10   0  19    0.15    0.11
 -12   0 -19    0.04    0.11
  12   0  19    0.15    0.13
 -14   0 -19   -0.02    0.11
 -17   1  19    0.16    0.12
 -17   1  19    0.15    0.10
 -15   1  19    0.19    0.09
 -15   1  19    0.30    0.11
 -13   1  19    1.51    0.17
 -13   1  19    1.24    0.16
 -11   1  19    6.41    0.29
 -11   1  19    6.61    0.30
  -9   1  19    4.87    0.22
  -9   1  19    4.81    0.24
  -7   1  19    0.27    0.06
  -7   1  19    0.20    0.07
  -5   1  19    4.89    0.17
  -5   1  19    4.66    0.22
  -3   1  19   27.86    0.70
  -3   1  19   27.07    0.77
  -1   1  19   12.84    0.36
  -1   1  19   12.61    0.42
   1   1  19    5.88    0.22
   1   1  19    5.69    0.24
   3   1  19    1.97    0.14
  -5  -1 -19   10.25    0.37
  -7  -1 -19    0.45    0.10
   7   1  19    0.00    0.08
  -9  -1 -19    2.02    0.21
 -11  -1 -19    3.51    0.27
 -13  -1 -19    1.77    0.25
 -16   2  19    0.13    0.10
 -16   2  19    0.16    0.11
 -14   2  19    0.31    0.10
 -14   2  19    0.29    0.10
 -12   2  19    0.13    0.07
 -12   2  19    0.27    0.10
 -10   2  19    0.89    0.11
 -10   2  19    0.91    0.13
  -8   2  19    1.27    0.14
  -8   2  19    1.36    0.10
  -6   2  19    0.66    0.09
  -4   2  19   17.75    0.55
  -2   2  19    8.10    0.30
   0   2  19   10.16    0.36
   0   2  19   10.68    0.30
   2   2  19    1.89    0.13
  -4  -2 -19    4.18    0.20
   4   2  19    4.46    0.21
  -6  -2 -19    1.63    0.14
  -8  -2 -19    1.89    0.19
 -10  -2 -19    2.08    0.22
 -12  -2 -19    0.30    0.13
 -15   3  19    0.91    0.16
 -15   3  19    0.86    0.15
 -13   3  19    5.30    0.27
 -13   3  19    4.88    0.29
 -11   3  19    0.70    0.11
 -11   3  19    0.69    0.12
  -9   3  19    2.96    0.16
  -9   3  19    2.68    0.19
  -7   3  19    1.17    0.13
  -7   3  19    1.32    0.09
  -5   3  19   25.26    0.74
  -3   3  19    2.24    0.14
  -1   3  19    8.40    0.31
   1   3  19    4.61    0.21
   1   3  19    4.56    0.16
  -3  -3 -19    1.22    0.10
   3   3  19    0.99    0.11
  -5  -3 -19   11.01    0.39
   5   3  19   10.70    0.38
  -7  -3 -19    0.01    0.03
  -9  -3 -19    0.80    0.14
   9   3  19    0.76    0.11
 -11  -3 -19    0.45    0.13
  11   3  19    0.51    0.10
 -13  -3 -19    0.05    0.10
 -16   4  19    0.40    0.13
 -14   4  19    2.49    0.26
 -14   4  19    2.85    0.26
 -12   4  19    0.63    0.13
 -12   4  19    0.62    0.11
 -10   4  19    0.76    0.12
 -10   4  19    0.74    0.10
  -8   4  19    2.81    0.14
  -8   4  19    2.82    0.19
  -6   4  19    4.12    0.22
  -4   4  19    8.35    0.32
  -2   4  19    6.61    0.27
   0   4  19    3.41    0.18
  -2  -4 -19    3.57    0.15
   2   4  19    3.56    0.18
  -4  -4 -19    6.31    0.25
   4   4  19    5.78    0.24
  -6  -4 -19    2.71    0.18
   6   4  19    2.96    0.17
  -8  -4 -19    0.93    0.14
   8   4  19    1.55    0.15
   8   4  19    1.43    0.14
 -10  -4 -19    0.27    0.11
  10   4  19    0.45    0.09
 -12  -4 -19    0.76    0.17
 -15   5  19    0.39    0.13
 -13   5  19    2.17    0.22
 -11   5  19    2.90    0.22
  -9   5  19    2.18    0.18
  -7   5  19    3.52    0.21
  -5   5  19    2.04    0.15
  -3   5  19    1.73    0.13
  -1   5  19    2.87    0.16
  -1  -5 -19    3.44    0.13
   1   5  19    3.72    0.18
  -3  -5 -19    1.36    0.10
   3   5  19    1.40    0.11
  -5  -5 -19    3.27    0.18
   5   5  19    3.31    0.17
   5   5  19    3.27    0.19
  -7  -5 -19    1.08    0.14
   7   5  19    1.09    0.12
   7   5  19    1.13    0.13
  -9  -5 -19    0.81    0.14
   9   5  19    1.05    0.13
 -11  -5 -19    0.91    0.17
  11   5  19    1.08    0.14
 -14   6  19    0.65    0.15
 -12   6  19    0.76    0.14
 -10   6  19    2.16    0.21
  -8   6  19    4.22    0.21
  -8   6  19    4.24    0.24
  -6   6  19    2.90    0.19
  -6   6  19    2.93    0.17
  -4   6  19    0.29    0.08
  -2   6  19    0.75    0.10
   0   6  19    5.68    0.25
   0   6  19    5.48    0.23
  -2  -6 -19    1.17    0.09
   2   6  19    1.29    0.14
   2   6  19    1.16    0.11
  -4  -6 -19    2.52    0.15
   4   6  19    2.43    0.15
   4   6  19    2.32    0.18
  -6  -6 -19    4.16    0.22
   6   6  19    4.21    0.20
   6   6  19    4.10    0.23
  -8  -6 -19    1.87    0.19
   8   6  19    1.95    0.18
 -10  -6 -19    0.83    0.16
  10   6  19    0.78    0.13
 -12  -6 -19    0.25    0.12
  12   6  19    0.13    0.08
 -13   7  19    0.44    0.13
 -11   7  19    0.82    0.15
  -9   7  19    0.12    0.06
  -9   7  19    0.08    0.08
  -5   7  19    0.69    0.11
  -5   7  19    0.63    0.10
  -3   7  19   10.64    0.39
  -3   7  19   11.31    0.40
  -1   7  19    6.02    0.27
  -1   7  19    5.78    0.25
   1   7  19    1.95    0.14
   1   7  19    2.14    0.16
  -3  -7 -19    5.86    0.24
   3   7  19    6.09    0.24
   3   7  19    5.98    0.29
  -5  -7 -19    0.90    0.12
   5   7  19    0.86    0.12
   5   7  19    1.06    0.11
  -7  -7 -19    2.35    0.18
   7   7  19    2.41    0.19
  -9  -7 -19    0.01    0.05
   9   7  19    0.48    0.10
 -11  -7 -19    0.33    0.12
  11   7  19    0.27    0.10
 -14   8  19    0.26    0.12
 -12   8  19    0.23    0.11
 -10   8  19    1.59    0.19
  -8   8  19    0.35    0.08
  -8   8  19    0.41    0.11
  -6   8  19    1.55    0.15
  -6   8  19    1.51    0.16
  -4   8  19    4.71    0.24
  -4   8  19    4.80    0.25
  -2   8  19    2.26    0.17
  -2   8  19    2.52    0.17
   0   8  19    0.68    0.11
   0   8  19    0.85    0.11
   2   8  19    2.77    0.19
   2   8  19    2.48    0.15
   4   8  19    1.11    0.15
  -6  -8 -19    0.65    0.11
   6   8  19    0.69    0.12
  -8  -8 -19    3.69    0.25
   8   8  19    3.87    0.25
 -10  -8 -19    0.16    0.08
  10   8  19    0.55    0.12
 -13   9  19    0.67    0.15
 -11   9  19    1.50    0.20
  -9   9  19    1.17    0.14
  -9   9  19    1.61    0.19
  -7   9  19    4.69    0.27
  -7   9  19    5.12    0.26
  -5   9  19    2.43    0.18
  -5   9  19    2.27    0.18
  -3   9  19    3.44    0.22
  -3   9  19    3.47    0.21
  -1   9  19    3.28    0.22
  -1   9  19    2.89    0.18
   1   9  19    2.79    0.20
   1   9  19    2.69    0.16
   3   9  19    3.81    0.24
   5   9  19   -0.01    0.06
   7   9  19    4.88    0.29
   9   9  19    0.47    0.12
 -12  10  19    0.54    0.14
 -10  10  19    1.99    0.22
  -8  10  19    1.59    0.19
  -8  10  19    1.70    0.17
  -6  10  19    1.56    0.17
  -6  10  19    1.60    0.17
  -4  10  19    1.36    0.16
  -4  10  19    1.23    0.16
  -2  10  19    1.51    0.15
  -2  10  19    1.36    0.17
   0  10  19    2.63    0.20
   0  10  19    2.42    0.16
   2  10  19    0.50    0.11
   4  10  19    0.02    0.07
   6  10  19    0.31    0.10
   8  10  19    1.02    0.16
  -9  11  19    0.40    0.12
  -7  11  19    1.18    0.16
  -7  11  19    0.88    0.15
  -5  11  19    0.31    0.10
  -5  11  19    0.30    0.10
  -3  11  19    3.26    0.21
  -3  11  19    3.69    0.24
  -1  11  19    4.34    0.27
   1  11  19    1.20    0.17
   3  11  19    1.05    0.15
   5  11  19    0.20    0.10
   7  11  19    1.72    0.20
  -8  12  19    0.33    0.12
  -6  12  19    0.87    0.14
  -6  12  19    0.85    0.14
  -4  12  19    1.90    0.19
  -4  12  19    1.77    0.20
  -2  12  19    3.67    0.26
   0  12  19    0.06    0.09
   2  12  19    1.07    0.16
   4  12  19   -0.01    0.08
  -5  13  19    0.17    0.10
  -3  13  19    0.98    0.16
  -1  13  19    0.61    0.14
   1  13  19    0.22    0.11
  -5 -13  20    0.40    0.15
  -3 -13  20    1.45    0.23
  -1 -13  20    0.95    0.19
   1 -13  20    0.08    0.14
  -8 -12  20    0.13    0.12
  -6 -12  20    0.59    0.15
  -4 -12  20    0.79    0.18
  -2 -12  20    4.07    0.32
   0 -12  20    1.01    0.21
   2 -12  20    1.42    0.25
   4 -12  20    0.11    0.14
  -9 -11  20    0.04    0.10
  -7 -11  20    0.19    0.11
  -5 -11  20    0.59    0.15
  -3 -11  20    0.63    0.16
  -1 -11  20    1.06    0.19
   1 -11  20    0.57    0.16
   3 -11  20    0.30    0.14
   5 -11  20    0.73    0.22
   7 -11  20    0.86    0.24
 -10 -10  20    0.23    0.12
  -8 -10  20    1.16    0.19
  -6 -10  20    2.28    0.24
  -4 -10  20    1.92    0.23
  -4 -10  20    2.11    0.16
  -2 -10  20    5.78    0.28
  -2 -10  20    5.43    0.35
   0 -10  20    0.07    0.10
   2 -10  20    3.74    0.31
   4 -10  20    0.70    0.19
   6 -10  20   -0.05    0.12
   8 -10  20    2.59    0.32
 -13  -9  20    0.37    0.13
 -11  -9  20    0.54    0.14
  -9  -9  20    0.75    0.15
  -7  -9  20    0.92    0.16
  -5  -9  20    6.04    0.26
  -5  -9  20    5.84    0.34
  -3  -9  20    4.98    0.30
  -3  -9  20    5.25    0.25
  -1  -9  20    0.50    0.14
   1  -9  20    2.30    0.27
   3  -9  20   -0.01    0.10
   5  -9  20    1.00    0.20
   7  -9  20    0.66    0.19
   9  -9  20    2.28    0.31
 -12  -8  20    2.00    0.24
 -10  -8  20    1.52    0.21
  -8  -8  20    4.29    0.28
  -6  -8  20    7.76    0.37
  -6  -8  20    7.67    0.30
  -4  -8  20    4.81    0.29
  -4  -8  20    4.77    0.23
  -2  -8  20    1.28    0.14
  -2  -8  20    1.37    0.19
   0  -8  20    5.17    0.33
   2  -8  20    1.39    0.20
   4  -8  20    0.69    0.16
   6  -8  20    0.65    0.19
   8  -8  20    3.56    0.36
  10  -8  20    0.10    0.16
 -13  -7  20    0.23    0.12
 -11  -7  20    0.33    0.12
  -9  -7  20    4.72    0.22
  -9  -7  20    4.93    0.29
  -7  -7  20    0.52    0.09
  -7  -7  20    0.70    0.14
  -5  -7  20    2.09    0.21
  -5  -7  20    1.90    0.14
  -3  -7  20    3.83    0.25
  -3  -7  20    3.58    0.20
  -1  -7  20    5.51    0.31
   1  -7  20    0.49    0.14
   3  -7  20    1.52    0.20
   5  -7  20    1.02    0.19
   7  -7  20    3.35    0.32
   9  -7  20    0.68    0.19
  11  -7  20    0.38    0.18
 -14  -6  20    0.26    0.12
 -12  -6  20    2.97    0.24
 -10  -6  20    1.02    0.16
 -10  -6  20    0.83    0.11
  -8  -6  20    1.87    0.20
  -8  -6  20    1.27    0.13
  -6  -6  20    1.94    0.14
  -6  -6  20    2.28    0.18
  -4  -6  20    0.69    0.13
  -4  -6  20    0.40    0.08
  -2  -6  20    1.44    0.16
  -2  -6  20    1.43    0.14
   0  -6  20    5.34    0.29
   2  -6  20    1.97    0.21
   4  -6  20    4.39    0.30
   6  -6  20    3.29    0.28
   8  -6  20    2.93    0.30
  10  -6  20    0.72    0.19
  12  -6  20    0.16    0.17
 -15  -5  20    0.34    0.12
 -13  -5  20    2.09    0.20
 -13  -5  20    2.57    0.26
 -11  -5  20    0.60    0.13
 -11  -5  20    0.48    0.10
  -9  -5  20    3.56    0.19
  -9  -5  20    3.60    0.23
  -5  -5  20    6.13    0.29
  -5  -5  20    5.86    0.25
  -3  -5  20    1.81    0.13
  -3  -5  20    1.79    0.16
  -1  -5  20    2.70    0.17
  -1  -5  20    2.59    0.20
   1  -5  20    4.38    0.26
   3  -5  20    1.33    0.19
   5  -5  20    6.06    0.35
   7  -5  20   -0.02    0.09
   9  -5  20    1.30    0.21
  11  -5  20    1.26    0.22
 -16  -4  20    0.12    0.11
 -14  -4  20    1.83    0.19
 -14  -4  20    1.93    0.23
 -12  -4  20    0.94    0.16
 -12  -4  20    0.85    0.12
 -10  -4  20    1.01    0.15
  -8  -4  20    7.71    0.33
  -8  -4  20    7.68    0.30
  -6  -4  20    1.31    0.14
  -6  -4  20    1.35    0.13
  -4  -4  20   11.74    0.42
  -4  -4  20   12.10    0.41
  -2  -4  20    3.37    0.18
  -2  -4  20    3.35    0.20
   0  -4  20    8.34    0.35
   2  -4  20    0.91    0.15
   4  -4  20    4.24    0.27
   6  -4  20    2.97    0.24
   8  -4  20    1.31    0.20
  10  -4  20    0.68    0.17
  12  -4  20    1.41    0.24
 -15  -3  20    0.53    0.14
 -13  -3  20    2.93    0.20
 -13  -3  20    3.09    0.24
 -11  -3  20    2.05    0.16
 -11  -3  20    2.04    0.20
  -9  -3  20    0.90    0.11
  -9  -3  20    1.07    0.13
  -7  -3  20    1.87    0.14
  -7  -3  20    1.74    0.14
  -5  -3  20    0.41    0.08
  -5  -3  20    0.44    0.08
  -3  -3  20    5.62    0.24
  -3  -3  20    6.00    0.25
  -1  -3  20    3.66    0.21
  -1  -3  20    3.79    0.20
   1  -3  20    3.78    0.22
   3  -3  20    3.71    0.23
   5  -3  20    4.40    0.27
   7  -3  20    0.95    0.16
   9  -3  20    0.35    0.14
  11  -3  20    2.23    0.27
  13  -3  20    0.14    0.16
 -16  -2  20   -0.02    0.08
 -16  -2  20    0.00    0.08
 -14  -2  20    1.64    0.18
 -14  -2  20    1.35    0.19
 -12  -2  20    2.10    0.19
 -12  -2  20    2.10    0.21
 -10  -2  20    3.10    0.19
 -10  -2  20    2.99    0.20
  -8  -2  20    3.61    0.20
  -8  -2  20    3.63    0.19
  -6  -2  20    0.37    0.07
  -6  -2  20    0.42    0.08
  -4  -2  20   31.33    0.87
  -4  -2  20   31.11    0.85
  -2  -2  20    0.50    0.08
  -2  -2  20    0.51    0.09
   0  -2  20   17.66    0.54
   0  -2  20   16.72    0.53
   2  -2  20    2.44    0.18
   4  -2  20    9.20    0.37
   6  -2  20    6.97    0.34
   8  -2  20    0.14    0.11
  10  -2  20    2.43    0.25
  12  -2  20    0.27    0.13
 -15  -1  20   -0.05    0.06
 -15  -1  20    0.01    0.08
 -13  -1  20    1.29    0.16
 -13  -1  20    1.19    0.15
 -11  -1  20    4.24    0.24
 -11  -1  20    4.31    0.24
  -9  -1  20    0.27    0.07
  -9  -1  20    0.58    0.10
  -7  -1  20    1.66    0.15
  -7  -1  20    1.22    0.11
  -5  -1  20    0.58    0.09
  -5  -1  20    0.82    0.09
  -3  -1  20    1.09    0.09
  -3  -1  20    1.12    0.12
  -1  -1  20    0.01    0.05
  -1  -1  20    0.00    0.04
   1  -1  20    3.53    0.19
   1  -1  20    3.82    0.20
   3  -1  20    0.55    0.10
   5  -1  20    5.45    0.27
   7  -1  20    0.81    0.14
   9  -1  20    0.70    0.15
  11  -1  20    2.76    0.29
  13  -1  20    0.32    0.16
 -16   0  20    0.10    0.09
 -16   0  20    0.14    0.09
 -14   0  20    1.13    0.16
 -14   0  20    1.39    0.18
 -12   0  20    0.61    0.11
 -12   0  20    0.51    0.11
 -10   0  20   46.45    1.24
 -10   0  20   44.97    1.25
  -8   0  20    3.45    0.17
  -8   0  20    3.47    0.19
  -6   0  20    0.94    0.11
  -6   0  20    0.96    0.09
  -4   0  20   20.49    0.61
  -4   0  20   20.46    0.56
  -2   0  20    8.92    0.33
  -2   0  20    9.02    0.28
   0   0  20    6.19    0.26
   0   0  20    5.87    0.23
   2   0  20    1.45    0.12
   2   0  20    1.32    0.13
   4   0  20   11.27    0.40
   6   0  20    2.23    0.17
 -10   0 -20    3.48    0.25
 -12   0 -20    2.26    0.26
 -15   1  20    0.06    0.08
 -15   1  20   -0.10    0.07
 -13   1  20    1.08    0.15
 -13   1  20    1.26    0.16
 -11   1  20    4.39    0.23
 -11   1  20    4.37    0.24
  -9   1  20    0.42    0.08
  -9   1  20    0.54    0.10
  -7   1  20    1.77    0.16
  -7   1  20    1.57    0.11
  -5   1  20    0.59    0.09
  -5   1  20    0.61    0.06
  -3   1  20    1.02    0.06
  -3   1  20    1.01    0.11
  -1   1  20    0.06    0.04
  -1   1  20    0.09    0.05
   1   1  20    3.42    0.16
   1   1  20    3.15    0.18
   3   1  20    0.51    0.09
   3   1  20    0.47    0.08
   5   1  20    5.11    0.25
  -7  -1 -20    0.78    0.13
   7   1  20   -0.14    0.08
  -9  -1 -20    0.71    0.13
   9   1  20   -0.01    0.09
 -11  -1 -20    2.37    0.26
 -13  -1 -20    0.10    0.12
  13   1  20    0.10    0.12
 -16   2  20    0.02    0.09
 -16   2  20   -0.01    0.09
 -14   2  20    1.54    0.18
 -14   2  20    1.45    0.18
 -12   2  20    2.18    0.17
 -12   2  20    2.37    0.19
 -10   2  20    3.01    0.20
 -10   2  20    3.06    0.17
  -8   2  20    3.87    0.21
  -8   2  20    3.37    0.16
  -6   2  20    0.44    0.09
  -6   2  20    0.35    0.06
  -4   2  20   32.24    0.90
  -2   2  20    0.48    0.08
   0   2  20   17.57    0.54
   0   2  20   17.53    0.47
   2   2  20    2.45    0.15
   2   2  20    2.18    0.13
  -4  -2 -20   10.10    0.36
   4   2  20   10.52    0.37
  -6  -2 -20    7.11    0.31
  -8  -2 -20    0.06    0.07
 -10  -2 -20    2.60    0.23
 -12  -2 -20    0.56    0.15
 -15   3  20    0.51    0.15
 -15   3  20    0.45    0.13
 -13   3  20    2.40    0.23
 -13   3  20    2.53    0.19
 -11   3  20    2.05    0.16
 -11   3  20    2.22    0.21
  -9   3  20    0.68    0.11
  -9   3  20    0.79    0.09
  -7   3  20    1.91    0.15
  -7   3  20    1.86    0.10
  -5   3  20    0.37    0.08
  -3   3  20    5.77    0.25
  -1   3  20    3.44    0.18
   1   3  20    3.30    0.14
   1   3  20    3.53    0.18
  -3  -3 -20    4.01    0.18
   3   3  20    4.13    0.20
  -5  -3 -20    4.88    0.23
   5   3  20    5.00    0.23
  -7  -3 -20    0.67    0.11
  -9  -3 -20    0.26    0.10
 -11  -3 -20    2.62    0.27
  11   3  20    1.98    0.18
 -13  -3 -20    0.26    0.13
 -16   4  20    0.17    0.11
 -14   4  20    1.95    0.21
 -12   4  20    1.14    0.17
 -10   4  20    0.88    0.14
  -8   4  20    8.05    0.34
   6  -4 -20    1.50    0.10
  -6   4  20    1.15    0.13
  -4   4  20   12.08    0.42
  -2   4  20    3.48    0.19
   0   4  20    8.76    0.32
  -2  -4 -20    0.67    0.07
   2   4  20    0.73    0.09
  -4  -4 -20    4.18    0.20
   4   4  20    4.43    0.21
  -6  -4 -20    3.31    0.20
   6   4  20    3.29    0.18
   8   4  20    1.39    0.14
   8   4  20    1.20    0.14
 -10  -4 -20    0.83    0.16
  10   4  20    0.76    0.12
 -12  -4 -20    1.45    0.22
 -15   5  20   -0.02    0.10
 -13   5  20    2.30    0.23
 -11   5  20    0.42    0.11
  -9   5  20    3.86    0.23
  -7   5  20    3.92    0.22
  -5   5  20    5.89    0.27
  -3   5  20    1.75    0.14
  -1   5  20    2.37    0.15
  -1  -5 -20    3.86    0.15
   1   5  20    4.02    0.20
  -3  -5 -20    1.07    0.09
   3   5  20    1.20    0.12
  -5  -5 -20    5.29    0.24
   5   5  20    5.52    0.24
  -7  -5 -20    0.10    0.07
   7   5  20    0.07    0.06
   7   5  20    0.00    0.06
  -9  -5 -20    1.15    0.16
   9   5  20    1.42    0.15
 -11  -5 -20    1.79    0.22
  11   5  20    1.34    0.16
 -14   6  20    0.34    0.12
 -12   6  20    3.10    0.24
 -10   6  20    0.90    0.12
 -10   6  20    1.02    0.15
  -8   6  20    1.74    0.14
  -8   6  20    1.88    0.19
  -6   6  20    2.64    0.18
  -4   6  20    0.64    0.10
  -2   6  20    1.28    0.13
   0   6  20    5.38    0.24
  -2  -6 -20    1.86    0.11
   2   6  20    2.17    0.14
  -4  -6 -20    3.80    0.19
   4   6  20    3.54    0.21
   4   6  20    3.81    0.19
  -6  -6 -20    3.50    0.21
   6   6  20    3.39    0.18
   6   6  20    3.61    0.22
  -8  -6 -20    3.17    0.22
   8   6  20    2.60    0.19
 -10  -6 -20    1.06    0.17
  10   6  20    1.18    0.15
 -12  -6 -20    0.16    0.12
  12   6  20    0.13    0.09
 -13   7  20    0.25    0.11
 -11   7  20    0.27    0.11
  -9   7  20    4.56    0.27
  -9   7  20    5.14    0.24
  -7   7  20    0.74    0.12
  -5   7  20    2.11    0.16
  -5   7  20    2.09    0.16
  -3   7  20    3.89    0.22
  -3   7  20    4.10    0.21
  -1   7  20    5.81    0.26
  -1   7  20    6.23    0.29
   1   7  20    0.47    0.10
   1   7  20    0.56    0.09
   3   7  20    1.97    0.14
   3   7  20    1.70    0.16
  -5  -7 -20    0.93    0.12
   5   7  20    0.78    0.12
   5   7  20    0.93    0.11
  -7  -7 -20    3.29    0.21
   7   7  20    2.94    0.21
  -9  -7 -20    0.99    0.16
   9   7  20    1.00    0.14
 -11  -7 -20    0.18    0.11
  11   7  20    0.23    0.10
 -12   8  20    1.81    0.22
 -10   8  20    1.73    0.20
  -8   8  20    4.27    0.23
  -8   8  20    4.31    0.26
  -6   8  20    8.23    0.34
  -6   8  20    8.68    0.36
  -4   8  20    5.11    0.26
  -4   8  20    4.81    0.25
  -2   8  20    1.24    0.14
  -2   8  20    1.15    0.13
   0   8  20    4.73    0.23
   0   8  20    4.56    0.25
   2   8  20    1.66    0.13
   2   8  20    1.56    0.16
   4   8  20    0.98    0.13
   6   8  20    0.51    0.11
  -8  -8 -20    3.69    0.27
   8   8  20    3.43    0.24
 -10  -8 -20    0.00    0.05
  10   8  20    0.08    0.09
 -11   9  20    0.72    0.15
  -9   9  20    1.08    0.14
  -9   9  20    0.62    0.13
  -7   9  20    1.01    0.13
  -7   9  20    0.94    0.14
  -5   9  20    5.98    0.30
  -5   9  20    7.03    0.31
  -3   9  20    5.32    0.28
  -3   9  20    5.40    0.26
  -1   9  20    0.45    0.09
  -1   9  20    0.36    0.10
   1   9  20    2.23    0.15
   1   9  20    2.17    0.20
   3   9  20    0.05    0.07
   5   9  20    1.13    0.16
   7   9  20    0.38    0.11
   9   9  20    2.51    0.24
 -10  10  20    0.13    0.10
  -8  10  20    0.96    0.13
  -8  10  20    1.47    0.18
  -6  10  20    3.05    0.21
  -6  10  20    2.89    0.22
  -4  10  20    2.03    0.20
  -4  10  20    2.24    0.18
  -2  10  20    5.92    0.31
  -2  10  20    5.83    0.27
   0  10  20    0.03    0.06
   0  10  20    0.06    0.07
   2  10  20    3.37    0.23
   4  10  20    0.91    0.15
   6  10  20    0.38    0.11
   8  10  20    3.00    0.24
  -9  11  20    0.20    0.10
  -7  11  20    0.09    0.08
  -7  11  20    0.05    0.08
  -5  11  20    0.58    0.12
  -5  11  20    0.43    0.11
  -3  11  20    0.79    0.14
  -3  11  20    0.66    0.12
  -1  11  20    1.28    0.17
   1  11  20    0.68    0.13
   3  11  20    0.27    0.09
   5  11  20    0.55    0.13
  -8  12  20    0.04    0.07
  -8  12  20    0.13    0.10
  -6  12  20    0.66    0.13
  -6  12  20    0.64    0.13
  -4  12  20    0.60    0.13
  -4  12  20    0.57    0.12
  -2  12  20    4.10    0.27
   0  12  20    0.70    0.14
   2  12  20    1.85    0.21
   4  12  20    0.25    0.11
  -3  13  20    1.67    0.20
  -1  13  20    1.36    0.19
   1  13  20    0.15    0.10
  -3 -13  21    1.38    0.22
  -1 -13  21    0.89    0.19
  -6 -12  21    0.26    0.12
  -4 -12  21    0.65    0.16
  -2 -12  21    1.87    0.25
   0 -12  21    0.30    0.15
   2 -12  21    0.19    0.14
   4 -12  21    0.21    0.15
  -9 -11  21    0.07    0.10
  -7 -11  21    0.36    0.14
  -5 -11  21    0.25    0.11
  -3 -11  21    1.04    0.20
  -1 -11  21    5.28    0.36
   1 -11  21    0.31    0.14
   3 -11  21    0.76    0.21
   5 -11  21    0.21    0.15
 -10 -10  21    0.27    0.13
  -8 -10  21    0.25    0.11
  -6 -10  21    1.36    0.20
  -4 -10  21    3.99    0.22
  -4 -10  21    4.04    0.30
  -2 -10  21    1.94    0.16
  -2 -10  21    2.42    0.27
   0 -10  21    0.36    0.14
   2 -10  21    0.68    0.17
   4 -10  21    0.21    0.17
   6 -10  21    0.10    0.16
   8 -10  21    1.70    0.30
 -11  -9  21    1.60    0.22
  -9  -9  21    0.50    0.13
  -7  -9  21   12.34    0.52
  -5  -9  21    4.99    0.31
  -5  -9  21    4.09    0.22
  -3  -9  21    1.42    0.20
  -3  -9  21    1.28    0.14
  -1  -9  21    6.76    0.38
   1  -9  21    0.39    0.15
   3  -9  21    3.97    0.32
   5  -9  21    0.42    0.17
   7  -9  21    1.91    0.28
   9  -9  21    1.00    0.23
 -12  -8  21    0.52    0.14
 -10  -8  21    1.72    0.22
  -8  -8  21    2.78    0.23
  -8  -8  21    3.04    0.28
  -6  -8  21    0.56    0.13
  -6  -8  21    0.62    0.10
  -4  -8  21    1.10    0.13
  -4  -8  21    1.31    0.19
  -2  -8  21   10.73    0.47
  -2  -8  21   10.95    0.41
   0  -8  21    1.26    0.19
   2  -8  21    0.48    0.15
   4  -8  21    0.25    0.14
   6  -8  21    3.02    0.33
   8  -8  21    2.61    0.32
  10  -8  21    1.14    0.25
 -13  -7  21    1.19    0.19
 -11  -7  21    1.78    0.22
  -9  -7  21    3.77    0.20
  -9  -7  21    3.54    0.25
  -7  -7  21    1.90    0.21
  -7  -7  21    1.93    0.15
  -5  -7  21    0.11    0.05
  -5  -7  21    0.34    0.10
  -3  -7  21    0.89    0.15
  -3  -7  21    0.90    0.12
  -1  -7  21    0.58    0.14
   1  -7  21    3.43    0.27
   3  -7  21    5.90    0.35
   5  -7  21    3.33    0.30
   7  -7  21    4.48    0.35
   9  -7  21    1.08    0.23
 -14  -6  21    0.27    0.12
 -12  -6  21    1.53    0.20
 -10  -6  21    2.83    0.23
 -10  -6  21    2.78    0.17
  -8  -6  21    1.55    0.15
  -8  -6  21    1.73    0.19
  -6  -6  21    0.84    0.13
  -4  -6  21    1.53    0.17
  -4  -6  21    1.59    0.15
  -2  -6  21    0.95    0.12
  -2  -6  21    0.89    0.14
   0  -6  21    9.38    0.41
   2  -6  21    1.82    0.21
   4  -6  21    2.11    0.25
   6  -6  21    5.16    0.35
   8  -6  21    1.27    0.23
  10  -6  21    0.51    0.19
 -15  -5  21    0.23    0.12
 -13  -5  21    0.86    0.16
 -13  -5  21    1.47    0.15
 -11  -5  21    1.84    0.15
 -11  -5  21    2.00    0.21
  -9  -5  21    1.96    0.19
  -9  -5  21    1.77    0.14
  -7  -5  21    0.98    0.11
  -7  -5  21    0.93    0.14
  -5  -5  21    2.24    0.17
  -5  -5  21    2.12    0.15
  -3  -5  21    5.01    0.24
  -3  -5  21    5.05    0.26
  -1  -5  21    1.35    0.14
  -1  -5  21    1.73    0.18
   1  -5  21    5.01    0.28
   3  -5  21    1.93    0.21
   5  -5  21    1.75    0.21
   7  -5  21    1.34    0.20
   9  -5  21    1.00    0.20
  11  -5  21    0.29    0.17
 -16  -4  21    0.28    0.13
 -14  -4  21    1.63    0.17
 -14  -4  21    1.76    0.23
 -12  -4  21    0.38    0.11
 -12  -4  21    0.10    0.05
 -10  -4  21    0.13    0.08
 -10  -4  21    0.12    0.06
  -8  -4  21    4.46    0.25
  -8  -4  21    4.43    0.22
  -6  -4  21    0.88    0.12
  -6  -4  21    0.88    0.11
  -4  -4  21    1.47    0.14
  -4  -4  21    1.36    0.15
  -2  -4  21    0.86    0.11
  -2  -4  21    1.26    0.14
   0  -4  21    5.14    0.26
   2  -4  21    3.26    0.23
   4  -4  21    1.85    0.20
   6  -4  21    2.80    0.24
   8  -4  21    0.96    0.19
  10  -4  21    0.53    0.17
  12  -4  21    0.84    0.22
 -15  -3  21    0.72    0.13
 -15  -3  21    0.64    0.15
 -13  -3  21    3.56    0.23
 -13  -3  21    4.25    0.27
 -11  -3  21    0.13    0.08
 -11  -3  21    0.08    0.07
  -9  -3  21    2.40    0.16
  -9  -3  21    2.36    0.17
  -7  -3  21    1.76    0.14
  -7  -3  21    1.78    0.14
  -5  -3  21    1.19    0.12
  -5  -3  21    1.08    0.12
  -3  -3  21    2.06    0.15
  -3  -3  21    2.37    0.16
  -1  -3  21    6.15    0.27
  -1  -3  21    6.36    0.28
   1  -3  21   10.07    0.39
   3  -3  21    1.81    0.19
   5  -3  21    8.87    0.40
   7  -3  21    0.72    0.15
   9  -3  21    0.37    0.15
  11  -3  21    1.25    0.22
 -16  -2  21   -0.01    0.08
 -16  -2  21    0.00    0.09
 -14  -2  21    0.07    0.08
 -14  -2  21    0.08    0.08
 -12  -2  21    0.96    0.15
 -12  -2  21    0.88    0.13
 -10  -2  21    1.78    0.18
 -10  -2  21    1.56    0.15
  -8  -2  21    0.21    0.07
  -8  -2  21    0.13    0.06
  -6  -2  21    0.10    0.05
  -6  -2  21    0.23    0.07
  -4  -2  21    0.32    0.07
  -4  -2  21    0.22    0.06
  -2  -2  21    6.46    0.26
  -2  -2  21    7.03    0.28
   0  -2  21    1.79    0.14
   0  -2  21    1.45    0.14
   2  -2  21    0.94    0.13
   4  -2  21    1.27    0.16
   6  -2  21    1.33    0.18
   8  -2  21    0.32    0.12
  10  -2  21    0.75    0.17
  12  -2  21    1.75    0.25
 -15  -1  21    0.17    0.10
 -15  -1  21   -0.08    0.07
 -13  -1  21    2.59    0.20
 -13  -1  21    2.54    0.20
 -11  -1  21    0.33    0.09
 -11  -1  21    0.42    0.10
  -9  -1  21    4.06    0.22
  -9  -1  21    3.62    0.20
  -7  -1  21    0.60    0.09
  -7  -1  21    0.59    0.10
  -5  -1  21    3.17    0.18
  -5  -1  21    2.89    0.15
  -3  -1  21   23.90    0.70
  -3  -1  21   23.46    0.65
  -1  -1  21    7.55    0.30
  -1  -1  21    7.81    0.28
   1  -1  21   16.68    0.54
   1  -1  21   17.23    0.53
   3  -1  21    0.84    0.12
   5  -1  21    6.66    0.31
   7  -1  21    0.24    0.11
   9  -1  21    2.70    0.23
  11  -1  21    3.43    0.29
  13  -1  21    0.12    0.15
 -16   0  21    0.01    0.09
 -16   0  21    0.02    0.08
 -14   0  21    0.01    0.07
 -14   0  21    0.19    0.09
 -12   0  21    0.05    0.06
 -12   0  21    0.03    0.06
 -10   0  21    0.26    0.08
 -10   0  21    0.31    0.09
  -8   0  21    0.02    0.05
  -8   0  21    0.00    0.04
  -6   0  21    0.02    0.03
  -6   0  21    0.01    0.05
  -4   0  21    0.02    0.04
  -4   0  21    0.03    0.05
  -2   0  21    0.00    0.05
  -2   0  21    0.02    0.04
   0   0  21    0.02    0.05
   0   0  21    0.02    0.05
   2   0  21    0.02    0.05
   2   0  21   -0.01    0.05
   4   0  21    0.03    0.06
   6   0  21   -0.02    0.07
   8   0  21   -0.07    0.08
 -10   0 -21    0.03    0.09
  10   0  21    0.00    0.11
 -12   0 -21    0.05    0.10
  12   0  21    0.04    0.11
 -15   1  21    0.13    0.09
 -15   1  21    0.28    0.11
 -13   1  21    2.82    0.20
 -13   1  21    2.73    0.22
 -11   1  21    0.36    0.09
 -11   1  21    0.43    0.10
  -9   1  21    3.83    0.22
  -9   1  21    3.69    0.18
  -7   1  21    0.55    0.07
  -7   1  21    0.49    0.09
  -5   1  21    3.29    0.18
  -5   1  21    3.24    0.13
  -3   1  21   24.66    0.64
  -3   1  21   24.75    0.72
  -1   1  21    7.53    0.30
  -1   1  21    7.63    0.24
   1   1  21   16.38    0.53
   1   1  21   17.36    0.50
   3   1  21    0.91    0.12
   3   1  21    0.87    0.11
   5   1  21    6.80    0.29
  -7  -1 -21    0.19    0.08
   7   1  21    0.08    0.09
 -13  -1 -21    0.12    0.12
  13   1  21    0.03    0.12
 -16   2  21    0.11    0.10
 -16   2  21    0.03    0.11
 -14   2  21    0.08    0.07
 -14   2  21    0.16    0.10
 -12   2  21    0.70    0.13
 -12   2  21    0.95    0.13
 -10   2  21    1.93    0.14
 -10   2  21    1.98    0.19
  -8   2  21    0.28    0.08
  -8   2  21    0.16    0.05
  -6   2  21    0.18    0.07
  -6   2  21    0.10    0.03
  -4   2  21    0.25    0.07
  -2   2  21    6.67    0.27
   0   2  21    1.61    0.13
   0   2  21    1.66    0.10
   2   2  21    0.77    0.09
   2   2  21    0.75    0.10
   4   2  21    1.35    0.14
   4   2  21    1.07    0.12
  -6  -2 -21    1.66    0.17
  -8  -2 -21    0.60    0.12
 -10  -2 -21    0.70    0.16
 -12  -2 -21    1.43    0.21
 -15   3  21    0.84    0.16
 -13   3  21    3.69    0.26
 -11   3  21    0.04    0.06
 -11   3  21    0.08    0.07
  -9   3  21    2.76    0.20
  -9   3  21    2.45    0.14
  -7   3  21    1.75    0.09
  -7   3  21    1.73    0.17
  -5   3  21    1.29    0.13
  -3   3  21    2.24    0.15
  -1   3  21    6.35    0.26
   1   3  21   10.65    0.37
   1   3  21   10.34    0.31
  -3  -3 -21    1.84    0.12
   3   3  21    1.85    0.14
   3   3  21    1.56    0.13
  -5  -3 -21    9.03    0.35
   5   3  21    9.41    0.35
  -7  -3 -21    0.81    0.12
   7   3  21    0.82    0.11
  -9  -3 -21    0.38    0.11
 -11  -3 -21    2.47    0.26
  11   3  21    2.23    0.17
 -16   4  21    0.30    0.12
 -14   4  21    1.70    0.21
 -12   4  21    0.33    0.11
 -10   4  21    0.19    0.09
  -8   4  21    4.91    0.26
  -6   4  21    0.90    0.12
  -4   4  21    1.15    0.13
  -2   4  21    1.02    0.11
   0   4  21    5.27    0.24
  -2  -4 -21    2.79    0.13
   2   4  21    2.83    0.17
  -4  -4 -21    1.67    0.13
   4   4  21    1.64    0.13
  -6  -4 -21    2.72    0.18
   6   4  21    2.54    0.17
  -8  -4 -21    0.59    0.11
   8   4  21    0.65    0.11
   8   4  21    0.68    0.11
 -10  -4 -21    0.42    0.12
  10   4  21    0.48    0.10
 -12  -4 -21    0.79    0.17
 -15   5  21    0.12    0.11
 -13   5  21    1.17    0.17
 -11   5  21    2.09    0.21
  -9   5  21    1.53    0.17
  -7   5  21    1.08    0.14
  -5   5  21    1.99    0.15
  -3   5  21    5.02    0.24
  -1   5  21    1.47    0.14
   1   5  21    5.09    0.23
  -3  -5 -21    1.81    0.12
   3   5  21    1.77    0.13
  -5  -5 -21    1.55    0.13
   5   5  21    1.78    0.14
  -7  -5 -21    1.60    0.17
   7   5  21    1.69    0.15
   7   5  21    1.30    0.15
   9   5  21    1.10    0.14
 -11  -5 -21    0.43    0.13
  11   5  21    0.25    0.09
 -14   6  21    0.43    0.14
 -12   6  21    1.82    0.20
 -10   6  21    3.28    0.23
 -10   6  21    3.60    0.20
  -8   6  21    2.08    0.20
  -8   6  21    1.64    0.15
  -6   6  21    0.82    0.13
  -4   6  21    1.36    0.14
  -2   6  21    1.07    0.13
   0   6  21    9.91    0.36
   2   6  21    1.86    0.13
   2   6  21    1.54    0.15
  -4  -6 -21    1.97    0.14
   4   6  21    1.91    0.14
   4   6  21    1.90    0.17
  -6  -6 -21    4.78    0.24
   6   6  21    4.68    0.26
   6   6  21    4.56    0.22
  -8  -6 -21    1.58    0.18
   8   6  21    1.34    0.16
 -10  -6 -21    0.53    0.13
  10   6  21    0.61    0.12
 -13   7  21    1.38    0.19
 -11   7  21    1.80    0.21
  -9   7  21    4.31    0.26
  -9   7  21    4.14    0.22
  -7   7  21    2.19    0.16
  -7   7  21    2.05    0.19
  -5   7  21    0.28    0.08
  -5   7  21    0.26    0.08
  -3   7  21    0.98    0.13
  -3   7  21    0.85    0.12
  -1   7  21    0.49    0.10
  -1   7  21    0.55    0.10
   1   7  21    3.69    0.23
   1   7  21    3.55    0.19
   3   7  21    6.24    0.26
   3   7  21    6.16    0.30
   5   7  21    2.87    0.20
   5   7  21    2.75    0.17
  -7  -7 -21    3.90    0.24
   7   7  21    3.97    0.24
  -9  -7 -21    1.54    0.20
   9   7  21    1.59    0.18
 -11  -7 -21    0.04    0.10
 -12   8  21    0.82    0.16
 -10   8  21    1.71    0.20
  -8   8  21    3.12    0.23
  -8   8  21    3.37    0.21
  -6   8  21    0.75    0.12
  -6   8  21    0.81    0.13
  -4   8  21    1.28    0.15
  -4   8  21    1.10    0.14
  -2   8  21   10.49    0.39
  -2   8  21   10.76    0.41
   0   8  21    1.15    0.13
   0   8  21    1.19    0.15
   2   8  21    0.39    0.09
   2   8  21    0.22    0.07
   4   8  21    0.14    0.08
   6   8  21    2.65    0.21
   8   8  21    2.82    0.22
  10   8  21    1.06    0.16
 -11   9  21    1.82    0.22
  -9   9  21    0.71    0.12
  -9   9  21    0.86    0.15
  -7   9  21   12.71    0.46
  -7   9  21   12.44    0.49
  -5   9  21    4.06    0.24
  -5   9  21    4.76    0.26
  -3   9  21    1.36    0.16
  -3   9  21    1.36    0.16
  -1   9  21    6.59    0.32
  -1   9  21    6.54    0.29
   1   9  21    0.45    0.09
   3   9  21    4.14    0.25
   5   9  21    0.88    0.14
   7   9  21    1.49    0.18
   9   9  21    0.69    0.14
 -10  10  21    0.55    0.14
  -8  10  21    0.43    0.12
  -6  10  21    1.60    0.17
  -6  10  21    1.52    0.18
  -4  10  21    4.07    0.25
  -4  10  21    4.37    0.25
  -2  10  21    2.03    0.20
  -2  10  21    2.19    0.17
   0  10  21    0.40    0.09
   0  10  21    0.61    0.12
   2  10  21    0.74    0.13
   4  10  21    0.14    0.08
   6  10  21    0.22    0.10
  -9  11  21   -0.11    0.08
  -7  11  21    0.52    0.12
  -7  11  21    0.39    0.11
  -5  11  21    0.30    0.10
  -5  11  21    0.11    0.09
  -3  11  21    0.77    0.14
  -3  11  21    1.09    0.15
  -1  11  21    5.24    0.30
   1  11  21    0.08    0.09
   3  11  21    0.92    0.15
   5  11  21    0.24    0.11
  -6  12  21    0.21    0.10
  -6  12  21    0.29    0.10
  -4  12  21    0.62    0.14
  -4  12  21    0.75    0.13
  -2  12  21    1.86    0.21
   0  12  21    0.25    0.11
   2  12  21    0.04    0.08
   4  12  21    0.33    0.11
  -1  13  21    1.49    0.20
  -6 -12  22    1.19    0.20
  -4 -12  22    0.55    0.15
  -2 -12  22    1.28    0.21
   0 -12  22    0.94    0.20
   2 -12  22    0.38    0.16
  -9 -11  22    0.11    0.11
  -7 -11  22    0.28    0.13
  -5 -11  22    0.97    0.19
  -3 -11  22    0.99    0.20
  -1 -11  22    1.34    0.22
   1 -11  22    0.11    0.12
   3 -11  22    0.56    0.19
   5 -11  22    0.37    0.17
 -10 -10  22    1.56    0.23
  -8 -10  22    0.66    0.16
  -6 -10  22    3.68    0.28
  -4 -10  22    0.03    0.07
  -4 -10  22    0.13    0.11
   0 -10  22    0.81    0.18
   2 -10  22    1.58    0.24
   4 -10  22    0.89    0.20
   6 -10  22    0.14    0.15
 -11  -9  22    0.13    0.12
  -9  -9  22    0.99    0.17
  -7  -9  22    1.20    0.19
  -5  -9  22    0.80    0.15
  -5  -9  22    0.87    0.12
  -3  -9  22    1.33    0.20
  -1  -9  22    0.07    0.10
   1  -9  22    0.10    0.12
   3  -9  22    0.00    0.13
   5  -9  22    0.55    0.17
   7  -9  22    0.11    0.15
 -12  -8  22    1.17    0.20
 -10  -8  22    1.40    0.21
  -8  -8  22    0.70    0.10
  -8  -8  22    0.67    0.15
  -6  -8  22    5.76    0.26
  -6  -8  22    6.19    0.33
  -4  -8  22    2.22    0.23
  -2  -8  22    2.32    0.18
  -2  -8  22    1.92    0.22
   0  -8  22    1.87    0.23
   2  -8  22    3.00    0.30
   4  -8  22    4.69    0.34
   6  -8  22    0.30    0.18
   8  -8  22    2.72    0.33
 -13  -7  22    0.52    0.14
 -11  -7  22    0.06    0.09
  -9  -7  22    6.49    0.34
  -9  -7  22    6.71    0.28
  -7  -7  22    0.57    0.13
  -7  -7  22    0.47    0.09
  -5  -7  22    0.76    0.14
  -3  -7  22    1.81    0.15
  -3  -7  22    1.64    0.19
  -1  -7  22    0.24    0.12
   1  -7  22   -0.03    0.10
   3  -7  22    0.99    0.18
   5  -7  22    2.94    0.31
   7  -7  22    2.08    0.28
   9  -7  22    1.13    0.23
 -14  -6  22    0.20    0.12
 -12  -6  22    3.03    0.26
 -10  -6  22    3.93    0.26
 -10  -6  22    3.72    0.21
  -8  -6  22    0.54    0.12
  -8  -6  22    0.38    0.08
  -6  -6  22    2.45    0.16
  -6  -6  22    2.29    0.19
  -4  -6  22    0.64    0.10
  -4  -6  22    0.73    0.13
  -2  -6  22    4.54    0.23
  -2  -6  22    4.57    0.27
   0  -6  22    4.13    0.27
   2  -6  22    0.50    0.15
   4  -6  22    3.71    0.29
   6  -6  22    0.92    0.19
   8  -6  22    1.95    0.26
  10  -6  22    0.21    0.17
 -15  -5  22    0.28    0.13
 -13  -5  22    2.36    0.18
 -13  -5  22    2.23    0.24
 -11  -5  22    0.60    0.11
 -11  -5  22    0.70    0.14
  -9  -5  22    0.55    0.11
  -7  -5  22    2.46    0.16
  -7  -5  22    2.18    0.18
  -5  -5  22    0.80    0.13
  -5  -5  22    0.70    0.10
  -3  -5  22    4.31    0.24
  -3  -5  22    3.77    0.21
  -1  -5  22    1.62    0.17
  -1  -5  22    1.60    0.15
   1  -5  22   11.85    0.47
   3  -5  22    1.57    0.21
   5  -5  22    3.30    0.28
   7  -5  22    0.22    0.12
   9  -5  22    0.68    0.19
  11  -5  22    0.32    0.17
 -14  -4  22    1.01    0.18
 -14  -4  22    1.25    0.16
 -12  -4  22    1.53    0.19
 -10  -4  22    0.01    0.07
 -10  -4  22    0.16    0.07
  -8  -4  22    1.30    0.14
  -8  -4  22    1.21    0.15
  -6  -4  22    1.36    0.14
  -6  -4  22    1.33    0.15
  -4  -4  22    1.17    0.13
  -4  -4  22    1.22    0.14
  -2  -4  22    2.16    0.17
  -2  -4  22    2.04    0.15
   0  -4  22    4.17    0.22
   0  -4  22    4.62    0.26
   2  -4  22    7.54    0.36
   4  -4  22    1.39    0.19
   6  -4  22    2.49    0.25
   8  -4  22    0.03    0.11
  10  -4  22    0.27    0.14
  12  -4  22    0.54    0.19
 -15  -3  22    0.70    0.15
 -15  -3  22    0.58    0.13
 -13  -3  22    1.74    0.20
 -13  -3  22    1.92    0.19
 -11  -3  22    0.44    0.11
 -11  -3  22    0.53    0.10
  -9  -3  22    3.63    0.21
  -9  -3  22    3.76    0.22
  -7  -3  22    0.26    0.07
  -7  -3  22    0.35    0.08
  -5  -3  22    0.93    0.12
  -5  -3  22    0.74    0.10
  -3  -3  22    0.87    0.11
  -3  -3  22    1.09    0.13
  -1  -3  22    5.36    0.26
  -1  -3  22    5.38    0.25
   1  -3  22   10.03    0.39
   3  -3  22    2.05    0.20
   5  -3  22    3.72    0.26
   7  -3  22    2.76    0.28
   9  -3  22    0.51    0.15
  11  -3  22    1.52    0.25
 -16  -2  22    0.00    0.09
 -16  -2  22    0.10    0.09
 -14  -2  22    0.90    0.14
 -14  -2  22    0.81    0.15
 -12  -2  22    3.16    0.23
 -12  -2  22    3.07    0.21
 -10  -2  22    2.44    0.18
 -10  -2  22    2.71    0.19
  -8  -2  22    3.39    0.19
  -8  -2  22    3.49    0.20
  -6  -2  22    1.10    0.12
  -6  -2  22    0.86    0.11
  -4  -2  22    8.13    0.30
  -4  -2  22    8.51    0.32
  -2  -2  22    2.36    0.16
  -2  -2  22    2.71    0.16
   0  -2  22   13.61    0.47
   0  -2  22   14.31    0.46
   2  -2  22    4.80    0.24
   4  -2  22    3.34    0.22
   6  -2  22    7.25    0.35
   8  -2  22    2.54    0.26
  10  -2  22    3.39    0.29
  12  -2  22    1.07    0.22
 -15  -1  22    0.08    0.09
 -15  -1  22    0.04    0.08
 -13  -1  22    0.72    0.13
 -13  -1  22    0.77    0.13
 -11  -1  22    0.04    0.07
 -11  -1  22   -0.03    0.05
  -9  -1  22    6.12    0.27
  -9  -1  22    6.09    0.28
  -7  -1  22    2.18    0.15
  -7  -1  22    2.10    0.14
  -5  -1  22    0.61    0.08
  -5  -1  22    0.54    0.09
  -3  -1  22    0.37    0.07
  -3  -1  22    0.40    0.08
  -1  -1  22    1.55    0.12
  -1  -1  22    1.39    0.14
   1  -1  22    0.53    0.09
   1  -1  22    0.65    0.10
   3  -1  22    0.56    0.10
   5  -1  22    2.80    0.21
   9  -1  22   -0.05    0.10
  11  -1  22    0.26    0.13
 -16   0  22    0.17    0.10
 -16   0  22    0.02    0.09
 -14   0  22    0.74    0.14
 -14   0  22    0.76    0.14
 -12   0  22    0.34    0.09
 -12   0  22    0.40    0.11
 -10   0  22   14.31    0.50
 -10   0  22   14.36    0.48
  -8   0  22    2.81    0.16
  -8   0  22    2.83    0.19
  -6   0  22    0.41    0.07
  -6   0  22    0.41    0.09
  -4   0  22   28.57    0.76
  -4   0  22   28.77    0.82
  -2   0  22   21.70    0.65
  -2   0  22   21.08    0.59
   0   0  22    3.59    0.17
   0   0  22    3.27    0.19
   2   0  22   23.03    0.69
   2   0  22   22.18    0.66
   4   0  22    1.66    0.17
   8   0  22    9.72    0.43
  10   0  22    9.76    0.47
  12   0  22    0.14    0.13
 -15   1  22   -0.04    0.07
 -15   1  22    0.06    0.09
 -13   1  22    0.61    0.11
 -13   1  22    0.59    0.12
 -11   1  22    0.03    0.06
 -11   1  22    0.10    0.07
  -9   1  22    6.19    0.29
  -9   1  22    6.27    0.25
  -7   1  22    2.24    0.12
  -7   1  22    2.05    0.15
  -5   1  22    0.49    0.06
  -5   1  22    0.51    0.09
  -3   1  22    0.41    0.08
  -3   1  22    0.40    0.05
  -1   1  22    1.34    0.14
  -1   1  22    1.59    0.10
   1   1  22    0.64    0.10
   1   1  22    0.54    0.08
   3   1  22    0.73    0.10
   3   1  22    0.78    0.11
   5   1  22    2.08    0.17
   7   1  22    6.30    0.32
  -9  -1 -22    0.18    0.10
   9   1  22    0.07    0.10
 -11  -1 -22    0.21    0.11
  11   1  22    0.02    0.12
 -16   2  22   -0.04    0.08
 -14   2  22    0.94    0.16
 -12   2  22    3.17    0.20
 -12   2  22    3.31    0.23
 -10   2  22    2.54    0.16
 -10   2  22    2.44    0.19
  -8   2  22    3.26    0.15
  -8   2  22    3.27    0.20
  -6   2  22    0.88    0.12
  -4   2  22    7.77    0.31
  -2   2  22    2.36    0.16
   0   2  22   14.34    0.40
   0   2  22   14.21    0.47
   2   2  22    4.44    0.22
   2   2  22    4.08    0.19
   4   2  22    2.90    0.17
   4   2  22    3.06    0.18
  -6  -2 -22    7.58    0.33
 -10  -2 -22    3.06    0.25
 -12  -2 -22    1.05    0.21
 -15   3  22    0.90    0.17
 -13   3  22    1.57    0.19
 -11   3  22    0.45    0.11
  -9   3  22    3.46    0.22
  -7   3  22    0.36    0.09
  -5   3  22    0.69    0.10
  -3   3  22    0.85    0.11
  -1   3  22    4.95    0.23
   1   3  22    9.41    0.29
   1   3  22    9.49    0.35
   3   3  22    2.10    0.14
   3   3  22    2.17    0.15
  -5  -3 -22    3.87    0.21
   5   3  22    3.56    0.20
  -7  -3 -22    1.96    0.17
   7   3  22    2.18    0.16
  -9  -3 -22    0.75    0.14
 -11  -3 -22    1.86    0.23
  11   3  22    1.49    0.16
 -14   4  22    0.93    0.16
 -12   4  22    1.22    0.18
 -10   4  22    0.06    0.07
  -8   4  22    1.29    0.16
  -6   4  22    1.47    0.16
  -4   4  22    0.97    0.12
  -2   4  22    2.38    0.16
   0   4  22    4.74    0.23
  -2  -4 -22    6.65    0.23
   2   4  22    6.45    0.27
  -4  -4 -22    1.07    0.12
   4   4  22    1.17    0.13
  -6  -4 -22    2.46    0.17
   6   4  22    2.25    0.16
  -8  -4 -22    0.10    0.09
   8   4  22    0.08    0.06
   8   4  22    0.12    0.06
 -10  -4 -22    0.38    0.12
  10   4  22    0.23    0.09
  10   4  22    0.40    0.10
 -12  -4 -22    0.88    0.18
 -15   5  22    0.41    0.13
 -13   5  22    2.68    0.25
 -11   5  22    0.75    0.13
  -9   5  22    0.39    0.10
  -7   5  22    2.29    0.18
  -5   5  22    0.77    0.12
  -3   5  22    3.95    0.21
  -1   5  22    1.76    0.14
   1   5  22   12.43    0.42
  -3  -5 -22    1.41    0.11
   3   5  22    1.30    0.13
  -5  -5 -22    3.07    0.18
   5   5  22    2.88    0.18
  -7  -5 -22    0.06    0.07
   7   5  22    0.24    0.08
   7   5  22    0.16    0.07
  -9  -5 -22    0.83    0.15
   9   5  22    0.82    0.13
 -11  -5 -22    0.03    0.10
  11   5  22   -0.05    0.06
 -14   6  22    0.27    0.11
 -12   6  22    2.83    0.23
 -10   6  22    4.51    0.23
 -10   6  22    4.28    0.27
  -8   6  22    0.34    0.07
  -8   6  22    0.36    0.10
  -6   6  22    2.81    0.19
  -4   6  22    0.51    0.10
  -2   6  22    4.27    0.22
   0   6  22    4.15    0.21
   2   6  22    0.49    0.09
   4   6  22    3.66    0.22
   4   6  22    3.47    0.19
  -6  -6 -22    0.89    0.13
   6   6  22    0.85    0.11
   6   6  22    1.14    0.15
  -8  -6 -22    1.98    0.20
   8   6  22    1.93    0.19
 -10  -6 -22   -0.02    0.04
  10   6  22    0.19    0.09
 -13   7  22    0.62    0.14
 -11   7  22    0.09    0.09
  -9   7  22    7.15    0.30
  -9   7  22    7.31    0.35
  -7   7  22    0.41    0.09
  -7   7  22    0.44    0.10
  -5   7  22    0.63    0.11
  -5   7  22    0.61    0.10
  -3   7  22    1.83    0.17
  -3   7  22    1.89    0.17
  -1   7  22    0.19    0.08
  -1   7  22    0.26    0.08
   1   7  22    0.08    0.06
   1   7  22    0.04    0.06
   3   7  22    0.71    0.12
   3   7  22    0.85    0.11
   5   7  22    2.49    0.20
   5   7  22    2.80    0.18
   7   7  22    1.93    0.20
   9   7  22    1.29    0.17
 -12   8  22    1.03    0.17
 -10   8  22    1.19    0.17
  -8   8  22    0.58    0.13
  -8   8  22    0.47    0.09
  -6   8  22    6.61    0.30
  -6   8  22    6.33    0.31
  -4   8  22    2.03    0.18
  -4   8  22    1.88    0.18
  -2   8  22    1.92    0.16
  -2   8  22    1.97    0.19
   0   8  22    1.91    0.15
   0   8  22    2.01    0.20
   2   8  22    2.92    0.21
   2   8  22    3.23    0.18
   4   8  22    4.43    0.26
   6   8  22    0.19    0.09
   8   8  22    2.59    0.23
 -11   9  22    0.18    0.10
  -9   9  22    0.75    0.15
  -9   9  22    0.88    0.13
  -7   9  22    1.34    0.15
  -7   9  22    1.38    0.17
  -5   9  22    0.82    0.13
  -5   9  22    0.76    0.13
  -3   9  22    1.29    0.15
  -3   9  22    1.01    0.14
  -1   9  22   -0.01    0.06
  -1   9  22    0.00    0.07
   1   9  22    0.08    0.07
   1   9  22    0.11    0.06
   3   9  22    0.01    0.07
   5   9  22    0.53    0.12
   7   9  22    0.26    0.11
 -10  10  22    1.85    0.22
  -8  10  22    0.27    0.10
  -8  10  22    0.06    0.05
  -6  10  22    3.89    0.25
  -6  10  22    3.67    0.25
  -4  10  22    0.05    0.08
  -4  10  22    0.18    0.09
  -2  10  22    4.81    0.25
  -2  10  22    5.26    0.29
   0  10  22    0.66    0.12
   0  10  22    0.93    0.15
   2  10  22    1.48    0.18
   4  10  22    1.18    0.16
   6  10  22    0.04    0.08
  -9  11  22    0.20    0.11
  -7  11  22    0.25    0.11
  -7  11  22    0.29    0.10
  -5  11  22    0.87    0.14
  -5  11  22    0.88    0.14
  -3  11  22    0.69    0.14
  -3  11  22    0.76    0.13
  -1  11  22    1.14    0.16
   1  11  22   -0.06    0.08
   3  11  22    0.55    0.12
   5  11  22    0.27    0.11
  -6  12  22    1.23    0.17
  -6  12  22    1.37    0.18
  -4  12  22    0.74    0.15
  -4  12  22    0.74    0.13
  -2  12  22    1.47    0.19
   0  12  22    0.69    0.14
   2  12  22    0.37    0.12
  -6 -12  23    0.57    0.16
  -4 -12  23    0.06    0.10
  -2 -12  23    1.39    0.23
   0 -12  23    1.54    0.24
   2 -12  23    0.12    0.17
  -9 -11  23    1.02    0.19
  -7 -11  23    0.90    0.18
  -5 -11  23    1.65    0.22
  -3 -11  23    0.67    0.13
  -3 -11  23    0.51    0.16
  -1 -11  23    5.84    0.38
   1 -11  23    0.01    0.14
   3 -11  23    1.30    0.26
   5 -11  23    0.41    0.19
 -10 -10  23    0.05    0.10
  -8 -10  23   -0.04    0.09
  -6 -10  23    0.42    0.14
  -4 -10  23    0.95    0.18
  -4 -10  23    0.96    0.13
  -2 -10  23    1.31    0.16
  -2 -10  23    1.38    0.21
   0 -10  23   -0.08    0.11
   2 -10  23    0.23    0.14
   4 -10  23    0.64    0.19
   6 -10  23    0.41    0.20
 -11  -9  23    0.71    0.16
  -9  -9  23    0.96    0.17
  -7  -9  23    0.93    0.17
  -5  -9  23    2.02    0.17
  -5  -9  23    1.89    0.22
  -3  -9  23    0.22    0.11
  -3  -9  23    0.17    0.08
  -1  -9  23    5.61    0.35
   1  -9  23    0.71    0.18
   3  -9  23    4.00    0.34
   5  -9  23    1.22    0.24
   7  -9  23    0.74    0.21
 -12  -8  23    0.63    0.16
 -10  -8  23    1.27    0.20
  -8  -8  23    4.21    0.28
  -8  -8  23    3.83    0.21
  -6  -8  23    1.69    0.16
  -6  -8  23    1.93    0.22
  -4  -8  23    2.06    0.16
  -4  -8  23    1.73    0.21
  -2  -8  23    3.10    0.21
  -2  -8  23    2.99    0.25
   0  -8  23    4.81    0.31
   2  -8  23    0.37    0.15
   4  -8  23    0.17    0.13
   6  -8  23    1.21    0.25
   8  -8  23    0.04    0.16
 -13  -7  23    0.61    0.16
 -11  -7  23    3.76    0.27
  -9  -7  23    4.22    0.28
  -9  -7  23    4.33    0.22
  -7  -7  23    2.40    0.21
  -7  -7  23    2.62    0.17
  -5  -7  23    0.97    0.15
  -5  -7  23    0.89    0.12
  -3  -7  23    0.39    0.09
  -3  -7  23    0.44    0.12
  -1  -7  23    0.08    0.07
  -1  -7  23    0.15    0.11
   1  -7  23    0.95    0.19
   3  -7  23    4.23    0.31
   5  -7  23    1.01    0.20
   7  -7  23    2.20    0.28
   9  -7  23    2.08    0.29
 -14  -6  23    0.22    0.12
 -12  -6  23    4.15    0.29
 -10  -6  23    1.10    0.17
 -10  -6  23    1.03    0.13
  -8  -6  23    0.91    0.14
  -8  -6  23    0.55    0.09
  -6  -6  23    0.71    0.11
  -6  -6  23    0.66    0.13
  -4  -6  23    1.94    0.19
  -4  -6  23    1.91    0.15
  -2  -6  23    2.08    0.21
  -2  -6  23    1.89    0.17
   0  -6  23    6.81    0.35
   2  -6  23    0.51    0.15
   4  -6  23    3.09    0.29
   6  -6  23    7.97    0.44
   8  -6  23   -0.03    0.12
  10  -6  23    0.32    0.17
 -15  -5  23    0.32    0.13
 -13  -5  23    2.04    0.23
 -13  -5  23    1.88    0.18
 -11  -5  23    1.18    0.17
 -11  -5  23    1.21    0.15
  -9  -5  23    0.54    0.11
  -9  -5  23    0.25    0.07
  -7  -5  23    0.59    0.10
  -7  -5  23    0.60    0.12
  -5  -5  23    0.88    0.13
  -5  -5  23    0.90    0.12
  -3  -5  23    3.26    0.22
  -3  -5  23    3.49    0.20
  -1  -5  23    1.81    0.18
  -1  -5  23    1.83    0.17
   1  -5  23    7.50    0.36
   3  -5  23    0.46    0.14
   5  -5  23    1.99    0.25
   7  -5  23    2.21    0.27
   9  -5  23    0.32    0.17
  11  -5  23    0.14    0.16
 -14  -4  23    1.23    0.19
 -12  -4  23    1.06    0.14
 -12  -4  23    1.09    0.17
 -10  -4  23    0.81    0.12
 -10  -4  23    0.97    0.15
  -8  -4  23    3.25    0.20
  -8  -4  23    3.77    0.22
  -6  -4  23    1.57    0.16
  -6  -4  23    1.47    0.15
  -4  -4  23    2.56    0.17
  -4  -4  23    2.32    0.17
  -2  -4  23    2.37    0.18
  -2  -4  23    2.22    0.16
   0  -4  23    5.15    0.28
   0  -4  23    5.50    0.26
   2  -4  23    5.29    0.30
   4  -4  23    0.74    0.15
   6  -4  23    3.03    0.26
   8  -4  23    0.54    0.16
  10  -4  23    0.30    0.17
 -15  -3  23    0.30    0.12
 -15  -3  23    0.30    0.10
 -13  -3  23    2.50    0.20
 -13  -3  23    2.70    0.22
 -11  -3  23   -0.01    0.07
 -11  -3  23    0.06    0.07
  -9  -3  23    4.81    0.25
  -9  -3  23    4.96    0.25
  -7  -3  23    1.14    0.13
  -7  -3  23    0.88    0.12
  -5  -3  23    1.11    0.13
  -5  -3  23    1.31    0.13
  -3  -3  23    5.60    0.25
  -3  -3  23    5.52    0.26
  -1  -3  23    2.20    0.17
  -1  -3  23    2.35    0.16
   1  -3  23    5.40    0.27
   3  -3  23    3.66    0.24
   5  -3  23    1.82    0.21
   7  -3  23    0.30    0.14
   9  -3  23    1.22    0.21
  11  -3  23    1.54    0.25
 -16  -2  23    0.07    0.10
 -16  -2  23    0.01    0.08
 -14  -2  23    0.76    0.14
 -14  -2  23    0.76    0.14
 -12  -2  23    2.32    0.18
 -12  -2  23    2.20    0.21
 -10  -2  23    3.43    0.21
 -10  -2  23    3.42    0.21
  -8  -2  23    6.81    0.30
  -8  -2  23    6.78    0.29
  -6  -2  23    1.72    0.14
  -6  -2  23    1.96    0.14
  -4  -2  23    2.10    0.14
  -4  -2  23    2.30    0.16
  -2  -2  23    2.36    0.17
  -2  -2  23    2.34    0.16
   0  -2  23    2.36    0.17
   0  -2  23    2.34    0.17
   2  -2  23    3.62    0.22
   4  -2  23    1.29    0.16
   6  -2  23    2.14    0.23
   8  -2  23    0.44    0.15
  10  -2  23    0.30    0.14
  12  -2  23    0.03    0.14
 -15  -1  23    0.21    0.11
 -15  -1  23    0.04    0.09
 -13  -1  23    2.65    0.21
 -13  -1  23    2.42    0.20
 -11  -1  23    1.32    0.15
 -11  -1  23    1.22    0.15
  -9  -1  23   10.30    0.39
  -9  -1  23    9.74    0.37
  -7  -1  23    3.87    0.21
  -7  -1  23    4.16    0.20
  -5  -1  23    1.57    0.15
  -5  -1  23    1.60    0.12
  -3  -1  23   21.23    0.60
  -3  -1  23   21.28    0.65
  -1  -1  23    0.15    0.07
  -1  -1  23    0.02    0.05
   1  -1  23    9.81    0.37
   1  -1  23    9.74    0.36
   3  -1  23    1.31    0.15
   5  -1  23    0.37    0.11
   7  -1  23    7.24    0.37
   9  -1  23    3.42    0.28
  11  -1  23    5.86    0.37
 -16   0  23    0.08    0.10
 -16   0  23    0.05    0.10
 -14   0  23    0.11    0.09
 -14   0  23   -0.04    0.07
 -12   0  23    0.11    0.08
 -12   0  23   -0.01    0.06
 -10   0  23    0.04    0.06
 -10   0  23    0.08    0.07
  -8   0  23    0.02    0.05
  -8   0  23    0.05    0.06
  -6   0  23   -0.01    0.05
  -6   0  23   -0.02    0.04
  -4   0  23    0.03    0.05
  -4   0  23   -0.03    0.03
  -2   0  23    0.11    0.06
  -2   0  23    0.07    0.05
   0   0  23   -0.08    0.05
   0   0  23    0.01    0.05
   2   0  23    0.07    0.06
   2   0  23   -0.03    0.06
   4   0  23    0.02    0.07
   6   0  23    0.02    0.09
   8   0  23    0.00    0.09
  10   0  23    0.12    0.12
  12   0  23    0.15    0.14
 -15   1  23    0.10    0.09
 -13   1  23    2.30    0.22
 -13   1  23    2.11    0.18
 -11   1  23    1.10    0.15
 -11   1  23    1.12    0.13
  -9   1  23   10.11    0.35
  -9   1  23    9.86    0.39
  -7   1  23    4.28    0.18
  -7   1  23    3.96    0.22
  -5   1  23    1.26    0.13
  -5   1  23    1.51    0.09
  -3   1  23   21.36    0.56
  -3   1  23   21.69    0.66
  -1   1  23    0.13    0.05
  -1   1  23    0.09    0.06
   1   1  23    9.49    0.36
   1   1  23    9.49    0.32
   3   1  23    1.32    0.14
   3   1  23    1.23    0.13
   5   1  23    0.37    0.10
   7   1  23    7.16    0.34
  -9  -1 -23    2.85    0.23
 -11  -1 -23    5.28    0.34
 -16   2  23   -0.03    0.09
 -14   2  23    0.71    0.14
 -12   2  23    2.21    0.22
 -10   2  23    3.44    0.22
  -8   2  23    6.87    0.31
  -6   2  23    1.55    0.15
  -4   2  23    2.11    0.16
  -2   2  23    2.34    0.16
   0   2  23    2.33    0.16
   0   2  23    2.30    0.12
   2   2  23    3.88    0.18
   2   2  23    3.81    0.21
   4   2  23    1.17    0.13
   4   2  23    1.30    0.14
  -6  -2 -23    2.14    0.17
   6   2  23    2.22    0.17
  -8  -2 -23    0.57    0.12
   8   2  23    0.07    0.10
 -10  -2 -23    0.11    0.10
  10   2  23    0.01    0.10
 -12  -2 -23    0.21    0.13
  12   2  23   -0.08    0.10
 -15   3  23    0.24    0.11
 -13   3  23    2.53    0.24
 -11   3  23    0.12    0.09
  -9   3  23    5.11    0.27
  -7   3  23    1.15    0.13
  -5   3  23    1.18    0.13
  -3   3  23    5.75    0.26
  -1   3  23    2.66    0.17
   1   3  23    4.96    0.19
   1   3  23    5.38    0.25
   3   3  23    4.04    0.21
  -5  -3 -23    2.00    0.15
   5   3  23    2.34    0.17
  -7  -3 -23    0.46    0.11
   7   3  23    0.57    0.11
  -9  -3 -23    1.00    0.16
 -11  -3 -23    2.16    0.25
  11   3  23    1.81    0.18
 -14   4  23    1.52    0.20
 -12   4  23    1.40    0.18
 -10   4  23    0.73    0.12
  -8   4  23    3.75    0.23
  -6   4  23    1.25    0.14
  -4   4  23    2.57    0.17
  -2   4  23    2.72    0.17
   0   4  23    5.20    0.25
   2   4  23    4.92    0.24
  -4  -4 -23    0.54    0.09
   4   4  23    0.62    0.10
  -6  -4 -23    3.23    0.20
   6   4  23    2.74    0.18
  -8  -4 -23    0.72    0.13
   8   4  23    0.46    0.10
 -10  -4 -23    0.35    0.13
  10   4  23    0.17    0.09
  10   4  23    0.44    0.11
 -15   5  23    0.38    0.13
 -13   5  23    2.18    0.23
 -11   5  23    1.30    0.17
  -9   5  23    0.50    0.11
  -7   5  23    0.52    0.11
  -5   5  23    1.06    0.13
  -3   5  23    3.18    0.19
  -1   5  23    1.65    0.15
   1   5  23    8.13    0.32
   3   5  23    0.62    0.10
  -5  -5 -23    2.17    0.16
   5   5  23    1.77    0.15
  -7  -5 -23    2.33    0.19
   7   5  23    2.32    0.17
   7   5  23    2.37    0.18
  -9  -5 -23    0.35    0.11
   9   5  23    0.30    0.09
 -11  -5 -23    0.16    0.11
  11   5  23    0.19    0.09
 -14   6  23    0.29    0.12
 -12   6  23    4.55    0.29
 -10   6  23    1.33    0.13
 -10   6  23    1.56    0.18
  -8   6  23    0.79    0.13
  -6   6  23    0.60    0.11
  -4   6  23    2.03    0.17
  -2   6  23    1.83    0.17
   0   6  23    6.25    0.27
   2   6  23    0.37    0.08
   4   6  23    2.70    0.20
   4   6  23    2.73    0.17
   6   6  23    7.47    0.35
   6   6  23    7.41    0.31
  -8  -6 -23    0.13    0.10
   8   6  23    0.03    0.07
 -10  -6 -23    0.28    0.12
  10   6  23    0.36    0.10
 -13   7  23    0.36    0.13
 -11   7  23    4.40    0.29
  -9   7  23    4.67    0.28
  -9   7  23    4.38    0.23
  -7   7  23    2.56    0.20
  -7   7  23    2.61    0.18
  -5   7  23    0.95    0.13
  -5   7  23    1.23    0.15
  -3   7  23    0.72    0.11
  -3   7  23    0.50    0.10
  -1   7  23    0.09    0.07
  -1   7  23    0.09    0.07
   1   7  23    1.02    0.13
   1   7  23    0.44    0.10
   3   7  23    3.89    0.21
   3   7  23    3.74    0.24
   5   7  23    1.18    0.14
   5   7  23    0.93    0.14
   7   7  23    1.67    0.18
   9   7  23    2.74    0.24
 -12   8  23    0.56    0.14
 -10   8  23    0.98    0.16
  -6   8  23    1.89    0.18
  -6   8  23    1.90    0.19
  -4   8  23    1.84    0.18
  -4   8  23    2.10    0.19
  -2   8  23    3.27    0.20
  -2   8  23    3.13    0.21
   0   8  23    5.19    0.25
   0   8  23    5.02    0.28
   2   8  23    0.45    0.09
   2   8  23    0.51    0.11
   4   8  23    0.12    0.08
   6   8  23    0.75    0.13
   8   8  23    0.12    0.09
 -11   9  23    1.11    0.18
  -9   9  23    1.19    0.15
  -9   9  23    1.38    0.18
  -7   9  23    0.86    0.13
  -7   9  23    0.91    0.15
  -5   9  23    2.28    0.18
  -5   9  23    1.68    0.18
  -3   9  23    0.25    0.09
  -3   9  23    0.34    0.10
  -1   9  23    4.84    0.28
  -1   9  23    5.37    0.26
   1   9  23    0.79    0.11
   1   9  23    0.74    0.13
   3   9  23    3.31    0.23
   5   9  23    1.15    0.17
   7   9  23    0.57    0.12
 -10  10  23    0.08    0.10
  -8  10  23    0.12    0.08
  -8  10  23    0.00    0.09
  -6  10  23    0.54    0.12
  -6  10  23    0.46    0.12
  -4  10  23    0.87    0.14
  -4  10  23    1.05    0.15
  -2  10  23    1.33    0.15
  -2  10  23    1.32    0.17
   0  10  23    0.03    0.08
   2  10  23    0.28    0.10
   4  10  23    0.17    0.09
   6  10  23    0.41    0.13
  -7  11  23    1.17    0.17
  -7  11  23    1.35    0.18
  -5  11  23    1.83    0.20
  -5  11  23    2.11    0.21
  -3  11  23    0.64    0.13
  -3  11  23    0.51    0.13
  -1  11  23    4.85    0.30
   1  11  23    0.05    0.08
   3  11  23    1.07    0.17
   5  11  23    0.35    0.12
  -6  12  23    0.52    0.14
  -6  12  23    0.58    0.14
  -4  12  23    0.01    0.08
  -4  12  23   -0.01    0.08
  -2  12  23    1.38    0.19
   0  12  23    0.99    0.17
   2  12  23    0.12    0.10
  -4 -12  24    0.20    0.13
  -2 -12  24    1.57    0.24
   0 -12  24    1.20    0.22
  -7 -11  24    0.20    0.13
  -5 -11  24    0.85    0.18
  -3 -11  24    0.39    0.15
  -3 -11  24    0.21    0.10
  -1 -11  24    1.20    0.21
  -1 -11  24    1.21    0.17
   1 -11  24    0.20    0.15
   3 -11  24    0.33    0.19
 -10 -10  24    0.73    0.17
  -8 -10  24    0.20    0.11
  -6 -10  24    2.73    0.27
  -4 -10  24    0.31    0.13
  -4 -10  24    0.32    0.10
  -2 -10  24    1.87    0.19
  -2 -10  24    1.81    0.24
   0 -10  24    4.37    0.34
   2 -10  24    0.25    0.15
   4 -10  24    1.91    0.29
   6 -10  24    0.58    0.21
 -11  -9  24    0.59    0.16
  -9  -9  24    3.72    0.29
  -7  -9  24    0.68    0.16
  -5  -9  24    0.23    0.11
  -5  -9  24    0.15    0.08
  -3  -9  24    1.64    0.17
  -3  -9  24    0.99    0.17
  -1  -9  24    0.50    0.12
  -1  -9  24    0.60    0.15
   1  -9  24    0.77    0.19
   3  -9  24    0.29    0.15
   5  -9  24    0.57    0.20
   7  -9  24   -0.09    0.14
 -12  -8  24    1.26    0.20
 -10  -8  24    2.07    0.24
  -8  -8  24    0.84    0.12
  -8  -8  24    0.91    0.17
  -6  -8  24    0.68    0.14
  -6  -8  24    0.63    0.11
  -4  -8  24    0.37    0.12
  -4  -8  24    0.31    0.09
  -2  -8  24    0.50    0.11
  -2  -8  24    0.63    0.16
   0  -8  24    3.80    0.30
   2  -8  24    2.08    0.26
   4  -8  24    5.69    0.38
   6  -8  24    0.20    0.14
   8  -8  24    1.21    0.25
 -13  -7  24    0.81    0.17
 -11  -7  24    0.96    0.17
  -9  -7  24    2.27    0.23
  -9  -7  24    2.14    0.17
  -7  -7  24    0.25    0.10
  -7  -7  24    0.24    0.08
  -5  -7  24    0.12    0.07
  -5  -7  24    0.16    0.09
  -3  -7  24    2.90    0.24
  -3  -7  24    2.95    0.20
  -1  -7  24    3.04    0.21
  -1  -7  24    3.28    0.26
   1  -7  24    1.02    0.18
   3  -7  24    3.89    0.31
   5  -7  24    1.07    0.22
   7  -7  24    1.55    0.26
   9  -7  24    1.07    0.25
 -14  -6  24    0.32    0.13
 -12  -6  24    1.62    0.21
 -10  -6  24    1.98    0.21
 -10  -6  24    1.90    0.17
  -6  -6  24    2.12    0.21
  -6  -6  24    2.20    0.16
  -4  -6  24    0.24    0.09
  -4  -6  24    0.39    0.09
  -2  -6  24    5.11    0.26
  -2  -6  24    4.87    0.28
   0  -6  24    1.66    0.21
   2  -6  24    1.85    0.23
   4  -6  24    4.15    0.32
   6  -6  24    2.05    0.26
   8  -6  24    0.30    0.16
  10  -6  24    0.33    0.19
 -15  -5  24    0.19    0.12
 -13  -5  24    2.49    0.26
 -13  -5  24    2.63    0.19
 -11  -5  24    1.38    0.18
  -9  -5  24    1.24    0.14
  -9  -5  24    1.10    0.15
  -7  -5  24    1.26    0.16
  -7  -5  24    1.00    0.13
  -5  -5  24    0.33    0.10
  -5  -5  24    0.40    0.09
  -3  -5  24    2.12    0.17
  -3  -5  24    2.06    0.20
  -1  -5  24    1.14    0.14
  -1  -5  24    1.38    0.17
   1  -5  24   12.86    0.51
   3  -5  24    1.99    0.24
   5  -5  24    1.89    0.24
   7  -5  24    6.92    0.41
   9  -5  24    0.33    0.17
 -14  -4  24    0.90    0.17
 -12  -4  24    2.05    0.19
 -12  -4  24    2.01    0.22
 -10  -4  24    0.67    0.13
 -10  -4  24    0.40    0.10
  -8  -4  24    2.91    0.20
  -8  -4  24    3.03    0.19
  -6  -4  24    0.38    0.09
  -6  -4  24    0.23    0.08
  -4  -4  24    3.87    0.22
  -4  -4  24    3.81    0.22
  -2  -4  24    1.06    0.14
  -2  -4  24    1.01    0.13
   0  -4  24    2.88    0.21
   0  -4  24    2.63    0.19
   2  -4  24   10.41    0.44
   4  -4  24    0.40    0.14
   6  -4  24    2.46    0.26
   8  -4  24    2.03    0.27
  10  -4  24    0.33    0.18
 -15  -3  24    0.21    0.12
 -15  -3  24    0.22    0.10
 -13  -3  24    0.75    0.14
 -13  -3  24    0.99    0.14
 -11  -3  24    0.69    0.12
 -11  -3  24    0.65    0.13
  -9  -3  24    0.23    0.08
  -9  -3  24    0.09    0.07
  -7  -3  24    1.17    0.14
  -7  -3  24    1.20    0.14
  -5  -3  24    0.87    0.11
  -5  -3  24    0.80    0.11
  -3  -3  24    2.26    0.17
  -3  -3  24    2.51    0.17
  -1  -3  24    2.97    0.20
  -1  -3  24    2.70    0.18
   1  -3  24    4.09    0.24
   1  -3  24    3.99    0.23
   3  -3  24    2.03    0.21
   5  -3  24    0.15    0.13
   7  -3  24    1.51    0.22
   9  -3  24    0.68    0.18
  11  -3  24    1.06    0.22
 -14  -2  24    0.34    0.11
 -14  -2  24    0.41    0.12
 -12  -2  24    6.59    0.33
 -12  -2  24    6.56    0.32
 -10  -2  24    0.25    0.08
 -10  -2  24    0.12    0.07
  -8  -2  24    7.69    0.33
  -8  -2  24    8.12    0.32
  -6  -2  24    2.23    0.15
  -6  -2  24    2.13    0.16
  -4  -2  24    5.50    0.26
  -4  -2  24    5.34    0.23
  -2  -2  24    8.00    0.33
  -2  -2  24    7.88    0.30
   0  -2  24    6.18    0.27
   0  -2  24    5.80    0.28
   2  -2  24    1.99    0.16
   2  -2  24    1.77    0.18
   4  -2  24    0.60    0.13
   6  -2  24    2.92    0.24
   8  -2  24    0.01    0.10
 -15  -1  24    0.10    0.10
 -15  -1  24    0.00    0.08
 -13  -1  24    1.24    0.16
 -13  -1  24    1.23    0.16
 -11  -1  24    1.85    0.18
 -11  -1  24    1.89    0.18
  -9  -1  24    4.38    0.25
  -9  -1  24    4.59    0.23
  -7  -1  24    1.65    0.16
  -7  -1  24    1.76    0.13
  -5  -1  24    0.15    0.06
  -5  -1  24    0.15    0.07
  -3  -1  24    2.15    0.14
  -3  -1  24    2.41    0.17
  -1  -1  24    5.80    0.25
  -1  -1  24    6.24    0.28
   1  -1  24    6.08    0.27
   1  -1  24    5.79    0.28
   3  -1  24    5.68    0.27
   5  -1  24    0.16    0.10
   7  -1  24    3.68    0.27
   9  -1  24    0.32    0.14
  11  -1  24    0.21    0.15
 -16   0  24    0.05    0.09
 -14   0  24    0.35    0.11
 -14   0  24    0.44    0.11
 -12   0  24    0.48    0.10
 -12   0  24    0.51    0.12
 -10   0  24    0.25    0.08
 -10   0  24    0.23    0.08
  -8   0  24    0.45    0.10
  -8   0  24    0.39    0.08
  -6   0  24    0.54    0.07
  -6   0  24    0.54    0.10
  -4   0  24   11.54    0.42
  -4   0  24   11.40    0.35
  -2   0  24   13.93    0.48
  -2   0  24   13.60    0.41
   0   0  24    9.12    0.32
   0   0  24    9.14    0.36
   2   0  24    2.21    0.16
   2   0  24    2.24    0.17
   4   0  24    6.45    0.30
   6   0  24    3.36    0.24
   8   0  24   16.57    0.61
  10   0  24    5.74    0.35
  12   0  24    1.49    0.23
 -15   1  24    0.08    0.10
 -13   1  24    1.39    0.18
 -11   1  24    1.84    0.19
 -11   1  24    1.64    0.15
  -9   1  24    4.89    0.26
  -9   1  24    4.33    0.20
  -7   1  24    1.95    0.16
  -7   1  24    1.76    0.11
  -5   1  24    0.17    0.07
  -5   1  24    0.14    0.04
  -3   1  24    2.35    0.17
  -3   1  24    2.18    0.10
  -1   1  24    5.98    0.27
  -1   1  24    5.89    0.21
   1   1  24    6.01    0.24
   1   1  24    5.52    0.27
   3   1  24    6.69    0.30
   3   1  24    6.59    0.28
   5   1  24    0.06    0.06
   5   1  24    0.25    0.10
   7   1  24    3.53    0.24
   9   1  24    0.29    0.13
  11   1  24    0.64    0.17
 -14   2  24    0.28    0.11
 -12   2  24    6.64    0.33
 -10   2  24    0.17    0.09
  -8   2  24    8.07    0.35
  -6   2  24    2.20    0.16
  -4   2  24    5.19    0.25
  -2   2  24    7.68    0.32
   0   2  24    5.78    0.27
   0   2  24    5.71    0.20
   2   2  24    1.46    0.12
   2   2  24    2.03    0.16
   4   2  24    0.28    0.09
   4   2  24    0.54    0.10
   6   2  24    3.29    0.21
   6   2  24    2.92    0.21
  -8  -2 -24   -0.02    0.04
   8   2  24    0.12    0.10
 -10  -2 -24    3.63    0.28
 -12  -2 -24    1.72    0.24
  12   2  24    0.19    0.14
 -15   3  24    0.18    0.11
 -13   3  24    1.27    0.19
 -11   3  24    0.58    0.12
  -9   3  24    0.16    0.08
  -7   3  24    1.12    0.14
  -5   3  24    0.82    0.12
  -3   3  24    2.30    0.16
  -1   3  24    2.52    0.17
   1   3  24    4.06    0.22
   3   3  24    1.77    0.16
  -5  -3 -24    0.01    0.06
   5   3  24    0.15    0.09
   5   3  24    0.13    0.07
  -7  -3 -24    1.21    0.16
   7   3  24    1.32    0.15
  -9  -3 -24    0.16    0.07
   9   3  24    0.62    0.11
   9   3  24    0.09    0.11
 -11  -3 -24    1.12    0.20
  11   3  24    1.33    0.16
 -14   4  24    0.98    0.17
 -12   4  24    1.91    0.21
 -10   4  24    0.55    0.12
  -8   4  24    3.09    0.21
  -6   4  24    0.25    0.08
  -4   4  24    3.57    0.21
  -2   4  24    0.97    0.12
   0   4  24    2.70    0.18
   2   4  24    9.59    0.37
  -4  -4 -24    0.36    0.08
   4   4  24    0.29    0.08
  -6  -4 -24    3.43    0.21
   6   4  24    3.43    0.21
  -8  -4 -24    1.69    0.19
   8   4  24    1.97    0.18
 -10  -4 -24    0.39    0.12
  10   4  24    0.55    0.15
  10   4  24    0.39    0.11
 -13   5  24    3.28    0.30
 -11   5  24    1.49    0.18
  -9   5  24    1.04    0.15
  -7   5  24    1.06    0.14
  -5   5  24    0.36    0.09
  -3   5  24    1.94    0.16
  -1   5  24    1.13    0.13
   1   5  24   11.55    0.42
   3   5  24    1.69    0.15
   5   5  24    2.05    0.16
  -7  -5 -24    6.62    0.34
   7   5  24    6.34    0.31
   7   5  24    6.83    0.30
  -9  -5 -24    0.45    0.12
   9   5  24    0.24    0.09
 -11  -5 -24    0.40    0.13
 -14   6  24    0.34    0.14
 -12   6  24    1.73    0.21
 -10   6  24    2.08    0.22
 -10   6  24    1.99    0.15
  -8   6  24    2.69    0.21
  -6   6  24    2.25    0.20
  -4   6  24    0.37    0.09
  -2   6  24    4.91    0.25
   0   6  24    1.70    0.16
   2   6  24    1.73    0.16
   4   6  24    4.54    0.22
   4   6  24    3.74    0.23
   6   6  24    1.63    0.16
   6   6  24    1.84    0.19
   8   6  24    0.12    0.08
  10   6  24    0.64    0.13
 -13   7  24    0.96    0.18
 -11   7  24    0.83    0.15
  -9   7  24    2.07    0.17
  -9   7  24    1.61    0.19
  -7   7  24    0.17    0.08
  -7   7  24    0.12    0.07
  -5   7  24    0.14    0.07
  -5   7  24    0.12    0.08
  -3   7  24    3.08    0.20
  -3   7  24    3.15    0.20
  -1   7  24    3.08    0.21
  -1   7  24    3.11    0.20
   1   7  24    0.97    0.14
   1   7  24    1.07    0.13
   3   7  24    3.75    0.24
   3   7  24    3.89    0.21
   5   7  24    1.03    0.15
   5   7  24    1.30    0.20
   7   7  24    1.11    0.15
   9   7  24    1.24    0.17
 -12   8  24    1.50    0.20
 -10   8  24    2.52    0.25
  -8   8  24    0.41    0.09
  -8   8  24    0.89    0.15
  -6   8  24    0.62    0.11
  -6   8  24    0.83    0.14
  -4   8  24    0.22    0.08
  -4   8  24    0.19    0.08
  -2   8  24    0.58    0.11
  -2   8  24    0.51    0.11
   0   8  24    3.61    0.23
   0   8  24    3.18    0.20
   2   8  24    1.97    0.19
   2   8  24    2.01    0.16
   4   8  24    5.67    0.30
   6   8  24    0.30    0.10
   8   8  24    0.97    0.16
 -11   9  24    0.93    0.17
  -9   9  24    4.24    0.24
  -9   9  24    3.82    0.27
  -7   9  24    0.88    0.15
  -7   9  24    0.50    0.11
  -5   9  24    0.09    0.07
  -5   9  24    0.13    0.08
  -3   9  24    1.44    0.16
  -1   9  24    0.38    0.10
  -1   9  24    0.61    0.11
   1   9  24    0.61    0.11
   1   9  24    0.56    0.12
   3   9  24    0.14    0.08
   5   9  24    0.49    0.12
   7   9  24    0.03    0.08
 -10  10  24    1.13    0.18
  -8  10  24    0.13    0.08
  -8  10  24    0.09    0.09
  -6  10  24    3.02    0.23
  -6  10  24    2.65    0.22
  -4  10  24    0.25    0.10
  -4  10  24    0.32    0.10
  -2  10  24    1.87    0.20
  -2  10  24    2.02    0.19
   0  10  24    4.58    0.28
   2  10  24    0.33    0.11
   4  10  24    2.25    0.23
   6  10  24    0.50    0.13
  -7  11  24    0.39    0.12
  -7  11  24    0.23    0.11
  -5  11  24    0.83    0.15
  -5  11  24    0.57    0.13
  -3  11  24    0.35    0.11
  -3  11  24    0.24    0.09
  -1  11  24    0.93    0.16
   1  11  24   -0.03    0.07
   3  11  24    0.48    0.12
  -4  12  24    0.22    0.10
  -4  12  24    0.18    0.11
  -2  12  24    1.32    0.18
   0  12  24    1.32    0.19
  -4 -12  25    0.50    0.15
  -2 -12  25    0.35    0.17
  -7 -11  25    0.58    0.17
  -5 -11  25    2.90    0.30
  -3 -11  25    0.08    0.08
  -3 -11  25    0.21    0.13
  -1 -11  25    2.48    0.23
  -1 -11  25    2.65    0.31
   1 -11  25    0.74    0.20
   3 -11  25    0.14    0.14
  -8 -10  25    1.17    0.20
  -6 -10  25    1.05    0.19
  -4 -10  25    0.28    0.09
  -4 -10  25    0.40    0.14
  -2 -10  25    0.33    0.13
  -2 -10  25    0.45    0.11
   0 -10  25    0.37    0.15
   2 -10  25   -0.05    0.14
   4 -10  25    0.32    0.19
 -11  -9  25    1.25    0.20
  -9  -9  25    1.36    0.20
  -7  -9  25    1.61    0.21
  -5  -9  25    2.67    0.27
  -5  -9  25    2.30    0.18
  -3  -9  25    0.04    0.07
  -3  -9  25    0.08    0.11
  -1  -9  25    4.28    0.31
  -1  -9  25    4.59    0.27
   1  -9  25    0.29    0.16
   3  -9  25    1.52    0.26
   5  -9  25    2.01    0.28
   7  -9  25    0.07    0.16
 -12  -8  25    0.43    0.13
 -10  -8  25    0.35    0.12
  -8  -8  25    0.29    0.11
  -8  -8  25    0.43    0.09
  -6  -8  25    0.50    0.13
  -6  -8  25    0.24    0.08
  -4  -8  25    0.15    0.11
  -4  -8  25   -0.03    0.07
  -2  -8  25    2.17    0.25
  -2  -8  25    2.00    0.19
   0  -8  25    1.68    0.22
   2  -8  25    1.46    0.22
   4  -8  25    0.22    0.14
   6  -8  25    0.25    0.17
   8  -8  25   -0.02    0.16
 -13  -7  25    0.43    0.14
 -11  -7  25    2.77    0.28
  -9  -7  25    2.39    0.24
  -9  -7  25    2.34    0.18
  -7  -7  25    0.63    0.14
  -5  -7  25    2.38    0.23
  -5  -7  25    2.23    0.18
  -3  -7  25    0.25    0.09
  -3  -7  25    0.07    0.09
  -1  -7  25    0.83    0.16
  -1  -7  25    0.87    0.14
   1  -7  25    4.01    0.30
   3  -7  25    4.10    0.32
   5  -7  25    1.72    0.26
   7  -7  25    1.95    0.28
   9  -7  25    1.14    0.25
 -14  -6  25    0.71    0.17
 -12  -6  25    2.11    0.23
 -10  -6  25    0.66    0.11
 -10  -6  25    0.92    0.15
  -8  -6  25    3.31    0.23
  -8  -6  25    3.23    0.20
  -6  -6  25    1.34    0.17
  -6  -6  25    1.01    0.13
  -4  -6  25    1.04    0.15
  -4  -6  25    1.06    0.14
  -2  -6  25    4.50    0.25
  -2  -6  25    4.41    0.28
   0  -6  25    0.42    0.10
   0  -6  25    0.41    0.13
   2  -6  25    0.52    0.16
   4  -6  25    2.03    0.25
   6  -6  25    1.34    0.23
   8  -6  25    1.08    0.22
 -13  -5  25    0.68    0.12
 -13  -5  25    0.85    0.17
 -11  -5  25    1.98    0.22
  -9  -5  25    0.46    0.10
  -9  -5  25    0.56    0.12
  -7  -5  25    1.03    0.13
  -7  -5  25    1.10    0.15
  -5  -5  25    0.44    0.11
  -5  -5  25    0.33    0.09
  -3  -5  25    2.27    0.20
  -3  -5  25    2.51    0.18
  -1  -5  25    4.59    0.25
  -1  -5  25    4.58    0.28
   1  -5  25    7.27    0.36
   3  -5  25    1.91    0.23
   5  -5  25    2.89    0.29
   7  -5  25    1.40    0.24
   9  -5  25    0.89    0.21
 -14  -4  25    0.22    0.11
 -14  -4  25    0.31    0.10
 -12  -4  25    1.92    0.19
 -12  -4  25    1.44    0.19
 -10  -4  25    0.63    0.11
 -10  -4  25    0.57    0.12
  -8  -4  25    0.79    0.13
  -8  -4  25    0.72    0.12
  -6  -4  25    0.14    0.08
  -6  -4  25    0.13    0.07
  -4  -4  25    1.17    0.14
  -4  -4  25    1.15    0.14
  -2  -4  25    1.45    0.16
  -2  -4  25    1.53    0.16
   0  -4  25    3.52    0.22
   0  -4  25    3.70    0.24
   2  -4  25    6.15    0.33
   4  -4  25    2.30    0.24
   6  -4  25    2.09    0.25
   8  -4  25    0.85    0.19
  10  -4  25    0.92    0.22
 -15  -3  25   -0.04    0.07
 -15  -3  25    0.04    0.09
 -13  -3  25    0.97    0.16
 -13  -3  25    0.92    0.14
 -11  -3  25    1.89    0.18
 -11  -3  25    1.98    0.20
  -9  -3  25    0.16    0.07
  -9  -3  25    0.08    0.07
  -7  -3  25    3.82    0.21
  -7  -3  25    3.54    0.21
  -5  -3  25    1.52    0.16
  -5  -3  25    1.77    0.15
  -3  -3  25    7.23    0.31
  -3  -3  25    6.83    0.29
  -1  -3  25    2.86    0.20
  -1  -3  25    2.86    0.19
   1  -3  25   11.00    0.44
   1  -3  25   11.87    0.44
   3  -3  25    6.35    0.33
   5  -3  25    0.36    0.13
   7  -3  25    4.90    0.33
   9  -3  25    0.35    0.17
  11  -3  25    1.20    0.23
 -14  -2  25    0.73    0.14
 -14  -2  25    0.50    0.12
 -12  -2  25    1.79    0.19
 -12  -2  25    1.46    0.17
 -10  -2  25    0.26    0.09
 -10  -2  25    0.30    0.09
  -8  -2  25    7.96    0.33
  -8  -2  25    7.44    0.31
  -6  -2  25    1.64    0.16
  -6  -2  25    1.85    0.14
  -4  -2  25    0.56    0.09
  -4  -2  25    0.53    0.10
  -2  -2  25    2.28    0.16
  -2  -2  25    2.13    0.17
   0  -2  25    4.35    0.24
   0  -2  25    4.47    0.24
   2  -2  25    5.65    0.29
   2  -2  25    5.97    0.30
   4  -2  25    1.66    0.19
   6  -2  25    1.88    0.22
   8  -2  25    2.12    0.24
  10  -2  25    0.50    0.17
 -15  -1  25    0.07    0.09
 -15  -1  25    0.15    0.09
 -13  -1  25    0.29    0.10
 -13  -1  25    0.58    0.12
 -11  -1  25    1.02    0.14
 -11  -1  25    0.81    0.12
  -9  -1  25   10.18    0.38
  -9  -1  25   11.29    0.42
  -7  -1  25    2.85    0.16
  -7  -1  25    2.96    0.19
  -5  -1  25    0.94    0.10
  -5  -1  25    0.91    0.12
  -3  -1  25   29.96    0.87
  -3  -1  25   29.14    0.81
  -1  -1  25    1.67    0.16
  -1  -1  25    1.52    0.14
   1  -1  25    6.49    0.30
   1  -1  25    6.77    0.30
   3  -1  25    3.60    0.23
   3  -1  25    4.00    0.24
   5  -1  25    0.90    0.15
   7  -1  25    7.09    0.37
   9  -1  25    0.09    0.12
  11  -1  25    2.72    0.31
 -14   0  25    0.01    0.08
 -12   0  25    0.03    0.06
 -12   0  25    0.04    0.08
 -10   0  25    0.03    0.05
 -10   0  25   -0.01    0.07
  -8   0  25    0.00    0.05
  -8   0  25    0.00    0.06
  -6   0  25    0.02    0.04
  -6   0  25    0.06    0.06
  -4   0  25   -0.01    0.04
  -4   0  25    0.00    0.06
  -2   0  25    0.13    0.05
  -2   0  25    0.11    0.06
   0   0  25    0.07    0.06
   0   0  25    0.07    0.06
   2   0  25    0.05    0.07
   2   0  25    0.04    0.07
   4   0  25   -0.06    0.06
   4   0  25    0.01    0.07
   6   0  25   -0.06    0.09
   8   0  25   -0.02    0.12
  10   0  25   -0.01    0.13
 -15   1  25    0.07    0.10
 -13   1  25    0.59    0.13
 -11   1  25    0.88    0.14
  -9   1  25   10.53    0.42
  -7   1  25    2.99    0.20
  -5   1  25    0.55    0.10
  -3   1  25   29.15    0.75
  -3   1  25   29.20    0.86
  -1   1  25    1.59    0.11
  -1   1  25    1.68    0.16
   1   1  25    6.67    0.26
   1   1  25    6.52    0.30
   3   1  25    3.79    0.22
   3   1  25    3.42    0.20
   5   1  25    0.77    0.14
   5   1  25    0.74    0.12
   9   1  25    0.10    0.10
  11   1  25    2.20    0.26
 -14   2  25    0.87    0.16
 -12   2  25    1.44    0.18
 -10   2  25    0.18    0.08
  -8   2  25    7.87    0.34
  -6   2  25    1.75    0.17
  -4   2  25    0.69    0.11
  -2   2  25    1.97    0.16
   0   2  25    4.09    0.23
   2   2  25    5.67    0.27
   2   2  25    5.31    0.23
   4   2  25    1.57    0.16
   4   2  25    1.30    0.15
   6   2  25    1.67    0.17
   6   2  25    1.67    0.17
   8   2  25    1.98    0.22
 -10  -2 -25    0.83    0.16
  10   2  25    0.24    0.12
 -15   3  25   -0.02    0.09
 -13   3  25    0.85    0.15
 -11   3  25    2.32    0.22
  -9   3  25    0.05    0.08
  -7   3  25    3.32    0.21
  -5   3  25    1.59    0.16
  -3   3  25    7.14    0.31
  -1   3  25    2.79    0.18
   1   3  25   11.31    0.42
   3   3  25    5.32    0.26
   5   3  25    0.26    0.08
   5   3  25    0.19    0.09
  -7  -3 -25    4.80    0.27
   7   3  25    5.09    0.27
  -9  -3 -25    0.00    0.04
   9   3  25    0.14    0.11
   9   3  25    0.09    0.08
 -11  -3 -25    1.42    0.21
  11   3  25    1.53    0.17
 -14   4  25    0.34    0.13
 -12   4  25    1.41    0.18
 -10   4  25    0.63    0.13
  -8   4  25    0.88    0.14
  -6   4  25    0.16    0.08
  -4   4  25    1.05    0.13
  -2   4  25    1.12    0.13
   0   4  25    3.71    0.21
   2   4  25    6.68    0.30
   4   4  25    2.00    0.16
  -6  -4 -25    1.93    0.17
   6   4  25    2.37    0.18
  -8  -4 -25    0.92    0.15
   8   4  25    0.82    0.13
  10   4  25    0.82    0.14
 -13   5  25    1.01    0.17
 -11   5  25    1.85    0.21
  -9   5  25    0.59    0.12
  -7   5  25    0.84    0.13
  -5   5  25    0.51    0.11
  -3   5  25    2.34    0.18
  -1   5  25    4.31    0.23
   1   5  25    7.25    0.31
   3   5  25    1.67    0.16
   5   5  25    1.95    0.18
   7   5  25    1.14    0.15
   7   5  25    1.00    0.14
   9   5  25    1.01    0.15
 -14   6  25    0.80    0.17
 -12   6  25    2.22    0.24
 -10   6  25    0.70    0.10
 -10   6  25    0.72    0.14
  -8   6  25    3.21    0.23
  -6   6  25    1.43    0.16
  -4   6  25    1.08    0.14
  -2   6  25    4.03    0.22
   0   6  25    0.40    0.09
   2   6  25    0.57    0.10
   4   6  25    1.71    0.18
   4   6  25    1.65    0.16
   6   6  25    0.98    0.14
   6   6  25    1.12    0.14
   8   6  25    1.59    0.18
 -13   7  25    0.25    0.12
 -11   7  25    2.63    0.26
  -9   7  25    2.50    0.23
  -9   7  25    2.27    0.18
  -7   7  25    0.80    0.14
  -7   7  25    0.61    0.11
  -5   7  25    2.48    0.20
  -5   7  25    2.58    0.19
  -3   7  25    0.28    0.09
  -1   7  25    0.68    0.12
  -1   7  25    0.78    0.12
   1   7  25    3.49    0.21
   3   7  25    4.78    0.27
   3   7  25    4.57    0.24
   5   7  25    1.35    0.17
   7   7  25    1.58    0.18
   9   7  25    1.44    0.19
 -12   8  25    0.64    0.15
 -10   8  25    0.16    0.10
  -8   8  25    0.43    0.10
  -8   8  25    0.47    0.13
  -6   8  25    0.60    0.11
  -6   8  25    0.33    0.10
  -4   8  25    0.12    0.08
  -4   8  25   -0.01    0.06
  -2   8  25    1.97    0.20
  -2   8  25    2.36    0.18
   0   8  25    1.63    0.16
   0   8  25    1.49    0.17
   2   8  25    1.59    0.18
   2   8  25    1.45    0.15
   4   8  25    0.12    0.08
   6   8  25    0.33    0.10
   8   8  25    0.21    0.10
 -11   9  25    1.56    0.21
  -9   9  25    1.72    0.22
  -9   9  25    1.82    0.18
  -7   9  25    1.75    0.20
  -7   9  25    1.50    0.17
  -5   9  25    2.53    0.20
  -5   9  25    2.54    0.20
  -3   9  25    0.06    0.07
  -3   9  25    0.15    0.08
  -1   9  25    4.16    0.23
  -1   9  25    3.94    0.25
   1   9  25    0.28    0.10
   1   9  25    0.23    0.08
   3   9  25    1.16    0.16
   5   9  25    2.15    0.22
   7   9  25    0.01    0.09
  -8  10  25    1.09    0.15
  -8  10  25    1.40    0.19
  -6  10  25    1.01    0.15
  -6  10  25    0.83    0.14
  -4  10  25    0.33    0.10
  -4  10  25    0.32    0.10
  -2  10  25    0.34    0.11
  -2  10  25    0.41    0.11
   0  10  25    0.30    0.10
   2  10  25   -0.02    0.08
   4  10  25    0.57    0.13
  -7  11  25    0.62    0.15
  -7  11  25    0.35    0.11
  -5  11  25    2.99    0.23
  -5  11  25    3.05    0.24
  -3  11  25    0.02    0.08
  -3  11  25    0.27    0.11
  -1  11  25    2.43    0.24
   1  11  25    0.47    0.13
   3  11  25    0.12    0.10
  -7 -11  26    0.30    0.14
  -5 -11  26    0.55    0.15
  -3 -11  26    0.22    0.13
  -3 -11  26    0.05    0.08
  -1 -11  26    0.63    0.18
  -1 -11  26    0.70    0.15
   1 -11  26    0.34    0.16
  -8 -10  26    0.02    0.10
  -6 -10  26    2.66    0.28
  -4 -10  26    0.76    0.18
  -4 -10  26    0.81    0.13
  -2 -10  26    0.94    0.20
  -2 -10  26    0.66    0.13
   0 -10  26    3.84    0.32
   2 -10  26    0.32    0.17
   4 -10  26    1.21    0.24
  -9  -9  26    1.04    0.19
  -7  -9  26    0.36    0.13
  -5  -9  26    0.07    0.09
  -5  -9  26    0.00    0.05
  -3  -9  26   -0.06    0.09
  -3  -9  26    0.06    0.08
  -1  -9  26    0.59    0.13
  -1  -9  26    0.47    0.15
   1  -9  26    1.31    0.22
   3  -9  26    0.62    0.20
   5  -9  26    0.34    0.18
 -12  -8  26    0.23    0.12
 -10  -8  26    2.97    0.25
  -8  -8  26    0.56    0.11
  -8  -8  26    0.73    0.15
  -4  -8  26    2.19    0.20
  -4  -8  26    1.82    0.22
  -2  -8  26    0.12    0.11
  -2  -8  26    0.05    0.07
   0  -8  26    3.50    0.29
   2  -8  26    0.21    0.12
   4  -8  26    3.03    0.33
   6  -8  26    0.48    0.20
 -13  -7  26    0.67    0.16
 -11  -7  26    1.84    0.23
  -9  -7  26    0.62    0.12
  -9  -7  26    0.49    0.13
  -7  -7  26    0.65    0.11
  -7  -7  26    0.80    0.15
  -5  -7  26    0.12    0.08
  -5  -7  26    0.12    0.09
  -3  -7  26    1.39    0.19
  -3  -7  26    1.91    0.18
  -1  -7  26    1.03    0.18
  -1  -7  26    0.94    0.14
   1  -7  26    6.69    0.38
   3  -7  26    1.54    0.23
   5  -7  26    0.32    0.16
   7  -7  26    1.01    0.22
 -12  -6  26    1.50    0.20
 -10  -6  26    1.51    0.19
  -8  -6  26    1.09    0.14
  -8  -6  26    1.59    0.19
  -6  -6  26    1.17    0.16
  -6  -6  26    1.05    0.13
  -4  -6  26    0.44    0.12
  -4  -6  26    0.46    0.10
  -2  -6  26    0.88    0.16
  -2  -6  26    1.10    0.14
   0  -6  26    0.18    0.11
   0  -6  26    0.23    0.09
   2  -6  26    0.32    0.15
   4  -6  26    6.28    0.39
   6  -6  26    0.49    0.17
   8  -6  26    0.13    0.15
 -13  -5  26    0.62    0.15
 -13  -5  26    0.40    0.10
 -11  -5  26    1.71    0.17
 -11  -5  26    1.60    0.20
  -9  -5  26    0.33    0.09
  -9  -5  26    0.23    0.10
  -7  -5  26    2.36    0.18
  -7  -5  26    2.68    0.21
  -5  -5  26    0.96    0.14
  -5  -5  26    1.05    0.14
  -3  -5  26    2.86    0.21
  -3  -5  26    3.08    0.20
  -1  -5  26    1.41    0.16
  -1  -5  26    1.20    0.17
   1  -5  26    6.05    0.33
   3  -5  26    0.68    0.17
   5  -5  26    1.37    0.23
   7  -5  26    1.38    0.23
   9  -5  26    0.75    0.22
 -14  -4  26    0.19    0.11
 -14  -4  26    0.13    0.09
 -12  -4  26    1.28    0.18
 -12  -4  26    1.16    0.15
 -10  -4  26    0.26    0.10
 -10  -4  26    0.33    0.09
  -8  -4  26    0.81    0.12
  -8  -4  26    0.97    0.14
  -6  -4  26    0.91    0.13
  -6  -4  26    0.70    0.12
  -4  -4  26    0.91    0.13
  -4  -4  26    1.18    0.15
  -2  -4  26    2.60    0.19
  -2  -4  26    3.03    0.21
   0  -4  26    1.75    0.20
   0  -4  26    1.84    0.19
   2  -4  26    5.43    0.31
   4  -4  26    0.41    0.14
   6  -4  26    1.25    0.21
   8  -4  26    0.78    0.19
  10  -4  26    0.38    0.17
 -15  -3  26    0.09    0.09
 -15  -3  26   -0.15    0.08
 -13  -3  26    0.75    0.14
 -13  -3  26    0.83    0.14
 -11  -3  26    1.45    0.18
 -11  -3  26    1.41    0.16
  -9  -3  26    0.75    0.12
  -9  -3  26    0.61    0.11
  -7  -3  26    3.36    0.20
  -7  -3  26    3.64    0.22
  -5  -3  26    3.47    0.21
  -5  -3  26    3.44    0.20
  -3  -3  26    7.91    0.32
  -3  -3  26    7.77    0.34
  -1  -3  26    0.23    0.09
  -1  -3  26    0.27    0.09
   1  -3  26    1.02    0.14
   1  -3  26    1.09    0.15
   3  -3  26    8.69    0.40
   5  -3  26    0.60    0.16
   7  -3  26    0.89    0.19
   9  -3  26    0.12    0.15
 -14  -2  26    0.25    0.10
 -14  -2  26    0.21    0.11
 -12  -2  26    2.17    0.19
 -12  -2  26    2.42    0.20
 -10  -2  26    0.06    0.07
 -10  -2  26    0.01    0.06
  -8  -2  26   11.14    0.42
  -8  -2  26   10.69    0.40
  -6  -2  26    3.41    0.21
  -6  -2  26    3.53    0.19
  -4  -2  26    5.37    0.27
  -4  -2  26    5.43    0.24
  -2  -2  26    7.64    0.31
  -2  -2  26    7.77    0.34
   0  -2  26    2.33    0.19
   0  -2  26    2.46    0.18
   2  -2  26    7.29    0.34
   2  -2  26    8.20    0.36
   4  -2  26    2.16    0.22
   6  -2  26    2.71    0.26
   8  -2  26    1.14    0.21
  10  -2  26    0.71    0.19
 -15  -1  26    0.13    0.10
 -13  -1  26    0.51    0.12
 -13  -1  26    0.62    0.12
 -11  -1  26    0.97    0.13
 -11  -1  26    0.83    0.13
  -9  -1  26    0.60    0.11
  -9  -1  26    0.64    0.10
  -7  -1  26   -0.02    0.06
  -7  -1  26    0.07    0.06
  -5  -1  26    0.23    0.08
  -5  -1  26    0.35    0.07
  -3  -1  26    0.23    0.08
  -3  -1  26    0.33    0.07
  -1  -1  26    1.12    0.14
  -1  -1  26    1.20    0.13
   1  -1  26    5.12    0.27
   1  -1  26    6.02    0.28
   3  -1  26   14.17    0.52
   3  -1  26   14.63    0.52
   5  -1  26    0.25    0.11
   7  -1  26    0.17    0.12
   9  -1  26    0.08    0.13
  11  -1  26    0.11    0.17
 -14   0  26    0.35    0.12
 -12   0  26    2.59    0.21
 -10   0  26    2.16    0.20
  -8   0  26    4.38    0.24
  -8   0  26    4.03    0.20
  -6   0  26    5.26    0.21
  -6   0  26    5.56    0.27
  -4   0  26    3.72    0.22
  -4   0  26    3.55    0.16
  -2   0  26   60.87    1.62
  -2   0  26   60.82    1.54
   0   0  26    4.83    0.25
   0   0  26    4.61    0.22
   2   0  26    6.63    0.31
   2   0  26    7.31    0.30
   4   0  26    6.52    0.32
   4   0  26    7.20    0.33
   6   0  26   12.09    0.48
  10   0  26    1.62    0.24
 -15   1  26    0.01    0.09
 -13   1  26    0.44    0.12
 -11   1  26    0.75    0.13
  -9   1  26    0.64    0.12
  -7   1  26    0.05    0.07
  -5   1  26    0.24    0.08
  -3   1  26    0.23    0.08
  -1   1  26    1.26    0.10
  -1   1  26    1.19    0.14
   1   1  26    4.99    0.26
   1   1  26    5.39    0.23
   3   1  26   14.52    0.51
   3   1  26   14.08    0.48
   5   1  26    0.41    0.11
   5   1  26    0.44    0.12
   7   1  26    0.07    0.10
   9   1  26    0.36    0.13
  11   1  26    0.24    0.15
 -14   2  26    0.24    0.11
 -12   2  26    2.22    0.22
 -10   2  26    0.07    0.08
  -8   2  26   10.70    0.42
  -6   2  26    3.72    0.22
  -4   2  26    5.63    0.27
  -2   2  26    7.21    0.31
   0   2  26    2.45    0.18
   2   2  26    6.98    0.31
   4   2  26    2.23    0.18
   4   2  26    2.03    0.19
   6   2  26    2.55    0.19
   6   2  26    2.14    0.19
   8   2  26    1.03    0.16
   8   2  26    1.20    0.16
  10   2  26    0.69    0.17
 -15   3  26   -0.08    0.07
 -13   3  26    0.87    0.16
 -11   3  26    1.31    0.17
  -9   3  26    0.82    0.14
  -7   3  26    3.97    0.24
  -5   3  26    3.81    0.23
  -3   3  26    7.42    0.32
  -1   3  26    0.26    0.08
   1   3  26    1.03    0.13
   3   3  26    8.40    0.35
   5   3  26    0.39    0.09
  -7  -3 -26    0.76    0.13
   7   3  26    0.87    0.13
   7   3  26    0.62    0.15
  -9  -3 -26    0.01    0.08
   9   3  26    0.05    0.10
   9   3  26    0.11    0.08
 -14   4  26    0.32    0.12
 -12   4  26    1.04    0.16
 -10   4  26    0.45    0.12
  -8   4  26    0.70    0.12
  -6   4  26    0.96    0.14
  -4   4  26    1.10    0.14
  -2   4  26    2.74    0.19
   0   4  26    1.60    0.16
   2   4  26    4.70    0.25
   4   4  26    0.32    0.09
   6   4  26    1.61    0.17
   8   4  26    0.69    0.12
 -10  -4 -26    0.87    0.17
  10   4  26    0.70    0.13
 -13   5  26    0.42    0.13
 -11   5  26    1.92    0.22
  -9   5  26    0.26    0.10
  -7   5  26    2.45    0.19
  -5   5  26    1.04    0.14
  -3   5  26    2.61    0.19
  -1   5  26    1.16    0.14
   1   5  26    5.43    0.27
   3   5  26    0.61    0.11
   5   5  26    1.45    0.16
   7   5  26    1.40    0.16
   7   5  26    1.49    0.17
   9   5  26    0.36    0.11
 -12   6  26    1.29    0.18
 -10   6  26    1.42    0.19
  -8   6  26    1.36    0.17
  -6   6  26    1.09    0.15
  -4   6  26    0.54    0.11
  -2   6  26    1.13    0.14
   0   6  26    0.19    0.08
   2   6  26    0.32    0.09
   4   6  26    5.84    0.28
   6   6  26    0.71    0.12
   6   6  26    0.60    0.12
   8   6  26    0.19    0.09
 -11   7  26    1.91    0.22
  -9   7  26    0.69    0.12
  -9   7  26    0.48    0.12
  -7   7  26    0.67    0.12
  -7   7  26    0.75    0.13
  -5   7  26    0.08    0.08
  -3   7  26    1.50    0.16
  -1   7  26    1.04    0.14
   1   7  26    6.32    0.31
   1   7  26    6.12    0.29
   3   7  26    1.24    0.14
   3   7  26    1.25    0.16
   5   7  26    0.32    0.10
   7   7  26    0.98    0.15
 -10   8  26    3.21    0.25
  -8   8  26    0.84    0.13
  -8   8  26    0.71    0.14
  -6   8  26    3.67    0.24
  -6   8  26    3.77    0.24
  -4   8  26    2.11    0.20
  -4   8  26    2.03    0.20
  -2   8  26    0.10    0.07
  -2   8  26    0.01    0.06
   0   8  26    3.64    0.24
   0   8  26    3.29    0.21
   2   8  26    0.23    0.08
   2   8  26    0.22    0.09
   4   8  26    3.13    0.23
   6   8  26    0.45    0.12
  -9   9  26    1.29    0.16
  -9   9  26    1.58    0.21
  -7   9  26    0.23    0.10
  -7   9  26    0.14    0.08
  -5   9  26    0.04    0.07
  -5   9  26    0.12    0.08
  -3   9  26   -0.02    0.07
  -3   9  26    0.01    0.07
  -1   9  26    0.56    0.11
  -1   9  26    0.49    0.11
   1   9  26    1.32    0.17
   1   9  26    1.31    0.15
   3   9  26    0.41    0.11
   5   9  26    0.18    0.09
  -8  10  26    0.10    0.09
  -8  10  26    0.06    0.09
  -6  10  26    2.98    0.24
  -6  10  26    2.89    0.23
  -4  10  26    0.63    0.13
  -4  10  26    0.82    0.14
  -2  10  26    0.52    0.12
  -2  10  26    0.62    0.13
   0  10  26    4.11    0.28
   2  10  26    0.05    0.08
   4  10  26    0.77    0.14
  -5  11  26    0.59    0.13
  -5  11  26    0.58    0.14
  -3  11  26    0.03    0.08
  -3  11  26    0.08    0.09
  -1  11  26    0.76    0.15
   1  11  26    0.05    0.08
  -5 -11  27    2.71    0.30
  -3 -11  27    0.30    0.15
  -1 -11  27    1.81    0.27
  -1 -11  27    1.67    0.21
   1 -11  27    1.81    0.28
  -8 -10  27    0.23    0.12
  -6 -10  27    0.17    0.12
  -4 -10  27    0.29    0.12
  -2 -10  27    0.88    0.18
  -2 -10  27    0.91    0.15
   0 -10  27    0.59    0.18
   0 -10  27    0.34    0.12
   2 -10  27    0.15    0.15
   4 -10  27   -0.13    0.16
  -9  -9  27    0.70    0.17
  -7  -9  27   -0.01    0.09
  -5  -9  27    1.83    0.22
  -3  -9  27    0.20    0.13
  -3  -9  27    0.02    0.08
  -1  -9  27    3.45    0.25
  -1  -9  27    3.47    0.29
   1  -9  27    2.22    0.28
   3  -9  27    0.90    0.21
   5  -9  27    1.98    0.30
 -10  -8  27    0.77    0.17
  -8  -8  27    0.85    0.13
  -8  -8  27    0.71    0.16
  -6  -8  27    0.17    0.10
  -6  -8  27    0.15    0.08
  -4  -8  27    0.11    0.11
  -4  -8  27    0.03    0.08
  -2  -8  27    0.49    0.14
  -2  -8  27    0.44    0.11
   0  -8  27    0.15    0.09
   0  -8  27    0.01    0.12
   2  -8  27    0.97    0.21
   4  -8  27   -0.02    0.13
   6  -8  27    0.40    0.19
 -11  -7  27    1.57    0.22
  -9  -7  27    0.72    0.12
  -9  -7  27    1.02    0.17
  -7  -7  27    0.01    0.07
  -7  -7  27    0.09    0.08
  -5  -7  27    4.00    0.24
  -5  -7  27    4.22    0.27
  -3  -7  27    0.16    0.09
  -3  -7  27    0.41    0.12
  -1  -7  27    0.40    0.14
  -1  -7  27    0.26    0.10
   1  -7  27    2.58    0.27
   3  -7  27    1.00    0.21
   5  -7  27    3.13    0.34
   7  -7  27    0.10    0.17
 -12  -6  27    0.27    0.11
 -12  -6  27    0.25    0.14
 -10  -6  27    0.51    0.13
  -8  -6  27    2.30    0.18
  -8  -6  27    2.49    0.24
  -6  -6  27    1.29    0.17
  -6  -6  27    1.12    0.14
  -4  -6  27    1.33    0.16
  -4  -6  27    1.38    0.17
  -2  -6  27    6.62    0.35
  -2  -6  27    6.82    0.32
   0  -6  27    0.05    0.12
   0  -6  27    0.07    0.07
   2  -6  27    3.11    0.27
   4  -6  27    0.68    0.18
   6  -6  27    0.57    0.18
   8  -6  27    0.68    0.21
 -13  -5  27    0.01    0.04
 -13  -5  27    0.13    0.10
 -11  -5  27    0.97    0.16
 -11  -5  27    0.92    0.14
  -9  -5  27    2.06    0.21
  -9  -5  27    2.29    0.18
  -7  -5  27    1.86    0.20
  -7  -5  27    1.72    0.17
  -5  -5  27    0.55    0.11
  -5  -5  27    0.55    0.11
  -3  -5  27    2.24    0.20
  -3  -5  27    1.90    0.19
  -1  -5  27    0.33    0.10
  -1  -5  27    0.38    0.13
   1  -5  27    1.95    0.20
   1  -5  27    2.57    0.25
   3  -5  27    7.22    0.40
   5  -5  27    1.24    0.22
   7  -5  27    0.48    0.18
   9  -5  27    0.02    0.15
 -14  -4  27    0.22    0.11
 -14  -4  27    0.04    0.08
 -12  -4  27    0.75    0.13
 -12  -4  27    1.08    0.17
 -10  -4  27    0.62    0.12
 -10  -4  27    0.61    0.13
  -8  -4  27    0.40    0.10
  -8  -4  27    0.28    0.09
  -6  -4  27    2.74    0.20
  -6  -4  27    2.73    0.20
  -4  -4  27    3.36    0.21
  -4  -4  27    3.65    0.23
  -2  -4  27    3.13    0.22
  -2  -4  27    3.70    0.23
   0  -4  27    1.36    0.16
   0  -4  27    1.70    0.20
   2  -4  27    5.84    0.33
   4  -4  27    2.64    0.27
   6  -4  27    0.82    0.19
   8  -4  27    0.57    0.19
  10  -4  27    0.42    0.19
 -13  -3  27    1.00    0.16
 -13  -3  27    1.29    0.17
 -11  -3  27    1.71    0.19
 -11  -3  27    1.71    0.18
  -9  -3  27    0.00    0.06
  -9  -3  27    0.04    0.06
  -7  -3  27    6.96    0.32
  -7  -3  27    6.58    0.30
  -5  -3  27    1.87    0.15
  -5  -3  27    1.68    0.17
  -3  -3  27    1.32    0.16
  -3  -3  27    1.12    0.14
  -1  -3  27    1.61    0.17
  -1  -3  27    1.49    0.17
   1  -3  27    5.13    0.28
   1  -3  27    4.71    0.27
   3  -3  27    4.74    0.30
   5  -3  27    0.24    0.13
   7  -3  27    3.84    0.30
   9  -3  27   -0.20    0.12
 -14  -2  27    0.62    0.13
 -14  -2  27    0.56    0.13
 -12  -2  27    1.00    0.15
 -12  -2  27    0.99    0.15
 -10  -2  27   -0.02    0.07
 -10  -2  27    0.00    0.06
  -8  -2  27    6.65    0.31
  -8  -2  27    6.61    0.29
  -6  -2  27    0.75    0.12
  -6  -2  27    0.71    0.10
  -4  -2  27    0.71    0.12
  -4  -2  27    0.64    0.10
  -2  -2  27    3.20    0.21
  -2  -2  27    3.19    0.19
   0  -2  27    3.49    0.22
   0  -2  27    3.16    0.21
   2  -2  27    1.38    0.18
   2  -2  27    1.53    0.17
   4  -2  27    2.37    0.23
   6  -2  27    0.03    0.11
   8  -2  27    0.07    0.15
  10  -2  27    0.37    0.18
 -15  -1  27    0.10    0.09
 -13  -1  27    0.20    0.09
 -11  -1  27    3.17    0.23
 -11  -1  27    3.37    0.22
  -9  -1  27    0.92    0.14
  -9  -1  27    1.14    0.13
  -7  -1  27    0.81    0.13
  -7  -1  27    0.87    0.10
  -5  -1  27    1.61    0.17
  -5  -1  27    1.65    0.12
  -3  -1  27    9.58    0.34
  -3  -1  27   10.18    0.39
  -1  -1  27   11.20    0.43
  -1  -1  27   11.35    0.39
   1  -1  27    0.33    0.10
   1  -1  27    0.37    0.10
   3  -1  27    7.40    0.34
   3  -1  27    7.16    0.34
   5  -1  27    0.84    0.15
   7  -1  27   11.66    0.51
   9  -1  27    0.08    0.14
 -14   0  27    0.05    0.09
 -12   0  27   -0.05    0.07
 -10   0  27    0.04    0.07
  -8   0  27    0.05    0.06
  -6   0  27   -0.07    0.06
  -4   0  27    0.05    0.05
  -4   0  27    0.02    0.06
   0   0  27    0.07    0.07
   0   0  27    0.09    0.07
   2   0  27   -0.06    0.08
   2   0  27    0.05    0.07
   4   0  27    0.08    0.08
   4   0  27   -0.04    0.08
   6   0  27    0.01    0.10
   8   0  27   -0.04    0.11
  10   0  27   -0.07    0.12
 -15   1  27    0.03    0.10
 -13   1  27    0.18    0.10
 -11   1  27    3.46    0.24
  -9   1  27    1.12    0.15
  -7   1  27    0.79    0.13
  -5   1  27    1.43    0.16
  -3   1  27   10.33    0.40
  -1   1  27   11.47    0.44
   1   1  27    0.30    0.09
   1   1  27    0.40    0.10
   3   1  27    7.05    0.31
   3   1  27    6.64    0.32
   5   1  27    1.03    0.15
   5   1  27    1.07    0.16
   7   1  27    9.95    0.44
   9   1  27    0.01    0.12
 -14   2  27    0.68    0.14
 -12   2  27    0.83    0.15
 -10   2  27   -0.01    0.07
  -8   2  27    6.72    0.32
  -6   2  27    0.59    0.11
  -4   2  27    0.57    0.11
  -2   2  27    3.02    0.20
   0   2  27    2.98    0.20
   2   2  27    1.37    0.16
   4   2  27    2.21    0.20
   6   2  27    0.08    0.10
   6   2  27    0.03    0.07
   8   2  27    0.14    0.09
   8   2  27    0.30    0.12
  10   2  27    0.44    0.15
 -13   3  27    1.07    0.17
 -11   3  27    1.55    0.18
  -9   3  27    0.20    0.09
  -7   3  27    6.81    0.33
  -5   3  27    1.45    0.16
  -3   3  27    0.96    0.13
  -1   3  27    1.37    0.15
   1   3  27    4.86    0.26
   3   3  27    4.15    0.24
   5   3  27    0.15    0.08
   7   3  27    4.13    0.25
  -9  -3 -27    0.08    0.08
   9   3  27    0.00    0.07
 -14   4  27    0.15    0.11
 -12   4  27    0.82    0.15
 -10   4  27    0.37    0.11
  -8   4  27    0.51    0.11
  -6   4  27    2.53    0.19
  -4   4  27    3.85    0.23
  -2   4  27    3.41    0.21
   0   4  27    1.13    0.14
   2   4  27    5.73    0.28
   4   4  27    2.19    0.18
   6   4  27    0.89    0.14
   8   4  27    0.24    0.10
  10   4  27    0.60    0.13
 -13   5  27    0.10    0.10
 -11   5  27    0.82    0.15
  -9   5  27    1.97    0.21
  -7   5  27    1.68    0.18
  -5   5  27    0.48    0.11
  -3   5  27    2.14    0.19
  -1   5  27    0.33    0.10
   1   5  27    1.94    0.18
   3   5  27    7.85    0.34
   5   5  27    0.87    0.13
   7   5  27    0.31    0.09
   7   5  27    0.42    0.11
   9   5  27    0.01    0.08
 -12   6  27    0.49    0.13
 -10   6  27    0.72    0.15
  -8   6  27    2.46    0.22
  -6   6  27    1.12    0.15
  -4   6  27    1.42    0.16
  -2   6  27    6.75    0.31
   0   6  27   -0.01    0.06
   2   6  27    3.23    0.21
   4   6  27    0.68    0.11
   6   6  27    0.62    0.12
   6   6  27    0.74    0.12
   8   6  27    0.48    0.11
 -11   7  27    1.49    0.20
  -9   7  27    0.86    0.15
  -9   7  27    0.36    0.08
  -7   7  27    0.01    0.07
  -7   7  27   -0.01    0.08
  -5   7  27    4.09    0.25
  -3   7  27    0.25    0.08
  -1   7  27    0.25    0.09
   1   7  27    2.64    0.19
   1   7  27    2.52    0.20
   3   7  27    1.09    0.13
   3   7  27    0.86    0.14
   5   7  27    3.03    0.23
   7   7  27    0.01    0.08
 -10   8  27    0.74    0.16
  -8   8  27    0.80    0.13
  -8   8  27    0.87    0.15
  -6   8  27    0.13    0.08
  -6   8  27    0.04    0.08
  -4   8  27    0.10    0.08
  -4   8  27    0.14    0.08
  -2   8  27    0.62    0.12
  -2   8  27    0.45    0.11
   0   8  27    0.13    0.09
   0   8  27    0.02    0.06
   2   8  27    0.70    0.13
   2   8  27    0.93    0.12
   4   8  27    0.06    0.08
   6   8  27    0.36    0.11
  -9   9  27    0.52    0.14
  -7   9  27    0.20    0.09
  -7   9  27    0.08    0.09
  -5   9  27    1.51    0.18
  -5   9  27    1.85    0.20
  -3   9  27   -0.06    0.06
  -3   9  27   -0.03    0.07
  -1   9  27    3.59    0.25
  -1   9  27    3.59    0.23
   1   9  27    1.89    0.20
   1   9  27    2.00    0.18
   3   9  27    0.71    0.14
   5   9  27    1.90    0.21
  -8  10  27    0.39    0.12
  -8  10  27    0.16    0.09
  -6  10  27    0.21    0.10
  -6  10  27    0.18    0.10
  -4  10  27   -0.04    0.07
  -4  10  27    0.15    0.09
  -2  10  27    0.54    0.11
  -2  10  27    0.54    0.12
   0  10  27    0.37    0.11
   2  10  27    0.05    0.08
  -5  11  27    2.45    0.24
  -5  11  27    2.56    0.24
  -3  11  27    0.07    0.09
  -3  11  27    0.17    0.10
  -1  11  27    1.24    0.18
  -3 -11  28    0.26    0.14
  -3 -11  28    0.05    0.07
  -1 -11  28    0.40    0.16
  -6 -10  28    1.11    0.20
  -4 -10  28    2.30    0.21
  -4 -10  28    1.97    0.26
  -2 -10  28    0.03    0.11
  -2 -10  28    0.11    0.10
   0 -10  28    2.97    0.27
   0 -10  28    3.21    0.33
   2 -10  28    0.51    0.20
  -9  -9  28    0.28    0.12
  -7  -9  28    0.35    0.14
  -5  -9  28    0.08    0.08
  -5  -9  28    0.09    0.10
  -3  -9  28    0.20    0.13
  -3  -9  28    0.15    0.09
  -1  -9  28    0.03    0.08
  -1  -9  28    0.11    0.12
   1  -9  28    2.43    0.30
   3  -9  28   -0.02    0.13
   5  -9  28   -0.11    0.15
 -10  -8  28    0.93    0.17
  -8  -8  28    1.39    0.20
  -8  -8  28    1.06    0.14
  -6  -8  28    0.28    0.11
  -6  -8  28    0.26    0.10
  -4  -8  28    2.41    0.22
  -4  -8  28    2.45    0.25
  -2  -8  28    0.10    0.09
  -2  -8  28    0.39    0.13
   0  -8  28    5.10    0.30
   0  -8  28    4.38    0.33
   2  -8  28    0.41    0.18
   4  -8  28    0.66    0.19
   6  -8  28    0.40    0.21
 -11  -7  28    0.79    0.16
  -9  -7  28    0.06    0.08
  -9  -7  28    0.04    0.04
  -7  -7  28    0.94    0.16
  -7  -7  28    0.97    0.14
  -5  -7  28    0.64    0.15
  -5  -7  28    0.70    0.13
  -3  -7  28    1.51    0.20
  -3  -7  28    1.55    0.18
  -1  -7  28    5.58    0.30
  -1  -7  28    5.01    0.33
   1  -7  28    2.29    0.26
   3  -7  28    0.02    0.15
   5  -7  28    0.18    0.16
   7  -7  28    0.91    0.24
 -12  -6  28    0.03    0.08
 -12  -6  28   -0.01    0.10
 -10  -6  28    1.61    0.20
 -10  -6  28    1.55    0.17
  -8  -6  28    2.00    0.22
  -8  -6  28    1.71    0.18
  -6  -6  28    0.99    0.14
  -6  -6  28    1.08    0.16
  -4  -6  28    1.59    0.19
  -4  -6  28    1.57    0.17
  -2  -6  28    1.61    0.19
  -2  -6  28    1.51    0.17
   0  -6  28    0.01    0.11
   0  -6  28   -0.03    0.08
   2  -6  28    0.53    0.16
   4  -6  28    2.28    0.29
   6  -6  28    1.02    0.21
   8  -6  28   -0.05    0.14
 -13  -5  28    0.33    0.13
 -13  -5  28    0.27    0.10
 -11  -5  28    0.82    0.13
 -11  -5  28    1.21    0.18
  -9  -5  28    0.31    0.09
  -9  -5  28    0.32    0.11
  -7  -5  28    2.80    0.21
  -7  -5  28    2.71    0.20
  -5  -5  28    0.04    0.08
  -5  -5  28    0.04    0.07
  -3  -5  28    0.90    0.14
  -3  -5  28    0.60    0.13
  -1  -5  28    2.93    0.22
  -1  -5  28    3.01    0.24
   1  -5  28    0.27    0.10
   1  -5  28    0.36    0.15
   3  -5  28    2.66    0.27
   5  -5  28    1.36    0.22
   7  -5  28    2.08    0.29
   9  -5  28   -0.15    0.15
 -14  -4  28   -0.13    0.07
 -14  -4  28    0.01    0.10
 -12  -4  28    0.96    0.14
 -12  -4  28    1.00    0.16
 -10  -4  28    0.62    0.13
 -10  -4  28    0.74    0.13
  -8  -4  28    0.34    0.10
  -8  -4  28    0.33    0.10
  -6  -4  28    1.77    0.18
  -6  -4  28    1.68    0.17
  -4  -4  28    1.52    0.17
  -4  -4  28    1.20    0.16
  -2  -4  28    4.66    0.27
  -2  -4  28    4.52    0.26
   0  -4  28    4.74    0.28
   0  -4  28    4.82    0.28
   2  -4  28    6.11    0.32
   2  -4  28    5.78    0.34
   4  -4  28    2.27    0.26
   6  -4  28    0.65    0.18
   8  -4  28    0.24    0.19
 -13  -3  28    0.67    0.14
 -13  -3  28    0.63    0.13
 -11  -3  28    0.81    0.14
 -11  -3  28    0.71    0.14
  -9  -3  28   -0.05    0.06
  -9  -3  28    0.00    0.07
  -7  -3  28    4.64    0.24
  -7  -3  28    4.32    0.25
  -5  -3  28    1.97    0.19
  -5  -3  28    2.06    0.16
  -3  -3  28    5.35    0.26
  -3  -3  28    5.35    0.29
  -1  -3  28    3.94    0.24
  -1  -3  28    3.81    0.24
   1  -3  28    1.48    0.17
   1  -3  28    1.29    0.17
   3  -3  28    1.97    0.23
   5  -3  28    0.84    0.18
   7  -3  28    1.61    0.25
   9  -3  28    0.07    0.15
 -14  -2  28    0.05    0.09
 -12  -2  28    0.71    0.13
 -12  -2  28    0.75    0.14
 -10  -2  28    0.23    0.09
 -10  -2  28    0.19    0.09
  -8  -2  28    6.64    0.29
  -8  -2  28    6.94    0.32
  -6  -2  28    4.03    0.24
  -6  -2  28    4.17    0.21
  -4  -2  28    1.73    0.14
  -4  -2  28    1.64    0.18
  -2  -2  28    1.45    0.15
  -2  -2  28    1.34    0.16
   0  -2  28    0.81    0.13
   0  -2  28    0.91    0.14
   2  -2  28    1.68    0.19
   2  -2  28    1.55    0.18
   4  -2  28    2.58    0.25
   6  -2  28    1.49    0.21
   8  -2  28    3.77    0.30
  10  -2  28    0.21    0.16
 -13  -1  28    0.27    0.10
 -11  -1  28    0.78    0.14
  -9  -1  28    0.27    0.09
  -7  -1  28    0.53    0.11
  -7  -1  28    0.62    0.10
  -5  -1  28    0.88    0.10
  -5  -1  28    0.75    0.13
  -3  -1  28    0.60    0.09
  -3  -1  28    0.57    0.11
  -1  -1  28   13.42    0.49
  -1  -1  28   13.28    0.44
   1  -1  28   -0.04    0.06
   1  -1  28    0.12    0.09
   3  -1  28    5.13    0.28
   3  -1  28    4.47    0.27
   5  -1  28    0.17    0.11
   7  -1  28    1.26    0.20
   9  -1  28    0.31    0.16
 -14   0  28    0.22    0.11
 -12   0  28    1.08    0.16
 -10   0  28    2.75    0.21
  -8   0  28    8.71    0.37
  -6   0  28    0.31    0.10
  -4   0  28    1.06    0.14
  -2   0  28   13.23    0.49
   0   0  28    5.33    0.24
   0   0  28    5.04    0.27
   2   0  28    0.10    0.09
   2   0  28    0.20    0.09
   4   0  28   11.19    0.45
   4   0  28   12.05    0.47
   6   0  28    9.46    0.41
   6   0  28    8.47    0.41
   8   0  28    5.70    0.35
  10   0  28    1.19    0.23
 -13   1  28    0.16    0.11
 -11   1  28    0.38    0.12
  -9   1  28    0.29    0.09
  -7   1  28    0.72    0.12
  -5   1  28    0.79    0.13
  -3   1  28    0.61    0.12
  -1   1  28   13.34    0.49
   1   1  28   -0.03    0.06
   3   1  28    4.70    0.29
   3   1  28    4.51    0.26
   5   1  28    0.31    0.11
   5   1  28    0.25    0.10
   7   1  28    1.11    0.16
   7   1  28    1.09    0.18
   9   1  28    0.35    0.15
 -14   2  28   -0.14    0.08
 -12   2  28    0.85    0.16
 -10   2  28    0.29    0.10
  -8   2  28    6.62    0.33
  -6   2  28    3.57    0.23
  -4   2  28    1.70    0.18
  -2   2  28    1.41    0.16
   0   2  28    1.00    0.14
   2   2  28    1.65    0.17
   4   2  28    2.48    0.19
   6   2  28    1.72    0.19
   8   2  28    4.20    0.27
  10   2  28    0.01    0.08
 -13   3  28    0.45    0.13
 -11   3  28    0.74    0.14
  -9   3  28   -0.07    0.07
  -7   3  28    4.18    0.25
  -5   3  28    1.74    0.17
  -3   3  28    4.86    0.26
  -1   3  28    3.53    0.22
   1   3  28    1.58    0.17
   3   3  28    1.69    0.18
   5   3  28    0.56    0.11
   7   3  28    1.49    0.17
   9   3  28    0.10    0.08
 -14   4  28   -0.08    0.10
 -12   4  28    1.06    0.17
 -10   4  28    0.68    0.14
  -8   4  28    0.37    0.11
  -6   4  28    1.53    0.17
  -4   4  28    1.09    0.15
  -2   4  28    4.35    0.25
   0   4  28    4.39    0.25
   2   4  28    5.28    0.27
   4   4  28    2.08    0.19
   6   4  28    0.47    0.11
   8   4  28    0.10    0.08
 -13   5  28    0.35    0.13
 -11   5  28    1.00    0.16
  -9   5  28    0.45    0.12
  -7   5  28    3.27    0.23
  -5   5  28    0.07    0.07
  -3   5  28    0.62    0.12
  -1   5  28    2.85    0.20
   1   5  28    0.32    0.09
   3   5  28    3.24    0.21
   5   5  28    1.24    0.15
   7   5  28    1.74    0.18
   9   5  28    0.00    0.08
 -12   6  28   -0.01    0.09
 -10   6  28    1.67    0.20
  -8   6  28    1.55    0.19
  -6   6  28    0.89    0.14
  -4   6  28    1.35    0.17
  -2   6  28    1.60    0.17
   0   6  28    0.04    0.07
   2   6  28    0.33    0.10
   4   6  28    2.32    0.18
   6   6  28    0.87    0.13
   6   6  28    0.82    0.14
   8   6  28    0.12    0.08
 -11   7  28    0.90    0.16
  -9   7  28    0.03    0.05
  -9   7  28    0.08    0.09
  -7   7  28    0.91    0.15
  -5   7  28    0.68    0.13
  -3   7  28    1.76    0.18
  -1   7  28    5.39    0.28
   1   7  28    2.11    0.20
   1   7  28    2.08    0.19
   3   7  28    0.08    0.07
   3   7  28    0.10    0.08
   5   7  28    0.36    0.11
   7   7  28    0.66    0.14
 -10   8  28    0.65    0.14
  -8   8  28    1.18    0.18
  -8   8  28    0.97    0.14
  -6   8  28    0.22    0.10
  -6   8  28    0.35    0.10
  -4   8  28    3.10    0.22
  -4   8  28    2.59    0.21
  -2   8  28    0.07    0.08
  -2   8  28    0.05    0.08
   0   8  28    4.31    0.25
   0   8  28    4.09    0.27
   2   8  28    0.35    0.11
   2   8  28    0.31    0.09
   4   8  28    0.77    0.14
   6   8  28    0.54    0.13
  -9   9  28    0.24    0.12
  -9   9  28    0.00    0.05
  -7   9  28    0.40    0.11
  -7   9  28    0.23    0.11
  -5   9  28   -0.03    0.08
  -5   9  28    0.03    0.07
  -3   9  28    0.23    0.10
  -3   9  28    0.16    0.09
  -1   9  28    0.17    0.09
  -1   9  28    0.17    0.09
   1   9  28    1.65    0.19
   1   9  28    2.02    0.24
   3   9  28   -0.08    0.07
  -6  10  28    1.05    0.16
  -6  10  28    1.60    0.20
  -4  10  28    1.65    0.19
  -4  10  28    2.15    0.22
  -2  10  28    0.11    0.09
  -2  10  28    0.13    0.09
   0  10  28    3.03    0.24
   2  10  28    0.22    0.10
  -3  11  28    0.05    0.09
  -6 -10  29    0.25    0.13
  -4 -10  29    0.19    0.13
  -4 -10  29    0.09    0.09
  -2 -10  29    0.29    0.11
  -2 -10  29    0.18    0.12
   0 -10  29    1.03    0.22
   0 -10  29    0.98    0.17
  -9  -9  29    1.07    0.19
  -7  -9  29    0.27    0.11
  -7  -9  29    0.10    0.10
  -5  -9  29    1.52    0.21
  -5  -9  29    1.86    0.19
  -3  -9  29    0.50    0.13
  -3  -9  29    0.55    0.15
  -1  -9  29    0.22    0.11
  -1  -9  29    0.29    0.14
   1  -9  29    2.98    0.32
   3  -9  29    0.08    0.14
 -10  -8  29    1.09    0.18
  -8  -8  29    0.08    0.10
  -8  -8  29    0.01    0.05
  -6  -8  29   -0.01    0.07
  -6  -8  29    0.08    0.10
  -4  -8  29    0.03    0.10
  -4  -8  29    0.05    0.08
  -2  -8  29    2.46    0.23
  -2  -8  29    2.10    0.25
   0  -8  29    0.26    0.11
   0  -8  29    0.31    0.15
   2  -8  29    1.02    0.22
   4  -8  29   -0.06    0.15
 -11  -7  29    1.04    0.24
  -9  -7  29    0.60    0.14
  -9  -7  29    0.21    0.08
  -7  -7  29    0.42    0.13
  -7  -7  29    0.26    0.09
  -5  -7  29    1.37    0.17
  -5  -7  29    1.71    0.20
  -3  -7  29    2.36    0.24
  -3  -7  29    2.00    0.20
  -1  -7  29    2.33    0.25
  -1  -7  29    2.35    0.23
   1  -7  29    1.55    0.19
   1  -7  29    1.30    0.21
   3  -7  29    3.43    0.34
   5  -7  29    1.04    0.24
 -12  -6  29    0.21    0.12
 -12  -6  29   -0.02    0.05
 -10  -6  29    0.83    0.14
 -10  -6  29    0.93    0.17
  -8  -6  29    0.39    0.12
  -8  -6  29    0.72    0.13
  -6  -6  29    0.41    0.11
  -6  -6  29    0.18    0.09
  -4  -6  29    0.67    0.14
  -4  -6  29    0.72    0.13
  -2  -6  29    1.36    0.17
  -2  -6  29    1.72    0.21
   0  -6  29    2.40    0.22
   0  -6  29    2.57    0.26
   2  -6  29    1.53    0.23
   4  -6  29    1.58    0.25
   6  -6  29    0.72    0.20
 -13  -5  29    0.11    0.11
 -13  -5  29    0.12    0.08
 -11  -5  29    0.53    0.12
 -11  -5  29    0.66    0.14
  -9  -5  29    1.58    0.17
  -9  -5  29    1.64    0.19
  -7  -5  29    1.49    0.18
  -7  -5  29    1.52    0.17
  -5  -5  29    1.16    0.15
  -5  -5  29    1.03    0.15
  -3  -5  29    1.92    0.20
  -3  -5  29    2.16    0.21
  -1  -5  29    1.90    0.21
  -1  -5  29    1.92    0.20
   1  -5  29    0.52    0.15
   1  -5  29    0.42    0.11
   3  -5  29    1.99    0.25
   5  -5  29    1.75    0.25
   7  -5  29    1.58    0.26
 -12  -4  29    0.51    0.12
 -12  -4  29    0.51    0.12
 -10  -4  29    0.93    0.15
 -10  -4  29    1.33    0.17
  -8  -4  29    1.39    0.17
  -8  -4  29    1.15    0.16
  -6  -4  29    1.70    0.18
  -6  -4  29    1.44    0.16
  -4  -4  29    3.16    0.21
  -4  -4  29    3.01    0.22
  -2  -4  29    1.75    0.18
  -2  -4  29    1.45    0.17
   0  -4  29    1.22    0.18
   0  -4  29    1.28    0.16
   2  -4  29    2.31    0.24
   2  -4  29    2.75    0.22
   4  -4  29    1.58    0.23
   6  -4  29    0.53    0.18
   8  -4  29    0.88    0.21
 -13  -3  29   -0.04    0.07
 -13  -3  29    0.00    0.08
 -11  -3  29    1.51    0.17
 -11  -3  29    1.35    0.17
  -9  -3  29    0.68    0.13
  -9  -3  29    0.68    0.12
  -7  -3  29   11.38    0.43
  -7  -3  29   11.77    0.45
  -5  -3  29    0.29    0.09
  -5  -3  29    0.17    0.08
  -3  -3  29    3.56    0.23
  -3  -3  29    3.14    0.21
  -1  -3  29    3.94    0.25
  -1  -3  29    3.54    0.23
   1  -3  29    1.02    0.16
   1  -3  29    1.03    0.15
   3  -3  29    1.99    0.23
   3  -3  29    1.83    0.20
   5  -3  29    0.06    0.11
   7  -3  29    1.91    0.27
   9  -3  29    0.06    0.16
 -14  -2  29    0.05    0.09
 -12  -2  29    0.09    0.08
 -10  -2  29    0.18    0.09
  -8  -2  29    2.30    0.19
  -8  -2  29    1.92    0.16
  -6  -2  29    2.08    0.15
  -6  -2  29    2.13    0.20
  -4  -2  29    2.14    0.16
  -4  -2  29    2.07    0.20
  -2  -2  29    2.93    0.20
  -2  -2  29    3.66    0.23
   0  -2  29    4.99    0.28
   0  -2  29    5.07    0.27
   2  -2  29    0.53    0.14
   2  -2  29    0.48    0.12
   4  -2  29    2.18    0.21
   4  -2  29    2.10    0.23
   6  -2  29   -0.13    0.12
   8  -2  29    1.16    0.22
 -13  -1  29    0.22    0.10
 -11  -1  29    6.49    0.33
  -9  -1  29    0.03    0.08
  -7  -1  29    7.22    0.34
  -5  -1  29    1.97    0.19
  -3  -1  29    5.07    0.27
  -3  -1  29    5.06    0.23
  -1  -1  29    2.06    0.17
  -1  -1  29    2.42    0.19
   1  -1  29    1.51    0.18
   1  -1  29    1.90    0.18
   3  -1  29    3.87    0.25
   3  -1  29    3.88    0.26
   5  -1  29    1.09    0.16
   5  -1  29    0.94    0.17
   7  -1  29    2.68    0.27
   9  -1  29    1.25    0.22
 -14   0  29   -0.05    0.07
 -12   0  29   -0.05    0.08
 -10   0  29    0.13    0.09
  -8   0  29    0.05    0.07
  -6   0  29    0.00    0.07
  -4   0  29    0.01    0.07
  -2   0  29   -0.04    0.07
   0   0  29    0.03    0.07
   2   0  29   -0.07    0.06
   2   0  29    0.09    0.09
   4   0  29   -0.04    0.09
   4   0  29    0.11    0.08
   6   0  29   -0.03    0.10
   6   0  29   -0.01    0.07
   8   0  29   -0.14    0.11
 -13   1  29    0.22    0.11
 -11   1  29    6.76    0.34
  -9   1  29    0.10    0.08
  -7   1  29    7.84    0.36
  -5   1  29    1.41    0.16
  -3   1  29    5.95    0.30
  -1   1  29    2.44    0.19
   1   1  29    1.64    0.18
   3   1  29    3.83    0.24
   5   1  29    1.02    0.15
   7   1  29    3.13    0.24
   7   1  29    3.60    0.30
   9   1  29    1.71    0.23
 -14   2  29    0.12    0.11
 -12   2  29    0.17    0.10
 -10   2  29    0.22    0.10
  -6   2  29    2.22    0.20
  -4   2  29    1.62    0.17
  -2   2  29    3.02    0.21
   0   2  29    5.29    0.28
   2   2  29    0.44    0.11
   4   2  29    2.17    0.20
   6   2  29    0.05    0.07
   8   2  29    0.85    0.15
 -13   3  29    0.04    0.10
 -11   3  29    1.34    0.18
  -9   3  29    0.65    0.13
  -7   3  29   11.19    0.45
  -5   3  29    0.11    0.08
  -3   3  29    3.11    0.21
  -1   3  29    3.87    0.24
   1   3  29    0.83    0.14
   3   3  29    2.18    0.20
   5   3  29   -0.02    0.07
   7   3  29    1.85    0.19
   9   3  29    0.27    0.11
 -12   4  29    0.45    0.13
 -10   4  29    0.90    0.15
  -8   4  29    1.57    0.19
  -6   4  29    1.63    0.18
  -4   4  29    3.14    0.22
  -2   4  29    1.72    0.18
   0   4  29    1.18    0.15
   2   4  29    2.54    0.19
   4   4  29    1.43    0.17
   6   4  29    0.74    0.13
   8   4  29    0.94    0.15
 -13   5  29    0.06    0.11
 -11   5  29    0.38    0.12
  -9   5  29    1.46    0.18
  -7   5  29    1.53    0.19
  -5   5  29    0.86    0.14
  -3   5  29    1.82    0.19
  -1   5  29    1.77    0.18
   1   5  29    0.40    0.10
   3   5  29    1.68    0.17
   5   5  29    1.68    0.17
   7   5  29    1.09    0.15
 -12   6  29    0.27    0.12
 -10   6  29    0.77    0.16
  -8   6  29    0.84    0.15
  -6   6  29    0.31    0.11
  -4   6  29    0.64    0.12
  -2   6  29    1.43    0.17
   0   6  29    2.29    0.20
   2   6  29    1.46    0.16
   4   6  29    0.99    0.14
   6   6  29    1.04    0.18
   6   6  29    0.77    0.14
 -11   7  29    0.95    0.17
  -9   7  29    0.59    0.11
  -9   7  29    0.56    0.14
  -7   7  29    0.55    0.13
  -5   7  29    1.40    0.18
  -3   7  29    2.33    0.21
  -1   7  29    2.58    0.20
   1   7  29    1.45    0.16
   3   7  29    2.70    0.22
   3   7  29    2.91    0.21
   5   7  29    1.14    0.17
 -10   8  29    1.20    0.19
  -8   8  29    0.11    0.10
  -8   8  29    0.13    0.08
  -6   8  29   -0.02    0.08
  -6   8  29    0.09    0.08
  -4   8  29   -0.02    0.07
  -4   8  29    0.08    0.08
  -2   8  29    1.96    0.21
  -2   8  29    2.21    0.20
   0   8  29    0.12    0.08
   0   8  29    0.13    0.09
   2   8  29    0.72    0.12
   2   8  29    0.57    0.13
   4   8  29   -0.08    0.07
  -7   9  29    0.05    0.09
  -7   9  29    0.05    0.09
  -5   9  29    1.92    0.21
  -5   9  29    1.80    0.20
  -3   9  29    0.39    0.11
  -3   9  29    0.34    0.10
  -1   9  29    0.18    0.09
  -1   9  29    0.23    0.10
   1   9  29    2.89    0.23
   3   9  29    0.17    0.09
  -6  10  29    0.14    0.09
  -6  10  29    0.29    0.12
  -4  10  29    0.16    0.10
  -4  10  29    0.11    0.09
  -2  10  29    0.20    0.10
  -2  10  29    0.15    0.10
   0  10  29    1.10    0.17
  -4 -10  30    1.92    0.25
  -4 -10  30    2.04    0.21
  -2 -10  30    0.09    0.12
  -2 -10  30    0.00    0.09
   0 -10  30    2.12    0.24
   0 -10  30    2.01    0.27
  -7  -9  30    0.29    0.13
  -7  -9  30    0.05    0.06
  -5  -9  30    0.33    0.11
  -5  -9  30    0.42    0.14
  -3  -9  30    0.05    0.10
  -3  -9  30    0.04    0.08
  -1  -9  30    1.60    0.24
  -1  -9  30    1.42    0.20
   1  -9  30    0.60    0.15
   1  -9  30    0.74    0.19
   3  -9  30    0.43    0.20
  -8  -8  30    1.09    0.19
  -6  -8  30    0.04    0.09
  -6  -8  30   -0.01    0.07
  -4  -8  30    2.34    0.26
  -4  -8  30    1.86    0.20
  -2  -8  30    0.05    0.12
  -2  -8  30    0.03    0.09
   0  -8  30    4.22    0.33
   0  -8  30    3.80    0.28
   2  -8  30    0.76    0.21
   4  -8  30    1.73    0.28
 -11  -7  30    0.39    0.14
  -9  -7  30    0.20    0.09
  -9  -7  30    0.10    0.10
  -7  -7  30    0.97    0.17
  -7  -7  30    0.93    0.14
  -5  -7  30    0.16    0.09
  -5  -7  30    0.19    0.10
  -3  -7  30    2.00    0.23
  -3  -7  30    1.84    0.20
  -1  -7  30    7.05    0.39
  -1  -7  30    7.07    0.36
   1  -7  30    0.39    0.15
   1  -7  30    0.23    0.11
   3  -7  30    0.19    0.16
   5  -7  30    0.38    0.19
 -12  -6  30    0.00    0.05
 -12  -6  30   -0.04    0.10
 -10  -6  30    0.95    0.14
 -10  -6  30    0.91    0.17
  -8  -6  30    1.59    0.20
  -8  -6  30    1.35    0.17
  -6  -6  30    0.27    0.11
  -6  -6  30    0.33    0.10
  -4  -6  30    0.76    0.13
  -4  -6  30    1.16    0.17
  -2  -6  30    2.11    0.21
  -2  -6  30    2.17    0.23
   0  -6  30    2.67    0.27
   0  -6  30    2.22    0.23
   2  -6  30    0.76    0.15
   2  -6  30    0.96    0.19
   4  -6  30    1.20    0.22
   6  -6  30    1.63    0.27
 -11  -5  30    0.92    0.16
 -11  -5  30    0.78    0.14
  -9  -5  30    0.92    0.15
  -9  -5  30    0.68    0.13
  -7  -5  30    4.71    0.28
  -7  -5  30    4.63    0.27
  -5  -5  30    0.63    0.13
  -5  -5  30    0.64    0.13
  -3  -5  30    2.11    0.21
  -3  -5  30    2.08    0.21
  -1  -5  30    0.57    0.13
  -1  -5  30    0.55    0.14
   1  -5  30    1.65    0.20
   1  -5  30    1.80    0.23
   3  -5  30    1.54    0.24
   5  -5  30    2.90    0.32
   7  -5  30    1.25    0.23
 -12  -4  30    0.44    0.11
 -12  -4  30    0.40    0.12
 -10  -4  30    1.64    0.19
 -10  -4  30    1.69    0.19
  -8  -4  30    0.28    0.10
  -8  -4  30    0.23    0.09
  -6  -4  30    4.37    0.26
  -6  -4  30    4.49    0.26
  -4  -4  30    0.57    0.12
  -4  -4  30    0.56    0.12
  -2  -4  30    1.73    0.20
  -2  -4  30    1.55    0.18
   0  -4  30    0.42    0.13
   0  -4  30    0.26    0.10
   2  -4  30    2.11    0.22
   2  -4  30    1.95    0.23
   4  -4  30    4.51    0.34
   6  -4  30    0.74    0.19
   8  -4  30    0.86    0.27
 -13  -3  30    0.37    0.12
 -11  -3  30    0.53    0.16
 -11  -3  30    0.41    0.11
  -9  -3  30    0.33    0.09
  -9  -3  30    0.42    0.12
  -7  -3  30    4.39    0.26
  -7  -3  30    3.84    0.23
  -5  -3  30    1.62    0.16
  -5  -3  30    1.37    0.17
  -3  -3  30    0.45    0.11
  -3  -3  30    0.52    0.11
  -1  -3  30    3.98    0.25
  -1  -3  30    3.22    0.23
   1  -3  30    1.29    0.17
   1  -3  30    1.61    0.19
   3  -3  30    4.88    0.32
   3  -3  30    4.41    0.28
   5  -3  30    0.21    0.13
   7  -3  30    0.83    0.21
 -14  -2  30    0.13    0.10
 -12  -2  30    0.68    0.13
 -10  -2  30    1.47    0.18
  -8  -2  30    1.51    0.17
  -6  -2  30    3.34    0.23
  -6  -2  30    3.81    0.24
  -4  -2  30    0.16    0.08
  -4  -2  30    0.09    0.06
  -2  -2  30    9.14    0.40
  -2  -2  30    9.13    0.36
   0  -2  30    1.16    0.15
   0  -2  30    1.64    0.19
   2  -2  30    3.40    0.24
   2  -2  30    3.32    0.25
   4  -2  30    3.34    0.27
   4  -2  30    2.95    0.23
   6  -2  30    0.50    0.15
   8  -2  30    2.54    0.29
 -13  -1  30    0.22    0.11
 -11  -1  30    0.35    0.11
  -9  -1  30    0.28    0.10
  -7  -1  30    0.66    0.13
  -5  -1  30    1.03    0.15
  -3  -1  30    4.39    0.26
  -1  -1  30    5.15    0.29
   1  -1  30    0.38    0.11
   1  -1  30    0.42    0.11
   3  -1  30    0.02    0.10
   3  -1  30    0.02    0.08
   5  -1  30    0.62    0.15
   5  -1  30    0.67    0.14
   7  -1  30    0.22    0.15
   9  -1  30   -0.09    0.15
 -14   0  30    0.14    0.10
 -12   0  30    1.36    0.18
 -10   0  30   11.80    0.47
  -8   0  30    2.63    0.23
  -6   0  30    9.78    0.41
  -4   0  30    1.32    0.17
  -2   0  30    6.08    0.31
   0   0  30    2.46    0.22
   2   0  30    6.12    0.32
   4   0  30    6.38    0.33
   6   0  30    1.11    0.18
   6   0  30    1.51    0.19
   8   0  30    0.66    0.17
 -13   1  30    0.18    0.10
 -11   1  30    0.35    0.12
  -9   1  30    0.15    0.09
  -7   1  30    0.63    0.13
  -5   1  30    0.92    0.14
  -3   1  30    3.88    0.24
  -1   1  30    5.22    0.28
   1   1  30    0.35    0.10
   3   1  30    0.02    0.07
   5   1  30    0.66    0.13
   7   1  30    0.08    0.09
   9   1  30    0.19    0.10
 -14   2  30    0.10    0.11
 -12   2  30    0.61    0.14
 -10   2  30    1.51    0.19
  -8   2  30    1.42    0.17
  -6   2  30    3.60    0.24
  -4   2  30    0.00    0.07
  -2   2  30    8.28    0.37
   0   2  30    1.18    0.16
   2   2  30    3.43    0.23
   4   2  30    3.42    0.24
   6   2  30    0.14    0.09
   8   2  30    2.61    0.24
 -13   3  30    0.24    0.12
 -11   3  30    0.34    0.13
  -9   3  30    0.26    0.10
  -7   3  30    3.69    0.25
  -5   3  30    1.49    0.17
  -3   3  30    0.53    0.11
  -1   3  30    3.25    0.22
   1   3  30    1.36    0.16
   3   3  30    4.09    0.26
   5   3  30    0.30    0.11
   7   3  30    0.74    0.14
 -12   4  30    0.40    0.12
 -10   4  30    1.85    0.21
  -8   4  30    0.33    0.11
  -6   4  30    4.74    0.28
  -4   4  30    0.50    0.12
  -2   4  30    1.65    0.18
   0   4  30    0.31    0.10
   2   4  30    2.30    0.21
   4   4  30    3.38    0.23
   6   4  30    0.86    0.14
   8   4  30    0.77    0.14
 -11   5  30    0.72    0.15
  -9   5  30    0.84    0.15
  -7   5  30    4.28    0.27
  -5   5  30    0.61    0.13
  -3   5  30    2.41    0.20
  -1   5  30    0.66    0.12
   1   5  30    1.47    0.17
   3   5  30    1.44    0.17
   5   5  30    2.38    0.21
   7   5  30    1.21    0.16
 -12   6  30    0.07    0.11
 -10   6  30    0.80    0.16
  -8   6  30    1.45    0.19
  -6   6  30    0.13    0.09
  -4   6  30    1.16    0.16
  -2   6  30    2.01    0.20
   0   6  30    2.26    0.21
   2   6  30    0.90    0.14
   4   6  30    1.17    0.15
   6   6  30    1.49    0.18
 -11   7  30    0.34    0.13
  -9   7  30    0.10    0.10
  -9   7  30    0.20    0.08
  -7   7  30    0.88    0.16
  -5   7  30    0.05    0.08
  -3   7  30    1.93    0.20
  -1   7  30    6.56    0.32
   1   7  30    0.41    0.11
   3   7  30    0.17    0.09
   3   7  30    0.01    0.07
   5   7  30    0.33    0.11
  -8   8  30    1.23    0.17
  -8   8  30    1.12    0.17
  -6   8  30   -0.04    0.06
  -6   8  30   -0.17    0.06
  -4   8  30    1.83    0.19
  -4   8  30    2.22    0.21
  -2   8  30    0.11    0.08
  -2   8  30    0.18    0.09
   0   8  30    3.60    0.25
   0   8  30    3.72    0.24
   2   8  30    0.62    0.13
   2   8  30    0.49    0.11
   4   8  30    1.76    0.21
  -7   9  30    0.06    0.10
  -7   9  30    0.39    0.11
  -5   9  30    0.26    0.10
  -5   9  30    0.21    0.10
  -3   9  30    0.04    0.09
  -3   9  30    0.05    0.08
  -1   9  30    0.97    0.16
  -1   9  30    1.11    0.16
   1   9  30    0.60    0.13
   3   9  30    0.12    0.09
  -4  10  30    1.54    0.20
  -4  10  30    1.92    0.21
  -2  10  30    0.20    0.09
  -2  10  30   -0.01    0.08
  -7  -9  31   -0.03    0.05
  -7  -9  31    0.20    0.12
  -5  -9  31    2.29    0.26
  -5  -9  31    2.13    0.22
  -3  -9  31    2.10    0.26
  -3  -9  31    2.22    0.23
  -1  -9  31    0.53    0.17
  -1  -9  31    0.31    0.12
   1  -9  31    3.99    0.39
   1  -9  31    4.38    0.31
  -8  -8  31    0.01    0.10
  -8  -8  31    0.07    0.09
  -6  -8  31    0.05    0.09
  -6  -8  31    0.18    0.11
  -4  -8  31    0.25    0.13
  -4  -8  31   -0.03    0.09
  -2  -8  31    1.26    0.18
  -2  -8  31    1.74    0.23
   0  -8  31    0.96    0.20
   0  -8  31    1.08    0.17
   2  -8  31    0.51    0.19
   4  -8  31    0.30    0.17
  -9  -7  31    1.49    0.20
  -9  -7  31    1.32    0.17
  -7  -7  31    1.19    0.16
  -7  -7  31    0.97    0.17
  -5  -7  31    0.05    0.08
  -5  -7  31    0.06    0.10
  -3  -7  31    1.59    0.19
  -3  -7  31    1.54    0.22
  -1  -7  31    0.24    0.11
  -1  -7  31    0.42    0.15
   1  -7  31    2.20    0.27
   1  -7  31    2.39    0.25
   3  -7  31    0.02    0.16
   5  -7  31    1.54    0.26
 -10  -6  31    0.78    0.14
 -10  -6  31    0.77    0.15
  -8  -6  31    0.25    0.10
  -8  -6  31    0.28    0.10
  -6  -6  31    2.25    0.23
  -6  -6  31    2.14    0.21
  -4  -6  31    0.37    0.11
  -4  -6  31    0.19    0.11
  -2  -6  31    1.85    0.20
  -2  -6  31    2.10    0.23
   0  -6  31    1.27    0.21
   0  -6  31    0.89    0.16
   2  -6  31    0.85    0.16
   2  -6  31    1.38    0.23
   4  -6  31    0.52    0.17
   6  -6  31    0.89    0.22
 -11  -5  31    0.18    0.12
 -11  -5  31    0.14    0.09
  -9  -5  31    0.52    0.12
  -9  -5  31    0.34    0.11
  -7  -5  31    1.28    0.17
  -7  -5  31    1.24    0.17
  -5  -5  31    1.44    0.17
  -5  -5  31    1.19    0.16
  -3  -5  31    0.68    0.14
  -1  -5  31    2.14    0.22
  -1  -5  31    2.54    0.24
   1  -5  31    1.21    0.18
   1  -5  31    0.81    0.17
   3  -5  31    0.33    0.17
   5  -5  31    0.59    0.21
   7  -5  31    0.71    0.23
 -12  -4  31    0.04    0.08
 -10  -4  31    1.18    0.16
 -10  -4  31    1.15    0.17
  -8  -4  31    1.57    0.18
  -8  -4  31    1.50    0.18
  -6  -4  31    4.74    0.27
  -6  -4  31    4.76    0.28
  -4  -4  31    1.84    0.19
  -4  -4  31    1.47    0.17
  -2  -4  31    0.18    0.10
  -2  -4  31    0.33    0.11
   0  -4  31    1.60    0.20
   0  -4  31    1.21    0.17
   2  -4  31    0.43    0.12
   2  -4  31    0.46    0.15
   4  -4  31   -0.06    0.13
   6  -4  31    1.00    0.21
 -13  -3  31    0.15    0.10
 -11  -3  31    0.68    0.13
  -9  -3  31    0.45    0.12
  -7  -3  31    3.39    0.21
  -7  -3  31    3.25    0.23
  -5  -3  31    1.33    0.15
  -5  -3  31    0.85    0.14
  -3  -3  31    0.79    0.12
  -3  -3  31    0.56    0.12
  -1  -3  31    3.31    0.24
  -1  -3  31    2.83    0.22
   1  -3  31    2.28    0.22
   1  -3  31    1.99    0.22
   3  -3  31    3.97    0.30
   3  -3  31    3.15    0.25
   5  -3  31    0.28    0.15
   7  -3  31    0.22    0.15
 -12  -2  31    0.17    0.10
 -10  -2  31    0.31    0.10
  -6  -2  31    1.55    0.18
  -4  -2  31    0.66    0.12
  -2  -2  31    1.81    0.20
  -2  -2  31    1.88    0.18
   0  -2  31    6.11    0.32
   0  -2  31    6.01    0.30
   2  -2  31    0.39    0.11
   2  -2  31    0.53    0.14
   4  -2  31    1.18    0.18
   4  -2  31    1.61    0.22
   6  -2  31    0.04    0.14
   8  -2  31    0.36    0.17
 -13  -1  31    0.11    0.10
 -11  -1  31    2.17    0.22
  -9  -1  31    2.71    0.22
  -7  -1  31    3.40    0.24
  -5  -1  31    4.61    0.27
  -3  -1  31    0.27    0.10
  -1  -1  31    7.22    0.35
   1  -1  31    0.64    0.13
   3  -1  31   13.23    0.53
   3  -1  31   13.90    0.54
   5  -1  31    1.02    0.17
   5  -1  31    1.15    0.18
   7  -1  31    1.88    0.25
 -12   0  31    0.15    0.10
 -10   0  31    0.14    0.09
  -8   0  31   -0.04    0.07
  -6   0  31    0.05    0.09
  -4   0  31   -0.04    0.07
  -2   0  31    0.04    0.07
   0   0  31    0.03    0.07
   2   0  31    0.06    0.08
   4   0  31    0.04    0.08
   6   0  31   -0.02    0.08
   8   0  31    0.03    0.09
 -13   1  31    0.17    0.11
 -11   1  31    2.92    0.23
  -9   1  31    2.50    0.23
  -7   1  31    3.36    0.24
  -5   1  31    4.73    0.27
  -3   1  31    0.35    0.11
  -1   1  31    7.76    0.36
   1   1  31    0.85    0.14
   3   1  31   13.10    0.51
   5   1  31    0.89    0.15
   7   1  31    1.75    0.20
 -12   2  31    0.19    0.10
 -10   2  31    0.23    0.11
  -8   2  31    0.04    0.08
  -6   2  31    1.38    0.17
  -4   2  31    0.48    0.12
  -2   2  31    1.84    0.19
   0   2  31    5.94    0.31
   2   2  31    0.44    0.12
   4   2  31    1.61    0.19
   6   2  31    0.03    0.08
   8   2  31    0.21    0.11
 -13   3  31   -0.02    0.09
 -11   3  31    1.10    0.17
  -9   3  31    0.32    0.12
  -7   3  31    3.46    0.24
  -5   3  31    1.20    0.16
  -3   3  31    0.67    0.13
  -1   3  31    3.31    0.23
   1   3  31    2.14    0.21
   3   3  31    3.25    0.24
   5   3  31    0.54    0.12
   7   3  31    0.60    0.13
 -12   4  31    0.09    0.10
 -10   4  31    1.14    0.18
  -8   4  31    1.76    0.20
  -6   4  31    4.51    0.28
  -4   4  31    1.23    0.16
  -2   4  31    0.22    0.10
   0   4  31    1.43    0.17
   2   4  31    0.57    0.12
   4   4  31    0.12    0.09
   6   4  31    0.87    0.14
 -11   5  31    0.23    0.11
  -9   5  31    0.48    0.13
  -7   5  31    1.49    0.19
  -5   5  31    1.40    0.18
  -3   5  31    0.81    0.14
  -1   5  31    2.21    0.21
   1   5  31    0.89    0.14
   3   5  31    0.27    0.10
   5   5  31    0.56    0.12
   7   5  31    0.71    0.14
 -10   6  31    0.70    0.15
  -8   6  31    0.15    0.10
  -6   6  31    2.00    0.21
  -4   6  31    0.30    0.11
  -2   6  31    2.02    0.20
   0   6  31    1.15    0.15
   2   6  31    1.24    0.16
   4   6  31    0.36    0.10
   6   6  31    0.54    0.13
  -9   7  31    1.16    0.15
  -9   7  31    1.40    0.20
  -7   7  31    1.23    0.18
  -5   7  31    0.07    0.09
  -3   7  31    1.73    0.19
  -1   7  31    0.32    0.11
   1   7  31    1.83    0.19
   3   7  31    0.07    0.08
   3   7  31    0.09    0.08
   5   7  31    0.99    0.16
  -8   8  31   -0.06    0.08
  -8   8  31    0.11    0.09
  -6   8  31    0.12    0.10
  -6   8  31    0.13    0.09
  -4   8  31    0.11    0.09
  -4   8  31   -0.03    0.08
  -2   8  31    1.40    0.17
  -2   8  31    1.17    0.16
   0   8  31    1.14    0.16
   0   8  31    1.27    0.18
   2   8  31    0.64    0.12
   2   8  31    0.71    0.14
  -7   9  31    0.25    0.11
  -5   9  31    2.07    0.22
  -5   9  31    2.41    0.24
  -3   9  31    1.75    0.20
  -3   9  31    1.86    0.20
  -1   9  31    0.46    0.12
  -1   9  31    0.15    0.10
   1   9  31    3.67    0.27
  -5  -9  32    0.06    0.10
  -5  -9  32   -0.04    0.08
  -3  -9  32    0.07    0.10
  -3  -9  32    0.07    0.12
  -1  -9  32    0.34    0.13
  -1  -9  32    0.34    0.16
  -8  -8  32    1.27    0.17
  -8  -8  32    1.34    0.21
  -6  -8  32   -0.10    0.08
  -6  -8  32    0.18    0.11
  -4  -8  32    2.75    0.29
  -4  -8  32    2.43    0.24
  -2  -8  32    0.87    0.18
  -2  -8  32    0.62    0.14
   0  -8  32    0.60    0.18
   0  -8  32    0.61    0.15
   2  -8  32    0.99    0.23
   2  -8  32    1.11    0.19
  -9  -7  32    1.36    0.17
  -9  -7  32    1.52    0.21
  -7  -7  32    0.64    0.15
  -7  -7  32    0.41    0.12
  -5  -7  32    0.59    0.14
  -5  -7  32    0.24    0.10
  -3  -7  32    0.59    0.14
  -3  -7  32    0.53    0.13
  -1  -7  32    1.50    0.20
  -1  -7  32    1.23    0.21
   1  -7  32    0.14    0.12
   1  -7  32    0.05    0.14
   3  -7  32    0.60    0.19
 -10  -6  32    0.34    0.12
 -10  -6  32    0.37    0.12
  -8  -6  32    1.25    0.18
  -8  -6  32    1.41    0.17
  -6  -6  32    0.60    0.13
  -6  -6  32    0.70    0.14
  -4  -6  32    0.89    0.16
  -4  -6  32    0.95    0.16
  -2  -6  32    0.32    0.13
  -2  -6  32    0.23    0.10
   0  -6  32    1.11    0.20
   0  -6  32    1.08    0.17
   2  -6  32    1.30    0.19
   2  -6  32    0.95    0.21
   4  -6  32    0.11    0.17
 -11  -5  32    0.19    0.12
 -11  -5  32    0.26    0.11
  -9  -5  32    0.53    0.12
  -9  -5  32    0.78    0.15
  -7  -5  32    2.23    0.22
  -7  -5  32    2.02    0.21
  -5  -5  32    3.44    0.24
  -5  -5  32    3.36    0.23
  -3  -5  32    0.47    0.13
  -3  -5  32    0.74    0.14
  -1  -5  32    3.69    0.26
  -1  -5  32    2.84    0.25
   1  -5  32    0.31    0.12
   1  -5  32    0.13    0.12
   3  -5  32    1.68    0.21
   3  -5  32    2.17    0.27
   5  -5  32    0.24    0.17
 -12  -4  32    0.28    0.11
 -10  -4  32    0.61    0.13
  -8  -4  32    1.60    0.19
  -8  -4  32    1.68    0.18
  -6  -4  32   10.63    0.45
  -6  -4  32   11.21    0.44
  -4  -4  32    1.34    0.16
  -4  -4  32    1.17    0.16
  -2  -4  32    1.35    0.18
  -2  -4  32    1.48    0.18
   0  -4  32    0.30    0.11
   0  -4  32    0.30    0.13
   2  -4  32    0.22    0.10
   2  -4  32    0.40    0.15
   4  -4  32    0.69    0.18
   4  -4  32    0.51    0.13
   6  -4  32    0.25    0.18
 -11  -3  32    0.15    0.10
  -9  -3  32    0.38    0.11
  -7  -3  32    2.42    0.23
  -5  -3  32    0.13    0.09
  -3  -3  32    0.65    0.12
  -3  -3  32    0.64    0.13
  -1  -3  32    2.54    0.21
  -1  -3  32    1.93    0.21
   1  -3  32    1.20    0.17
   1  -3  32    1.16    0.17
   3  -3  32    2.82    0.27
   3  -3  32    2.41    0.24
   5  -3  32    0.44    0.13
   5  -3  32    0.22    0.15
   7  -3  32    0.03    0.14
 -12  -2  32    0.48    0.13
 -10  -2  32    3.54    0.25
  -8  -2  32    0.03    0.08
  -6  -2  32    0.12    0.08
  -4  -2  32    0.40    0.11
  -2  -2  32    1.79    0.20
   0  -2  32    5.83    0.32
   2  -2  32    2.80    0.23
   2  -2  32    3.06    0.26
   4  -2  32    5.46    0.34
   4  -2  32    5.42    0.32
   6  -2  32   -0.09    0.11
   6  -2  32    0.31    0.12
 -13  -1  32    0.01    0.09
 -11  -1  32    0.32    0.11
  -9  -1  32    0.78    0.14
  -7  -1  32    0.66    0.13
  -5  -1  32    8.41    0.39
  -3  -1  32    0.61    0.13
  -1  -1  32    3.91    0.26
   1  -1  32    1.04    0.16
   3  -1  32    1.17    0.17
   5  -1  32    0.46    0.13
   7  -1  32    0.39    0.13
 -12   0  32    1.50    0.20
 -10   0  32    5.10    0.30
  -8   0  32    0.43    0.11
  -6   0  32    6.11    0.33
  -4   0  32    0.91    0.15
  -2   0  32    0.70    0.13
   0   0  32    7.74    0.37
   2   0  32    4.34    0.28
   4   0  32    6.41    0.35
   6   0  32    0.27    0.11
   8   0  32    0.89    0.16
 -13   1  32   -0.05    0.08
 -11   1  32    0.10    0.10
  -9   1  32    0.56    0.13
  -7   1  32    0.82    0.14
  -5   1  32    7.86    0.37
  -3   1  32    0.82    0.14
  -1   1  32    3.86    0.26
   1   1  32    1.11    0.17
   3   1  32    0.89    0.15
   5   1  32    0.55    0.13
   7   1  32    0.30    0.11
 -12   2  32    0.62    0.14
 -10   2  32    3.96    0.28
  -8   2  32    0.24    0.10
  -6   2  32    0.00    0.08
  -4   2  32    0.36    0.11
  -2   2  32    2.05    0.21
   0   2  32    5.93    0.31
   2   2  32    2.71    0.24
   4   2  32    4.70    0.29
   6   2  32   -0.01    0.08
 -11   3  32    0.19    0.11
  -9   3  32    0.18    0.10
  -7   3  32    2.48    0.23
  -5   3  32    0.23    0.10
  -3   3  32    0.50    0.12
  -1   3  32    2.38    0.22
   1   3  32    1.13    0.16
   3   3  32    2.61    0.24
   5   3  32    0.19    0.10
   7   3  32    0.28    0.11
 -12   4  32    0.47    0.14
 -10   4  32    0.62    0.14
  -8   4  32    1.85    0.21
  -6   4  32   11.65    0.48
  -4   4  32    1.51    0.18
  -2   4  32    1.30    0.17
   0   4  32    0.06    0.08
   2   4  32    0.21    0.10
   4   4  32    0.42    0.12
   6   4  32    0.45    0.12
 -11   5  32    0.16    0.11
  -9   5  32    0.44    0.13
  -7   5  32    1.76    0.20
  -5   5  32    3.04    0.23
  -3   5  32    0.68    0.13
  -1   5  32    2.65    0.21
   1   5  32    0.32    0.10
   3   5  32    1.96    0.20
   5   5  32    0.03    0.08
 -10   6  32    0.21    0.12
  -8   6  32    1.57    0.20
  -6   6  32    0.53    0.13
  -4   6  32    1.27    0.17
  -2   6  32    0.25    0.10
   0   6  32    1.09    0.15
   2   6  32    1.01    0.15
   4   6  32    0.26    0.11
  -9   7  32    1.33    0.19
  -7   7  32    0.50    0.13
  -5   7  32    0.35    0.11
  -3   7  32    0.63    0.14
  -1   7  32    1.17    0.16
   1   7  32    0.06    0.08
   3   7  32    0.45    0.11
   3   7  32    0.56    0.12
  -8   8  32    1.19    0.18
  -6   8  32    0.11    0.10
  -6   8  32    0.16    0.09
  -4   8  32    1.92    0.21
  -4   8  32    2.74    0.24
  -2   8  32    0.29    0.11
  -2   8  32    0.71    0.14
   0   8  32    0.67    0.13
   0   8  32    0.53    0.13
   2   8  32    1.03    0.15
   2   8  32    0.66    0.14
  -5   9  32   -0.03    0.09
  -5   9  32    0.16    0.09
  -3   9  32    0.01    0.08
  -3   9  32    0.06    0.09
  -1   9  32    0.29    0.11
  -1   9  32    0.23    0.11
  -6  -8  33    0.52    0.14
  -6  -8  33    0.53    0.13
  -4  -8  33    0.18    0.13
  -4  -8  33    0.28    0.12
  -2  -8  33    1.14    0.21
  -2  -8  33    0.90    0.17
   0  -8  33    1.19    0.23
   0  -8  33    1.20    0.20
  -9  -7  33    0.95    0.18
  -7  -7  33    2.43    0.25
  -7  -7  33    2.12    0.22
  -5  -7  33    0.41    0.13
  -5  -7  33    0.40    0.12
  -3  -7  33    1.30    0.19
  -3  -7  33    1.12    0.19
  -1  -7  33    0.91    0.17
  -1  -7  33    1.02    0.19
   1  -7  33    0.81    0.20
   1  -7  33    0.46    0.14
   3  -7  33    0.55    0.19
   3  -7  33    0.32    0.13
 -10  -6  33    0.11    0.10
 -10  -6  33    0.29    0.12
  -8  -6  33    0.31    0.11
  -8  -6  33    0.24    0.11
  -6  -6  33    2.13    0.22
  -6  -6  33    2.44    0.24
  -4  -6  33    0.99    0.17
  -4  -6  33    0.96    0.16
  -2  -6  33    0.78    0.15
  -2  -6  33    1.15    0.18
   0  -6  33    2.32    0.24
   0  -6  33    2.01    0.24
   2  -6  33    0.55    0.15
   2  -6  33    0.92    0.19
   4  -6  33    0.55    0.20
 -11  -5  33   -0.01    0.08
  -9  -5  33    0.83    0.15
  -9  -5  33    0.70    0.14
  -7  -5  33    1.10    0.17
  -7  -5  33    1.04    0.16
  -5  -5  33    2.90    0.22
  -5  -5  33    3.33    0.24
  -3  -5  33    0.80    0.15
  -3  -5  33    0.73    0.14
  -1  -5  33    1.46    0.20
  -1  -5  33    1.27    0.18
   1  -5  33    0.57    0.17
   1  -5  33    0.24    0.11
   3  -5  33    2.13    0.24
   3  -5  33    1.89    0.25
   5  -5  33    0.86    0.23
 -10  -4  33    0.40    0.12
  -8  -4  33    0.27    0.11
  -6  -4  33    4.19    0.27
  -6  -4  33    3.38    0.29
  -4  -4  33    1.79    0.19
  -4  -4  33    1.69    0.19
  -2  -4  33    0.81    0.15
  -2  -4  33    0.62    0.14
   0  -4  33    4.28    0.29
   0  -4  33    3.72    0.28
   2  -4  33    0.09    0.13
   2  -4  33    0.30    0.12
   4  -4  33    0.50    0.19
   4  -4  33    0.56    0.15
   6  -4  33    0.46    0.19
 -11  -3  33    1.28    0.17
  -9  -3  33    0.25    0.10
  -7  -3  33    1.05    0.16
  -5  -3  33    3.18    0.24
  -3  -3  33    0.00    0.08
  -1  -3  33    2.35    0.28
  -1  -3  33    2.43    0.24
   1  -3  33    0.72    0.15
   1  -3  33    0.96    0.17
   3  -3  33    3.02    0.29
   3  -3  33    3.01    0.25
   5  -3  33    1.08    0.18
   5  -3  33    1.31    0.22
 -12  -2  33    0.23    0.11
 -10  -2  33    1.12    0.17
  -8  -2  33    0.42    0.12
  -6  -2  33    0.97    0.15
  -4  -2  33    0.95    0.16
  -2  -2  33    0.33    0.11
   0  -2  33    1.81    0.21
   2  -2  33    0.54    0.13
   4  -2  33    3.23    0.26
   6  -2  33   -0.11    0.14
   6  -2  33    0.00    0.10
 -11  -1  33    3.39    0.25
  -9  -1  33    3.60    0.25
  -7  -1  33    2.03    0.21
  -5  -1  33    1.40    0.18
  -3  -1  33    0.42    0.11
  -1  -1  33    4.11    0.27
   1  -1  33    1.24    0.17
   3  -1  33    4.48    0.29
   5  -1  33    2.47    0.25
   7  -1  33    0.63    0.15
 -12   0  33    0.12    0.10
 -10   0  33   -0.01    0.09
  -8   0  33    0.01    0.09
  -6   0  33   -0.02    0.08
  -4   0  33    0.01    0.08
  -2   0  33    0.01    0.08
   0   0  33    0.15    0.09
   2   0  33    0.17    0.10
   4   0  33   -0.06    0.07
   6   0  33    0.07    0.10
 -11   1  33    3.55    0.27
  -9   1  33    3.20    0.25
  -7   1  33    1.90    0.20
  -5   1  33    1.46    0.18
  -3   1  33    0.70    0.14
  -1   1  33    4.07    0.26
   1   1  33    1.44    0.18
   3   1  33    4.23    0.28
   5   1  33    2.74    0.26
   7   1  33    0.34    0.12
 -12   2  33    0.08    0.10
 -10   2  33    0.66    0.15
  -8   2  33    0.18    0.10
  -6   2  33    1.02    0.16
  -4   2  33    1.10    0.16
  -2   2  33    0.13    0.09
   0   2  33    1.87    0.20
   2   2  33    0.77    0.14
   4   2  33    3.18    0.25
   6   2  33    0.20    0.10
 -11   3  33    1.48    0.20
  -9   3  33    0.19    0.10
  -7   3  33    1.21    0.17
  -5   3  33    3.12    0.23
  -3   3  33   -0.11    0.07
  -1   3  33    2.35    0.23
   1   3  33    0.96    0.15
   3   3  33    2.84    0.23
   5   3  33    1.05    0.17
 -10   4  33    0.43    0.13
  -8   4  33    0.04    0.09
  -6   4  33    4.30    0.28
  -4   4  33    1.60    0.19
  -2   4  33    0.32    0.11
   0   4  33    3.55    0.25
   2   4  33    0.17    0.10
   4   4  33    0.69    0.13
   6   4  33    0.49    0.13
 -11   5  33   -0.05    0.09
  -9   5  33    1.07    0.18
  -7   5  33    1.39    0.19
  -5   5  33    3.00    0.23
  -3   5  33    0.68    0.14
  -1   5  33    1.02    0.16
   1   5  33    0.38    0.11
   3   5  33    1.63    0.19
   5   5  33    0.57    0.13
 -10   6  33    0.24    0.12
  -8   6  33    0.21    0.11
  -6   6  33    2.52    0.24
  -4   6  33    1.01    0.16
  -2   6  33    0.81    0.15
   0   6  33    2.26    0.22
   2   6  33    0.99    0.15
   4   6  33    0.48    0.13
  -7   7  33    2.78    0.26
  -5   7  33    0.44    0.12
  -3   7  33    0.86    0.15
  -1   7  33    0.79    0.14
   1   7  33    0.59    0.12
   3   7  33    0.26    0.10
   3   7  33    0.35    0.11
  -6   8  33    0.21    0.10
  -6   8  33    0.29    0.12
  -4   8  33    0.11    0.08
  -4   8  33    0.21    0.11
  -2   8  33    0.77    0.15
  -2   8  33    0.65    0.14
   0   8  33    0.98    0.16
   0   8  33    1.08    0.16
  -4  -8  34    2.07    0.23
  -4  -8  34    2.07    0.25
  -2  -8  34    0.35    0.15
  -2  -8  34    0.38    0.13
   0  -8  34    0.83    0.20
  -7  -7  34    0.29    0.13
  -7  -7  34    0.13    0.10
  -5  -7  34    1.11    0.17
  -5  -7  34    1.05    0.17
  -3  -7  34    0.05    0.10
  -3  -7  34    0.11    0.10
  -1  -7  34    0.28    0.11
  -1  -7  34    0.36    0.14
   1  -7  34    0.18    0.14
   1  -7  34    0.61    0.16
  -8  -6  34    0.59    0.13
  -8  -6  34    0.57    0.14
  -6  -6  34    1.67    0.20
  -6  -6  34    1.80    0.21
  -4  -6  34    2.11    0.23
  -4  -6  34    1.71    0.21
  -2  -6  34    0.23    0.12
  -2  -6  34    0.07    0.11
   0  -6  34    1.01    0.17
   0  -6  34    1.23    0.21
   2  -6  34    1.27    0.23
   2  -6  34    1.20    0.20
  -9  -5  34    0.21    0.11
  -7  -5  34    0.78    0.18
  -7  -5  34    0.56    0.14
  -5  -5  34    0.72    0.14
  -5  -5  34    0.80    0.16
  -3  -5  34    1.64    0.20
  -3  -5  34    1.46    0.19
  -1  -5  34    1.18    0.18
  -1  -5  34    1.44    0.20
   1  -5  34    1.20    0.21
   1  -5  34    1.06    0.18
   3  -5  34    1.70    0.23
   3  -5  34    2.41    0.28
 -10  -4  34    0.25    0.11
  -8  -4  34    0.30    0.11
  -6  -4  34    5.28    0.31
  -4  -4  34    1.98    0.21
  -2  -4  34    0.45    0.13
  -2  -4  34    0.68    0.14
   0  -4  34    3.00    0.27
   0  -4  34    2.83    0.25
   2  -4  34    0.28    0.15
   2  -4  34    0.20    0.11
   4  -4  34    0.45    0.17
   4  -4  34    0.18    0.11
 -11  -3  34    0.52    0.14
  -9  -3  34    0.93    0.16
  -7  -3  34    0.59    0.13
  -5  -3  34    3.43    0.25
  -3  -3  34    1.09    0.17
  -1  -3  34    0.66    0.15
   1  -3  34    0.65    0.14
   3  -3  34    0.26    0.12
   3  -3  34    0.31    0.23
   5  -3  34    0.26    0.12
   5  -3  34    0.05    0.16
 -12  -2  34    0.02    0.10
 -10  -2  34    4.86    0.30
  -8  -2  34    0.33    0.11
  -6  -2  34    2.53    0.24
  -4  -2  34    0.63    0.14
  -2  -2  34    0.86    0.15
   0  -2  34    3.15    0.25
   2  -2  34    0.70    0.15
   4  -2  34    3.21    0.26
   6  -2  34    0.43    0.14
 -11  -1  34    0.22    0.10
  -9  -1  34    1.37    0.18
  -7  -1  34    0.23    0.11
  -5  -1  34    1.04    0.16
  -3  -1  34    0.31    0.11
  -1  -1  34    0.50    0.13
   1  -1  34    0.85    0.16
   3  -1  34    0.47    0.14
   5  -1  34    1.08    0.18
 -12   0  34    0.09    0.10
 -10   0  34    6.77    0.36
  -8   0  34    0.96    0.16
  -6   0  34    1.09    0.16
  -4   0  34    1.37    0.18
  -2   0  34    4.62    0.29
   0   0  34   10.11    0.45
   2   0  34    0.60    0.13
   4   0  34    3.98    0.28
   6   0  34    0.86    0.17
 -11   1  34    0.10    0.10
  -9   1  34    1.45    0.19
  -7   1  34    0.19    0.10
  -5   1  34    1.25    0.17
  -3   1  34    0.39    0.12
  -1   1  34    0.54    0.13
   1   1  34    0.83    0.16
   3   1  34    0.25    0.11
   5   1  34    1.35    0.19
 -12   2  34    0.00    0.10
 -10   2  34    4.85    0.31
  -8   2  34    0.54    0.13
  -6   2  34    2.49    0.24
  -4   2  34    0.71    0.14
  -2   2  34    0.68    0.14
   0   2  34    2.83    0.23
   2   2  34    0.70    0.15
   4   2  34    3.19    0.25
   6   2  34    0.24    0.11
 -11   3  34    0.72    0.16
  -9   3  34    0.98    0.17
  -7   3  34    0.61    0.14
  -5   3  34    3.07    0.24
  -3   3  34    1.14    0.17
  -1   3  34    1.25    0.18
   1   3  34    0.69    0.15
   3   3  34    0.42    0.13
   5   3  34    0.06    0.09
 -10   4  34   -0.02    0.09
  -8   4  34    0.26    0.11
  -6   4  34    5.08    0.31
  -4   4  34    1.89    0.21
  -2   4  34    0.65    0.14
   0   4  34    2.09    0.22
   2   4  34    0.26    0.11
   4   4  34    0.26    0.11
  -9   5  34    0.50    0.14
  -7   5  34    0.55    0.14
  -5   5  34    0.92    0.16
  -3   5  34    1.28    0.18
  -1   5  34    1.20    0.17
   1   5  34    0.72    0.14
   3   5  34    2.25    0.22
  -8   6  34    0.99    0.17
  -6   6  34    2.18    0.23
  -4   6  34    2.04    0.22
  -2   6  34    0.26    0.11
   0   6  34    1.24    0.17
   2   6  34    1.24    0.17
  -7   7  34    0.15    0.11
  -5   7  34    0.97    0.17
  -3   7  34    0.06    0.09
  -1   7  34    0.41    0.12
   1   7  34    0.33    0.11
  -4   8  34    1.55    0.19
  -4   8  34    2.02    0.22
  -2   8  34    0.40    0.12
  -2   8  34    0.30    0.11
  -5  -7  35    0.03    0.09
  -5  -7  35    0.21    0.11
  -3  -7  35    2.06    0.25
  -3  -7  35    2.22    0.24
  -1  -7  35    0.21    0.14
  -1  -7  35    0.34    0.13
   1  -7  35    0.10    0.15
  -8  -6  35    0.10    0.10
  -6  -6  35    1.88    0.22
  -6  -6  35    2.04    0.23
  -4  -6  35    0.57    0.14
  -4  -6  35    0.49    0.13
  -2  -6  35    1.13    0.18
  -2  -6  35    0.90    0.17
   0  -6  35    1.17    0.19
   0  -6  35    1.49    0.23
   2  -6  35    0.15    0.16
   2  -6  35    0.04    0.11
  -9  -5  35    0.46    0.13
  -7  -5  35    1.25    0.18
  -5  -5  35    2.24    0.23
  -3  -5  35    1.27    0.18
  -3  -5  35    1.36    0.18
  -1  -5  35    0.47    0.14
  -1  -5  35    0.45    0.13
   1  -5  35    0.87    0.19
   1  -5  35    0.50    0.14
   3  -5  35    0.86    0.20
   3  -5  35    1.12    0.19
 -10  -4  35    0.37    0.12
  -8  -4  35    0.05    0.08
  -6  -4  35    1.16    0.17
  -4  -4  35    0.39    0.12
  -2  -4  35    0.75    0.15
   0  -4  35    1.16    0.18
   2  -4  35    0.17    0.11
   2  -4  35    0.24    0.16
   4  -4  35    0.24    0.12
   4  -4  35    0.07    0.14
  -9  -3  35    0.26    0.12
  -7  -3  35    0.84    0.16
  -5  -3  35    4.94    0.31
  -3  -3  35    0.89    0.16
  -1  -3  35    1.03    0.17
   1  -3  35    0.34    0.12
   3  -3  35    0.90    0.17
   5  -3  35   -0.01    0.10
 -10  -2  35    0.74    0.15
  -8  -2  35    0.18    0.11
  -6  -2  35    0.79    0.15
  -4  -2  35    0.61    0.14
  -2  -2  35    0.45    0.13
   0  -2  35    0.54    0.14
   2  -2  35    0.33    0.13
   4  -2  35    1.20    0.19
 -11  -1  35    1.28    0.19
  -9  -1  35    5.61    0.32
  -7  -1  35    0.16    0.10
  -5  -1  35    0.49    0.13
  -3  -1  35   -0.02    0.09
  -1  -1  35    8.27    0.41
   1  -1  35    1.24    0.18
   3  -1  35    1.44    0.20
   5  -1  35    2.61    0.26
 -10   0  35    0.12    0.11
  -8   0  35    0.05    0.10
  -6   0  35    0.04    0.09
  -4   0  35    0.01    0.09
  -2   0  35    0.06    0.09
   0   0  35    0.18    0.11
   2   0  35    0.06    0.10
   4   0  35    0.04    0.09
 -11   1  35    1.23    0.19
  -9   1  35    5.45    0.32
  -7   1  35    0.27    0.11
  -5   1  35    0.58    0.14
  -3   1  35    0.04    0.09
  -1   1  35    7.76    0.39
   1   1  35    1.27    0.18
   3   1  35    1.52    0.20
   5   1  35    3.13    0.26
 -10   2  35    0.77    0.16
  -8   2  35    0.13    0.10
  -6   2  35    0.70    0.14
  -4   2  35    0.81    0.15
  -2   2  35    0.16    0.10
   0   2  35    0.39    0.12
   2   2  35    0.42    0.12
   4   2  35    1.36    0.19
  -9   3  35    0.40    0.13
  -7   3  35    0.72    0.15
  -5   3  35    4.73    0.29
  -3   3  35    0.86    0.15
  -1   3  35    1.42    0.19
   1   3  35    0.22    0.11
   3   3  35    0.57    0.13
   5   3  35   -0.04    0.09
 -10   4  35    0.12    0.11
  -8   4  35    0.01    0.09
  -6   4  35    1.46    0.19
  -4   4  35    0.80    0.15
  -2   4  35    0.34    0.12
   0   4  35    1.34    0.18
   2   4  35    0.05    0.09
   4   4  35    0.19    0.11
  -9   5  35    0.51    0.14
  -7   5  35    1.29    0.19
  -5   5  35    2.75    0.26
  -3   5  35    0.98    0.16
  -1   5  35    0.30    0.11
   1   5  35    0.50    0.13
   3   5  35    0.84    0.15
  -8   6  35    0.28    0.12
  -6   6  35    2.31    0.24
  -4   6  35    0.38    0.12
  -2   6  35    0.90    0.15
   0   6  35    1.04    0.16
   2   6  35    0.16    0.10
  -5   7  35   -0.03    0.09
  -3   7  35    2.29    0.23
  -1   7  35    0.19    0.11
  -3  -7  36    0.27    0.13
  -6  -6  36    0.97    0.17
  -4  -6  36    1.18    0.19
  -4  -6  36    1.23    0.19
  -2  -6  36    0.77    0.16
  -2  -6  36    0.63    0.16
   0  -6  36    0.17    0.14
   0  -6  36   -0.03    0.10
  -7  -5  36    0.11    0.10
  -5  -5  36    3.27    0.27
  -3  -5  36    0.55    0.14
  -1  -5  36    0.85    0.17
   1  -5  36    1.37    0.21
   1  -5  36    1.59    0.25
  -8  -4  36    0.24    0.11
  -6  -4  36    2.62    0.25
  -4  -4  36    0.27    0.12
  -2  -4  36    0.10    0.11
   0  -4  36    2.13    0.25
   2  -4  36    0.21    0.12
  -9  -3  36   -0.03    0.08
  -7  -3  36    0.53    0.14
  -5  -3  36    1.29    0.18
  -3  -3  36    0.87    0.16
  -1  -3  36    0.92    0.17
   1  -3  36    1.19    0.19
   3  -3  36   -0.01    0.09
 -10  -2  36    0.26    0.12
  -8  -2  36    1.12    0.18
  -6  -2  36    1.49    0.20
  -4  -2  36    3.63    0.27
  -2  -2  36    0.30    0.12
   0  -2  36    3.62    0.27
   2  -2  36   -0.03    0.09
   4  -2  36    2.88    0.28
  -9  -1  36    2.17    0.24
  -7  -1  36    0.05    0.10
  -5  -1  36    0.24    0.11
  -3  -1  36    0.60    0.15
  -1  -1  36    0.09    0.10
   1  -1  36    0.09    0.10
   3  -1  36    0.05    0.10
   5  -1  36    0.68    0.15
 -10   0  36    5.17    0.32
  -8   0  36    1.16    0.18
  -6   0  36    0.24    0.11
  -4   0  36    1.66    0.21
  -2   0  36    1.38    0.19
   0   0  36    8.41    0.42
   2   0  36    0.18    0.11
   4   0  36    2.94    0.27
  -9   1  36    1.74    0.22
  -7   1  36   -0.02    0.09
  -5   1  36    0.17    0.10
  -3   1  36    0.29    0.12
  -1   1  36    0.12    0.10
   1   1  36    0.01    0.09
   3   1  36    0.02    0.10
   5   1  36    0.65    0.15
 -10   2  36    0.07    0.11
  -8   2  36    0.61    0.15
  -6   2  36    1.86    0.22
  -4   2  36    4.53    0.29
  -2   2  36    0.16    0.11
   0   2  36    4.04    0.28
   2   2  36    0.28    0.12
   4   2  36    2.53    0.25
  -9   3  36    0.12    0.10
  -7   3  36    0.57    0.14
  -5   3  36    1.21    0.18
  -3   3  36    0.65    0.15
  -1   3  36    0.75    0.15
   1   3  36    1.23    0.18
   3   3  36    0.02    0.09
  -8   4  36    0.38    0.12
  -6   4  36    2.62    0.26
  -4   4  36    0.22    0.11
  -2   4  36    0.32    0.12
   0   4  36    1.59    0.20
   2   4  36    0.25    0.12
  -7   5  36    0.02    0.09
  -5   5  36    3.29    0.26
  -3   5  36    0.64    0.14
  -1   5  36    0.84    0.15
   1   5  36    1.47    0.19
  -6   6  36    0.86    0.16
  -4   6  36    1.28    0.18
  -2   6  36    0.43    0.13
   0   6  36    0.08    0.10
  -4  -6  37    1.48    0.20
  -2  -6  37    0.39    0.13
  -7  -5  37    0.66    0.15
  -5  -5  37    1.99    0.23
  -3  -5  37    1.22    0.19
  -1  -5  37    0.85    0.17
   1  -5  37    0.15    0.13
  -8  -4  37    1.01    0.18
  -6  -4  37    0.92    0.17
  -4  -4  37    2.43    0.25
  -2  -4  37    0.46    0.14
   0  -4  37    0.83    0.17
   2  -4  37    0.17    0.13
  -9  -3  37    0.38    0.13
  -7  -3  37   -0.05    0.09
  -5  -3  37    3.47    0.27
  -3  -3  37    1.27    0.19
  -1  -3  37    0.57    0.14
   1  -3  37    1.62    0.22
   3  -3  37    0.10    0.10
  -8  -2  37    1.02    0.18
  -6  -2  37    0.30    0.13
  -4  -2  37    1.29    0.20
  -2  -2  37    0.56    0.15
   0  -2  37    0.69    0.15
   2  -2  37    0.66    0.16
  -9  -1  37    1.37    0.20
  -7  -1  37    0.20    0.11
  -5  -1  37    0.53    0.14
  -3  -1  37    1.66    0.21
  -1  -1  37    2.87    0.27
   1  -1  37    2.73    0.27
   3  -1  37    0.87    0.18
 -10   0  37   -0.05    0.09
  -8   0  37   -0.11    0.08
  -6   0  37    0.00    0.09
  -4   0  37   -0.04    0.09
  -2   0  37   -0.11    0.09
   0   0  37    0.04    0.10
   2   0  37   -0.10    0.08
   4   0  37   -0.02    0.09
  -9   1  37    1.13    0.18
  -7   1  37    0.01    0.09
  -5   1  37    0.38    0.12
  -3   1  37    1.64    0.21
  -1   1  37    2.46    0.25
   1   1  37    2.58    0.26
   3   1  37    0.79    0.16
  -8   2  37    1.07    0.18
  -6   2  37    0.38    0.13
  -4   2  37    0.99    0.17
  -2   2  37    0.14    0.12
   0   2  37    0.50    0.14
   2   2  37    0.79    0.16
  -9   3  37    0.71    0.16
  -7   3  37    0.08    0.10
  -5   3  37    3.13    0.25
  -3   3  37    1.38    0.19
  -1   3  37    0.47    0.13
   1   3  37    2.36    0.25
   3   3  37   -0.01    0.09
  -8   4  37    0.99    0.18
  -6   4  37    1.21    0.18
  -4   4  37    2.06    0.23
  -2   4  37    0.58    0.14
   0   4  37    0.81    0.16
   2   4  37    0.46    0.13
  -7   5  37    0.84    0.17
  -5   5  37    2.14    0.24
  -3   5  37    1.15    0.18
  -1   5  37    1.07    0.17
   1   5  37    0.16    0.11
  -4   6  37    1.33    0.20
  -2   6  37    0.41    0.13
  -3  -5  38    1.10    0.20
  -6  -4  38    0.48    0.14
  -4  -4  38    0.92    0.17
  -2  -4  38    0.60    0.15
   0  -4  38    0.49    0.15
  -7  -3  38    1.00    0.18
  -5  -3  38    0.78    0.17
  -3  -3  38    0.40    0.14
  -1  -3  38    0.03    0.09
   1  -3  38    0.19    0.12
  -8  -2  38    0.50    0.15
  -6  -2  38    1.23    0.20
  -4  -2  38    2.16    0.24
  -2  -2  38    0.13    0.11
   0  -2  38    1.02    0.18
   2  -2  38    1.03    0.19
  -7  -1  38   -0.11    0.08
  -5  -1  38   -0.01    0.10
  -3  -1  38    0.26    0.12
  -1  -1  38    0.07    0.10
   1  -1  38    0.53    0.14
  -8   0  38   -0.04    0.09
  -6   0  38    0.05    0.10
  -4   0  38    0.87    0.16
  -2   0  38    0.00    0.10
   0   0  38    3.66    0.28
   2   0  38    0.91    0.17
  -7   1  38    0.08    0.11
  -5   1  38   -0.04    0.09
  -3   1  38    0.46    0.14
  -1   1  38   -0.06    0.10
   1   1  38    0.63    0.15
  -8   2  38    0.58    0.15
  -6   2  38    1.16    0.19
  -4   2  38    2.40    0.25
  -2   2  38    0.47    0.14
   0   2  38    1.55    0.21
   2   2  38    1.28    0.19
  -7   3  38    1.00    0.17
  -5   3  38    0.65    0.15
  -3   3  38    0.54    0.15
  -1   3  38    0.16    0.11
   1   3  38    0.11    0.11
  -6   4  38    0.33    0.14
  -4   4  38    0.82    0.17
  -2   4  38    0.52    0.14
   0   4  38    0.63    0.15
  -3   5  38    0.85    0.17
  -5  -3  39    2.27    0.26
  -3  -3  39    0.50    0.14
  -1  -3  39    0.12    0.11
  -6  -2  39    0.62    0.15
  -4  -2  39    0.52    0.15
  -2  -2  39    0.02    0.10
   0  -2  39    0.38    0.13
  -7  -1  39    0.33    0.13
  -5  -1  39    1.30    0.19
  -3  -1  39    0.91    0.17
  -1  -1  39    1.30    0.20
   1  -1  39    2.15    0.26
  -6   0  39    0.07    0.10
  -4   0  39   -0.03    0.09
  -2   0  39    0.12    0.11
   0   0  39   -0.02    0.10
  -7   1  39    0.21    0.13
  -5   1  39    1.72    0.22
  -3   1  39    1.25    0.20
  -1   1  39    0.98    0.18
   1   1  39    1.80    0.23
  -6   2  39    0.64    0.16
  -4   2  39    0.47    0.14
  -2   2  39    0.17    0.12
   0   2  39    0.30    0.13
  -5   3  39    1.85    0.23
  -3   3  39    0.44    0.13
  -1   3  39   -0.02    0.10
  -4  -2  40    3.23    0.31
  -5  -1  40    0.06    0.10
  -3  -1  40    0.16    0.12
  -4   0  40    1.66    0.23
  -2   0  40    0.39    0.14
  -5   1  40    0.22    0.11
  -3   1  40    0.00    0.11
  -4   2  40    2.84    0.27
   0   0   0    0.00    0.00
;
_shelx_hkl_checksum              68670
_shelx_fab_file
;
-17 -3 -3 1.7239 -1.3991
-17 -3 -2 -0.1313 -0.9889
-17 -3 -1 0.3288 -0.0956
-17 -3 0 1.1457 -0.3060
-17 -1 -5 -0.5106 -0.8841
-17 -1 -4 -0.0574 0.5105
-17 -1 -3 1.9342 1.8973
-17 -1 -2 -0.0275 0.0694
-17 -1 -1 -1.9211 0.6009
-17 -1 0 0.5208 0.7789
-17 1 1 0.7060 2.0892
-17 1 2 -0.8287 0.5455
-17 1 3 -1.2603 1.6293
-17 1 4 0.3394 -0.4362
-17 1 5 -2.4519 -0.1727
-17 1 6 0.2596 0.7298
-17 1 7 -1.2326 0.2356
-17 1 8 -0.3600 0.6961
-17 1 9 -0.2861 -0.4538
-17 1 10 0.1093 0.2459
-17 1 11 -1.3761 -0.2194
-17 1 12 -0.3878 0.4125
-17 1 13 -0.8934 -0.3407
-17 1 14 -0.0290 0.2224
-17 1 15 0.2373 -0.8098
-17 1 16 -0.4481 0.5552
-17 1 17 -1.2305 0.2561
-17 1 18 -0.4915 -0.7121
-17 1 19 -0.1764 0.5127
-17 3 1 -1.8925 0.2098
-17 3 2 -0.3930 0.5949
-17 3 3 -1.8018 -1.1089
-17 3 4 -0.9463 -0.8907
-17 3 5 -0.2102 -0.1158
-17 3 6 0.5705 -0.2851
-17 3 7 -1.3560 -1.9985
-17 3 8 -0.1624 -1.3198
-17 3 9 0.2933 -1.6422
-17 3 10 0.6139 -0.5308
-17 3 11 0.4837 -0.4541
-17 3 12 0.4888 0.0475
-17 3 13 0.9503 -0.8406
-17 3 14 0.3019 0.0816
-17 3 15 -0.2905 1.2180
-17 3 16 -0.3890 -0.4929
-17 3 17 0.1482 -0.7537
-16 -6 -2 -0.4328 0.2375
-16 -6 -1 0.5283 1.3054
-16 -6 0 1.3504 0.4012
-16 -4 -8 -2.3601 -0.5078
-16 -4 -7 -1.1322 -0.0836
-16 -4 -6 -0.1625 1.8535
-16 -4 -5 0.3507 -0.6076
-16 -4 -4 -2.7603 -0.7013
-16 -4 -3 0.3986 2.6978
-16 -4 -2 -1.5322 -0.3259
-16 -4 -1 -2.5923 0.4061
-16 -4 0 -1.1899 -0.3592
-16 -2 -10 -0.8114 0.8463
-16 -2 -9 -2.0862 -1.5993
-16 -2 -8 0.4532 -0.2554
-16 -2 -7 0.1703 0.2099
-16 -2 -6 -2.3972 -0.0158
-16 -2 -5 -0.4900 -2.6381
-16 -2 -4 -0.0119 -0.7875
-16 -2 -3 1.2321 -0.7440
-16 -2 -2 -0.0923 -2.3289
-16 -2 -1 0.1496 -1.2826
-16 -2 0 1.6105 -0.1043
-16 0 -10 4.9206 -0.5198
-16 0 -8 -0.5730 1.9986
-16 0 -6 3.7971 0.3423
-16 0 -4 -1.8420 -0.4774
-16 0 -2 4.0723 1.6410
-16 0 0 0.0629 0.8282
-16 0 2 0.2217 0.6146
-16 0 4 1.1404 -1.6350
-16 0 6 2.8438 3.0241
-16 0 8 0.1153 0.0742
-16 0 10 0.7559 0.5132
-16 0 12 1.0348 0.2748
-16 0 14 1.1806 1.4214
-16 0 16 -1.4117 0.9820
-16 0 18 1.3797 -1.3531
-16 0 20 1.9431 -0.2210
-16 0 22 0.3032 2.1870
-16 0 24 0.1654 0.9870
-16 2 1 -2.7049 -0.1311
-16 2 2 -0.3708 1.5627
-16 2 3 1.1075 -1.1609
-16 2 4 0.3932 -0.3239
-16 2 5 1.3571 1.2693
-16 2 6 -0.4388 -0.2109
-16 2 7 -0.0117 1.2053
-16 2 8 -0.5550 0.5961
-16 2 9 -0.3190 2.2166
-16 2 10 0.4123 0.4157
-16 2 11 -1.9836 0.8108
-16 2 12 -1.5780 0.3550
-16 2 13 -0.2953 0.1257
-16 2 14 0.1447 -0.5604
-16 2 15 -0.5536 0.0652
-16 2 16 -0.1583 -0.3160
-16 2 17 -0.3024 0.5120
-16 2 18 -0.3649 -0.2905
-16 2 19 -0.3895 -1.0175
-16 2 20 -0.0406 1.1320
-16 2 21 1.2932 0.5642
-16 2 22 -0.7382 -1.2698
-16 2 23 0.2042 0.9838
-16 4 1 1.0477 2.1352
-16 4 2 -1.3359 -0.9989
-16 4 3 -0.5500 0.0365
-16 4 4 -2.4844 -1.5959
-16 4 5 -0.9572 -0.2031
-16 4 6 -0.0513 -1.7949
-16 4 7 -0.0335 -0.5478
-16 4 8 -0.2943 -0.9610
-16 4 9 0.8001 -0.9706
-16 4 10 -0.4716 -1.4942
-16 4 11 0.9381 0.1799
-16 4 12 -0.0867 -0.8087
-16 4 13 -0.2551 -0.0703
-16 4 14 0.3201 -1.9140
-16 4 15 1.0378 0.6009
-16 4 16 0.0784 1.4671
-16 4 17 -0.9826 0.2345
-16 4 18 -0.8158 -1.1802
-16 4 19 0.1375 0.6179
-16 4 20 -0.0932 -1.0375
-16 4 21 -1.3026 -0.2399
-16 6 1 -0.6760 -2.4098
-16 6 2 0.1058 0.8885
-16 6 3 1.5759 -0.8995
-16 6 4 0.1399 0.6647
-16 6 5 0.5038 1.6993
-16 6 6 0.3630 -0.2720
-16 6 7 -1.1823 -0.6875
-16 6 8 1.4141 -0.2027
-16 6 9 -0.7810 -0.6296
-16 6 10 1.4082 1.5135
-16 6 11 0.5813 -1.5879
-16 6 12 -0.0074 1.9323
-16 6 13 0.3090 0.4135
-16 6 14 -0.8027 1.0550
-16 6 15 -0.1548 -1.1271
-16 6 16 -0.0911 -1.2202
-15 -7 -6 -1.4713 0.2372
-15 -7 -5 0.4242 -1.3493
-15 -7 -4 0.3297 -1.3779
-15 -7 -3 0.8052 0.0926
-15 -7 -2 -2.5816 0.5947
-15 -7 -1 0.4054 1.9458
-15 -7 0 0.1506 -1.6378
-15 -5 -11 0.8794 -1.4250
-15 -5 -10 -0.7419 0.5788
-15 -5 -9 0.2217 -0.9167
-15 -5 -8 0.2653 -0.7239
-15 -5 -7 2.2210 0.0413
-15 -5 -6 -0.8936 0.5824
-15 -5 -5 2.0268 -0.9115
-15 -5 -4 -0.7146 -1.3847
-15 -5 -3 2.3595 3.1354
-15 -5 -2 2.9401 -2.5536
-15 -5 -1 -0.6989 0.9083
-15 -5 0 2.6883 1.3979
-15 -3 -14 -2.4240 -0.3017
-15 -3 -13 2.4435 1.8508
-15 -3 -12 2.7077 -2.8681
-15 -3 -11 -2.7665 2.7451
-15 -3 -10 0.2547 0.8276
-15 -3 -9 -1.3128 -0.1403
-15 -3 -8 2.1519 2.1046
-15 -3 -7 -1.9042 -1.9332
-15 -3 -6 -0.9103 0.7988
-15 -3 -5 2.0718 0.6663
-15 -3 -4 -0.3304 0.2792
-15 -3 -3 -1.0073 0.5901
-15 -3 -2 0.1461 3.0008
-15 -3 -1 -2.5991 -0.4648
-15 -3 0 -2.6458 0.6792
-15 -1 -15 3.1870 -1.2868
-15 -1 -14 -1.0683 -1.2771
-15 -1 -13 -0.6456 0.2565
-15 -1 -12 0.9739 -0.5039
-15 -1 -11 1.9950 1.6046
-15 -1 -10 1.3543 2.2911
-15 -1 -9 -3.8841 2.1338
-15 -1 -8 -3.8861 -1.2418
-15 -1 -7 0.8819 -2.0767
-15 -1 -6 1.3788 -0.9538
-15 -1 -5 -4.6217 0.2682
-15 -1 -4 -0.7984 -1.1356
-15 -1 -3 1.4917 -0.1506
-15 -1 -2 1.5682 -1.6910
-15 -1 -1 -4.1073 -2.5497
-15 -1 0 1.3039 0.4315
-15 1 1 -0.4449 1.9186
-15 1 2 0.3265 1.6799
-15 1 3 1.5797 1.8713
-15 1 4 -1.4359 -1.5177
-15 1 5 -1.6622 0.7014
-15 1 6 0.7084 -0.0405
-15 1 7 0.0595 1.7844
-15 1 8 -0.3330 -1.8496
-15 1 9 -0.3830 -0.1078
-15 1 10 1.1785 0.2992
-15 1 11 0.0801 -0.3335
-15 1 12 0.3382 -0.8937
-15 1 13 1.9780 -0.4878
-15 1 14 1.0118 0.1008
-15 1 15 -0.4607 2.0576
-15 1 16 -0.6762 0.1436
-15 1 17 -0.7841 -0.1695
-15 1 18 0.7573 -0.8579
-15 1 19 0.3953 -0.0056
-15 1 20 -0.1105 1.0616
-15 1 21 1.5428 -0.9825
-15 1 22 -1.1002 -0.7377
-15 1 23 -0.7797 1.7770
-15 1 24 0.2691 -1.3762
-15 1 25 0.9078 -0.8067
-15 1 26 0.0797 -0.0815
-15 1 27 -0.3493 1.6890
-15 3 1 -1.3834 0.5498
-15 3 2 -2.0208 -1.7995
-15 3 3 0.7706 0.4155
-15 3 4 0.8148 -0.7215
-15 3 5 0.1951 1.3668
-15 3 6 1.2843 1.1911
-15 3 7 -0.4680 -0.6120
-15 3 8 -0.5526 2.1307
-15 3 9 0.2787 0.0798
-15 3 10 -1.0972 0.7082
-15 3 11 0.8432 0.6631
-15 3 12 -2.6155 0.1164
-15 3 13 -1.0377 0.3429
-15 3 14 0.2717 -0.4565
-15 3 15 1.1757 0.8888
-15 3 16 -0.9693 0.0578
-15 3 17 -0.7910 -0.2890
-15 3 18 0.0652 -1.4210
-15 3 19 0.4334 -0.2559
-15 3 20 1.6616 -0.4227
-15 3 21 0.2788 0.7945
-15 3 22 1.1600 1.4899
-15 3 23 -0.2240 -0.4169
-15 3 24 -0.5767 1.3383
-15 3 25 0.4844 0.2923
-15 3 26 0.1515 0.0368
-15 5 1 -2.0770 -0.5539
-15 5 2 0.0973 3.9972
-15 5 3 0.4732 -1.8801
-15 5 4 -1.6046 -0.1181
-15 5 5 -0.8316 -1.4188
-15 5 6 -0.4191 -1.2144
-15 5 7 0.2183 -0.9032
-15 5 8 0.3654 -0.1835
-15 5 9 0.0876 -0.7664
-15 5 10 0.8504 -0.3437
-15 5 11 -1.7935 -0.4238
-15 5 12 0.9017 1.0468
-15 5 13 0.6596 -2.5451
-15 5 14 0.2686 -0.2694
-15 5 15 1.3843 -1.7273
-15 5 16 0.5912 2.0945
-15 5 17 0.0487 2.0207
-15 5 18 -1.4522 0.1850
-15 5 19 -0.4905 -1.3749
-15 5 20 -0.1067 0.8930
-15 5 21 0.3704 -0.1620
-15 5 22 -1.8273 -0.1332
-15 5 23 0.1783 0.1742
-15 5 24 0.3728 -0.3384
-15 7 1 2.6891 0.4501
-15 7 2 -0.9753 -1.4070
-15 7 3 0.0701 0.8025
-15 7 4 1.1486 -1.7442
-15 7 5 0.2446 0.9210
-15 7 6 0.4721 1.2613
-15 7 7 0.2727 -0.9282
-15 7 8 -0.7275 -0.4216
-15 7 9 2.0308 1.3996
-15 7 10 -0.4140 0.1589
-15 7 11 0.7061 1.2821
-15 7 12 -0.7174 -1.4478
-15 7 13 -1.6948 1.9766
-15 7 14 -0.0732 -0.1993
-15 7 15 -0.5262 -0.1685
-15 7 16 -0.3868 -1.4209
-15 7 17 0.4816 -1.2893
-15 7 18 0.8482 -0.7749
-14 -8 -8 -0.3154 -1.1538
-14 -8 -7 1.0626 0.1080
-14 -8 -6 0.3194 -0.3713
-14 -8 -5 1.6094 1.0343
-14 -8 -4 0.0541 0.2783
-14 -8 -3 -0.8865 2.0429
-14 -8 -2 -0.2155 -0.1164
-14 -8 -1 0.6694 0.3022
-14 -8 0 0.8047 -2.5256
-14 -6 -13 -0.2554 -0.1573
-14 -6 -12 -0.5181 -0.5381
-14 -6 -11 -0.3800 -0.1812
-14 -6 -10 0.4754 -0.0464
-14 -6 -9 -0.4988 0.6136
-14 -6 -8 -0.2994 1.8109
-14 -6 -7 -1.6955 -2.0627
-14 -6 -6 -1.9907 -1.6879
-14 -6 -5 1.8044 0.7288
-14 -6 -4 0.8686 -1.0120
-14 -6 -3 -0.0354 0.4900
-14 -6 -2 0.3695 0.4968
-14 -6 -1 -4.0290 1.1808
-14 -6 0 -0.2626 0.4859
-14 -4 -16 -0.2026 -1.4015
-14 -4 -15 -1.5087 -0.7860
-14 -4 -14 -0.2094 -0.1016
-14 -4 -13 3.1466 0.1892
-14 -4 -12 0.1146 -1.5929
-14 -4 -11 -2.5100 2.8169
-14 -4 -10 2.6029 0.3423
-14 -4 -9 0.4846 -0.2487
-14 -4 -8 -0.8794 -0.0845
-14 -4 -7 -1.1506 -0.8754
-14 -4 -6 1.0756 1.2093
-14 -4 -5 0.1988 0.2497
-14 -4 -4 0.8342 -2.2829
-14 -4 -3 -0.6803 0.2610
-14 -4 -2 1.5120 3.7584
-14 -4 -1 1.2590 -3.3795
-14 -4 0 -0.4082 1.2683
-14 -2 -18 -1.4637 0.0902
-14 -2 -17 1.5649 -1.2892
-14 -2 -16 2.0941 1.3802
-14 -2 -15 0.5066 -0.6024
-14 -2 -14 -2.7637 0.3980
-14 -2 -13 -0.2554 2.3039
-14 -2 -12 2.9605 1.1307
-14 -2 -11 -0.4021 -3.0680
-14 -2 -10 -4.4629 2.8609
-14 -2 -9 0.1555 -0.6736
-14 -2 -8 -0.2427 -4.0433
-14 -2 -7 1.8869 0.9348
-14 -2 -6 0.5071 -0.0387
-14 -2 -5 0.0771 -0.3574
-14 -2 -4 3.3016 1.1316
-14 -2 -3 0.5491 0.5757
-14 -2 -2 -0.3362 0.3440
-14 -2 -1 -0.7040 2.9852
-14 -2 0 -0.1928 1.9974
-14 0 -18 -2.3033 -2.6439
-14 0 -16 2.1286 -3.1390
-14 0 -14 2.3075 -1.7950
-14 0 -12 5.5586 0.2722
-14 0 -10 -0.4811 6.1045
-14 0 -8 -5.4906 1.7350
-14 0 -6 0.3603 -4.2926
-14 0 -4 -4.5651 -0.1309
-14 0 -2 2.5555 -1.9063
-14 0 0 -3.1689 -0.7898
-14 0 2 -0.5863 -3.6617
-14 0 4 0.3387 -4.3258
-14 0 6 3.3557 1.8049
-14 0 8 -0.7831 -1.2151
-14 0 10 1.5361 0.6099
-14 0 12 -1.8818 -0.7034
-14 0 14 -0.8346 1.0048
-14 0 16 -0.7301 -2.3571
-14 0 18 1.7639 -0.3176
-14 0 20 0.3004 -0.4685
-14 0 22 -0.8121 1.2377
-14 0 24 1.1233 -1.0944
-14 0 26 -0.9030 1.8345
-14 0 28 -0.1281 -2.2292
-14 0 30 1.5519 0.7563
-14 2 1 1.5814 0.6188
-14 2 2 -0.1341 1.0267
-14 2 3 1.2156 0.3633
-14 2 4 0.0262 0.2190
-14 2 5 -0.9148 -0.0623
-14 2 6 0.5712 0.1102
-14 2 7 2.0019 -0.8366
-14 2 8 -1.1968 1.2094
-14 2 9 0.5872 -0.9547
-14 2 10 -0.6025 0.0111
-14 2 11 0.4228 1.5076
-14 2 12 -0.3732 -1.0219
-14 2 13 0.7595 -0.4545
-14 2 14 2.5758 0.2722
-14 2 15 0.4602 0.2405
-14 2 16 -2.1087 0.6682
-14 2 17 -0.0726 -0.1367
-14 2 18 0.2368 -0.6520
-14 2 19 0.6020 0.4628
-14 2 20 -0.0351 0.4754
-14 2 21 -1.4517 0.3138
-14 2 22 0.0086 -0.1095
-14 2 23 -0.5992 -0.8583
-14 2 24 -0.9508 -0.1450
-14 2 25 1.1344 -2.3257
-14 2 26 0.9271 -0.5087
-14 2 27 -0.0938 2.0843
-14 2 28 -1.7306 1.3562
-14 2 29 -0.3943 -1.8624
-14 2 30 -0.7052 -1.3747
-14 4 1 -2.8408 -1.0259
-14 4 2 -1.1420 0.8588
-14 4 3 0.9459 -2.6295
-14 4 4 -1.2286 0.0612
-14 4 5 0.2149 0.7894
-14 4 6 -0.2275 1.0147
-14 4 7 0.2545 0.5440
-14 4 8 -1.1230 -0.8126
-14 4 9 -0.8452 2.0379
-14 4 10 0.0559 -0.0870
-14 4 11 -0.9492 0.1183
-14 4 12 1.6861 0.1390
-14 4 13 -2.1481 -2.0437
-14 4 14 -1.3996 0.7538
-14 4 15 0.8959 0.5100
-14 4 16 0.3368 1.7432
-14 4 17 -0.9762 -1.2013
-14 4 18 -1.3888 -1.3766
-14 4 19 1.1765 -1.2392
-14 4 20 0.6945 0.4687
-14 4 21 2.0902 0.6727
-14 4 22 -0.5941 -1.0221
-14 4 23 -0.5434 1.1035
-14 4 24 0.8513 -0.3717
-14 4 25 0.0152 -0.1753
-14 4 26 0.9585 -0.2498
-14 4 27 0.3137 -0.0264
-14 4 28 1.5222 0.6428
-14 6 1 0.4134 2.2973
-14 6 2 -2.8797 -0.4543
-14 6 3 -0.0645 2.0204
-14 6 4 0.5080 -1.9513
-14 6 5 -1.2596 1.2547
-14 6 6 -0.7007 -1.2259
-14 6 7 -1.2931 -1.3159
-14 6 8 0.6419 -0.0111
-14 6 9 0.5574 -1.3835
-14 6 10 -0.3230 -2.1997
-14 6 11 0.7010 -0.3760
-14 6 12 -1.5508 -0.3603
-14 6 13 1.3026 0.1076
-14 6 14 3.0805 -2.5879
-14 6 15 1.5165 0.9865
-14 6 16 0.3789 0.9008
-14 6 17 -0.7194 1.8357
-14 6 18 0.1838 -0.0461
-14 6 19 -0.1798 0.1490
-14 6 20 0.3144 0.1524
-14 6 21 -0.8691 0.8606
-14 6 22 0.2798 0.1637
-14 6 23 -0.7403 -0.1470
-14 6 24 -0.0716 0.9213
-14 6 25 0.0054 0.2959
-14 8 1 0.5901 0.2322
-14 8 2 2.2034 2.0232
-14 8 3 -1.5096 -1.1718
-14 8 4 0.1578 -0.2790
-14 8 5 1.2844 -0.9029
-14 8 6 0.9478 1.8206
-14 8 7 -0.9839 0.4617
-14 8 8 -0.1799 -1.0981
-14 8 9 -0.1427 -1.0143
-14 8 10 1.3476 2.8033
-14 8 11 -0.6863 -0.2401
-14 8 12 -0.2529 -0.3585
-14 8 13 0.6418 -1.3226
-14 8 14 -0.9641 1.2608
-14 8 15 -0.0963 0.0646
-14 8 16 0.3761 -0.2955
-14 8 17 -0.1747 -0.3082
-14 8 18 0.8141 0.0266
-14 8 19 -0.4322 -0.6995
-13 -9 -9 0.7476 -0.2677
-13 -9 -8 -1.1410 -0.6574
-13 -9 -7 -0.5804 0.6369
-13 -9 -6 -0.3867 -1.3147
-13 -9 -5 0.1209 1.1449
-13 -9 -4 0.3539 -1.5585
-13 -9 -3 -0.4315 -0.3747
-13 -9 -2 1.8582 -0.3899
-13 -9 -1 -0.8452 0.2109
-13 -9 0 0.0067 -0.2003
-13 -7 -15 -0.8230 0.0806
-13 -7 -14 0.1495 0.4114
-13 -7 -13 -0.6724 -0.7251
-13 -7 -12 -0.6034 0.1003
-13 -7 -11 0.4799 0.1944
-13 -7 -10 1.2387 -1.3261
-13 -7 -9 -1.0543 0.5311
-13 -7 -8 1.0805 0.1779
-13 -7 -7 0.6144 -1.5605
-13 -7 -6 1.9807 2.0779
-13 -7 -5 0.0998 1.6354
-13 -7 -4 -0.1321 0.3164
-13 -7 -3 -1.5581 -0.6016
-13 -7 -2 -1.6889 2.1482
-13 -7 -1 0.5990 -1.8817
-13 -7 0 1.1561 -1.4223
-13 -5 -18 0.2770 -0.3185
-13 -5 -17 1.3561 -0.6607
-13 -5 -16 -0.5989 -0.5884
-13 -5 -15 -0.5834 1.1144
-13 -5 -14 0.9784 0.8337
-13 -5 -13 0.1727 -0.9576
-13 -5 -12 -3.3628 0.0511
-13 -5 -11 0.1711 -0.4704
-13 -5 -10 1.2847 -2.4122
-13 -5 -9 -0.1808 -1.5424
-13 -5 -8 -1.2823 -0.0677
-13 -5 -7 2.4054 0.1182
-13 -5 -6 0.8829 -1.9891
-13 -5 -5 1.1436 0.4034
-13 -5 -4 1.3076 1.5611
-13 -5 -3 -1.7207 1.5658
-13 -5 -2 0.0785 -0.3150
-13 -5 -1 1.2098 -1.8206
-13 -5 0 -3.2380 0.3309
-13 -3 -20 2.3032 2.1401
-13 -3 -19 -1.1229 -1.9913
-13 -3 -18 -0.2929 0.8906
-13 -3 -17 0.9700 -1.6657
-13 -3 -16 0.5671 1.8242
-13 -3 -15 -0.1530 -0.1469
-13 -3 -14 -1.7546 1.5902
-13 -3 -13 0.8020 -0.4860
-13 -3 -12 2.6199 -2.2185
-13 -3 -11 -1.7742 -1.2853
-13 -3 -10 -1.2612 5.7559
-13 -3 -9 3.8778 -1.2559
-13 -3 -8 -0.5318 -0.4514
-13 -3 -7 -1.5466 1.7527
-13 -3 -6 -0.4846 0.2555
-13 -3 -5 1.9228 0.2700
-13 -3 -4 -1.2617 1.3617
-13 -3 -3 -2.2226 -1.1799
-13 -3 -2 -1.0978 0.4449
-13 -3 -1 0.5453 1.0737
-13 -3 0 -0.4373 -2.8557
-13 -1 -21 2.6675 -1.1816
-13 -1 -20 -1.0572 -0.5066
-13 -1 -19 0.7981 4.3390
-13 -1 -18 -2.0261 -1.4512
-13 -1 -17 -0.7345 2.1810
-13 -1 -16 2.7316 -1.6649
-13 -1 -15 -2.4677 2.6729
-13 -1 -14 -1.5587 -0.4077
-13 -1 -13 -2.0293 0.7516
-13 -1 -12 2.9148 0.3077
-13 -1 -11 -4.3582 -0.4342
-13 -1 -10 -2.8686 1.1220
-13 -1 -9 1.3749 -3.1217
-13 -1 -8 -0.1005 -4.1214
-13 -1 -7 2.2108 -1.5694
-13 -1 -6 2.0546 1.0951
-13 -1 -5 1.3851 3.4950
-13 -1 -4 1.1074 -0.7989
-13 -1 -3 1.0595 3.0697
-13 -1 -2 0.3573 1.6895
-13 -1 -1 -2.5382 0.3960
-13 -1 0 -0.7963 2.3752
-13 1 1 -0.3925 -0.1427
-13 1 2 -3.0393 -1.4049
-13 1 3 0.9627 -1.8020
-13 1 4 0.3481 -0.3056
-13 1 5 0.9882 -0.5231
-13 1 6 -0.2395 -0.5273
-13 1 7 -0.7575 1.4740
-13 1 8 -1.9265 -0.7452
-13 1 9 -0.6710 -0.4333
-13 1 10 0.5356 -0.6404
-13 1 11 1.5905 0.0603
-13 1 12 0.4390 -1.3033
-13 1 13 -2.0409 0.2524
-13 1 14 1.2617 0.7160
-13 1 15 -1.5228 -0.7740
-13 1 16 -0.9555 0.7560
-13 1 17 0.0723 -1.0935
-13 1 18 -0.4833 0.0157
-13 1 19 0.7799 -0.5412
-13 1 20 -0.7593 -0.8616
-13 1 21 0.9696 -0.4678
-13 1 22 1.2668 0.2681
-13 1 23 0.1774 0.2140
-13 1 24 -0.7250 -0.3014
-13 1 25 1.0668 0.3463
-13 1 26 -0.0839 1.4150
-13 1 27 -0.4117 1.3160
-13 1 28 -1.0685 -1.9867
-13 1 29 0.5460 -1.4488
-13 1 30 1.4853 0.1261
-13 1 31 1.6581 2.1312
-13 1 32 -0.4605 1.0245
-13 3 1 -0.3532 0.5198
-13 3 2 2.1241 0.0197
-13 3 3 -0.2022 -0.9059
-13 3 4 0.1823 -0.2556
-13 3 5 1.0820 -0.1420
-13 3 6 0.8866 1.0284
-13 3 7 1.5609 -0.8223
-13 3 8 0.4711 1.2124
-13 3 9 0.2105 1.3906
-13 3 10 0.9177 -1.7623
-13 3 11 0.0449 -0.6270
-13 3 12 -0.8246 1.7610
-13 3 13 -0.4743 -0.1566
-13 3 14 0.2794 0.7769
-13 3 15 2.4148 0.8879
-13 3 16 -1.0645 -0.8242
-13 3 17 -2.2225 -0.8722
-13 3 18 0.2619 -0.1324
-13 3 19 1.4134 -0.3730
-13 3 20 0.4128 -0.5766
-13 3 21 0.1152 -0.0889
-13 3 22 -1.0713 -0.1424
-13 3 23 -0.2964 1.0296
-13 3 24 1.0581 -0.2988
-13 3 25 0.1070 -0.9157
-13 3 26 0.4538 -0.6969
-13 3 27 -0.3659 1.4186
-13 3 28 -0.1011 2.2380
-13 3 29 -2.0924 -1.4706
-13 3 30 -0.9289 -1.4840
-13 3 31 0.1471 -0.1510
-13 5 1 -0.0246 0.5244
-13 5 2 1.4122 -1.2991
-13 5 3 -1.1396 -0.2885
-13 5 4 0.5387 -0.7123
-13 5 5 -0.8420 0.4369
-13 5 6 1.7157 0.5084
-13 5 7 -0.1293 -0.2253
-13 5 8 0.0727 0.7100
-13 5 9 -0.4963 -1.0814
-13 5 10 -0.8167 3.0633
-13 5 11 -0.6111 1.6377
-13 5 12 -0.7106 0.2097
-13 5 13 1.0206 -1.0901
-13 5 14 -1.0855 -0.9703
-13 5 15 -1.1191 1.3362
-13 5 16 -0.6001 0.8254
-13 5 17 -0.8700 -0.2763
-13 5 18 0.1924 -1.9675
-13 5 19 -0.0673 -0.2766
-13 5 20 0.6434 1.2095
-13 5 21 -0.9390 -0.2493
-13 5 22 0.7764 0.1072
-13 5 23 0.3426 -2.3478
-13 5 24 -1.1948 1.1095
-13 5 25 2.4349 -0.0227
-13 5 26 -0.1909 -1.4837
-13 5 27 0.6559 1.1819
-13 5 28 0.5527 0.1232
-13 5 29 0.5577 1.2198
-13 7 1 -1.8795 0.9453
-13 7 2 -0.1888 0.5576
-13 7 3 -2.0521 -2.0659
-13 7 4 0.7945 -0.0528
-13 7 5 0.5771 -0.5633
-13 7 6 -0.9916 1.9475
-13 7 7 -2.3931 -2.0160
-13 7 8 -0.4766 -1.9071
-13 7 9 2.0927 0.0072
-13 7 10 0.2897 -0.1028
-13 7 11 -0.4277 -2.0137
-13 7 12 1.2452 -0.7843
-13 7 13 -0.7451 -0.3986
-13 7 14 0.0095 0.5298
-13 7 15 2.2384 -0.9587
-13 7 16 0.7999 0.4720
-13 7 17 -1.2051 0.6683
-13 7 18 -0.1645 -0.6167
-13 7 19 0.5525 -1.6608
-13 7 20 1.7283 1.7684
-13 7 21 0.2064 0.4263
-13 7 22 -1.6501 0.3859
-13 7 23 0.3575 -0.6869
-13 7 24 0.2194 0.6003
-13 7 25 0.0210 0.4053
-13 7 26 -0.9887 -0.2224
-13 9 1 0.5293 -0.4517
-13 9 2 0.4939 1.8140
-13 9 3 0.9716 0.9625
-13 9 4 -1.3064 -1.5202
-13 9 5 0.2264 0.8910
-13 9 6 0.7469 1.2575
-13 9 7 -0.6914 0.7801
-13 9 8 -2.2860 -0.5666
-13 9 9 0.1602 -1.7098
-13 9 10 0.1926 -1.9051
-13 9 11 0.8742 1.7855
-13 9 12 -0.3920 -1.1409
-13 9 13 0.9421 -0.7638
-13 9 14 2.3971 -0.6752
-13 9 15 -0.2112 1.4410
-13 9 16 -0.1821 0.7053
-13 9 17 0.6343 0.6940
-13 9 18 0.0016 0.6854
-13 9 19 -0.4785 1.0569
-13 9 20 -0.8294 -1.0247
-12 -10 -9 -0.3752 -0.6140
-12 -10 -8 0.0992 -0.1511
-12 -10 -7 0.6748 0.6790
-12 -10 -6 1.2432 0.4281
-12 -10 -5 -0.0998 0.5890
-12 -10 -4 -0.4710 -0.8260
-12 -10 -3 -1.1416 0.3577
-12 -10 -2 0.3340 0.1106
-12 -10 -1 -0.9186 -0.3406
-12 -10 0 1.2058 0.1937
-12 -8 -16 1.8009 -0.8622
-12 -8 -15 -0.2905 -1.5303
-12 -8 -14 1.2652 0.8123
-12 -8 -13 1.6670 -0.2522
-12 -8 -12 0.4922 0.9615
-12 -8 -11 0.9299 0.7139
-12 -8 -10 -0.6466 0.9688
-12 -8 -9 -1.9492 1.6834
-12 -8 -8 0.8025 0.0721
-12 -8 -7 -1.2478 -1.2096
-12 -8 -6 -1.4406 0.5888
-12 -8 -5 -0.9896 -3.0739
-12 -8 -4 0.3640 0.4442
-12 -8 -3 1.8837 -0.7934
-12 -8 -2 -0.9467 0.1093
-12 -8 -1 2.8134 -0.5657
-12 -8 0 -1.3877 -0.4668
-12 -6 -20 1.0208 1.5621
-12 -6 -19 1.1871 -0.3173
-12 -6 -18 -0.3539 2.5087
-12 -6 -17 0.0279 0.7695
-12 -6 -16 -1.6798 1.8159
-12 -6 -15 -0.0368 -0.1714
-12 -6 -14 -1.5041 -0.1992
-12 -6 -13 0.6774 -1.0683
-12 -6 -12 -0.9792 -0.6745
-12 -6 -11 2.2778 1.4941
-12 -6 -10 0.7765 0.8406
-12 -6 -9 -0.9108 0.9788
-12 -6 -8 -2.1930 2.4950
-12 -6 -7 1.1928 0.0908
-12 -6 -6 -2.7587 -2.0591
-12 -6 -5 0.1168 2.7477
-12 -6 -4 -1.7156 -1.1226
-12 -6 -3 -1.1890 -1.7021
-12 -6 -2 1.4820 -2.8271
-12 -6 -1 -0.8756 2.0146
-12 -6 0 0.2480 0.0551
-12 -4 -22 0.3220 -1.6168
-12 -4 -21 -0.4006 -1.5875
-12 -4 -20 2.1676 -0.2765
-12 -4 -19 -0.2608 -0.3371
-12 -4 -18 0.1788 -0.3868
-12 -4 -17 -0.3706 -1.2409
-12 -4 -16 1.1184 0.7629
-12 -4 -15 0.3432 0.6643
-12 -4 -14 -0.4931 -0.3381
-12 -4 -13 -1.6444 -1.3132
-12 -4 -12 1.1859 -0.0621
-12 -4 -11 -1.7171 0.3832
-12 -4 -10 1.0179 1.2039
-12 -4 -9 0.0376 -4.7060
-12 -4 -8 -1.5967 -0.6141
-12 -4 -7 1.5238 -2.1059
-12 -4 -6 2.9744 0.1428
-12 -4 -5 2.1897 0.6324
-12 -4 -4 -1.1940 -0.0615
-12 -4 -3 -0.1328 -0.0772
-12 -4 -2 1.4181 1.9749
-12 -4 -1 3.0357 -0.9120
-12 -4 0 -0.1532 -0.4546
-12 -2 -24 0.1536 2.9126
-12 -2 -23 2.0522 -1.3073
-12 -2 -22 -1.5827 0.1475
-12 -2 -21 0.1291 0.1289
-12 -2 -20 -3.5755 0.3025
-12 -2 -19 1.2960 1.0534
-12 -2 -18 -1.2260 -4.1252
-12 -2 -17 1.5159 0.3485
-12 -2 -16 1.1668 -2.0628
-12 -2 -15 -0.2718 2.4372
-12 -2 -14 0.7463 -0.8358
-12 -2 -13 -0.1243 0.7058
-12 -2 -12 1.1882 -1.7969
-12 -2 -11 1.1605 -0.9533
-12 -2 -10 0.8241 0.7106
-12 -2 -9 0.9373 3.8428
-12 -2 -8 0.0321 -2.3668
-12 -2 -7 -1.6284 2.8275
-12 -2 -6 0.4772 1.7016
-12 -2 -5 -2.1276 -1.2616
-12 -2 -4 1.2515 -1.2873
-12 -2 -3 -1.4422 0.9433
-12 -2 -2 -0.8623 -0.6337
-12 -2 -1 0.5384 -2.9003
-12 -2 0 0.8999 -0.1168
-12 0 -20 2.8252 2.7595
-12 0 -18 -0.2382 3.9738
-12 0 -16 -0.5084 2.7182
-12 0 -14 -4.4102 1.9070
-12 0 -12 1.0855 -0.8237
-12 0 -10 -4.4137 1.3767
-12 0 -8 4.2868 -3.1777
-12 0 -6 2.4957 4.2542
-12 0 -4 -3.1959 4.4828
-12 0 -2 -2.8693 1.4529
-12 0 0 -2.9651 -2.7604
-12 0 2 2.5843 -1.8864
-12 0 4 0.0550 1.0094
-12 0 6 -0.7464 0.0891
-12 0 8 2.3520 0.6882
-12 0 10 -0.2704 -0.6905
-12 0 12 -1.1955 -1.0572
-12 0 14 3.6553 -0.7283
-12 0 16 0.7706 2.3948
-12 0 18 0.9321 0.3794
-12 0 20 0.1206 0.6849
-12 0 22 -0.6728 1.7278
-12 0 24 -2.0772 0.3695
-12 0 26 -0.3286 -1.2722
-12 0 28 -1.1096 -0.9590
-12 0 30 1.2975 -0.4286
-12 0 32 -1.5057 -0.7772
-12 0 34 0.9143 -1.0556
-12 2 1 -0.9035 0.1775
-12 2 2 0.2396 0.2301
-12 2 3 -3.8158 -1.6912
-12 2 4 1.8036 1.2572
-12 2 5 0.8852 -0.8561
-12 2 6 -0.8048 1.6473
-12 2 7 0.1259 -2.9613
-12 2 8 -3.1256 1.2852
-12 2 9 1.3286 -1.3641
-12 2 10 -1.5487 -1.7175
-12 2 11 0.3344 0.3461
-12 2 12 0.9634 1.7163
-12 2 13 1.7743 -0.9734
-12 2 14 -2.2097 -0.5828
-12 2 15 2.5043 0.4577
-12 2 16 -1.3934 -0.9359
-12 2 17 0.2227 3.3535
-12 2 18 -0.2021 -0.3933
-12 2 19 -1.7012 0.0396
-12 2 20 0.3297 -0.7181
-12 2 21 -1.2594 0.2789
-12 2 22 0.6023 1.7372
-12 2 23 0.5531 -0.4525
-12 2 24 -1.2076 -0.9767
-12 2 25 -0.4263 -0.0189
-12 2 26 0.0383 0.5614
-12 2 27 -1.4914 1.2405
-12 2 28 -0.1863 -0.8567
-12 2 29 -0.7361 -3.4756
-12 2 30 1.2305 0.2540
-12 2 31 1.7411 -0.1583
-12 2 32 0.7656 1.3393
-12 2 33 -0.0259 -0.3386
-12 2 34 -1.0469 0.4876
-12 4 1 1.1781 -1.4966
-12 4 2 -0.0251 -0.1453
-12 4 3 -1.4033 -0.6171
-12 4 4 0.2044 0.1748
-12 4 5 2.2543 -1.1998
-12 4 6 1.2835 -0.3988
-12 4 7 -2.4775 0.8742
-12 4 8 0.0908 0.1775
-12 4 9 0.7112 1.2354
-12 4 10 1.2436 0.6335
-12 4 11 -0.3832 -2.9305
-12 4 12 0.7589 0.0757
-12 4 13 -0.7560 0.0083
-12 4 14 -1.0003 0.8453
-12 4 15 0.3472 -0.2517
-12 4 16 0.5391 0.6619
-12 4 17 -1.6379 -1.3503
-12 4 18 -1.6361 -1.2652
-12 4 19 1.1315 -0.8603
-12 4 20 1.0135 -1.1283
-12 4 21 0.2919 -1.7736
-12 4 22 1.2601 -0.0474
-12 4 23 0.9926 -0.7750
-12 4 24 -0.9935 1.5510
-12 4 25 1.8391 0.7597
-12 4 26 -0.5429 -1.5852
-12 4 27 -0.6955 0.5950
-12 4 28 0.4875 0.3748
-12 4 29 0.6943 0.2470
-12 4 30 -0.9511 -1.8121
-12 4 31 -0.4869 0.4806
-12 4 32 0.8819 0.8350
-12 6 1 -0.3578 0.7605
-12 6 2 1.6063 0.8168
-12 6 3 1.0259 0.3986
-12 6 4 -2.2237 -0.5549
-12 6 5 -0.2613 1.3798
-12 6 6 0.4183 0.1808
-12 6 7 0.9393 -0.3330
-12 6 8 0.6926 -0.5194
-12 6 9 0.2425 1.5456
-12 6 10 0.8069 -0.3500
-12 6 11 -1.7087 1.9780
-12 6 12 -1.3444 1.0588
-12 6 13 -0.8363 -0.1449
-12 6 14 1.0754 0.3567
-12 6 15 0.5610 0.3645
-12 6 16 -0.9525 -0.2477
-12 6 17 -2.1509 0.7904
-12 6 18 0.8916 -0.0636
-12 6 19 0.7175 -1.1959
-12 6 20 -0.0848 1.6013
-12 6 21 -1.3667 0.7281
-12 6 22 -1.3982 -1.6297
-12 6 23 1.2290 -0.5825
-12 6 24 2.3763 0.3275
-12 6 25 -0.9864 0.5696
-12 6 26 0.4192 0.6170
-12 6 27 0.0841 -0.5872
-12 6 28 0.5828 1.9549
-12 6 29 -0.2865 -0.4865
-12 6 30 -1.3257 1.5442
-12 8 1 -0.6045 -1.9126
-12 8 2 -0.1429 -0.0569
-12 8 3 0.8541 -2.0379
-12 8 4 -1.2584 -0.9399
-12 8 5 1.1060 0.5620
-12 8 6 0.6288 -1.3474
-12 8 7 0.0585 0.2965
-12 8 8 -1.0641 -2.2265
-12 8 9 0.9862 -1.1224
-12 8 10 2.4392 1.8792
-12 8 11 -0.2986 2.0082
-12 8 12 -1.0702 -1.0914
-12 8 13 0.7763 -0.4743
-12 8 14 -1.3556 -0.0240
-12 8 15 -1.8767 1.0343
-12 8 16 0.3775 -2.1892
-12 8 17 0.3376 -1.2261
-12 8 18 0.0289 -0.8411
-12 8 19 -0.2507 -1.0409
-12 8 20 1.4862 -1.1261
-12 8 21 2.0572 1.1824
-12 8 22 0.0433 0.0169
-12 8 23 -1.5977 0.7252
-12 8 24 0.9337 -0.8123
-12 8 25 0.3787 0.2493
-12 8 26 0.4291 -0.0656
-12 10 1 -0.0808 0.4474
-12 10 2 -0.5080 0.5747
-12 10 3 0.0854 0.8861
-12 10 4 0.0496 -0.3229
-12 10 5 0.0371 -0.2972
-12 10 6 -0.5031 0.7973
-12 10 7 -1.2572 1.2329
-12 10 8 0.1449 -2.2616
-12 10 9 -0.3503 -1.2337
-12 10 10 1.4968 0.2740
-12 10 11 0.3148 -0.1600
-12 10 12 0.6514 1.2500
-12 10 13 -0.7980 -0.7396
-12 10 14 0.1923 0.1199
-12 10 15 1.6242 -0.3907
-12 10 16 -0.0257 0.4086
-12 10 17 -0.2992 0.5175
-12 10 18 0.1358 0.4912
-12 10 19 0.2049 0.1526
-11 -11 -9 -0.7466 0.3872
-11 -11 -8 1.2654 -0.2909
-11 -11 -7 0.7750 0.3647
-11 -11 -6 -0.6742 -0.0521
-11 -11 -5 -2.2972 -0.4543
-11 -11 -4 0.1143 -0.1042
-11 -11 -3 0.9013 -0.5248
-11 -11 -2 0.6086 -0.1841
-11 -11 -1 0.7340 0.7324
-11 -11 0 0.5375 0.8303
-11 -9 -16 -1.2819 0.0371
-11 -9 -15 -2.4941 -0.1873
-11 -9 -14 -0.3147 0.0800
-11 -9 -13 -0.6679 -0.9571
-11 -9 -12 -1.2939 -0.8717
-11 -9 -11 -0.8824 -0.9807
-11 -9 -10 -0.3449 -0.5206
-11 -9 -9 1.5714 -2.7751
-11 -9 -8 1.7393 -1.8371
-11 -9 -7 0.7424 0.2086
-11 -9 -6 0.8344 2.2678
-11 -9 -5 1.7530 0.2646
-11 -9 -4 -0.7885 2.1439
-11 -9 -3 0.5115 -0.4557
-11 -9 -2 -2.2689 -1.0539
-11 -9 -1 1.0605 0.9688
-11 -9 0 -0.7930 -0.3264
-11 -7 -21 -2.4016 -1.4691
-11 -7 -20 -0.6149 -1.2224
-11 -7 -19 0.7582 -1.8835
-11 -7 -18 -1.2230 -0.6847
-11 -7 -17 0.7616 -1.2734
-11 -7 -16 0.5349 -1.6940
-11 -7 -15 0.9115 -1.6331
-11 -7 -14 0.3381 0.0081
-11 -7 -13 2.8788 0.4114
-11 -7 -12 0.1064 -0.0781
-11 -7 -11 -0.8198 2.0038
-11 -7 -10 0.8094 -0.1223
-11 -7 -9 -0.3290 -2.1097
-11 -7 -8 -2.1090 0.9987
-11 -7 -7 3.2113 -0.1725
-11 -7 -6 -0.1061 -2.6240
-11 -7 -5 0.8903 2.8544
-11 -7 -4 0.4170 -1.6704
-11 -7 -3 -0.6314 2.7947
-11 -7 -2 1.4771 0.2162
-11 -7 -1 -3.2661 0.0436
-11 -7 0 2.9140 0.1506
-11 -5 -24 0.1435 0.7876
-11 -5 -23 1.5396 1.5100
-11 -5 -22 1.1327 -0.9168
-11 -5 -21 0.7004 0.9127
-11 -5 -20 -0.0316 1.7760
-11 -5 -19 0.7520 1.8446
-11 -5 -18 -1.0976 -0.4779
-11 -5 -17 -1.2944 2.9776
-11 -5 -16 0.3162 -0.3312
-11 -5 -15 -2.2082 1.1161
-11 -5 -14 -0.9560 -1.5309
-11 -5 -13 -2.6456 -1.3018
-11 -5 -12 3.7693 -0.6975
-11 -5 -11 1.5972 -1.3734
-11 -5 -10 0.5550 2.2433
-11 -5 -9 -1.7583 1.1125
-11 -5 -8 -0.7506 0.8528
-11 -5 -7 0.4592 -0.2921
-11 -5 -6 -0.5851 2.0311
-11 -5 -5 -4.2914 -0.1830
-11 -5 -4 -1.2398 -0.6382
-11 -5 -3 0.4020 -3.2043
-11 -5 -2 0.0287 -0.1247
-11 -5 -1 0.9535 -3.0391
-11 -5 0 -4.1204 -0.1728
-11 -3 -25 0.0174 -1.2416
-11 -3 -24 -2.5899 1.0843
-11 -3 -23 -1.3035 -2.3865
-11 -3 -22 -2.4576 -1.1254
-11 -3 -21 1.0029 -1.5870
-11 -3 -20 0.7098 -1.5848
-11 -3 -19 2.1504 -1.6592
-11 -3 -18 2.3993 0.7204
-11 -3 -17 2.4086 -0.2380
-11 -3 -16 -2.1652 2.3543
-11 -3 -15 2.3001 2.3429
-11 -3 -14 -0.2586 -1.5332
-11 -3 -13 -0.4183 -0.0394
-11 -3 -12 -0.8152 0.3601
-11 -3 -11 2.5069 2.1007
-11 -3 -10 -2.4128 0.5582
-11 -3 -9 -2.2337 2.7236
-11 -3 -8 -0.5495 -5.3013
-11 -3 -7 -1.5215 -0.6454
-11 -3 -6 3.2563 -1.7643
-11 -3 -5 1.6013 -1.0610
-11 -3 -4 2.4486 0.9630
-11 -3 -3 -0.8606 -1.4158
-11 -3 -2 0.7749 0.1713
-11 -3 -1 3.5056 2.3290
-11 -3 0 0.0858 1.7110
-11 -1 -23 0.4721 1.6780
-11 -1 -22 2.6423 -2.3771
-11 -1 -20 0.5357 2.4072
-11 -1 -19 -3.5721 -0.9703
-11 -1 -18 -1.1569 -0.8647
-11 -1 -17 -1.1363 -3.7737
-11 -1 -16 0.6744 -0.4730
-11 -1 -15 -0.4717 -1.0211
-11 -1 -14 0.2586 -1.0941
-11 -1 -13 0.0029 -1.6096
-11 -1 -12 3.1932 -0.1755
-11 -1 -11 -1.2188 -1.8663
-11 -1 -10 1.8334 2.7209
-11 -1 -9 0.2598 -1.3932
-11 -1 -8 -1.2837 3.6658
-11 -1 -7 -1.2106 -4.7547
-11 -1 -6 -2.5993 0.4889
-11 -1 -5 3.3459 -2.6996
-11 -1 -4 -1.6746 -2.5426
-11 -1 -3 6.1622 -0.0986
-11 -1 -2 2.7232 0.9460
-11 -1 -1 0.6401 5.1185
-11 -1 0 0.5427 -0.0189
-11 1 1 0.4238 -2.2725
-11 1 2 -0.2882 3.1882
-11 1 3 4.8013 -1.4567
-11 1 4 -0.4580 1.8625
-11 1 5 0.4658 0.8228
-11 1 6 -2.4907 0.4730
-11 1 7 0.1573 -0.4150
-11 1 8 -2.0311 1.4049
-11 1 9 2.4557 1.4933
-11 1 10 -2.8674 -2.6157
-11 1 11 -0.9455 -0.4150
-11 1 12 2.0761 0.4271
-11 1 13 0.6008 -3.0499
-11 1 14 -2.9124 0.1604
-11 1 15 3.8232 -0.3254
-11 1 16 -1.3431 -0.9060
-11 1 17 0.7986 2.0169
-11 1 18 -0.8181 -3.7626
-11 1 19 1.8235 0.3371
-11 1 20 2.6999 -0.2166
-11 1 21 0.4027 1.4525
-11 1 22 0.6356 1.0360
-11 1 23 -0.3727 -0.1325
-11 1 24 -1.4607 -0.4014
-11 1 25 -0.4386 1.1959
-11 1 26 1.1639 -1.1001
-11 1 27 -0.1607 -1.2867
-11 1 28 1.4084 -0.1516
-11 1 29 0.3453 0.3769
-11 1 30 0.9184 1.8018
-11 1 31 0.6240 0.0726
-11 1 32 -1.1826 1.9105
-11 1 33 -0.6451 -0.0440
-11 1 34 -1.1849 -0.5532
-11 1 35 0.3463 -0.0857
-11 3 1 1.4153 -1.2663
-11 3 2 1.3624 -1.1436
-11 3 3 -0.4372 0.1697
-11 3 4 -1.1106 0.3005
-11 3 5 2.0861 0.5311
-11 3 6 0.0106 0.1036
-11 3 7 -2.3725 2.2762
-11 3 8 2.1779 -1.2899
-11 3 9 -1.2667 -0.3384
-11 3 10 2.3434 -1.2847
-11 3 11 -3.0355 -1.9119
-11 3 12 1.1768 3.0608
-11 3 13 1.6858 0.1698
-11 3 14 0.6637 -0.2408
-11 3 15 -0.5326 -0.6918
-11 3 16 2.7607 2.3932
-11 3 17 -0.3656 -0.0162
-11 3 18 -0.4155 3.5508
-11 3 19 0.9828 -0.6280
-11 3 20 -0.8909 0.4752
-11 3 21 0.2149 2.2203
-11 3 22 -1.9008 2.5414
-11 3 23 -0.9986 1.1698
-11 3 24 -1.6459 -0.9294
-11 3 25 -0.8998 0.1254
-11 3 26 0.2393 0.0271
-11 3 27 -1.5447 -0.1624
-11 3 28 -1.8559 0.8800
-11 3 29 0.2765 -1.3066
-11 3 30 -0.9722 -1.9086
-11 3 31 0.2265 1.2087
-11 3 32 0.6726 -1.3988
-11 3 33 0.5691 -0.5704
-11 3 34 0.3268 -0.6627
-11 5 1 -1.2214 -0.1241
-11 5 2 1.0787 -3.0574
-11 5 3 -2.0149 -0.4925
-11 5 4 0.2215 -1.3127
-11 5 5 1.9802 0.4609
-11 5 6 3.8097 -1.3151
-11 5 7 -0.8562 0.9204
-11 5 8 -3.0203 0.5466
-11 5 9 -0.2094 0.1446
-11 5 10 1.9072 0.1042
-11 5 11 -2.2863 0.5539
-11 5 12 -0.3420 -1.0923
-11 5 13 1.5158 -0.5518
-11 5 14 0.4837 -1.1150
-11 5 15 -1.9504 0.1058
-11 5 16 0.4833 -0.6011
-11 5 17 -0.8638 0.4442
-11 5 18 -0.0141 -0.5894
-11 5 19 -1.2146 -3.0936
-11 5 20 0.7733 0.1481
-11 5 21 0.4192 -0.8148
-11 5 22 0.9211 -1.0135
-11 5 23 1.3067 -0.7025
-11 5 24 0.5243 0.6377
-11 5 25 -1.6714 -0.0114
-11 5 26 -0.4561 -0.0757
-11 5 27 -0.0125 -2.1404
-11 5 28 0.8438 0.0616
-11 5 29 1.3593 -1.4530
-11 5 30 -0.0199 0.5742
-11 5 31 1.1813 -1.0306
-11 5 32 -0.2602 0.0369
-11 5 33 0.6350 0.9496
-11 7 1 0.3875 2.0606
-11 7 2 0.0530 2.1598
-11 7 3 0.1736 0.8884
-11 7 4 -1.3663 2.0874
-11 7 5 -1.1109 -1.0503
-11 7 6 -0.8622 0.4215
-11 7 7 -0.4753 0.8773
-11 7 8 -1.2439 -0.4559
-11 7 9 0.5680 0.8761
-11 7 10 0.3870 0.7775
-11 7 11 0.2059 -1.1876
-11 7 12 -1.9151 -0.8552
-11 7 13 -0.5219 0.5004
-11 7 14 0.5718 0.1405
-11 7 15 0.8032 1.0293
-11 7 16 0.7429 -1.0653
-11 7 17 -0.7175 0.5011
-11 7 18 0.0874 2.0351
-11 7 19 0.2663 1.2731
-11 7 20 -0.6029 -0.6997
-11 7 21 -1.0273 0.7540
-11 7 22 -0.7994 -0.2922
-11 7 23 -1.1094 -0.6999
-11 7 24 1.9505 -0.0418
-11 7 25 0.8733 1.1397
-11 7 26 -1.4121 -0.0750
-11 7 27 -1.0196 0.6362
-11 7 28 2.1392 -0.3119
-11 7 29 -0.6590 -0.0686
-11 7 30 -0.8730 0.6875
-11 9 1 -1.0305 -2.0871
-11 9 2 -0.6894 -1.0880
-11 9 3 2.0000 -0.3188
-11 9 4 0.5188 -1.9129
-11 9 5 -0.9506 1.2031
-11 9 6 0.0301 0.2259
-11 9 7 1.0187 -1.8889
-11 9 8 1.4961 0.0276
-11 9 9 -1.0813 0.0918
-11 9 10 -0.6296 0.0129
-11 9 11 1.7340 0.6315
-11 9 12 -1.1594 -0.4407
-11 9 13 -1.8653 -0.2632
-11 9 14 1.1727 -0.3581
-11 9 15 0.7009 -0.8254
-11 9 16 -1.3481 0.2004
-11 9 17 -0.6218 -1.1278
-11 9 18 0.4892 -0.8020
-11 9 19 1.2897 -0.8343
-11 9 20 -0.6135 -0.4954
-11 9 21 1.7425 0.1502
-11 9 22 0.1094 -0.8702
-11 9 23 -0.6731 1.0742
-11 9 24 0.2455 0.2173
-11 9 25 0.4734 -1.0477
-11 11 1 1.7555 0.4103
-11 11 2 -0.9666 -0.0322
-11 11 3 -1.5325 -0.1650
-11 11 4 0.4948 -0.2753
-11 11 5 0.3958 -0.4377
-11 11 6 0.3697 0.0720
-11 11 7 -1.4497 -0.4680
-11 11 8 -0.1572 0.2821
-11 11 9 3.2659 -4.3759
-11 11 10 0.5390 1.0702
-11 11 11 1.7816 3.8382
-11 11 12 -1.0154 0.3305
-11 11 13 -0.3942 -0.2373
-11 11 14 -1.2005 -0.3908
-11 11 15 0.2201 1.0348
-11 11 16 0.8124 -0.8472
-11 11 17 0.0796 -0.4720
-11 11 18 -0.2856 0.5255
-10 -12 -7 -0.0320 0.7725
-10 -12 -6 -1.4921 0.0349
-10 -12 -5 -1.2521 0.5192
-10 -12 -4 1.9543 -0.4453
-10 -12 -3 0.7585 -1.8778
-10 -12 -2 -1.0151 -0.1277
-10 -12 -1 0.8525 1.7571
-10 -12 0 0.0003 -0.4323
-10 -10 -16 0.3951 -1.4025
-10 -10 -15 1.4222 -0.0343
-10 -10 -14 0.5351 0.2085
-10 -10 -13 0.7345 1.0414
-10 -10 -12 1.1548 0.8982
-10 -10 -11 -0.3208 1.3969
-10 -10 -10 -0.3060 0.7379
-10 -10 -9 -0.8814 -0.3881
-10 -10 -8 -2.0326 1.5817
-10 -10 -7 -0.1834 1.4247
-10 -10 -6 -0.3539 -0.3122
-10 -10 -5 -1.6088 -1.6262
-10 -10 -4 -1.9658 -1.5506
-10 -10 -3 1.3109 -1.8655
-10 -10 -2 0.7382 -0.0888
-10 -10 -1 1.4691 1.3800
-10 -10 0 0.6448 0.0871
-10 -8 -20 1.7198 -0.4164
-10 -8 -19 1.1679 2.3897
-10 -8 -18 -0.9915 0.8630
-10 -8 -17 -1.1499 2.2105
-10 -8 -16 0.0192 -0.6579
-10 -8 -15 -2.3889 0.6892
-10 -8 -14 0.4709 0.2936
-10 -8 -13 0.4034 -0.2499
-10 -8 -12 -1.2476 -0.5266
-10 -8 -11 -2.1446 -0.4905
-10 -8 -10 1.8461 -0.5563
-10 -8 -9 1.1561 -1.6649
-10 -8 -8 -1.1871 1.2273
-10 -8 -7 2.3520 1.1016
-10 -8 -6 -0.1393 -1.7434
-10 -8 -5 -1.6842 2.4197
-10 -8 -4 0.3980 -0.0238
-10 -8 -3 -1.3059 1.0418
-10 -8 -2 1.8461 -2.8962
-10 -8 -1 -1.3735 -2.1150
-10 -8 0 2.8826 3.3455
-10 -6 -23 0.3287 -0.7236
-10 -6 -22 -1.8187 -3.2645
-10 -6 -21 -1.8977 1.8491
-10 -6 -20 0.8417 -1.4252
-10 -6 -19 -0.4093 -2.8714
-10 -6 -18 -0.1994 0.2466
-10 -6 -17 1.1818 0.0097
-10 -6 -16 1.1978 -1.9665
-10 -6 -15 -0.0909 -0.4111
-10 -6 -14 1.2938 1.1717
-10 -6 -13 2.5089 -0.1705
-10 -6 -12 0.6070 1.5375
-10 -6 -11 -1.1293 2.6685
-10 -6 -10 -3.6383 1.5032
-10 -6 -9 -0.5769 0.1076
-10 -6 -8 0.7618 -3.9268
-10 -6 -7 -0.9334 1.1469
-10 -6 -6 2.3314 1.9598
-10 -6 -5 -0.7066 -1.7202
-10 -6 -4 1.1672 2.3633
-10 -6 -3 0.1603 -0.9782
-10 -6 -2 -3.4092 2.9982
-10 -6 -1 1.0533 0.5256
-10 -6 0 -2.1492 0.5596
-10 -4 -26 1.6210 0.4250
-10 -4 -24 -0.7710 2.1186
-10 -4 -23 2.7940 1.6300
-10 -4 -22 1.6025 -0.2105
-10 -4 -21 -0.5840 1.8629
-10 -4 -20 1.7741 2.9984
-10 -4 -19 -2.0538 1.0179
-10 -4 -18 -1.1419 3.5241
-10 -4 -17 -3.7548 -2.0062
-10 -4 -16 -5.0476 2.2728
-10 -4 -15 1.1563 -3.0707
-10 -4 -14 -2.6385 -3.6130
-10 -4 -13 -2.1394 -0.7494
-10 -4 -12 -0.5538 -1.0050
-10 -4 -11 2.3980 -2.3121
-10 -4 -10 0.0915 -1.7604
-10 -4 -9 -1.1679 -1.1908
-10 -4 -8 1.0410 -0.2020
-10 -4 -7 3.1648 -1.6110
-10 -4 -6 0.5473 0.1886
-10 -4 -5 -0.1034 3.4180
-10 -4 -4 -5.0975 0.7270
-10 -4 -3 -2.1440 -1.0197
-10 -4 -2 1.2173 -2.0531
-10 -4 -1 -1.3582 1.1968
-10 -4 0 -2.8521 -4.6703
-10 -2 -25 1.7114 5.1564
-10 -2 -24 -3.3207 -1.3165
-10 -2 -23 -2.9916 3.2026
-10 -2 -22 0.6061 -3.9266
-10 -2 -21 -3.8546 -1.8203
-10 -2 -20 0.5423 -1.2750
-10 -2 -19 0.8839 -2.6115
-10 -2 -18 3.1682 -3.6044
-10 -2 -17 3.2363 0.8506
-10 -2 -16 2.8351 2.3269
-10 -2 -15 -0.5853 3.3401
-10 -2 -14 2.8038 -1.1053
-10 -2 -13 -1.7978 -0.4398
-10 -2 -12 3.8925 2.8713
-10 -2 -11 -1.9222 0.9941
-10 -2 -10 0.5028 4.3544
-10 -2 -9 -2.5777 -3.5182
-10 -2 -8 -1.6775 1.5683
-10 -2 -7 1.7911 -6.5041
-10 -2 -6 -1.8761 1.5624
-10 -2 -5 5.5942 0.8141
-10 -2 -4 0.3035 -1.8293
-10 -2 -3 2.1746 2.9907
-10 -2 -2 -1.4567 0.2446
-10 -2 -1 -3.2158 -3.1336
-10 -2 0 1.2795 -2.9512
-10 0 -20 -1.7241 2.5533
-10 0 -16 -3.8394 -2.5919
-10 0 -14 -1.3708 -2.0978
-10 0 -12 0.7996 -2.5476
-10 0 -10 -0.3148 -0.8014
-10 0 -8 -2.9252 -2.0486
-10 0 -6 2.7244 -8.4126
-10 0 -4 10.4946 0.1596
-10 0 -2 6.3482 6.7840
-10 0 0 -4.8858 11.6253
-10 0 2 -3.2765 0.8618
-10 0 4 -8.0979 0.6282
-10 0 6 0.3522 -2.3001
-10 0 8 -1.7072 1.5056
-10 0 10 -2.3841 -2.8443
-10 0 12 3.7492 1.2818
-10 0 14 -4.8443 4.0378
-10 0 16 -1.7641 -0.2651
-10 0 18 -3.2199 -0.6932
-10 0 20 -1.2378 -2.2970
-10 0 22 -0.6195 -1.6039
-10 0 24 0.5245 -0.6005
-10 0 26 1.0878 -0.3929
-10 0 28 -0.8553 1.8774
-10 0 30 -1.3886 -1.6837
-10 0 32 -0.5371 -1.4394
-10 0 34 0.7497 -1.4199
-10 0 36 1.6727 0.0945
-10 2 1 -2.6020 2.3570
-10 2 2 1.7719 -0.4012
-10 2 3 -6.6101 2.6360
-10 2 4 3.1376 0.3356
-10 2 5 -3.0817 -1.9198
-10 2 6 0.4245 0.9182
-10 2 7 -4.3602 -2.4066
-10 2 8 0.7234 -0.5391
-10 2 9 -0.9492 -2.8360
-10 2 10 1.6024 0.6522
-10 2 11 -2.9295 -3.1339
-10 2 12 1.3307 2.2361
-10 2 13 2.7627 -1.6778
-10 2 14 -1.5802 -1.7499
-10 2 15 -2.8768 0.1547
-10 2 16 2.8731 0.2949
-10 2 17 -0.6739 -2.8322
-10 2 18 -1.2927 0.8002
-10 2 19 -0.0700 -4.1113
-10 2 20 1.5533 0.2276
-10 2 21 1.8839 -0.0544
-10 2 22 -0.7082 0.4441
-10 2 23 0.9020 -1.6752
-10 2 24 0.2702 -1.4903
-10 2 25 0.4738 0.5430
-10 2 26 0.9907 0.4876
-10 2 27 0.2511 -2.3682
-10 2 28 0.1845 0.0898
-10 2 29 3.8241 -0.2631
-10 2 30 0.7842 0.8585
-10 2 31 0.4259 1.9832
-10 2 32 -0.3390 0.5907
-10 2 33 -0.2739 2.0613
-10 2 34 -0.7661 -0.0317
-10 2 35 -1.0895 0.1290
-10 2 36 0.4905 -0.0825
-10 4 1 2.2259 4.9779
-10 4 2 4.7626 -2.2255
-10 4 3 -0.2926 1.0469
-10 4 4 0.9101 1.6697
-10 4 5 -1.6370 1.7695
-10 4 6 0.8917 -0.1186
-10 4 7 -3.3351 1.0017
-10 4 8 -1.4707 0.4651
-10 4 9 1.1533 -1.4764
-10 4 10 1.2029 -1.9697
-10 4 11 0.5018 -0.2460
-10 4 12 0.9078 -0.0343
-10 4 13 1.1942 0.7692
-10 4 14 1.5100 0.3376
-10 4 15 -1.4627 1.4267
-10 4 16 1.6434 1.8197
-10 4 17 0.4340 0.3279
-10 4 18 -1.1005 0.2918
-10 4 19 -0.0593 1.3949
-10 4 20 2.2426 0.9163
-10 4 21 -0.3528 0.1874
-10 4 22 -0.7753 3.1597
-10 4 23 -1.5566 0.3514
-10 4 24 -1.0925 0.7855
-10 4 25 -0.1799 -0.3764
-10 4 26 -0.2622 1.0642
-10 4 27 0.7104 0.4468
-10 4 28 -0.8458 0.2093
-10 4 29 -1.5570 0.5413
-10 4 30 -0.9782 0.5797
-10 4 31 -0.4629 -0.2319
-10 4 32 -0.5087 0.6095
-10 4 33 -0.2101 -1.2672
-10 4 34 0.3235 -0.2355
-10 4 35 0.1765 -0.2352
-10 6 1 -2.9166 -2.5337
-10 6 2 -1.8917 -2.3346
-10 6 3 2.7503 -3.2109
-10 6 4 -0.5508 -0.8390
-10 6 5 3.2735 -0.3639
-10 6 6 -0.1632 0.0686
-10 6 7 3.3655 1.6786
-10 6 8 0.1217 0.4790
-10 6 9 -1.4786 0.7354
-10 6 10 -0.0766 -2.0834
-10 6 11 0.5995 0.6949
-10 6 12 -2.1301 0.8954
-10 6 13 1.0469 0.6913
-10 6 14 0.9432 -1.7639
-10 6 15 -0.2374 0.2013
-10 6 16 -1.1020 -0.8006
-10 6 17 0.2446 0.9538
-10 6 18 0.6564 -0.4840
-10 6 19 -1.0210 -1.1127
-10 6 20 -0.5719 -3.4572
-10 6 21 0.7126 2.2750
-10 6 22 2.0225 -0.7907
-10 6 23 -0.7297 -0.6019
-10 6 24 1.4147 0.3291
-10 6 25 -0.7512 0.8210
-10 6 26 -0.7091 -1.5769
-10 6 27 -1.4223 -0.9146
-10 6 28 2.2832 -0.3027
-10 6 29 0.2980 -0.1536
-10 6 30 -0.2375 0.3370
-10 6 31 -0.2287 0.3054
-10 6 32 1.4447 -1.6206
-10 6 33 -0.8593 -0.4737
-10 8 1 0.5301 -0.4650
-10 8 2 -2.3682 2.7985
-10 8 3 1.5386 1.3607
-10 8 4 -0.8133 -0.0510
-10 8 5 -1.7001 2.7999
-10 8 6 -0.0921 -1.6619
-10 8 7 -0.3581 -0.1168
-10 8 8 -2.1511 1.1726
-10 8 9 -1.8989 -0.9960
-10 8 10 0.8556 -0.2691
-10 8 11 1.6378 -0.3996
-10 8 12 -1.0159 0.3685
-10 8 13 0.0199 0.8186
-10 8 14 0.1265 -0.7235
-10 8 15 0.5301 0.3817
-10 8 16 -1.5297 0.1258
-10 8 17 0.5061 0.3488
-10 8 18 0.8939 0.2122
-10 8 19 0.4947 1.2310
-10 8 20 -2.2158 1.3112
-10 8 21 -0.4983 0.2592
-10 8 22 -0.3520 -1.8196
-10 8 23 0.2132 1.4933
-10 8 24 0.3242 -0.0606
-10 8 25 -0.4870 -0.5696
-10 8 26 -1.6082 1.0620
-10 8 27 0.0028 0.6027
-10 8 28 0.1875 -1.3900
-10 8 29 0.7905 -0.4948
-10 10 1 0.2756 -0.3882
-10 10 2 -1.2551 -1.0982
-10 10 3 -0.0040 0.2389
-10 10 4 1.6512 0.6087
-10 10 5 -0.0284 -0.8279
-10 10 6 -0.5131 1.3295
-10 10 7 -1.7358 0.5818
-10 10 8 0.1786 -0.4958
-10 10 9 -0.0099 -0.6804
-10 10 10 -2.2028 1.6448
-10 10 11 -0.3548 -1.7180
-10 10 12 0.3792 -2.4207
-10 10 13 -0.7074 -1.8483
-10 10 14 -0.3764 1.5161
-10 10 15 3.1085 -0.9622
-10 10 16 0.7084 -1.5533
-10 10 17 -1.1943 1.4092
-10 10 18 -0.8726 1.0018
-10 10 19 1.0388 -1.2031
-10 10 20 0.4555 -0.3577
-10 10 21 -0.0596 0.7717
-10 10 22 -0.2014 0.5907
-10 10 23 -1.2919 -1.4757
-10 10 24 -0.4188 -0.0019
-10 12 1 1.4331 0.5928
-10 12 2 0.4189 -0.2705
-10 12 3 -1.1073 0.0423
-10 12 4 0.1331 -0.6792
-10 12 5 1.1439 -0.0868
-10 12 6 -0.5738 -0.2010
-10 12 7 -1.4285 0.0040
-10 12 8 -0.0721 -0.8554
-10 12 9 0.8878 -0.7706
-10 12 10 2.1951 -2.6610
-10 12 11 -0.0277 1.7749
-10 12 12 1.3160 1.6038
-10 12 13 -1.4876 -1.8581
-10 12 14 0.5741 -0.0912
-10 12 15 1.1321 0.1759
-9 -13 -4 0.2596 -0.3930
-9 -13 -3 -0.4634 0.0353
-9 -13 -2 -1.0916 1.1277
-9 -13 -1 -0.1266 1.8852
-9 -13 0 -0.4368 -1.6454
-9 -11 -15 -0.7915 1.2487
-9 -11 -14 -2.5441 0.0862
-9 -11 -13 0.8866 -0.7344
-9 -11 -12 -1.0953 -0.4347
-9 -11 -11 -1.8719 0.3312
-9 -11 -10 -0.5690 -1.9440
-9 -11 -9 0.2253 -1.1528
-9 -11 -8 1.9883 -0.0232
-9 -11 -7 1.9779 -0.7015
-9 -11 -6 -0.3971 -0.4612
-9 -11 -5 -1.9241 0.6925
-9 -11 -4 0.7834 0.1849
-9 -11 -3 1.9324 -0.6834
-9 -11 -2 0.2287 0.5560
-9 -11 -1 -0.1047 0.5042
-9 -11 0 -0.1346 0.2704
-9 -9 -18 -0.8010 -2.8984
-9 -9 -17 -0.3645 0.9415
-9 -9 -16 1.5941 -2.2211
-9 -9 -15 -1.0732 -0.1199
-9 -9 -14 2.9480 -0.4092
-9 -9 -13 -1.4723 0.5082
-9 -9 -12 -0.4100 0.9562
-9 -9 -11 -1.0920 -0.6131
-9 -9 -10 1.1983 0.5225
-9 -9 -9 -0.1588 -1.4025
-9 -9 -8 -1.8610 0.3820
-9 -9 -7 -0.1507 -0.1113
-9 -9 -6 -0.3960 -1.3198
-9 -9 -5 0.2498 -0.6354
-9 -9 -4 0.8071 -0.7587
-9 -9 -3 0.6221 -1.4581
-9 -9 -2 1.0318 -1.9029
-9 -9 -1 0.3891 2.1199
-9 -9 0 2.1968 2.2176
-9 -7 -21 -0.2813 2.9293
-9 -7 -20 4.2844 -0.0791
-9 -7 -19 -3.0181 -0.8291
-9 -7 -17 -0.3588 -2.3719
-9 -7 -16 -1.9574 1.1952
-9 -7 -15 -0.0783 -2.2500
-9 -7 -14 -2.0524 2.1001
-9 -7 -13 2.8143 -2.9442
-9 -7 -12 -3.7435 -1.4790
-9 -7 -11 2.5610 0.6342
-9 -7 -10 0.8637 -3.1990
-9 -7 -9 3.7036 0.0795
-9 -7 -8 2.1242 -1.4011
-9 -7 -7 -1.2610 3.9789
-9 -7 -6 3.0557 0.9113
-9 -7 -5 0.0081 -2.9155
-9 -7 -4 -2.3544 3.1581
-9 -7 -3 0.9026 0.7461
-9 -7 -2 -0.1604 -1.0620
-9 -7 -1 3.8294 -1.1694
-9 -7 0 0.4128 -0.2635
-9 -5 -24 0.0572 1.4110
-9 -5 -23 -0.6332 -1.3371
-9 -5 -22 -3.4060 -2.5739
-9 -5 -20 2.1228 -0.9358
-9 -5 -19 -0.3077 -3.9034
-9 -5 -18 0.0173 0.3057
-9 -5 -17 3.3923 -0.1296
-9 -5 -16 1.2416 -1.0118
-9 -5 -15 3.1516 1.0057
-9 -5 -14 1.9893 1.5350
-9 -5 -13 -0.4367 4.5163
-9 -5 -12 4.0013 1.3667
-9 -5 -11 -1.7954 2.5399
-9 -5 -10 0.3166 5.0476
-9 -5 -9 -4.2798 -1.8716
-9 -5 -8 -1.2942 6.1879
-9 -5 -7 1.6966 -3.4552
-9 -5 -6 -6.6089 2.2642
-9 -5 -5 0.8962 3.9054
-9 -5 -4 -3.0682 -3.0621
-9 -5 -3 1.8631 -0.3859
-9 -5 -2 0.7501 -2.5099
-9 -5 -1 -3.5246 3.1374
-9 -5 0 1.3144 0.3538
-9 -3 -27 3.1588 1.9303
-9 -3 -26 -0.8321 -0.1136
-9 -3 -25 -0.8945 0.4624
-9 -3 -24 -1.1121 -4.6016
-9 -3 -23 1.2726 1.4107
-9 -3 -22 4.1269 -3.0998
-9 -3 -21 -1.3325 1.9466
-9 -3 -20 2.8619 4.3124
-9 -3 -19 0.1736 1.5105
-9 -3 -18 -1.7283 2.5657
-9 -3 -17 -3.7052 4.0578
-9 -3 -16 -5.1094 -0.1433
-9 -3 -15 -5.1248 -2.4397
-9 -3 -14 0.6640 -4.7019
-9 -3 -13 -1.5772 -2.0314
-9 -3 -12 -0.2487 3.1806
-9 -3 -11 -2.0551 -2.9565
-9 -3 -10 -2.0522 -3.5090
-9 -3 -9 0.1980 -2.3873
-9 -3 -8 -0.2812 -0.4375
-9 -3 -7 1.5799 1.0960
-9 -3 -6 0.5384 2.1529
-9 -3 -5 -1.1344 -1.3976
-9 -3 -4 -1.2008 -0.3802
-9 -3 -3 -4.7217 1.4325
-9 -3 -2 -3.9189 0.1182
-9 -3 -1 -0.1432 -5.7143
-9 -3 0 -2.1334 1.9458
-9 -1 -23 -1.3684 -1.2165
-9 -1 -22 -0.7190 -0.0494
-9 -1 -20 -2.2530 0.1074
-9 -1 -19 -1.1629 -1.1273
-9 -1 -18 -0.4098 -2.4918
-9 -1 -17 -0.3241 -4.8410
-9 -1 -16 -0.2028 -0.1415
-9 -1 -15 4.0261 2.7370
-9 -1 -14 1.3191 -3.1724
-9 -1 -13 -0.0526 1.0983
-9 -1 -12 2.2898 -0.4007
-9 -1 -11 -1.1702 1.2827
-9 -1 -10 -0.1537 2.8853
-9 -1 -9 -2.7405 0.5361
-9 -1 -8 -1.4422 -4.3931
-9 -1 -7 1.1657 -1.5547
-9 -1 -6 4.0237 -4.9550
-9 -1 -5 -2.0913 0.9745
-9 -1 -4 5.1511 2.2241
-9 -1 -3 -4.7401 -4.2958
-9 -1 -2 1.2596 3.5778
-9 -1 -1 -0.4189 -4.7938
-9 -1 0 -1.4230 -4.5963
-9 1 1 -6.8582 7.8390
-9 1 2 6.3085 -1.4355
-9 1 3 -3.1764 -2.0131
-9 1 4 5.7210 1.7463
-9 1 5 -4.4202 1.1434
-9 1 6 3.8050 4.8497
-9 1 7 0.5302 -0.4388
-9 1 8 0.2688 4.7089
-9 1 9 -4.7461 2.1981
-9 1 10 -0.8368 2.0664
-9 1 11 -3.3722 -2.3105
-9 1 12 0.4177 3.0546
-9 1 13 1.0158 -3.0115
-9 1 14 -3.1550 1.8084
-9 1 15 -1.5202 1.5261
-9 1 16 0.5345 -0.8281
-9 1 17 -0.0226 -0.7885
-9 1 18 -1.7612 1.0337
-9 1 19 -2.2378 -0.0204
-9 1 20 1.5756 -0.5777
-9 1 21 0.3901 -2.9321
-9 1 22 -0.6256 2.3406
-9 1 23 1.1248 -0.7076
-9 1 24 -0.8029 0.2142
-9 1 25 1.1359 0.2054
-9 1 26 -0.3374 0.3262
-9 1 27 -0.0870 0.8277
-9 1 28 -0.7397 0.7847
-9 1 29 -0.3798 0.4943
-9 1 30 -1.7458 -0.0217
-9 1 31 -1.2922 -1.6342
-9 1 32 -0.2183 -0.2988
-9 1 33 1.2811 -2.1745
-9 1 34 -0.1023 -1.1453
-9 1 35 1.1081 -0.1225
-9 1 36 0.0073 0.3314
-9 1 37 1.2214 0.5586
-9 3 1 -2.5202 3.0380
-9 3 2 -2.8246 -3.3832
-9 3 3 -3.1248 -2.2260
-9 3 4 -6.0633 0.2478
-9 3 5 2.1252 -1.1760
-9 3 6 -0.6502 -7.7713
-9 3 7 0.3460 0.4664
-9 3 8 0.6233 -2.5907
-9 3 9 1.0229 0.1051
-9 3 10 3.3957 -2.8546
-9 3 11 -0.5607 2.4680
-9 3 12 -0.0624 0.0003
-9 3 13 -1.3873 0.3665
-9 3 14 1.2311 -0.5393
-9 3 15 -1.6162 -1.5064
-9 3 16 0.2618 0.1554
-9 3 17 0.7872 -1.6339
-9 3 18 -0.1652 -0.4720
-9 3 19 -0.5528 0.6650
-9 3 20 1.1193 -1.9103
-9 3 21 -0.4776 -1.0183
-9 3 22 -0.3776 1.2215
-9 3 23 0.5429 -0.8197
-9 3 24 0.6973 -1.6955
-9 3 25 0.2415 -0.4243
-9 3 26 0.0395 0.7152
-9 3 27 -0.4337 -0.8763
-9 3 28 -0.0343 -2.1707
-9 3 29 0.4522 0.1494
-9 3 30 3.2579 -0.1922
-9 3 31 0.2824 0.1657
-9 3 32 0.3600 0.3577
-9 3 33 -0.7016 -0.5082
-9 3 34 0.6083 1.7452
-9 3 35 0.0700 -0.6206
-9 3 36 0.1568 0.2683
-9 3 37 0.4216 -0.0350
-9 5 1 0.6041 -1.1856
-9 5 2 0.6302 4.0412
-9 5 3 4.2129 -0.0948
-9 5 4 -3.0411 2.2425
-9 5 5 1.1028 2.7476
-9 5 6 -4.7557 -1.8361
-9 5 7 1.5096 1.8658
-9 5 8 -2.3616 -3.0551
-9 5 9 -1.7002 0.0382
-9 5 10 1.5217 -2.5497
-9 5 11 1.7503 0.7792
-9 5 12 1.8961 0.9015
-9 5 13 0.8146 0.8724
-9 5 14 -1.5036 -0.9768
-9 5 15 0.8739 3.3296
-9 5 16 -0.4431 -0.5154
-9 5 17 -0.5208 2.3523
-9 5 18 -0.7267 -2.1597
-9 5 19 -2.3892 1.0327
-9 5 20 2.1028 0.5460
-9 5 21 -0.1927 1.5981
-9 5 22 0.4958 -1.8217
-9 5 23 -2.4645 0.7292
-9 5 24 0.9832 0.5132
-9 5 25 -0.6813 0.5878
-9 5 26 0.2494 -0.2871
-9 5 27 -1.3838 0.2046
-9 5 28 1.9123 1.4305
-9 5 29 0.3253 -0.8144
-9 5 30 -1.9166 -0.0511
-9 5 31 -0.5234 0.9575
-9 5 32 1.5428 -0.3513
-9 5 33 -0.8418 0.6001
-9 5 34 -0.2241 0.6651
-9 5 35 0.4194 0.3124
-9 7 1 -0.5116 -3.1113
-9 7 2 -1.2667 -0.8925
-9 7 3 1.6911 -1.6309
-9 7 4 1.7100 -1.0363
-9 7 5 -0.4437 -0.9042
-9 7 6 1.5344 0.5826
-9 7 7 0.2748 -0.4090
-9 7 8 1.5597 1.4187
-9 7 9 1.7106 1.2190
-9 7 10 -0.9465 0.7607
-9 7 11 0.3133 -1.4417
-9 7 12 -0.5547 1.9891
-9 7 13 0.3116 -0.0963
-9 7 14 -1.7229 -0.6831
-9 7 15 0.4091 0.0495
-9 7 16 -0.0607 -0.2331
-9 7 17 0.3118 -0.0422
-9 7 18 -0.2579 -0.1644
-9 7 19 0.4485 -0.1635
-9 7 20 -1.9072 -1.3991
-9 7 21 1.6211 -2.0250
-9 7 22 1.3057 0.0877
-9 7 23 0.9067 0.3778
-9 7 24 -0.6134 -0.0187
-9 7 25 1.2710 0.7165
-9 7 26 -0.7183 -0.1742
-9 7 27 1.6670 -0.7976
-9 7 28 -0.0008 -1.4771
-9 7 29 0.3695 2.2098
-9 7 30 -0.5527 0.8760
-9 7 31 -0.6416 0.5531
-9 7 32 -0.0059 -0.8924
-9 7 33 0.2296 -0.6509
-9 9 1 0.2627 0.3213
-9 9 2 -0.6648 0.1991
-9 9 3 -1.0088 1.4202
-9 9 4 1.5247 -0.3497
-9 9 5 -0.8853 -0.7538
-9 9 6 -1.1636 2.9670
-9 9 7 -0.1749 -1.5144
-9 9 8 0.6137 0.0657
-9 9 9 -0.8914 -1.0785
-9 9 10 -0.0942 -1.1623
-9 9 11 1.1940 -0.3702
-9 9 12 0.9228 2.4716
-9 9 13 -1.0890 1.4154
-9 9 14 -0.3590 0.8320
-9 9 15 0.0812 -2.7561
-9 9 16 -1.1660 1.9877
-9 9 17 -0.8554 0.5224
-9 9 18 0.1933 0.0332
-9 9 19 0.8888 -2.3837
-9 9 20 -1.2170 0.8748
-9 9 21 0.0134 1.2478
-9 9 22 -0.6533 -0.7798
-9 9 23 0.9457 -1.7048
-9 9 24 1.4075 2.1473
-9 9 25 1.2380 0.5872
-9 9 26 -2.9448 -0.1587
-9 9 27 -0.9418 1.8337
-9 9 28 0.9578 -0.6889
-9 9 29 -0.5481 -1.1018
-9 11 1 1.7945 0.3695
-9 11 2 -0.6359 -0.1740
-9 11 3 -1.1402 1.0220
-9 11 4 1.0748 0.1667
-9 11 5 -0.5961 0.8749
-9 11 6 -0.1106 -0.1358
-9 11 7 -0.2324 0.4730
-9 11 8 -1.3420 0.9301
-9 11 9 -0.4181 -1.0362
-9 11 10 -0.2382 -0.7719
-9 11 11 -0.3675 2.1317
-9 11 12 0.0133 -1.0864
-9 11 13 -1.6855 -1.0488
-9 11 14 0.7343 -0.3424
-9 11 15 0.0805 0.6197
-9 11 16 0.4525 -0.8569
-9 11 17 -0.8214 -0.8291
-9 11 18 0.5985 1.4622
-9 11 19 -0.1430 -0.6564
-9 11 20 -0.2108 -0.9219
-9 11 21 -0.4396 0.5305
-9 11 22 0.4754 1.1430
-9 11 23 -0.5077 -0.2790
-9 13 1 1.4168 0.6618
-9 13 2 0.0773 -0.3450
-9 13 3 -0.9883 0.1041
-9 13 4 0.4044 0.5568
-9 13 5 0.5563 -0.3599
-9 13 6 0.0189 -0.2190
-9 13 7 -1.4298 -1.3214
-9 13 8 -0.9812 -0.5987
-9 13 9 1.6487 -0.2431
-9 13 10 -0.1557 -0.1410
-9 13 11 0.0196 -0.6181
-8 -12 -14 0.5185 0.1862
-8 -12 -13 0.6723 0.6419
-8 -12 -12 -0.5298 1.1898
-8 -12 -11 1.5035 1.0918
-8 -12 -10 1.8854 0.2018
-8 -12 -9 -0.3760 1.2124
-8 -12 -8 -0.6809 2.4307
-8 -12 -7 -1.1973 0.9910
-8 -12 -6 -1.9969 1.1898
-8 -12 -5 -1.4413 0.6633
-8 -12 -4 0.3333 -0.0074
-8 -12 -3 -0.5870 -1.1778
-8 -12 -2 -1.6614 0.1543
-8 -12 -1 -0.7434 0.7267
-8 -12 0 -0.7293 -0.1160
-8 -10 -17 1.2894 4.8857
-8 -10 -16 -0.8226 -1.0501
-8 -10 -15 -1.3560 3.1675
-8 -10 -14 1.1672 0.4119
-8 -10 -13 -4.1913 1.6725
-8 -10 -12 1.4308 0.4575
-8 -10 -11 -1.5031 -1.5539
-8 -10 -10 -0.3546 0.2659
-8 -10 -9 -0.8431 -1.4515
-8 -10 -8 0.9204 1.9232
-8 -10 -7 0.5534 0.2608
-8 -10 -6 -1.3023 0.8747
-8 -10 -5 0.2894 -0.7041
-8 -10 -4 -2.4459 -0.3466
-8 -10 -3 -0.1547 -0.2158
-8 -10 -2 -0.5801 -0.1415
-8 -10 -1 0.9710 1.4063
-8 -10 0 0.4382 -2.4762
-8 -8 -20 0.6601 -0.1725
-8 -8 -19 -5.1017 -2.8381
-8 -8 -18 2.5254 1.6942
-8 -8 -17 -0.4556 -5.3886
-8 -8 -16 -0.4375 3.7097
-8 -8 -15 1.5082 -2.7886
-8 -8 -14 -2.4271 2.8736
-8 -8 -13 4.4076 -1.1608
-8 -8 -12 -4.0830 0.6164
-8 -8 -11 1.2128 2.5446
-8 -8 -10 -2.9653 -1.8374
-8 -8 -9 -0.1753 1.4138
-8 -8 -8 -2.1333 -1.5004
-8 -8 -7 -3.5826 0.5360
-8 -8 -6 0.6517 -3.0603
-8 -8 -5 -0.3319 -3.1728
-8 -8 -4 -0.2975 0.5606
-8 -8 -3 2.0217 -0.9357
-8 -8 -2 1.7209 -4.3485
-8 -8 -1 1.3807 -0.9725
-8 -8 0 1.2867 3.2283
-8 -6 -23 0.2894 -1.9431
-8 -6 -22 -0.2288 2.0797
-8 -6 -21 5.4451 0.6527
-8 -6 -20 -0.7051 2.6219
-8 -6 -19 0.9416 0.7044
-8 -6 -18 -3.7260 3.1368
-8 -6 -16 -4.9864 -4.2813
-8 -6 -15 -1.7274 4.2276
-8 -6 -14 1.0896 -4.0877
-8 -6 -13 -4.1944 -0.1278
-8 -6 -12 3.2534 -4.7082
-8 -6 -11 -4.2975 -3.5383
-8 -6 -10 6.3795 0.8106
-8 -6 -9 0.6895 -5.4368
-8 -6 -8 0.8752 4.6163
-8 -6 -7 6.3151 -4.7331
-8 -6 -6 -1.3192 1.6367
-8 -6 -5 6.0754 2.6292
-8 -6 -4 0.8974 -3.2252
-8 -6 -3 0.0056 4.2543
-8 -6 -2 1.5842 1.5906
-8 -6 -1 -0.2953 2.3589
-8 -6 0 3.4057 2.2342
-8 -4 -25 -1.8947 1.3190
-8 -4 -24 -0.3985 -0.5774
-8 -4 -23 -1.2482 2.4116
-8 -4 -22 -0.9250 -2.4575
-8 -4 -21 -3.3288 2.4819
-8 -4 -19 -4.8352 -2.8126
-8 -4 -18 2.2578 -0.1210
-8 -4 -17 1.6697 -2.6089
-8 -4 -16 2.2579 1.1051
-8 -4 -15 0.4451 -0.6668
-8 -4 -14 6.5329 2.3447
-8 -4 -13 0.7527 0.9547
-8 -4 -12 -4.4035 8.1089
-8 -4 -11 3.1792 -2.7945
-8 -4 -10 -2.3740 1.2181
-8 -4 -9 2.4895 6.0878
-8 -4 -8 -1.9083 -1.3404
-8 -4 -7 -1.3599 4.9598
-8 -4 -6 -1.7877 -4.0818
-8 -4 -5 -5.0809 -2.2943
-8 -4 -4 4.2947 2.1957
-8 -4 -3 -0.9751 -1.3042
-8 -4 -2 2.6231 3.2933
-8 -4 -1 2.5932 -3.1724
-8 -4 0 -5.7245 4.1809
-8 -2 -24 -0.7428 0.4833
-8 -2 -23 1.8699 -4.4956
-8 -2 -21 1.8302 -0.7445
-8 -2 -20 4.2003 -2.3324
-8 -2 -19 1.9277 1.5572
-8 -2 -18 -1.1022 3.1278
-8 -2 -17 1.5479 3.0223
-8 -2 -16 -3.5317 1.4167
-8 -2 -15 -2.5875 2.5111
-8 -2 -14 -2.7317 -8.4529
-8 -2 -13 -2.9919 2.2489
-8 -2 -12 5.8242 -1.7437
-8 -2 -11 -4.0010 2.4711
-8 -2 -10 2.6132 1.2567
-8 -2 -9 -2.3079 -4.3694
-8 -2 -8 1.6536 1.6298
-8 -2 -7 -3.8804 0.9067
-8 -2 -6 0.0048 2.5812
-8 -2 -5 -3.6563 2.1783
-8 -2 -4 -1.3237 -0.2968
-8 -2 -3 -3.0775 -2.9386
-8 -2 -2 -0.5386 4.6020
-8 -2 -1 -4.3521 -4.6261
-8 -2 0 -1.4524 -3.1904
-8 0 -16 -3.4012 -7.2775
-8 0 -14 -1.1743 0.8466
-8 0 -12 1.4854 -2.5882
-8 0 -10 -4.2673 -0.3112
-8 0 -8 -7.2725 -4.5387
-8 0 -6 4.0206 -6.2694
-8 0 -4 1.8416 -2.9833
-8 0 -2 -2.8829 -8.3794
-8 0 0 6.8231 -5.2620
-8 0 2 8.3999 -2.5398
-8 0 4 3.9218 4.9602
-8 0 6 0.8499 -1.8791
-8 0 8 -2.5499 -3.1342
-8 0 10 11.8879 -4.7771
-8 0 12 5.4511 6.7227
-8 0 14 -0.1284 7.3037
-8 0 16 -3.2060 0.3027
-8 0 18 -1.0377 0.1729
-8 0 20 2.1630 0.4385
-8 0 22 -2.1606 4.5284
-8 0 24 -4.1936 -1.3512
-8 0 26 -0.9256 0.4048
-8 0 28 -0.9273 -2.3479
-8 0 30 0.5700 0.1092
-8 0 32 -0.1841 1.1936
-8 0 34 -2.7751 1.4666
-8 0 36 -0.3137 -0.7596
-8 0 38 -1.3745 -1.5332
-8 2 1 0.7362 -1.0120
-8 2 2 2.4276 1.9321
-8 2 3 6.1055 2.6972
-8 2 4 -0.1711 3.4445
-8 2 5 5.1156 5.9786
-8 2 6 -3.7514 3.3540
-8 2 7 -2.3746 10.3528
-8 2 8 -2.3202 2.0756
-8 2 9 -5.0855 3.7916
-8 2 10 -6.0322 -1.6996
-8 2 11 -4.7108 -0.5261
-8 2 12 -0.1623 -3.2147
-8 2 13 -2.0016 0.5808
-8 2 14 1.1714 -2.2842
-8 2 15 -2.1707 -0.9462
-8 2 16 -0.2125 0.7608
-8 2 17 -1.4891 -0.5178
-8 2 18 1.0760 -0.5702
-8 2 19 -1.4213 -2.1253
-8 2 20 0.1819 -0.4005
-8 2 21 1.5875 -1.5695
-8 2 22 1.2385 0.4621
-8 2 23 0.2645 1.9478
-8 2 24 0.3954 -0.9048
-8 2 25 -1.4420 -0.1206
-8 2 26 1.3825 0.6473
-8 2 27 0.4631 -0.1358
-8 2 28 0.4379 0.9888
-8 2 29 -0.4900 0.0520
-8 2 30 0.2742 0.0951
-8 2 31 -1.7440 0.7919
-8 2 32 0.1972 -0.3533
-8 2 33 -0.5893 0.0266
-8 2 34 1.6017 -0.4868
-8 2 35 -0.4881 -1.1470
-8 2 36 0.3290 0.9179
-8 2 37 -1.1443 0.0366
-8 2 38 0.2674 0.7175
-8 4 1 -3.5917 0.1242
-8 4 2 -4.3503 -0.6695
-8 4 3 -1.8476 -5.3812
-8 4 4 -5.1747 -3.7653
-8 4 5 1.2109 -0.4712
-8 4 6 2.2257 -6.0224
-8 4 7 2.4820 -2.7001
-8 4 8 1.7355 -1.0191
-8 4 9 1.0935 2.4192
-8 4 10 1.0670 -1.5989
-8 4 11 1.9459 -0.0210
-8 4 12 0.1708 0.7776
-8 4 13 -1.6304 0.5059
-8 4 14 -1.0013 -1.2855
-8 4 15 2.2958 0.2848
-8 4 16 0.4719 -3.6967
-8 4 17 -0.5286 2.1965
-8 4 18 1.9471 -2.3236
-8 4 19 0.4746 1.2406
-8 4 20 3.1425 -0.6897
-8 4 21 -0.9873 0.0296
-8 4 22 0.4186 0.7478
-8 4 23 -1.3912 1.1846
-8 4 24 2.5975 0.6657
-8 4 25 -0.7489 -1.0000
-8 4 26 -0.8042 0.3550
-8 4 27 -0.3953 -0.8713
-8 4 28 0.6446 -0.2326
-8 4 29 0.9991 -0.8997
-8 4 30 -1.3994 0.8952
-8 4 31 1.1364 0.6477
-8 4 32 0.2876 -0.7867
-8 4 33 -0.1993 -0.6447
-8 4 34 -0.7875 -0.3585
-8 4 35 0.7535 0.8037
-8 4 36 0.2783 -1.7075
-8 4 37 -0.1076 0.1402
-8 6 1 0.4051 -0.7057
-8 6 2 -1.6202 1.1173
-8 6 3 0.1067 -0.1000
-8 6 4 0.9278 1.3371
-8 6 5 -0.4794 -0.5535
-8 6 6 -1.0558 1.6227
-8 6 7 -0.0606 -3.3343
-8 6 8 0.7280 2.2689
-8 6 9 -0.0014 -1.7913
-8 6 10 -1.9736 -0.6675
-8 6 11 3.3034 -1.7322
-8 6 12 0.3188 1.5457
-8 6 13 2.4318 1.6714
-8 6 14 -2.3942 0.3934
-8 6 15 0.4448 1.0633
-8 6 16 1.1578 1.3690
-8 6 17 -0.5762 -1.0595
-8 6 18 -2.1254 2.0904
-8 6 19 0.7948 -0.2439
-8 6 20 -2.2776 -0.6189
-8 6 21 1.6285 1.8260
-8 6 22 -1.5291 0.4333
-8 6 23 0.3566 -0.1241
-8 6 24 -1.5889 0.1583
-8 6 25 0.3973 1.0887
-8 6 26 -2.1214 -1.2334
-8 6 27 -0.9072 -0.1307
-8 6 28 -0.4479 -0.9222
-8 6 29 1.0783 1.6637
-8 6 30 0.6093 -1.1767
-8 6 31 -1.5225 -0.7124
-8 6 32 0.7591 -0.1574
-8 6 33 1.1467 -0.2267
-8 6 34 -0.7792 1.1114
-8 6 35 -0.1591 0.4417
-8 8 1 -0.7717 -2.3044
-8 8 2 -0.4443 0.6817
-8 8 3 0.1972 0.2086
-8 8 4 1.0039 -0.2531
-8 8 5 -1.2471 -0.7678
-8 8 6 0.4035 -0.4474
-8 8 7 2.5654 -0.8094
-8 8 8 0.8935 0.1123
-8 8 9 -0.3084 0.4175
-8 8 10 1.1407 4.0416
-8 8 11 0.2391 0.5811
-8 8 12 -0.4851 1.0498
-8 8 13 -1.0352 0.2067
-8 8 14 -1.2134 -0.5300
-8 8 15 -0.9953 -0.4445
-8 8 16 0.7736 1.1343
-8 8 17 0.3227 -1.9353
-8 8 18 -1.4165 0.4863
-8 8 19 0.6434 -1.0166
-8 8 20 -0.2351 1.7627
-8 8 21 0.5106 -0.7082
-8 8 22 0.1167 -2.2797
-8 8 23 0.6623 0.2338
-8 8 24 -0.4060 1.2184
-8 8 25 -0.1094 -0.8060
-8 8 26 -1.2246 -0.7247
-8 8 27 1.0135 0.3055
-8 8 28 2.9948 -1.6773
-8 8 29 -0.2036 -0.9021
-8 8 30 -0.7483 2.2575
-8 8 31 0.7878 0.3922
-8 8 32 -0.0028 -0.7654
-8 10 1 2.5937 0.8697
-8 10 2 -0.9442 0.5237
-8 10 3 -0.6495 2.2309
-8 10 4 -0.4562 -2.0554
-8 10 5 -1.2246 -1.6295
-8 10 6 1.8860 0.0708
-8 10 7 -1.2073 1.5525
-8 10 8 -0.8670 -0.2226
-8 10 9 1.3848 -0.7982
-8 10 10 0.4011 -1.0022
-8 10 11 -0.3092 1.1556
-8 10 12 -0.5765 0.1489
-8 10 13 -0.4123 0.2448
-8 10 14 0.1125 -1.1603
-8 10 15 -0.8302 0.5251
-8 10 16 1.1109 -0.6414
-8 10 17 -1.0654 1.7436
-8 10 18 -0.0674 -0.4317
-8 10 19 -1.4831 -1.1762
-8 10 20 0.7003 -0.8250
-8 10 21 0.3537 -0.0387
-8 10 22 1.4400 0.2159
-8 10 23 -1.6709 -1.0523
-8 10 24 1.3882 0.3028
-8 10 25 1.7119 0.3829
-8 10 26 0.2626 1.8798
-8 10 27 -1.2013 -0.1247
-8 12 1 0.5912 1.3680
-8 12 2 0.5894 -0.8490
-8 12 3 -0.4848 0.7295
-8 12 4 1.0227 0.5126
-8 12 5 0.5226 -0.3668
-8 12 6 -1.8467 1.2157
-8 12 7 -0.0143 0.3024
-8 12 8 1.2711 0.3096
-8 12 9 0.1959 0.7518
-8 12 10 -1.1762 -0.6490
-8 12 11 -0.3119 0.5746
-8 12 12 0.2542 1.3420
-8 12 13 -0.9026 0.5400
-8 12 14 -1.0397 -0.1934
-8 12 15 0.4135 -1.0467
-8 12 16 -1.2056 0.1750
-8 12 17 -0.8531 0.7520
-8 12 18 0.7102 -0.7952
-8 12 19 0.7189 -0.1460
-8 12 20 -0.6839 -0.7314
-7 -13 -12 2.6958 -2.4554
-7 -13 -11 1.2269 -1.0976
-7 -13 -10 0.4042 0.6864
-7 -13 -9 -1.3172 -0.9682
-7 -13 -8 1.3092 0.1821
-7 -13 -7 2.6044 -1.0640
-7 -13 -6 1.0727 0.1370
-7 -13 -5 0.4480 -0.4889
-7 -13 -4 0.6666 0.7329
-7 -13 -3 1.4536 -0.5532
-7 -13 -2 0.6716 0.9225
-7 -13 -1 0.9686 0.8229
-7 -13 0 0.3989 0.5534
-7 -11 -15 1.3455 1.5299
-7 -11 -14 2.9177 -3.4814
-7 -11 -12 3.0544 0.2032
-7 -11 -11 0.5698 -0.1421
-7 -11 -10 1.7340 1.2883
-7 -11 -9 1.1607 2.1406
-7 -11 -8 1.1275 2.5848
-7 -11 -7 -1.8308 0.0289
-7 -11 -6 -1.6233 0.9206
-7 -11 -5 -0.4821 0.2203
-7 -11 -4 -1.1403 0.0349
-7 -11 -3 0.5154 0.4533
-7 -11 -2 0.2768 0.0985
-7 -11 -1 -0.4787 -0.5290
-7 -11 0 -1.5714 -0.5701
-7 -9 -18 4.0380 2.7460
-7 -9 -17 -0.5845 0.1252
-7 -9 -16 0.2609 7.1476
-7 -9 -15 -0.4739 -3.1988
-7 -9 -14 -2.4508 2.4766
-7 -9 -13 2.3807 -0.6142
-7 -9 -12 -5.1536 1.0488
-7 -9 -11 1.8411 -0.6187
-7 -9 -10 -0.8170 -2.8421
-7 -9 -9 2.9652 1.8330
-7 -9 -8 -0.5796 -1.3097
-7 -9 -7 0.3628 2.7489
-7 -9 -6 1.4065 -0.5967
-7 -9 -5 -0.6184 2.1569
-7 -9 -4 0.8883 0.5255
-7 -9 -3 -4.2912 -0.0325
-7 -9 -2 -0.7497 0.4712
-7 -9 -1 -1.0539 -0.6482
-7 -9 0 -0.3815 1.3514
-7 -7 -21 1.8355 -1.8649
-7 -7 -20 -6.8161 2.2408
-7 -7 -19 0.8727 -2.5930
-7 -7 -18 -4.7278 -3.2582
-7 -7 -17 5.7842 0.0545
-7 -7 -16 -2.6872 -5.6886
-7 -7 -15 1.5767 4.0799
-7 -7 -13 -2.3352 4.2740
-7 -7 -12 4.3804 0.2405
-7 -7 -11 -3.7795 0.3275
-7 -7 -10 3.2530 6.8035
-7 -7 -9 -3.8567 -2.1853
-7 -7 -8 -5.4557 1.4889
-7 -7 -7 1.5065 -3.2505
-7 -7 -6 -4.4122 -0.9997
-7 -7 -5 0.5703 0.2025
-7 -7 -4 -1.9753 -4.7158
-7 -7 -3 -2.1218 1.4606
-7 -7 -2 3.3767 -3.6929
-7 -7 -1 1.2283 -5.6062
-7 -7 0 2.7347 -0.3126
-7 -5 -24 1.9057 -4.6732
-7 -5 -23 2.1070 1.2204
-7 -5 -22 3.4933 -3.2302
-7 -5 -21 2.4571 4.8568
-7 -5 -20 6.3585 -1.8032
-7 -5 -19 -7.3784 3.8857
-7 -5 -18 6.6421 2.1186
-7 -5 -17 -3.0956 -1.3989
-7 -5 -15 -4.5057 -3.4248
-7 -5 -14 3.1165 0.8199
-7 -5 -13 -2.3764 -4.3945
-7 -5 -12 -2.4183 5.2081
-7 -5 -11 8.0515 -6.6665
-7 -5 -10 -3.7064 -2.0914
-7 -5 -9 5.4849 2.9900
-7 -5 -8 0.2034 -2.5548
-7 -5 -7 -0.6129 3.8593
-7 -5 -6 5.4561 -3.4186
-7 -5 -5 1.0696 4.4854
-7 -5 -4 5.2235 7.1714
-7 -5 -3 -2.7821 -1.2385
-7 -5 -2 -2.9432 7.0581
-7 -5 -1 0.0646 -2.5758
-7 -5 0 -6.6389 2.8966
-7 -3 -26 -1.1552 2.5650
-7 -3 -25 -0.4515 0.6647
-7 -3 -24 0.0101 -0.0196
-7 -3 -23 1.0849 -0.1782
-7 -3 -22 -3.2279 1.9713
-7 -3 -21 3.6415 1.9926
-7 -3 -20 1.5534 1.8404
-7 -3 -19 -4.3082 5.4848
-7 -3 -18 -6.9136 2.4530
-7 -3 -17 4.0287 -7.6539
-7 -3 -16 -2.5909 -5.6716
-7 -3 -15 7.1576 9.9976
-7 -3 -14 2.8235 -3.3662
-7 -3 -13 0.2144 8.7648
-7 -3 -12 4.6855 2.4805
-7 -3 -11 -11.6757 8.5573
-7 -3 -10 1.8356 -3.9243
-7 -3 -9 -9.4685 -1.0843
-7 -3 -8 0.7621 7.9205
-7 -3 -7 -5.5212 -8.5764
-7 -3 -6 0.6052 0.9538
-7 -3 -5 1.0940 -6.7513
-7 -3 -4 3.0847 -1.6381
-7 -3 -3 3.3854 1.5642
-7 -3 -2 -0.8317 4.8813
-7 -3 -1 -0.8043 -0.3375
-7 -3 0 -1.1695 -1.2538
-7 -1 -21 -2.8986 -0.9603
-7 -1 -20 3.5618 0.2021
-7 -1 -19 6.1491 -6.5931
-7 -1 -18 -5.0363 4.6992
-7 -1 -17 2.2155 1.3185
-7 -1 -16 -2.2948 -5.5046
-7 -1 -15 2.5962 4.4214
-7 -1 -14 -0.6489 -2.3070
-7 -1 -13 1.4293 -4.3807
-7 -1 -12 3.1803 -3.3304
-7 -1 -11 1.2757 3.6393
-7 -1 -10 -0.7223 9.3268
-7 -1 -9 0.0712 3.3389
-7 -1 -8 -6.9521 -5.4177
-7 -1 -7 1.9899 2.0819
-7 -1 -6 -2.0699 -5.5209
-7 -1 -5 1.7442 0.9297
-7 -1 -4 -0.0647 -2.5063
-7 -1 -3 -3.2034 4.6795
-7 -1 -2 2.2854 -1.8557
-7 -1 -1 -0.9963 7.1783
-7 -1 0 0.9167 -2.8756
-7 1 1 7.5586 -3.3984
-7 1 2 -1.0240 1.0107
-7 1 3 2.8718 2.7173
-7 1 4 -1.2139 -4.7852
-7 1 5 3.2412 1.7858
-7 1 6 -0.1196 -2.8728
-7 1 7 0.5267 -1.8604
-7 1 8 6.1950 -6.3249
-7 1 9 1.3465 -4.5433
-7 1 10 6.1003 0.9145
-7 1 11 11.2800 -0.0886
-7 1 12 4.0286 4.7107
-7 1 13 1.5829 8.2567
-7 1 14 -0.6235 2.5425
-7 1 15 -0.9770 5.4244
-7 1 16 -1.0568 1.4778
-7 1 17 -3.2224 1.1578
-7 1 18 1.9976 -1.0129
-7 1 19 -2.9764 -0.8743
-7 1 20 -0.0522 2.8928
-7 1 21 0.4028 1.0184
-7 1 22 -0.6635 0.9099
-7 1 23 -2.2661 0.2190
-7 1 24 -0.8008 -0.2597
-7 1 25 -2.8272 -0.9227
-7 1 26 1.5777 0.1941
-7 1 27 -0.4456 -0.1019
-7 1 28 -1.8574 0.5480
-7 1 29 -1.7591 -1.4697
-7 1 30 0.7430 -0.0764
-7 1 31 0.0214 -0.1749
-7 1 32 0.3307 -0.2265
-7 1 33 -1.3928 -0.8761
-7 1 34 0.0165 -0.3230
-7 1 35 -1.9497 0.0638
-7 1 36 0.9719 0.3415
-7 1 37 0.7315 -0.9020
-7 1 38 -0.1395 0.5428
-7 1 39 -0.6870 -1.5592
-7 3 1 3.5116 -0.5474
-7 3 2 5.0131 1.1152
-7 3 3 6.6853 4.7848
-7 3 4 1.3380 7.6716
-7 3 5 2.0538 9.9297
-7 3 6 -2.6810 2.0860
-7 3 7 -8.8645 8.5648
-7 3 8 -6.6204 5.4589
-7 3 9 -6.6804 0.8160
-7 3 10 -4.6389 -4.8669
-7 3 11 -5.3188 -2.6346
-7 3 12 -1.3952 -1.7016
-7 3 13 1.1395 -1.3855
-7 3 14 -0.8875 -1.4229
-7 3 15 0.0545 -1.4148
-7 3 16 -1.7121 -2.6212
-7 3 17 -0.8224 4.2053
-7 3 18 0.7161 -2.5063
-7 3 19 -2.3996 -1.5559
-7 3 20 0.5945 -1.4511
-7 3 21 -0.6484 1.5921
-7 3 22 1.3214 -0.9095
-7 3 23 -0.5936 -1.1684
-7 3 24 1.0765 0.2443
-7 3 25 -0.8802 -0.8667
-7 3 26 -1.3686 1.3529
-7 3 27 0.6343 -0.5316
-7 3 28 0.7003 -0.7280
-7 3 29 0.2497 0.3416
-7 3 30 -1.1879 -0.5297
-7 3 31 0.6033 -0.6725
-7 3 32 -0.0045 0.0611
-7 3 33 1.2455 -0.1045
-7 3 34 -0.9271 0.5029
-7 3 35 1.2897 0.4753
-7 3 36 -0.0150 -0.9082
-7 3 37 0.2016 1.3498
-7 3 38 -0.7580 0.1744
-7 5 1 -6.4536 -1.9002
-7 5 2 -1.2274 -1.1992
-7 5 3 -0.7011 -5.5822
-7 5 4 -4.1628 0.7548
-7 5 5 0.8532 -4.2084
-7 5 6 -1.1492 -1.9566
-7 5 7 3.3358 -1.7101
-7 5 8 -1.3855 1.7457
-7 5 9 0.4601 -1.7573
-7 5 10 -2.1375 -0.6108
-7 5 11 2.0453 -4.3170
-7 5 12 -0.5282 0.1846
-7 5 13 3.3097 0.9850
-7 5 14 -3.0684 -1.9522
-7 5 15 2.0458 -0.4344
-7 5 16 0.9334 -2.6579
-7 5 17 0.2397 -0.7230
-7 5 18 -0.0256 1.8783
-7 5 19 3.5563 -2.2449
-7 5 20 0.1903 -1.0414
-7 5 21 3.0084 1.0474
-7 5 22 -0.5483 -0.1064
-7 5 23 1.0770 1.5847
-7 5 24 -0.6945 -1.7060
-7 5 25 1.7044 1.7581
-7 5 26 0.2037 -0.5149
-7 5 27 0.0930 0.4870
-7 5 28 1.7081 -1.2973
-7 5 29 1.2252 1.5928
-7 5 30 0.2584 0.2374
-7 5 31 -2.7203 0.8963
-7 5 32 1.8822 -0.2667
-7 5 33 0.2263 -0.6166
-7 5 34 0.3182 1.2533
-7 5 35 -0.2942 -0.0344
-7 5 36 -0.1029 0.1081
-7 5 37 -0.3133 -1.2274
-7 7 1 -1.9075 -1.4174
-7 7 2 -0.0633 -0.7789
-7 7 3 -0.9911 -1.3036
-7 7 4 2.3797 -0.5429
-7 7 5 0.7665 -1.3395
-7 7 6 1.9639 1.1828
-7 7 7 -0.7956 1.3494
-7 7 8 0.3787 -1.0551
-7 7 9 -2.6139 1.0002
-7 7 10 1.1505 0.7194
-7 7 11 0.1882 -6.2349
-7 7 12 0.5730 -0.1187
-7 7 13 2.6047 -0.1843
-7 7 14 1.8771 1.8796
-7 7 15 0.6725 -0.1136
-7 7 16 0.1698 1.4847
-7 7 17 0.1823 1.4143
-7 7 18 -0.5223 0.5724
-7 7 19 0.3323 0.8086
-7 7 20 -0.6422 0.7080
-7 7 21 -1.0998 -1.8705
-7 7 22 -0.0319 1.4713
-7 7 23 0.1818 0.8259
-7 7 24 -0.3149 1.9471
-7 7 25 -0.0588 -0.0583
-7 7 26 -2.0146 -0.2267
-7 7 27 -0.2584 -0.2750
-7 7 28 -0.4720 -0.1863
-7 7 29 -0.7874 0.5268
-7 7 30 -1.3748 1.0639
-7 7 31 0.2134 0.0533
-7 7 32 -0.6023 -1.7911
-7 7 33 -0.8609 -0.2460
-7 7 34 0.6740 0.1222
-7 9 1 1.1241 2.5643
-7 9 2 -2.0628 -2.6485
-7 9 3 -0.9804 2.8577
-7 9 4 1.5021 -3.2207
-7 9 5 -1.1450 1.2660
-7 9 6 2.6178 1.1119
-7 9 7 0.3136 -0.8364
-7 9 8 1.9925 0.5237
-7 9 9 -0.6016 0.5827
-7 9 10 0.5859 0.3215
-7 9 11 -0.0196 2.6692
-7 9 12 1.3579 0.5187
-7 9 13 -1.1499 0.4459
-7 9 14 -0.9091 1.2037
-7 9 15 -0.2231 0.9746
-7 9 16 0.8942 -0.4585
-7 9 17 -1.3001 -0.4313
-7 9 18 0.7277 -0.4417
-7 9 19 -0.9367 0.6442
-7 9 20 2.1412 -0.1724
-7 9 21 -0.9731 1.1680
-7 9 22 0.0126 1.3427
-7 9 23 -1.4350 -1.2834
-7 9 24 0.9471 1.2276
-7 9 25 -0.6393 -1.5163
-7 9 26 -1.7159 0.0386
-7 9 27 -0.5305 -0.7996
-7 9 28 0.2886 -0.2689
-7 9 29 1.8944 -1.8247
-7 9 30 -0.0739 -0.4769
-7 9 31 0.6612 1.0142
-7 11 1 1.4215 -0.2832
-7 11 2 1.0467 1.4292
-7 11 3 -1.9728 1.4663
-7 11 4 -2.0293 -0.1943
-7 11 5 -0.9004 -1.7535
-7 11 6 -0.1397 -1.5376
-7 11 7 2.0875 0.2932
-7 11 8 -1.0830 -0.4487
-7 11 9 -1.6845 0.1230
-7 11 10 1.2384 -0.5732
-7 11 11 -0.0619 0.4106
-7 11 12 0.3496 1.0929
-7 11 13 -1.1576 -2.1831
-7 11 14 0.1018 -0.8360
-7 11 15 1.5029 0.4792
-7 11 16 -0.9743 1.9468
-7 11 17 0.6153 -0.1734
-7 11 18 -1.1990 -1.3626
-7 11 19 -0.7399 -0.0652
-7 11 20 -0.1479 0.1980
-7 11 21 0.9818 -0.0061
-7 11 22 0.4082 -0.8220
-7 11 23 0.0557 0.7257
-7 11 24 -0.8341 -0.3352
-7 11 25 0.3337 -0.4250
-7 11 26 1.1523 -0.2016
-7 13 1 -0.9283 -1.1756
-7 13 2 -1.5847 0.7688
-7 13 3 1.3184 -0.5413
-7 13 4 1.1615 0.1282
-7 13 5 1.2771 0.0488
-7 13 6 -1.1480 0.5515
-7 13 7 -0.7973 2.2101
-7 13 8 -0.2008 -0.6462
-7 13 9 -0.0931 1.0551
-7 13 10 -0.3769 0.1613
-7 13 11 -2.5820 -0.8067
-7 13 12 0.3728 -0.3733
-7 13 13 0.4964 -1.0098
-7 13 14 0.2954 0.9078
-7 13 15 0.5086 -0.5499
-7 13 16 -0.7684 -0.1823
-7 13 17 -0.3064 0.9858
-6 -14 -7 -0.8752 -0.8839
-6 -14 -6 -0.8618 0.0100
-6 -14 -5 -0.3794 -0.8090
-6 -14 -4 -0.0729 -0.1531
-6 -14 -3 0.8361 -0.8392
-6 -14 -2 -0.5642 0.1057
-6 -14 -1 -0.1287 -0.6082
-6 -14 0 0.2134 0.5397
-6 -12 -13 -1.2123 0.6457
-6 -12 -12 -0.2799 1.0115
-6 -12 -10 -1.2377 -1.1074
-6 -12 -9 -0.5453 0.3362
-6 -12 -8 -0.2955 -2.8993
-6 -12 -7 0.7518 -0.6764
-6 -12 -6 2.2268 0.1234
-6 -12 -5 0.1448 0.3270
-6 -12 -4 1.3382 -0.8444
-6 -12 -3 1.2081 0.1617
-6 -12 -2 2.1804 0.6003
-6 -12 -1 -0.5269 1.4999
-6 -12 0 -0.0647 2.6217
-6 -10 -16 1.0836 -0.0330
-6 -10 -15 -0.1113 -5.2140
-6 -10 -14 1.0374 1.1366
-6 -10 -13 3.1629 -1.2233
-6 -10 -11 4.1554 -0.3639
-6 -10 -10 -0.6724 1.8211
-6 -10 -9 0.2886 3.6809
-6 -10 -8 -1.9522 1.5785
-6 -10 -7 -0.4014 1.6279
-6 -10 -6 -2.9879 -2.0532
-6 -10 -5 -1.5755 0.8677
-6 -10 -4 -0.0053 -2.2039
-6 -10 -3 -2.3946 -0.6607
-6 -10 -2 2.5528 0.6776
-6 -10 -1 2.5789 -1.6812
-6 -10 0 -0.3104 -0.0485
-6 -8 -19 6.7013 -1.7733
-6 -8 -18 -0.6498 -0.0926
-6 -8 -17 4.3731 4.3523
-6 -8 -16 -1.9225 0.7293
-6 -8 -15 -0.6752 6.1998
-6 -8 -14 -1.8176 -1.9613
-6 -8 -13 -4.3763 2.7108
-6 -8 -11 -3.8163 -3.1937
-6 -8 -10 2.7694 0.7251
-6 -8 -9 0.1665 -4.4837
-6 -8 -8 0.3652 1.2542
-6 -8 -7 2.7623 -1.1328
-6 -8 -6 0.1599 1.6279
-6 -8 -5 2.8729 1.3663
-6 -8 -4 -1.4914 -0.3185
-6 -8 -3 -0.5280 2.6162
-6 -8 -2 -0.1600 -2.3786
-6 -8 -1 -0.5316 -0.3860
-6 -8 0 -1.0565 1.8156
-6 -6 -22 -1.6496 -3.0826
-6 -6 -21 -4.1469 5.5247
-6 -6 -20 0.6233 -5.8879
-6 -6 -19 -9.5381 2.2934
-6 -6 -18 6.0742 -5.0131
-6 -6 -17 -5.1180 -4.9249
-6 -6 -16 6.2832 3.0490
-6 -6 -15 -0.8451 -4.6268
-6 -6 -14 2.1726 3.0350
-6 -6 -11 1.4930 -3.4687
-6 -6 -10 -6.0566 0.0193
-6 -6 -9 3.9912 5.3722
-6 -6 -8 -3.4937 -2.9124
-6 -6 -7 -4.8172 -2.5441
-6 -6 -6 4.5182 -3.7400
-6 -6 -5 -2.2776 -2.7788
-6 -6 -4 -0.8775 -0.2919
-6 -6 -3 0.6498 -9.3856
-6 -6 -2 1.3002 0.1771
-6 -6 -1 10.0416 -4.7355
-6 -6 0 -0.1563 -1.6877
-6 -4 -25 1.2573 -1.6759
-6 -4 -24 0.1471 -4.2256
-6 -4 -23 2.1815 -1.9989
-6 -4 -22 2.4154 0.9786
-6 -4 -21 4.7355 -1.1914
-6 -4 -20 2.3612 0.7514
-6 -4 -19 -0.2820 0.7304
-6 -4 -18 -1.6517 3.0706
-6 -4 -17 8.2609 -5.5964
-6 -4 -16 -5.1905 3.0211
-6 -4 -13 -7.3399 0.8808
-6 -4 -12 4.8198 -6.2472
-6 -4 -11 -4.0879 -1.2209
-6 -4 -10 15.6717 -8.0295
-6 -4 -9 -5.2223 -1.4665
-6 -4 -8 14.7533 9.1800
-6 -4 -7 4.0051 -9.7038
-6 -4 -6 1.5487 12.1966
-6 -4 -5 9.0474 2.2090
-6 -4 -4 -1.9606 12.0104
-6 -4 -3 -2.6981 7.0733
-6 -4 -2 -7.5140 2.3578
-6 -4 -1 -3.7582 1.8913
-6 -4 0 -0.2881 -5.6775
-6 -2 -23 1.0038 -1.5118
-6 -2 -22 0.8978 1.1409
-6 -2 -21 1.3773 4.0131
-6 -2 -20 4.1741 3.3578
-6 -2 -19 -0.4293 3.8505
-6 -2 -17 0.5803 -4.1843
-6 -2 -16 2.1675 -13.0554
-6 -2 -15 10.8457 10.3375
-6 -2 -14 8.5904 6.4406
-6 -2 -13 -12.0513 10.1604
-6 -2 -12 -1.2032 9.9847
-6 -2 -11 0.9862 3.3287
-6 -2 -10 -11.5601 7.7795
-6 -2 -9 -3.9319 -7.1182
-6 -2 -8 -9.9588 -6.8214
-6 -2 -7 5.0464 6.5045
-6 -2 -6 -2.0488 -12.3084
-6 -2 -5 0.6705 11.7192
-6 -2 -4 3.3603 -3.9301
-6 -2 -3 -8.5085 10.8358
-6 -2 -2 0.9629 1.0431
-6 -2 -1 -13.4326 -6.3901
-6 -2 0 0.3433 -6.2502
-6 0 -18 -2.4151 -1.0721
-6 0 -16 -6.1632 -6.5678
-6 0 -14 9.5272 4.6263
-6 0 -12 2.8304 1.6015
-6 0 -10 -10.2281 14.2822
-6 0 -8 -20.5923 -11.0377
-6 0 -6 8.5517 -7.3097
-6 0 -4 7.4619 -1.8362
-6 0 -2 -1.0328 7.2423
-6 0 0 -9.9851 4.6852
-6 0 2 -8.6141 3.3335
-6 0 4 -3.4954 -10.9597
-6 0 6 -1.0032 -1.4510
-6 0 8 0.6633 -4.9758
-6 0 10 -0.0886 6.4871
-6 0 12 -9.2961 -0.7995
-6 0 14 -1.2583 -5.7925
-6 0 16 0.1823 -9.0210
-6 0 18 5.6647 -0.1954
-6 0 20 3.7637 3.1925
-6 0 22 -0.0530 0.3055
-6 0 24 -1.0834 2.5417
-6 0 26 1.9508 -0.7970
-6 0 28 -0.9798 1.0008
-6 0 30 3.2559 -0.9550
-6 0 32 -0.0821 2.8813
-6 0 34 -0.0704 1.9061
-6 0 36 1.2751 0.0218
-6 0 38 -2.5358 0.4530
-6 2 1 1.7367 5.2841
-6 2 2 5.5730 -4.4036
-6 2 3 -3.3927 2.7950
-6 2 4 -2.2242 -0.9960
-6 2 5 -2.6811 -9.2898
-6 2 6 2.7530 -5.2943
-6 2 7 7.5047 -1.6417
-6 2 8 6.6378 -5.2645
-6 2 9 8.8810 -1.0414
-6 2 10 9.3386 -0.7138
-6 2 11 5.6835 8.0902
-6 2 12 8.2328 5.7550
-6 2 13 1.3734 6.4063
-6 2 14 -4.1968 5.7085
-6 2 15 -4.2094 4.2255
-6 2 16 -1.2930 1.4449
-6 2 17 -2.2976 2.5391
-6 2 18 0.4258 -3.2368
-6 2 19 -1.9365 -1.4996
-6 2 20 0.8044 1.7839
-6 2 21 0.9692 0.9666
-6 2 22 -0.3988 -0.6832
-6 2 23 -2.7101 0.1584
-6 2 24 -0.2661 -0.4408
-6 2 25 0.3294 0.5678
-6 2 26 -0.2323 -0.7149
-6 2 27 0.9364 -2.1501
-6 2 28 0.6639 -0.0273
-6 2 29 -0.8458 1.6757
-6 2 30 -0.4808 0.0087
-6 2 31 0.6054 -0.0632
-6 2 32 0.1076 0.4929
-6 2 33 -0.2654 0.1073
-6 2 34 -1.6488 -0.8382
-6 2 35 0.2507 -0.1089
-6 2 36 -0.8937 -0.2900
-6 2 37 0.2659 -0.3402
-6 2 38 -0.4114 -0.5002
-6 2 39 -0.2361 0.5165
-6 4 1 2.4233 -2.8138
-6 4 2 8.3950 6.1249
-6 4 3 4.6878 0.5389
-6 4 4 -1.9618 12.4860
-6 4 5 4.7208 4.8111
-6 4 6 -5.8186 5.1188
-6 4 7 -1.3091 3.3642
-6 4 8 -7.2883 3.0724
-6 4 9 -2.3553 -0.0658
-6 4 10 -5.0430 -2.2186
-6 4 11 1.0690 -2.2780
-6 4 12 -2.7702 3.3298
-6 4 13 0.3903 1.6550
-6 4 14 -4.2615 -2.6857
-6 4 15 -0.1312 -0.4835
-6 4 16 -1.3397 -1.3745
-6 4 17 0.3617 1.6001
-6 4 18 0.1309 -0.2056
-6 4 19 -0.5899 -2.8971
-6 4 20 -3.2370 -0.1322
-6 4 21 1.7205 2.1695
-6 4 22 -1.4124 0.4053
-6 4 23 -0.6378 -0.5478
-6 4 24 -0.4196 -2.2674
-6 4 25 0.2434 2.0075
-6 4 26 -1.0854 -0.1436
-6 4 27 -2.4137 -0.1485
-6 4 28 -0.5602 -2.3346
-6 4 29 0.6494 0.1486
-6 4 30 -0.0047 -0.3380
-6 4 31 -1.6336 -0.5738
-6 4 32 1.7133 -1.8167
-6 4 33 -0.2464 -0.0329
-6 4 34 1.0613 1.0440
-6 4 35 -1.6533 -0.8332
-6 4 36 0.3614 -0.1674
-6 4 37 0.9479 -0.7897
-6 4 38 0.7216 0.9311
-6 6 1 -9.1191 -1.9621
-6 6 2 1.4408 -1.0779
-6 6 3 -0.8086 -2.3913
-6 6 4 1.4299 0.6492
-6 6 5 -4.8684 -0.2305
-6 6 6 -0.6464 -1.6286
-6 6 7 -3.8722 -4.0198
-6 6 8 3.2292 1.5901
-6 6 9 -2.9865 -2.4406
-6 6 10 0.9472 -0.0773
-6 6 11 0.5774 -5.5612
-6 6 12 -0.0043 1.6306
-6 6 13 2.7743 1.7831
-6 6 14 -0.8899 1.6633
-6 6 15 -3.0231 -3.5258
-6 6 16 -1.1773 -0.4463
-6 6 17 2.7165 -3.0734
-6 6 18 0.8927 -1.2846
-6 6 19 0.5955 0.2720
-6 6 20 1.5391 -0.1312
-6 6 21 1.4661 -0.6161
-6 6 22 1.2824 1.5670
-6 6 23 1.4070 -0.6858
-6 6 24 -0.8553 1.5005
-6 6 25 0.7573 -2.5731
-6 6 26 -0.6843 0.0944
-6 6 27 2.6350 0.9967
-6 6 28 0.5584 -0.1747
-6 6 29 1.6615 0.0776
-6 6 30 0.2202 0.1066
-6 6 31 0.4252 0.6321
-6 6 32 0.9152 -0.6833
-6 6 33 1.8421 0.3377
-6 6 34 0.3726 2.0310
-6 6 35 0.4989 1.5275
-6 6 36 -0.2266 0.2102
-6 8 1 2.1252 -3.4544
-6 8 2 -1.9091 -3.5782
-6 8 3 2.2518 3.0922
-6 8 4 2.8378 -2.9597
-6 8 5 -0.7046 1.7954
-6 8 6 2.8192 -1.7473
-6 8 7 -1.4188 2.1792
-6 8 8 -0.5280 1.4675
-6 8 9 -2.8500 -1.8979
-6 8 10 0.2636 -0.5383
-6 8 11 0.1915 -1.9185
-6 8 12 1.0334 -3.3094
-6 8 13 -0.4857 0.4329
-6 8 14 4.9668 -0.1403
-6 8 15 0.7253 0.0926
-6 8 16 -0.1543 0.7144
-6 8 17 -2.0298 1.6335
-6 8 18 1.0249 2.3049
-6 8 19 -0.7784 -1.8686
-6 8 20 -0.6369 0.2751
-6 8 21 -1.7705 0.4863
-6 8 22 1.6414 -1.3928
-6 8 23 -0.4507 -1.4460
-6 8 24 -0.1957 1.5759
-6 8 25 -0.1872 0.6696
-6 8 26 0.3929 0.6475
-6 8 27 -0.3730 -0.4471
-6 8 28 0.3303 0.5430
-6 8 29 -0.0198 0.2293
-6 8 30 -1.4980 1.1524
-6 8 31 -1.4786 0.6395
-6 8 32 -0.2694 0.0319
-6 8 33 -0.6685 -1.1405
-6 10 1 1.1245 -1.8963
-6 10 2 0.5524 0.6576
-6 10 3 0.8923 -1.7430
-6 10 4 -0.7035 0.4656
-6 10 5 3.6703 -0.7540
-6 10 6 0.5862 1.5580
-6 10 7 1.1740 3.0541
-6 10 8 -1.4550 -0.4102
-6 10 9 0.5825 2.5515
-6 10 10 0.5293 -0.7554
-6 10 11 -0.2241 -0.2137
-6 10 12 -0.3863 0.7371
-6 10 13 0.3830 -0.0589
-6 10 14 -0.5003 0.5062
-6 10 15 0.4336 1.1291
-6 10 16 0.3567 -0.4940
-6 10 17 -0.0929 -0.7274
-6 10 18 -0.5873 -0.0248
-6 10 19 2.3996 1.7097
-6 10 20 -0.0334 -0.0609
-6 10 21 0.0468 -0.4899
-6 10 22 -1.2196 0.3378
-6 10 23 0.2147 2.2572
-6 10 24 0.1134 -1.2866
-6 10 25 0.1343 0.1136
-6 10 26 -0.0591 -0.3117
-6 10 27 -0.9531 1.2825
-6 10 28 -0.4459 -0.9150
-6 10 29 -1.6903 -1.1530
-6 12 1 -0.3053 -0.3869
-6 12 2 0.0672 1.4174
-6 12 3 1.5575 0.5848
-6 12 4 -2.9409 -0.2726
-6 12 5 -1.3049 0.3848
-6 12 6 -0.3668 0.1624
-6 12 7 0.5869 -1.6171
-6 12 8 0.4114 -1.6752
-6 12 9 0.8643 -0.1198
-6 12 10 -0.4266 0.2344
-6 12 11 0.5405 0.8468
-6 12 12 1.0906 -0.0801
-6 12 13 0.6648 0.6356
-6 12 14 -0.9755 0.2008
-6 12 15 -0.1362 0.7696
-6 12 16 0.1222 0.6178
-6 12 17 -1.3092 0.5005
-6 12 18 0.1442 -1.0224
-6 12 19 0.0038 -0.8626
-6 12 20 0.4079 0.6992
-6 12 21 0.2353 0.0698
-6 12 22 -0.7283 0.1287
-6 12 23 -0.1624 0.2372
-6 14 1 -0.7447 -0.4073
-6 14 2 -1.1109 -1.0691
-6 14 3 -0.8850 0.3055
-6 14 4 1.2143 0.0723
-6 14 5 0.1552 -0.3672
-6 14 6 -0.1265 0.5125
-6 14 7 -0.5113 0.3680
-6 14 8 -0.2973 1.1630
-6 14 9 -1.0049 -1.2262
-6 14 10 -1.1936 0.8087
-6 14 11 0.0781 -0.6003
-6 14 12 -1.5231 -1.5005
-5 -13 -11 0.5142 -0.8807
-5 -13 -9 1.9413 0.1844
-5 -13 -8 0.6937 -0.2526
-5 -13 -7 0.3134 2.1890
-5 -13 -6 -0.7858 0.3423
-5 -13 -5 -1.1503 -0.1986
-5 -13 -4 -0.9276 -0.6847
-5 -13 -3 -0.1567 -0.2451
-5 -13 -2 0.7229 -1.3624
-5 -13 -1 -1.3225 0.2404
-5 -13 0 0.4838 -0.7149
-5 -11 -14 -1.2115 1.7847
-5 -11 -13 -1.3549 -0.5843
-5 -11 -12 -0.2653 -0.7057
-5 -11 -11 -1.4125 -0.1075
-5 -11 -9 -0.2986 -2.7151
-5 -11 -8 2.5784 -0.6083
-5 -11 -7 2.4832 -2.8468
-5 -11 -6 -0.0686 1.1347
-5 -11 -5 2.4035 2.1506
-5 -11 -4 1.1232 0.5413
-5 -11 -3 1.8763 0.8425
-5 -11 -2 0.1274 1.3149
-5 -11 -1 0.2200 2.2505
-5 -11 0 -2.3308 1.0459
-5 -9 -17 0.0351 -1.0341
-5 -9 -16 0.2404 -0.5779
-5 -9 -15 0.8746 -0.1947
-5 -9 -14 -0.4422 -4.3457
-5 -9 -13 1.6431 0.3983
-5 -9 -12 5.2654 0.2322
-5 -9 -11 1.0122 2.9463
-5 -9 -9 -2.4462 5.1365
-5 -9 -8 -2.4947 3.4308
-5 -9 -7 -3.9055 -0.9951
-5 -9 -6 -2.4626 1.1299
-5 -9 -5 -1.4088 -0.9033
-5 -9 -4 -3.6139 -1.3881
-5 -9 -3 -1.8526 -1.2579
-5 -9 -2 -0.1206 -2.2670
-5 -9 -1 1.6449 -0.0031
-5 -9 0 0.8567 -0.5130
-5 -7 -20 4.3134 -5.0562
-5 -7 -19 -3.2335 2.4709
-5 -7 -18 7.3009 -1.0202
-5 -7 -17 -2.9848 1.1617
-5 -7 -16 4.3501 5.0497
-5 -7 -15 -4.8044 -1.5126
-5 -7 -14 -3.6993 3.5580
-5 -7 -13 -1.7163 -3.5391
-5 -7 -12 -2.3659 0.5479
-5 -7 -11 0.9494 -5.1927
-5 -7 -9 4.6633 1.4675
-5 -7 -8 -3.9863 -3.0792
-5 -7 -7 -0.3969 0.2720
-5 -7 -6 3.3039 0.7753
-5 -7 -5 -0.9143 1.5026
-5 -7 -4 -2.9072 2.9474
-5 -7 -3 0.0741 -2.1321
-5 -7 -2 -1.1216 2.5915
-5 -7 -1 1.0400 -1.1952
-5 -7 0 -7.2197 -0.4738
-5 -5 -23 -1.2020 2.2320
-5 -5 -22 0.6448 3.4881
-5 -5 -21 -4.8813 -3.4345
-5 -5 -20 -2.4025 1.1454
-5 -5 -19 -1.1132 -5.8945
-5 -5 -18 -4.1121 1.1954
-5 -5 -17 6.6695 -7.8016
-5 -5 -16 -4.3643 -4.5725
-5 -5 -15 7.7651 5.1457
-5 -5 -14 2.2117 -10.0425
-5 -5 -13 -1.9216 9.6936
-5 -5 -12 13.0264 -1.9133
-5 -5 -10 6.3881 5.8115
-5 -5 -9 -15.1580 -0.7941
-5 -5 -8 4.6465 11.2575
-5 -5 -7 -7.1982 -12.0029
-5 -5 -6 -9.0803 2.6105
-5 -5 -5 2.6940 -8.9038
-5 -5 -4 -5.2777 -6.2898
-5 -5 -3 4.4994 -9.4601
-5 -5 -2 6.6052 -8.8367
-5 -5 -1 8.2352 -2.0980
-5 -5 0 12.0183 1.1609
-5 -3 -24 1.8871 -3.5105
-5 -3 -23 1.0923 -1.7741
-5 -3 -22 2.2294 -0.2748
-5 -3 -21 3.3061 -1.9435
-5 -3 -20 2.0403 -1.7174
-5 -3 -19 3.9840 1.5802
-5 -3 -18 -2.3863 0.9031
-5 -3 -17 4.0225 -0.2433
-5 -3 -16 -0.7210 -4.5128
-5 -3 -15 1.2438 14.9533
-5 -3 -14 -3.8357 0.3137
-5 -3 -12 5.8087 -7.1489
-5 -3 -11 17.5103 -17.9033
-5 -3 -10 -8.5305 -2.1006
-5 -3 -9 19.9533 3.6796
-5 -3 -8 -5.0514 -6.2951
-5 -3 -7 16.3216 15.6107
-5 -3 -6 2.4360 -17.8045
-5 -3 -5 -3.4204 25.3763
-5 -3 -4 20.8691 -6.6272
-5 -3 -3 -19.2127 11.2838
-5 -3 -2 8.7438 0.6551
-5 -3 -1 -4.0735 -9.6412
-5 -3 0 9.4291 12.0992
-5 -1 -19 0.1571 -3.2390
-5 -1 -18 -5.8093 3.3720
-5 -1 -16 1.7600 -1.3736
-5 -1 -15 12.1266 2.4562
-5 -1 -14 6.5299 8.1721
-5 -1 -13 -6.6188 3.2570
-5 -1 -12 -13.8931 11.2343
-5 -1 -11 2.8320 -4.2994
-5 -1 -10 -4.6235 0.9050
-5 -1 -9 0.4710 3.9044
-5 -1 -8 -4.0765 -11.0188
-5 -1 -7 6.3647 3.7420
-5 -1 -6 11.7803 6.1235
-5 -1 -5 -4.4944 -6.0360
-5 -1 -4 -8.4538 12.9390
-5 -1 -3 3.7005 -5.2013
-5 -1 -2 -12.8026 8.5426
-5 -1 -1 2.3778 -0.1920
-5 -1 0 -14.3051 -17.0510
-5 1 1 -16.2326 -3.8879
-5 1 2 7.8944 -8.8513
-5 1 3 1.0764 -3.5003
-5 1 4 3.9894 -0.1425
-5 1 5 -1.0156 -4.1066
-5 1 6 2.9847 7.2751
-5 1 7 3.6118 2.8266
-5 1 8 -8.6738 -0.0273
-5 1 9 -4.5331 1.9223
-5 1 10 -0.0605 -3.2797
-5 1 11 -7.8641 -0.5952
-5 1 12 -2.4369 -4.4319
-5 1 13 -7.1252 -3.1568
-5 1 14 1.1761 -3.2930
-5 1 15 2.2193 -4.4493
-5 1 16 4.3849 -3.2631
-5 1 17 1.1131 -5.5429
-5 1 18 5.3441 2.1042
-5 1 19 1.7144 3.0485
-5 1 20 -0.3620 2.3176
-5 1 21 0.4755 1.6488
-5 1 22 -0.3123 1.4515
-5 1 23 -1.6410 1.7066
-5 1 24 0.7926 0.1523
-5 1 25 -2.1375 1.6927
-5 1 26 0.7038 0.1594
-5 1 27 -1.6573 -0.3606
-5 1 28 -1.3274 2.7272
-5 1 29 -1.1970 0.1532
-5 1 30 0.4051 -1.4232
-5 1 31 1.2827 -1.2267
-5 1 32 -0.9029 1.3000
-5 1 33 -0.9550 1.9654
-5 1 34 0.0756 -1.0778
-5 1 35 -0.9873 1.1577
-5 1 36 0.1573 0.1849
-5 1 37 0.2853 -0.5775
-5 1 38 -0.1637 0.6462
-5 1 39 -0.7300 -0.0754
-5 1 40 0.5909 -0.9091
-5 3 1 -4.5515 -2.8368
-5 3 2 -2.9418 15.8401
-5 3 3 6.1794 -10.1122
-5 3 4 -13.4816 2.1203
-5 3 5 4.8083 -4.3473
-5 3 6 -4.9813 -10.5488
-5 3 7 9.9572 -1.6454
-5 3 8 4.9794 -4.6871
-5 3 9 1.7673 2.5198
-5 3 10 4.1694 2.4524
-5 3 11 9.4068 -0.1678
-5 3 12 -0.6518 6.2132
-5 3 13 4.2763 5.4717
-5 3 14 -2.3132 0.3033
-5 3 15 -1.4419 3.9074
-5 3 16 -2.9913 0.4596
-5 3 17 -0.7013 1.1441
-5 3 18 -3.0779 -2.4582
-5 3 19 -0.1471 -0.9617
-5 3 20 0.4175 0.5040
-5 3 21 2.4184 2.3527
-5 3 22 -0.6177 -3.1001
-5 3 23 -1.7370 -0.4702
-5 3 24 -0.7967 -0.4085
-5 3 25 0.7952 -0.6146
-5 3 26 1.1268 -0.1926
-5 3 27 0.3980 -0.7706
-5 3 28 1.0855 -2.0869
-5 3 29 2.0363 1.6201
-5 3 30 -0.2770 1.8216
-5 3 31 -1.5057 0.4888
-5 3 32 0.2747 -0.9780
-5 3 33 0.1626 0.7206
-5 3 34 -0.2581 0.7321
-5 3 35 -0.9780 -1.0337
-5 3 36 0.4688 -0.0672
-5 3 37 -0.0916 -0.2253
-5 3 38 -0.4974 -0.6969
-5 3 39 -0.5264 -0.0009
-5 5 1 -2.4703 -2.9286
-5 5 2 7.3695 5.1779
-5 5 3 0.6064 1.4364
-5 5 4 -1.0763 3.4117
-5 5 5 -4.4355 4.7843
-5 5 6 4.1733 1.1361
-5 5 7 -6.0963 0.1066
-5 5 8 5.2513 6.5708
-5 5 9 -3.7463 -6.2280
-5 5 10 -1.6549 6.4870
-5 5 11 1.2466 -4.4673
-5 5 12 -2.6239 4.0301
-5 5 13 2.0998 2.2162
-5 5 14 -5.6774 -1.2991
-5 5 15 -2.4727 -3.0882
-5 5 16 0.1975 0.1230
-5 5 17 2.5103 0.6198
-5 5 18 -1.6034 0.9124
-5 5 19 -0.5375 -1.1162
-5 5 20 -0.9748 -0.2172
-5 5 21 -0.4815 -0.5036
-5 5 22 -1.1645 -0.2102
-5 5 23 -0.8331 -0.3623
-5 5 24 -1.5809 0.1089
-5 5 25 0.7382 -1.6874
-5 5 26 -2.0647 0.2714
-5 5 27 1.1640 -0.2911
-5 5 28 -1.6006 -2.4556
-5 5 29 -0.4278 0.0244
-5 5 30 0.4036 -0.3399
-5 5 31 -0.5921 -0.2244
-5 5 32 0.3490 -0.5273
-5 5 33 -0.2487 -1.2074
-5 5 34 -1.5465 0.6759
-5 5 35 0.4252 -0.9355
-5 5 36 -1.2585 -2.3981
-5 5 37 0.5726 -0.5283
-5 7 1 0.4077 -2.4019
-5 7 2 -4.5517 -2.2415
-5 7 3 2.3060 3.8198
-5 7 4 -2.8269 -3.2174
-5 7 5 -2.9223 2.1205
-5 7 6 -1.4758 -5.6505
-5 7 7 -3.9018 0.4544
-5 7 8 4.2143 -5.2909
-5 7 9 -0.0412 -1.7003
-5 7 10 1.9764 0.2814
-5 7 11 1.3982 0.3262
-5 7 12 2.0304 -0.4328
-5 7 13 -1.0763 2.7554
-5 7 14 2.0677 1.2969
-5 7 15 -5.7863 -0.1833
-5 7 16 -0.5357 -1.5854
-5 7 17 -0.1074 -2.5397
-5 7 18 5.7501 -2.6042
-5 7 19 0.6136 -2.3978
-5 7 20 0.8821 3.5957
-5 7 21 2.4877 0.7190
-5 7 22 2.1622 -0.0141
-5 7 23 -1.4272 0.9621
-5 7 24 1.4390 2.6964
-5 7 25 0.1872 0.4578
-5 7 26 0.5129 -2.0484
-5 7 27 -1.0174 -0.9493
-5 7 28 2.1974 2.5789
-5 7 29 0.7686 -0.0239
-5 7 30 0.0018 -0.6999
-5 7 31 0.4800 -0.1946
-5 7 32 2.2849 1.1699
-5 7 33 1.4357 -0.4237
-5 7 34 -0.6363 2.0110
-5 7 35 0.2453 1.5576
-5 9 1 1.0862 -2.6093
-5 9 2 0.3180 -0.8971
-5 9 3 0.7819 1.7113
-5 9 4 -0.3648 1.3542
-5 9 5 1.4747 -1.4968
-5 9 6 -2.5993 -0.1472
-5 9 7 2.2819 -0.6549
-5 9 8 -1.1895 -0.8330
-5 9 9 0.7105 0.8655
-5 9 10 -0.0414 -3.3730
-5 9 11 1.2070 0.1328
-5 9 12 0.0860 -0.0553
-5 9 13 1.9850 2.1734
-5 9 14 -0.1251 -0.9569
-5 9 15 1.5042 1.4855
-5 9 16 -0.6947 0.8138
-5 9 17 -1.8566 1.5623
-5 9 18 -0.6540 0.0617
-5 9 19 -0.3148 0.2181
-5 9 20 -2.1122 -1.9916
-5 9 21 -0.8123 1.2798
-5 9 22 0.2107 0.4285
-5 9 23 1.0473 -0.6045
-5 9 24 -1.7138 -2.1008
-5 9 25 -1.3950 0.6451
-5 9 26 0.9964 -0.2910
-5 9 27 0.5581 0.3854
-5 9 28 -0.3486 -0.4359
-5 9 29 -0.2869 0.0649
-5 9 30 1.6093 0.7275
-5 9 31 -0.6380 0.8188
-5 9 32 -1.3544 0.8679
-5 11 1 1.7667 -2.6424
-5 11 2 0.4550 -0.9152
-5 11 3 2.4593 0.5205
-5 11 4 0.0801 -0.6366
-5 11 5 0.9054 1.7580
-5 11 6 3.1619 -0.4555
-5 11 7 -0.9926 0.3950
-5 11 8 -1.2249 2.9715
-5 11 9 0.6409 0.6386
-5 11 10 -0.3807 1.5558
-5 11 11 -1.0276 -0.2131
-5 11 12 -1.1493 -0.3251
-5 11 13 -0.1980 -0.4284
-5 11 14 -0.5230 -0.3876
-5 11 15 0.3174 -0.0833
-5 11 16 0.2925 -1.0879
-5 11 17 0.2512 0.2196
-5 11 18 0.3538 0.1490
-5 11 19 -0.5704 0.1624
-5 11 20 1.0483 0.8866
-5 11 21 -0.9252 -0.6690
-5 11 22 -0.3842 -0.5217
-5 11 23 0.5875 -0.5170
-5 11 24 0.7896 0.3913
-5 11 25 -0.1783 -0.6501
-5 11 26 0.0885 0.9545
-5 11 27 0.6927 0.7794
-5 13 1 -0.6075 1.4003
-5 13 2 1.4871 -0.6643
-5 13 3 0.4936 0.3589
-5 13 4 1.4811 1.7246
-5 13 5 -1.5348 -0.0796
-5 13 6 -0.6705 0.2048
-5 13 7 -0.4105 0.2642
-5 13 8 1.0138 -0.5222
-5 13 9 1.0413 -1.2207
-5 13 10 1.2028 1.3167
-5 13 11 -0.6091 0.6816
-5 13 12 -0.4066 0.7192
-5 13 13 1.1960 -0.1698
-5 13 14 0.3383 1.5539
-5 13 15 -0.9294 1.0238
-5 13 16 -1.2478 -0.7606
-5 13 17 -0.3706 -0.4413
-5 13 18 -0.0012 0.2493
-5 13 19 0.3122 0.0975
-5 13 20 0.5262 0.2227
-4 -14 -8 -1.7084 0.1278
-4 -14 -7 -0.9868 -1.1771
-4 -14 -6 0.3397 -1.4848
-4 -14 -5 1.2070 -0.9056
-4 -14 -4 -0.5230 -0.5576
-4 -14 -3 0.9714 -0.7999
-4 -14 -2 1.7514 0.1678
-4 -14 -1 0.5241 1.4123
-4 -14 0 0.0552 1.4691
-4 -12 -13 1.6445 -2.6287
-4 -12 -12 3.1690 -2.5369
-4 -12 -11 0.9776 2.2832
-4 -12 -10 1.8102 -0.1859
-4 -12 -8 2.1101 0.9287
-4 -12 -7 -1.6591 0.9512
-4 -12 -6 -1.4766 2.6256
-4 -12 -5 -1.6768 -1.4773
-4 -12 -4 0.3059 -1.9130
-4 -12 -3 -0.0399 -2.2465
-4 -12 -2 -0.0723 0.3702
-4 -12 -1 1.2089 -0.3826
-4 -12 0 0.3309 -0.2923
-4 -10 -16 0.5865 2.9471
-4 -10 -15 -0.9887 0.1695
-4 -10 -14 -1.5986 0.5333
-4 -10 -13 -0.7947 0.2251
-4 -10 -12 -1.1829 -0.4523
-4 -10 -11 0.4754 -2.5116
-4 -10 -10 -1.8869 -2.1259
-4 -10 -8 2.4779 -5.2652
-4 -10 -7 3.9353 -1.8413
-4 -10 -6 4.2749 -0.6460
-4 -10 -5 2.6697 4.0578
-4 -10 -4 3.1805 0.8578
-4 -10 -3 0.0867 2.5973
-4 -10 -2 3.1150 3.6242
-4 -10 -1 -0.4629 1.7151
-4 -10 0 -1.3697 3.2612
-4 -8 -18 0.7409 0.9309
-4 -8 -17 -3.3408 -0.9411
-4 -8 -16 1.8363 0.2831
-4 -8 -15 -0.5820 -0.6811
-4 -8 -14 0.4431 2.8500
-4 -8 -13 1.0135 -2.8017
-4 -8 -12 3.0202 1.5782
-4 -8 -11 4.4386 0.3836
-4 -8 -10 -2.2128 7.8922
-4 -8 -9 -0.4190 3.1189
-4 -8 -8 -7.0506 2.4787
-4 -8 -7 0.5350 -0.0039
-4 -8 -6 -3.4169 -1.4366
-4 -8 -5 -0.0794 3.2026
-4 -8 -4 -2.1786 -1.7052
-4 -8 -3 -2.1663 -1.7113
-4 -8 -2 -1.0631 -0.0790
-4 -8 -1 0.8964 -1.7688
-4 -8 0 -3.3530 0.9998
-4 -6 -21 -3.2610 -4.0144
-4 -6 -20 0.8001 3.5481
-4 -6 -19 2.0262 -3.3085
-4 -6 -18 -3.4982 4.4648
-4 -6 -17 3.5260 1.1522
-4 -6 -16 -5.6215 -0.2985
-4 -6 -15 0.2555 6.8793
-4 -6 -14 -3.8095 -3.2145
-4 -6 -13 -9.5877 2.5856
-4 -6 -12 2.6428 -9.2374
-4 -6 -11 -10.3828 -1.4701
-4 -6 -10 4.3339 -1.3899
-4 -6 -7 -0.9969 -11.0981
-4 -6 -6 3.0977 2.4472
-4 -6 -5 4.2678 -0.0168
-4 -6 -4 3.0757 6.3524
-4 -6 -3 -2.7230 0.7793
-4 -6 -2 -2.3890 5.1196
-4 -6 -1 -4.7106 1.5306
-4 -6 0 -7.9134 3.8103
-4 -4 -24 -1.6954 1.5301
-4 -4 -23 -1.5074 1.4298
-4 -4 -22 -5.6827 -0.0842
-4 -4 -21 0.6965 -2.2827
-4 -4 -20 -3.6046 -1.5984
-4 -4 -19 0.1119 0.9909
-4 -4 -18 -7.1974 -5.4149
-4 -4 -17 1.5291 -3.9487
-4 -4 -16 4.8908 -11.0517
-4 -4 -15 6.7279 0.6074
-4 -4 -14 6.3917 -2.6072
-4 -4 -13 4.7433 -5.3940
-4 -4 -12 7.3132 13.6959
-4 -4 -11 16.1592 1.0941
-4 -4 -10 -18.4899 11.2117
-4 -4 -8 -20.4919 -14.7746
-4 -4 -7 7.3603 19.0381
-4 -4 -6 -4.0350 -27.5143
-4 -4 -5 -11.7096 19.2853
-4 -4 -4 18.4278 -12.9985
-4 -4 -3 -22.9771 -4.4045
-4 -4 -2 17.1621 -3.0631
-4 -4 -1 -1.0331 -9.3175
-4 -4 0 5.3796 8.3742
-4 -2 -20 -0.2241 3.7689
-4 -2 -19 4.1476 -2.5142
-4 -2 -18 -0.3469 5.0555
-4 -2 -17 4.8626 -5.5178
-4 -2 -16 -3.1858 0.8316
-4 -2 -15 5.9257 0.4976
-4 -2 -14 -4.9239 -1.2318
-4 -2 -13 -6.1527 4.0439
-4 -2 -12 -1.6084 -7.7430
-4 -2 -10 11.6621 -2.7028
-4 -2 -9 -16.5006 13.8461
-4 -2 -8 15.1962 4.5479
-4 -2 -7 -9.9337 -15.5864
-4 -2 -6 10.6421 18.0276
-4 -2 -5 -2.9291 -15.5477
-4 -2 -4 -13.5400 28.0922
-4 -2 -3 28.0684 -6.6882
-4 -2 -2 -34.1851 9.2629
-4 -2 -1 12.6463 0.6493
-4 -2 0 -2.7338 -24.1044
-4 0 -14 5.3190 3.3008
-4 0 -12 1.8023 7.2477
-4 0 -10 -4.9819 -0.8063
-4 0 -8 -13.8255 3.7110
-4 0 -6 -4.3185 -6.5330
-4 0 -4 1.7086 -27.2519
-4 0 -2 34.3747 -15.4081
-4 0 0 9.2590 18.9224
-4 0 2 21.4142 23.3824
-4 0 4 -25.8793 16.8943
-4 0 6 -6.0241 -8.2799
-4 0 8 -3.9130 -16.0714
-4 0 10 12.1689 -5.8998
-4 0 12 12.3423 8.9369
-4 0 14 6.6526 2.9376
-4 0 16 -2.0982 3.5905
-4 0 18 0.1880 4.1251
-4 0 20 -0.6532 -3.1072
-4 0 22 3.9544 -1.1960
-4 0 24 1.6744 -1.3526
-4 0 26 5.0527 -0.3454
-4 0 28 2.0184 0.8416
-4 0 30 2.8239 0.3562
-4 0 32 -1.4306 1.5656
-4 0 34 2.6901 -2.0413
-4 0 36 1.5797 0.3900
-4 0 38 0.3792 0.3544
-4 0 40 0.0525 0.5011
-4 2 1 -9.7860 -30.6036
-4 2 2 -1.8518 -0.4230
-4 2 3 24.9786 -13.2795
-4 2 4 -2.2068 -3.7194
-4 2 5 13.9052 8.8759
-4 2 6 -3.1944 -0.2594
-4 2 7 2.4816 9.7779
-4 2 8 -1.4868 -0.1217
-4 2 9 -8.7922 6.7787
-4 2 10 3.1101 2.0593
-4 2 11 3.0913 -9.2227
-4 2 12 -13.8808 0.6390
-4 2 13 6.3279 1.9118
-4 2 14 -6.7289 -8.1451
-4 2 15 1.7649 -0.0235
-4 2 16 2.0964 -6.0351
-4 2 17 4.3368 5.0596
-4 2 18 3.6095 -3.1154
-4 2 19 2.9990 4.8780
-4 2 20 0.5310 1.9425
-4 2 21 -2.0625 2.3584
-4 2 22 -0.5578 0.0251
-4 2 23 -0.8108 2.9698
-4 2 24 -1.2296 0.9713
-4 2 25 1.3130 1.2592
-4 2 26 -1.0936 1.2529
-4 2 27 -1.2555 1.2586
-4 2 28 -3.0998 -0.5061
-4 2 29 -0.7441 2.8058
-4 2 30 -0.0165 -0.7903
-4 2 31 -0.4675 -0.8082
-4 2 32 0.6758 -0.1511
-4 2 33 -0.8790 1.2102
-4 2 34 -0.7601 1.3328
-4 2 35 1.0317 -0.9348
-4 2 36 -2.2119 0.7265
-4 2 37 -0.4105 0.8075
-4 2 38 0.0442 -0.7732
-4 2 39 0.2592 0.9801
-4 2 40 -0.0403 -0.1241
-4 4 1 -4.6391 2.1005
-4 4 2 -1.9225 0.1586
-4 4 3 -2.2648 5.4920
-4 4 4 5.8429 -4.7295
-4 4 5 -9.9488 3.3454
-4 4 6 12.4278 1.5357
-4 4 7 -5.3974 -6.5629
-4 4 8 5.9424 8.4499
-4 4 9 -4.3065 -8.1217
-4 4 10 -2.8611 10.9460
-4 4 11 4.4486 -9.0637
-4 4 12 -2.5613 2.5266
-4 4 13 4.0416 2.3841
-4 4 14 -3.2102 2.1358
-4 4 15 1.7763 1.1107
-4 4 16 -0.3772 1.7111
-4 4 17 -0.1486 -0.0036
-4 4 18 -2.5286 -0.7004
-4 4 19 -1.2157 -2.1770
-4 4 20 -0.5075 1.6688
-4 4 21 2.3934 0.5020
-4 4 22 -1.4245 0.2890
-4 4 23 1.0111 -0.6899
-4 4 24 0.3545 0.5802
-4 4 25 0.1606 0.8066
-4 4 26 -1.2569 -0.0339
-4 4 27 2.0115 1.5937
-4 4 28 -0.8681 0.3588
-4 4 29 -0.9216 1.5836
-4 4 30 0.2737 -0.5487
-4 4 31 -2.0578 0.8545
-4 4 32 -0.4095 -0.3542
-4 4 33 -0.9937 -1.5811
-4 4 34 0.7156 1.3515
-4 4 35 -0.2749 -0.6057
-4 4 36 -0.3781 -0.3441
-4 4 37 1.3314 0.4814
-4 4 38 -0.0798 0.2457
-4 6 1 6.0208 10.8595
-4 6 2 -3.6652 -4.4635
-4 6 3 0.2624 4.3821
-4 6 4 -0.9082 -4.5990
-4 6 5 -0.9616 4.8114
-4 6 6 2.1885 -1.9451
-4 6 7 -2.7820 5.0310
-4 6 8 1.2516 0.6813
-4 6 9 -4.8522 3.1190
-4 6 10 -1.4079 -1.3372
-4 6 11 -3.6415 2.2961
-4 6 12 0.4025 -4.5294
-4 6 13 -5.3108 0.0142
-4 6 14 4.6314 -0.5280
-4 6 15 -4.5528 -3.4420
-4 6 16 2.2365 0.0289
-4 6 17 -1.6708 -1.9129
-4 6 18 2.3512 2.7537
-4 6 19 -4.2043 -1.1552
-4 6 20 -1.1885 2.1241
-4 6 21 -1.1877 -2.7051
-4 6 22 -1.9251 -1.9061
-4 6 23 -1.4260 -2.7452
-4 6 24 0.7100 0.4810
-4 6 25 -1.3712 -2.4843
-4 6 26 -1.0691 -2.0068
-4 6 27 -0.0061 -1.4076
-4 6 28 1.9153 0.3928
-4 6 29 -1.1450 -2.1521
-4 6 30 -1.6364 -0.7633
-4 6 31 0.2272 -1.1717
-4 6 32 1.1645 -0.5823
-4 6 33 0.0816 -0.8194
-4 6 34 -1.8074 -0.1265
-4 6 35 0.8535 -1.5994
-4 6 36 0.8357 -2.3166
-4 6 37 0.3659 0.3014
-4 8 1 -2.0257 -1.1122
-4 8 2 -2.1242 -1.9640
-4 8 3 -0.9917 1.3121
-4 8 4 -1.1046 -1.1943
-4 8 5 -4.0132 -3.1336
-4 8 6 -1.9930 -2.2090
-4 8 7 2.6494 -2.3364
-4 8 8 -1.1544 -1.2283
-4 8 9 2.5799 -2.4532
-4 8 10 -1.5754 -1.9131
-4 8 11 2.1670 1.3907
-4 8 12 0.9876 -1.5313
-4 8 13 1.1591 1.0367
-4 8 14 -0.3226 -2.7302
-4 8 15 -0.4535 0.6557
-4 8 16 -0.3831 -1.4595
-4 8 17 2.2430 -1.6439
-4 8 18 1.2262 -2.1865
-4 8 19 3.3868 -0.2825
-4 8 20 2.2397 -0.1104
-4 8 21 2.3236 2.3386
-4 8 22 2.4021 -0.2733
-4 8 23 0.7532 0.4782
-4 8 24 -1.1004 1.5371
-4 8 25 2.6994 2.7307
-4 8 26 1.4637 -0.1787
-4 8 27 -0.7577 0.5710
-4 8 28 -0.7951 0.3543
-4 8 29 0.9840 1.5749
-4 8 30 0.6357 -0.5426
-4 8 31 -0.7557 -0.8747
-4 8 32 1.3120 1.3498
-4 8 33 1.4534 0.0405
-4 8 34 -0.7801 0.5005
-4 10 1 2.0055 -2.3384
-4 10 2 -1.9061 0.0136
-4 10 3 2.1589 0.8641
-4 10 4 -2.5426 -0.8528
-4 10 5 -0.4944 -1.0040
-4 10 6 1.8351 -2.0349
-4 10 7 -0.7726 0.5264
-4 10 8 1.6471 -0.0098
-4 10 9 0.9574 -1.5747
-4 10 10 1.2431 -0.4427
-4 10 11 0.5047 -1.1349
-4 10 12 1.4733 0.6965
-4 10 13 2.1311 -0.1227
-4 10 14 1.5679 2.4776
-4 10 15 -0.7339 0.0594
-4 10 16 -0.2003 2.2468
-4 10 17 0.7349 1.1908
-4 10 18 -0.9331 -0.1868
-4 10 19 -0.5747 0.1240
-4 10 20 0.3669 0.8159
-4 10 21 -0.3601 -0.6570
-4 10 22 -0.4795 1.5637
-4 10 23 -0.1567 1.0895
-4 10 24 -1.0345 0.1966
-4 10 25 -0.9624 -0.6755
-4 10 26 -0.6045 -0.2379
-4 10 27 0.3787 -0.0318
-4 10 28 -0.1598 -0.8541
-4 10 29 -0.9751 0.0156
-4 10 30 0.9549 -0.1352
-4 12 1 -1.1164 0.8503
-4 12 2 0.8406 -0.8747
-4 12 3 -1.4700 -0.3512
-4 12 4 0.7398 1.1789
-4 12 5 -0.1809 -0.6804
-4 12 6 0.2823 0.2651
-4 12 7 0.9003 -0.7223
-4 12 8 0.0030 0.6375
-4 12 9 0.0568 0.6529
-4 12 10 -0.6762 0.0122
-4 12 11 -1.3433 1.4761
-4 12 12 0.4846 -0.2133
-4 12 13 0.0719 -1.1383
-4 12 14 -0.1432 0.1236
-4 12 15 -0.7166 0.4885
-4 12 16 0.1563 0.2168
-4 12 17 0.1260 -0.2583
-4 12 18 0.5384 1.0443
-4 12 19 -0.9439 -0.4014
-4 12 20 -1.7168 0.1861
-4 12 21 0.6037 -0.6943
-4 12 22 -0.7005 0.0840
-4 12 23 0.8099 -0.0501
-4 12 24 -0.0722 -0.9220
-4 12 25 0.3945 0.1019
-4 14 1 0.5981 -0.6997
-4 14 2 -0.8713 -0.3392
-4 14 3 1.8319 0.0568
-4 14 4 0.3220 0.4321
-4 14 5 0.4683 2.2220
-4 14 6 -0.5337 -0.8600
-4 14 7 -0.4793 -0.4443
-4 14 8 -0.0015 1.7111
-4 14 9 1.0422 1.3567
-4 14 10 -0.3392 -1.3093
-4 14 11 -1.2247 0.4175
-4 14 12 -0.2873 -0.2675
-4 14 13 0.4281 -0.2075
-4 14 14 1.0650 0.5306
-4 14 15 0.5644 1.1872
-3 -15 -4 -1.0271 0.3425
-3 -15 -3 -0.8753 -0.1186
-3 -15 -2 0.2681 0.5047
-3 -15 -1 -0.2841 -0.9282
-3 -15 0 -1.0495 0.0613
-3 -13 -11 -1.3716 3.5004
-3 -13 -10 -3.2463 -1.5684
-3 -13 -9 -2.4336 -0.0278
-3 -13 -8 0.4971 -4.1161
-3 -13 -7 -1.9819 0.6382
-3 -13 -6 1.7021 -1.2246
-3 -13 -5 -0.4281 -2.3304
-3 -13 -4 2.1383 -1.3505
-3 -13 -3 -0.4095 -0.5543
-3 -13 -2 2.9020 1.4391
-3 -13 -1 0.5989 -0.1250
-3 -13 0 -0.7958 2.2015
-3 -11 -14 0.5538 -1.1816
-3 -11 -13 1.2188 -4.0498
-3 -11 -12 2.5251 -0.4220
-3 -11 -11 4.4568 0.8094
-3 -11 -10 -0.5758 3.0422
-3 -11 -9 1.0169 1.8882
-3 -11 -7 0.3862 1.7390
-3 -11 -6 -4.5183 0.1692
-3 -11 -5 -2.2844 2.5025
-3 -11 -4 -1.1233 -4.9815
-3 -11 -3 -1.2458 -2.1351
-3 -11 -2 1.7784 -2.5863
-3 -11 -1 1.2505 -0.7063
-3 -11 0 1.4440 -0.7456
-3 -9 -16 2.4882 1.9693
-3 -9 -15 -0.4357 1.6214
-3 -9 -14 -1.6866 0.8541
-3 -9 -13 -1.0226 -4.4172
-3 -9 -12 0.0564 0.3211
-3 -9 -11 1.0856 -1.6524
-3 -9 -10 -0.9410 0.4005
-3 -9 -9 1.5553 -3.1707
-3 -9 -7 5.4512 -4.8166
-3 -9 -6 1.5383 -0.3436
-3 -9 -5 6.9163 3.7094
-3 -9 -4 1.5418 0.9857
-3 -9 -3 -0.0755 0.2533
-3 -9 -2 1.3153 4.3861
-3 -9 -1 6.0434 3.0578
-3 -9 0 -3.0426 2.8474
-3 -7 -19 1.8419 0.5553
-3 -7 -18 -0.4081 -0.0671
-3 -7 -17 1.2185 1.3940
-3 -7 -16 0.1864 -2.3366
-3 -7 -15 1.5539 2.6777
-3 -7 -14 0.8733 -1.2821
-3 -7 -13 -1.1972 3.6461
-3 -7 -12 6.1971 -2.4926
-3 -7 -11 -0.2306 4.7531
-3 -7 -10 8.7325 5.2782
-3 -7 -9 -5.0354 5.4420
-3 -7 -8 0.6535 6.4465
-3 -7 -6 0.8448 5.5032
-3 -7 -5 -6.9102 -0.2322
-3 -7 -4 -1.3782 4.6956
-3 -7 -3 -7.5032 -9.3757
-3 -7 -2 0.6752 2.8540
-3 -7 -1 2.9973 -5.0913
-3 -7 0 -3.3029 2.1058
-3 -5 -22 -4.0956 0.1785
-3 -5 -21 4.2716 0.7391
-3 -5 -20 -1.9895 -0.6753
-3 -5 -19 0.7701 2.9402
-3 -5 -18 -4.7507 -1.2030
-3 -5 -17 3.3673 3.1492
-3 -5 -16 -1.3820 -1.0065
-3 -5 -15 -7.3295 6.8778
-3 -5 -14 -5.3573 4.2649
-3 -5 -13 -6.2541 -1.2933
-3 -5 -12 -14.7410 -1.3328
-3 -5 -11 -0.1108 -11.0621
-3 -5 -10 -14.7010 -6.5581
-3 -5 -9 9.6589 -3.0324
-3 -5 -8 -8.5856 -18.8465
-3 -5 -5 -5.0989 14.4939
-3 -5 -4 13.4554 -7.6142
-3 -5 -3 -7.6309 -0.5367
-3 -5 -2 2.9213 1.5197
-3 -5 -1 -7.1510 -0.0355
-3 -5 0 4.0722 -0.1273
-3 -3 -21 -5.2994 -6.6052
-3 -3 -20 1.7608 3.4223
-3 -3 -19 1.0115 -4.8345
-3 -3 -18 -8.1222 0.2850
-3 -3 -17 1.0476 -11.1067
-3 -3 -16 -2.5895 -4.8945
-3 -3 -15 13.7476 1.4198
-3 -3 -14 0.1540 -3.7267
-3 -3 -13 -0.9430 6.0732
-3 -3 -12 8.8215 -12.7256
-3 -3 -11 0.4103 11.9661
-3 -3 -10 7.4193 -7.0621
-3 -3 -9 -29.2696 2.9487
-3 -3 -8 26.4463 -1.2453
-3 -3 -5 1.4683 -23.9219
-3 -3 -4 -3.5157 22.2018
-3 -3 -3 33.2837 -17.3387
-3 -3 -2 -35.9449 -7.4013
-3 -3 -1 31.2073 9.2542
-3 -3 0 7.9657 -15.4653
-3 -1 -14 8.3313 -0.5751
-3 -1 -13 -0.4998 -3.9081
-3 -1 -12 10.2561 22.9383
-3 -1 -11 1.1073 -12.7873
-3 -1 -8 -24.5447 4.7648
-3 -1 -7 36.7524 3.1537
-3 -1 -6 -5.3277 -25.0041
-3 -1 -5 24.5474 49.2018
-3 -1 -4 1.0503 -0.0940
-3 -1 -3 -39.0273 43.4782
-3 -1 -2 13.3265 3.1506
-3 -1 -1 -63.9990 7.2677
-3 -1 0 -6.3365 4.1588
-3 1 1 5.1296 49.3679
-3 1 2 -3.6220 13.3151
-3 1 3 0.7950 18.8418
-3 1 4 -20.3587 -6.2090
-3 1 5 -34.4493 12.6037
-3 1 6 -4.9354 -10.9115
-3 1 7 -0.7413 -15.8457
-3 1 8 5.4879 -9.1004
-3 1 9 2.5399 -16.8085
-3 1 10 6.5423 4.3479
-3 1 11 10.0802 -8.1325
-3 1 12 -8.4477 2.3772
-3 1 13 18.0601 11.1572
-3 1 14 -6.7453 -5.7259
-3 1 15 4.4303 9.0989
-3 1 16 0.6806 -4.9537
-3 1 17 -0.8858 6.3702
-3 1 18 1.5864 -5.4646
-3 1 19 -3.4098 1.1911
-3 1 20 1.4089 -2.1198
-3 1 21 1.7685 -0.4470
-3 1 22 1.1620 -0.0576
-3 1 23 2.2067 0.3663
-3 1 24 -0.1255 -2.3554
-3 1 25 2.4856 0.2961
-3 1 26 0.7160 -0.9484
-3 1 27 1.9792 0.6285
-3 1 28 0.1430 -1.0393
-3 1 29 3.1265 1.1124
-3 1 30 1.7234 -1.5226
-3 1 31 0.1341 1.2860
-3 1 32 -0.3662 0.2102
-3 1 33 -0.7906 -0.5524
-3 1 34 1.8094 0.0530
-3 1 35 2.0938 -1.2887
-3 1 36 -2.5936 0.2255
-3 1 37 2.0789 0.3949
-3 1 38 1.5822 -1.3485
-3 1 39 0.5757 0.1912
-3 1 40 -0.3146 0.1497
-3 3 1 -0.0842 -28.4305
-3 3 2 4.7882 -6.4855
-3 3 3 11.2044 4.9272
-3 3 4 14.5857 -4.1913
-3 3 5 -9.7795 -2.9043
-3 3 6 16.6759 7.8296
-3 3 7 -8.7316 -7.6425
-3 3 8 -0.7390 7.1852
-3 3 9 2.1526 -10.8869
-3 3 11 9.1163 -3.8937
-3 3 12 -3.6114 6.9305
-3 3 13 -1.0756 2.7712
-3 3 14 2.5194 0.4661
-3 3 15 -4.2287 -6.5921
-3 3 16 -0.8008 0.8372
-3 3 17 3.9990 -5.4699
-3 3 18 0.5778 5.8210
-3 3 19 4.5006 -1.0940
-3 3 20 -0.9844 4.5435
-3 3 21 2.9312 1.6405
-3 3 22 -3.7297 -0.0655
-3 3 23 -0.3027 1.3661
-3 3 24 -2.1184 1.1524
-3 3 25 -1.6425 -0.7384
-3 3 26 0.5794 -1.5259
-3 3 27 1.0545 -0.6677
-3 3 28 -0.9559 -1.3018
-3 3 29 0.0066 -0.7595
-3 3 30 2.3880 0.4995
-3 3 31 0.8068 1.2893
-3 3 32 1.4141 -0.1243
-3 3 33 0.1914 1.0041
-3 3 34 0.8006 2.9088
-3 3 35 -0.8911 0.4598
-3 3 36 0.2232 0.4961
-3 3 37 -1.7697 0.1235
-3 3 38 -0.9832 0.4290
-3 3 39 -0.1905 -0.6039
-3 5 1 5.2844 2.9001
-3 5 2 1.6000 -9.5088
-3 5 3 3.8898 2.9207
-3 5 4 5.5497 3.6222
-3 5 5 1.5177 9.0757
-3 5 6 -2.2577 0.4982
-3 5 7 -0.4142 2.4135
-3 5 8 1.0008 -0.6067
-3 5 9 -1.4008 5.0616
-3 5 10 3.0769 -3.3443
-3 5 11 -0.8394 4.0759
-3 5 12 3.0762 -2.6370
-3 5 13 -3.7616 6.0268
-3 5 14 6.2277 1.6035
-3 5 15 -9.0087 0.6510
-3 5 16 1.9493 6.0323
-3 5 17 -2.5332 -2.8203
-3 5 18 1.2808 1.8785
-3 5 19 -0.7156 -3.5749
-3 5 20 0.1852 2.7850
-3 5 21 0.6491 -0.1619
-3 5 22 1.7605 1.3525
-3 5 23 0.4097 -0.4442
-3 5 24 0.4545 4.5431
-3 5 25 1.0624 1.3416
-3 5 26 -2.1273 1.5617
-3 5 27 0.4378 0.8360
-3 5 28 0.1322 2.0789
-3 5 29 -2.2127 2.6825
-3 5 30 -1.3057 1.4494
-3 5 31 0.3766 -1.8977
-3 5 32 -0.7378 2.0896
-3 5 33 -0.7768 1.0940
-3 5 34 -2.5505 -0.3115
-3 5 35 0.6610 -0.0988
-3 5 36 -1.9090 -0.4947
-3 5 37 0.2879 1.8284
-3 5 38 0.5816 -0.9314
-3 7 1 -3.0848 2.3796
-3 7 2 -0.7124 3.3969
-3 7 3 0.2130 -3.3660
-3 7 4 -2.1098 1.1846
-3 7 5 3.5168 2.6875
-3 7 6 0.9272 2.6985
-3 7 7 0.5392 3.8995
-3 7 8 -5.2866 2.9056
-3 7 9 -2.9164 1.9716
-3 7 10 -6.1374 -0.4338
-3 7 11 1.7719 0.7987
-3 7 12 -3.3844 -3.0327
-3 7 13 -3.3100 1.6793
-3 7 14 -1.6696 -2.3291
-3 7 15 -0.1161 0.2821
-3 7 16 -0.2653 -1.4406
-3 7 17 -1.6617 -0.0483
-3 7 18 -2.7744 -1.1984
-3 7 19 1.2796 0.8618
-3 7 20 -2.8331 -1.8442
-3 7 21 -2.6430 1.1814
-3 7 22 -2.2740 -1.9625
-3 7 23 -1.9204 -1.7237
-3 7 24 -1.1285 -2.9352
-3 7 25 0.3839 -0.6653
-3 7 26 -1.7823 -3.5803
-3 7 27 -0.8973 -0.6567
-3 7 28 2.2254 -1.8070
-3 7 29 -0.5338 -0.1280
-3 7 30 -0.3059 -1.9781
-3 7 31 -0.9660 -1.6703
-3 7 32 1.0529 0.5872
-3 7 33 0.4104 -1.8895
-3 7 34 -1.7255 -0.0654
-3 7 35 1.2326 -0.4020
-3 7 36 1.6747 -2.1134
-3 9 1 -0.2694 -5.2824
-3 9 2 -3.0033 1.4913
-3 9 3 0.8812 -1.3785
-3 9 4 -3.8914 -0.0407
-3 9 5 0.7432 -1.8395
-3 9 6 -3.5635 -2.1269
-3 9 7 0.4637 -0.7579
-3 9 8 0.3750 -1.4885
-3 9 9 -1.2737 -2.1169
-3 9 10 -1.0581 -1.3806
-3 9 11 0.3307 -1.3726
-3 9 12 0.5623 -1.9824
-3 9 13 0.7559 -0.1480
-3 9 14 0.2293 -0.4643
-3 9 15 -0.8116 -2.4808
-3 9 16 0.6082 -0.1745
-3 9 17 2.1860 -2.3575
-3 9 18 0.6040 -1.2665
-3 9 19 -0.3843 0.1964
-3 9 20 1.8669 -0.5064
-3 9 21 2.1587 -1.6407
-3 9 22 0.9737 0.5423
-3 9 23 2.1265 0.6504
-3 9 24 0.6985 -0.3331
-3 9 25 0.5112 1.1158
-3 9 26 1.6133 0.2286
-3 9 27 0.2900 1.4665
-3 9 28 -0.3298 0.4929
-3 9 29 -0.9663 0.2870
-3 9 30 1.6034 -0.1915
-3 9 31 -0.5874 -0.1992
-3 9 32 0.4288 0.3129
-3 11 1 -1.3785 -0.0059
-3 11 2 1.0814 -0.9752
-3 11 3 -0.0343 -1.4019
-3 11 4 3.1640 -0.2949
-3 11 5 -1.3957 -1.3905
-3 11 6 1.7997 0.2615
-3 11 7 1.4231 -1.7601
-3 11 8 -0.7035 2.5435
-3 11 9 1.4663 -0.6928
-3 11 10 -0.5105 -0.6670
-3 11 11 1.6478 0.2970
-3 11 12 -0.1402 -0.7784
-3 11 13 1.1408 -0.8960
-3 11 14 1.3383 -1.0893
-3 11 15 1.1113 2.6567
-3 11 16 0.5706 -0.7181
-3 11 17 0.1890 -0.3847
-3 11 18 1.6545 0.3101
-3 11 19 -0.1480 0.4049
-3 11 20 0.7870 1.6984
-3 11 21 1.9731 -0.0757
-3 11 22 -0.5397 0.0562
-3 11 23 -0.1729 1.5898
-3 11 24 -0.3437 0.6992
-3 11 25 -0.4121 -0.0491
-3 11 26 -0.1844 0.6206
-3 11 27 0.0848 0.4645
-3 11 28 -1.0521 -0.5897
-3 13 1 0.1409 -0.0676
-3 13 2 -0.6768 0.1430
-3 13 3 0.6240 -0.3041
-3 13 4 -1.5117 -0.0400
-3 13 5 -0.4666 0.7390
-3 13 6 0.1198 -1.6499
-3 13 7 -0.2452 -0.0832
-3 13 8 1.4131 1.0664
-3 13 9 1.0772 -1.3075
-3 13 10 -1.4472 -1.0440
-3 13 11 -0.3646 1.0010
-3 13 12 1.6807 1.6369
-3 13 13 1.3127 -0.4457
-3 13 14 -1.8272 0.2768
-3 13 15 -0.2908 0.5899
-3 13 16 -0.7638 -0.6141
-3 13 17 0.7006 0.8864
-3 13 18 0.4674 -0.5891
-3 13 19 -0.5287 0.6542
-3 13 20 0.1752 0.2137
-3 13 21 -0.7650 0.2987
-3 15 1 0.1600 1.0820
-3 15 2 0.0822 -0.7096
-3 15 3 -0.8182 -0.0732
-3 15 4 0.9144 0.7911
-3 15 5 0.2464 -0.3059
-3 15 6 -0.3786 0.7248
-3 15 7 -0.5325 -0.2266
-2 -14 -9 1.1970 1.5408
-2 -14 -8 2.3058 -0.7725
-2 -14 -7 -1.2606 2.8823
-2 -14 -6 0.8815 0.8864
-2 -14 -5 -1.3636 0.1489
-2 -14 -4 -1.6687 0.3852
-2 -14 -3 -1.4281 0.8294
-2 -14 -2 0.4205 0.1930
-2 -14 -1 -1.3975 0.0811
-2 -14 0 -1.1705 -0.6330
-2 -12 -12 -0.8990 2.8689
-2 -12 -11 -3.4069 1.4920
-2 -12 -10 -2.8067 -0.6441
-2 -12 -9 -2.0528 -4.3243
-2 -12 -8 -1.1488 -0.9268
-2 -12 -7 1.9290 -4.1915
-2 -12 -6 -1.6713 -0.3242
-2 -12 -5 3.8732 -0.8843
-2 -12 -4 0.2382 -2.2343
-2 -12 -3 3.0866 0.5474
-2 -12 -2 -0.0162 0.3690
-2 -12 -1 1.1821 3.7960
-2 -12 0 -2.1200 -1.5993
-2 -10 -15 -1.8028 -2.2087
-2 -10 -14 0.0606 -1.9667
-2 -10 -13 1.1789 -3.6991
-2 -10 -12 1.1944 0.9374
-2 -10 -11 4.5996 0.2714
-2 -10 -10 1.1705 1.4470
-2 -10 -9 -1.1331 1.7447
-2 -10 -8 -0.4215 2.4250
-2 -10 -6 -1.6491 1.3131
-2 -10 -5 -2.6398 1.1639
-2 -10 -4 -2.5795 -0.2477
-2 -10 -3 -1.8935 -5.5063
-2 -10 -2 -0.6455 0.3219
-2 -10 -1 5.2861 -3.5328
-2 -10 0 -1.9352 -1.4506
-2 -8 -17 -0.1942 1.9807
-2 -8 -16 1.5804 -0.2592
-2 -8 -15 0.1188 2.9738
-2 -8 -14 -0.1432 -1.1464
-2 -8 -13 -2.4534 1.6378
-2 -8 -12 2.7333 -5.4606
-2 -8 -11 -2.4109 0.9439
-2 -8 -10 3.1392 -0.1195
-2 -8 -9 -5.1260 -1.0278
-2 -8 -8 3.1556 -3.7715
-2 -8 -7 -1.6230 -5.3768
-2 -8 -6 8.8079 -1.0786
-2 -8 -5 2.1268 -2.5759
-2 -8 -4 7.0633 4.4801
-2 -8 -3 0.9042 -2.8625
-2 -8 -2 3.4536 7.6852
-2 -8 -1 4.7452 1.8818
-2 -8 0 -2.2410 6.8381
-2 -6 -20 -0.5671 -0.2207
-2 -6 -19 1.3893 1.8566
-2 -6 -18 -1.3978 1.4113
-2 -6 -17 3.6017 1.2318
-2 -6 -16 -1.0573 -1.2645
-2 -6 -15 1.1366 3.6963
-2 -6 -14 3.1579 0.5936
-2 -6 -13 1.1901 -1.4899
-2 -6 -12 0.9769 -1.2153
-2 -6 -11 9.9666 3.2210
-2 -6 -10 5.0362 7.2499
-2 -6 -9 7.6491 10.0249
-2 -6 -8 -6.6493 4.7702
-2 -6 -7 -0.3895 13.5339
-2 -6 -5 -6.9279 9.9363
-2 -6 -4 -1.5666 -2.4521
-2 -6 -3 -6.5457 5.3359
-2 -6 -2 -5.7081 -2.5038
-2 -6 -1 0.2975 4.4998
-2 -6 0 3.6655 -4.3925
-2 -4 -22 1.2478 3.7640
-2 -4 -21 -3.0376 -1.8017
-2 -4 -20 2.4476 4.8782
-2 -4 -19 -3.1472 -3.0601
-2 -4 -18 -6.1154 7.6111
-2 -4 -17 3.8776 -3.4072
-2 -4 -16 -3.7979 0.5266
-2 -4 -15 1.9172 8.3187
-2 -4 -14 -10.8378 -0.2390
-2 -4 -13 -4.9172 1.8716
-2 -4 -12 -4.3859 -7.6090
-2 -4 -11 -11.9483 7.0400
-2 -4 -10 5.5383 -11.4985
-2 -4 -9 -17.1781 -0.9303
-2 -4 -8 16.8112 3.6862
-2 -4 -7 -12.5675 -9.0107
-2 -4 -6 -3.4738 18.5540
-2 -4 -4 -8.7051 11.4462
-2 -4 -3 7.4737 -18.4609
-2 -4 -2 -25.6297 -2.4965
-2 -4 -1 13.4931 9.1747
-2 -4 0 -3.6353 -21.3286
-2 -2 -17 -1.2209 -4.3948
-2 -2 -16 6.9570 -4.2479
-2 -2 -15 -9.5599 -0.8245
-2 -2 -14 4.6571 4.4926
-2 -2 -13 -13.2491 -14.5373
-2 -2 -12 -1.5882 13.4410
-2 -2 -11 6.8815 -36.8355
-2 -2 -10 -17.0460 16.8619
-2 -2 -9 32.8956 -21.7710
-2 -2 -8 -32.1429 -4.0326
-2 -2 -7 45.2333 -5.5934
-2 -2 -6 -23.8984 -35.9042
-2 -2 -3 -15.1925 -11.7931
-2 -2 -2 55.3035 -29.7291
-2 -2 -1 -2.7216 -9.4307
-2 -2 0 56.3226 21.3202
-2 0 -8 35.1852 -17.3364
-2 0 -6 58.3541 11.1252
-2 0 -4 44.7622 103.2454
-2 0 0 -62.8103 -9.6948
-2 0 2 0.8263 -74.9737
-2 0 4 22.2405 -8.5937
-2 0 6 49.0963 0.6447
-2 0 8 -5.8245 20.7150
-2 0 10 -9.1050 29.0942
-2 0 12 -24.6383 -0.8874
-2 0 14 -10.4530 -15.8759
-2 0 16 -1.2845 -15.1710
-2 0 18 3.1753 -4.1169
-2 0 20 1.7378 -1.0054
-2 0 22 -1.7020 -1.3883
-2 0 24 -0.6510 -4.0476
-2 0 26 -0.7821 0.0777
-2 0 28 -0.8698 -3.0362
-2 0 30 -0.8328 -0.5651
-2 0 32 0.6263 -1.5698
-2 0 34 1.3859 2.2171
-2 0 36 -2.8842 0.4994
-2 0 38 0.0881 -0.5741
-2 0 40 -1.6979 0.7973
-2 2 1 -26.4365 6.3587
-2 2 2 -8.8673 56.3117
-2 2 3 -8.1423 -11.1745
-2 2 4 -21.0447 -3.5644
-2 2 5 -10.8698 -15.7362
-2 2 6 -16.5048 4.7085
-2 2 7 2.2373 -12.9918
-2 2 8 6.8741 -8.1677
-2 2 9 2.9602 -3.5044
-2 2 10 2.3569 4.0788
-2 2 11 4.5428 0.0571
-2 2 12 -4.0576 -5.3783
-2 2 13 -1.8506 -5.9025
-2 2 14 8.3941 3.8832
-2 2 15 -4.3637 -5.2398
-2 2 16 3.2152 8.8068
-2 2 17 5.2011 -5.1958
-2 2 18 -3.5238 7.8463
-2 2 19 4.2257 -3.2019
-2 2 20 -5.5343 -0.7023
-2 2 21 4.5255 -1.2569
-2 2 22 -0.9239 -1.5814
-2 2 23 1.3059 2.0764
-2 2 24 2.4067 -0.8426
-2 2 25 2.7975 -1.6293
-2 2 26 2.1379 2.3525
-2 2 27 -0.3055 3.1489
-2 2 28 -0.7819 1.3668
-2 2 29 0.0303 0.8610
-2 2 30 0.9027 1.8830
-2 2 31 -2.0782 -0.9417
-2 2 32 -1.7689 -0.6041
-2 2 33 -0.5350 -0.7363
-2 2 34 0.2785 -0.6843
-2 2 35 0.6401 -1.3396
-2 2 36 -0.5755 -1.7659
-2 2 37 -1.3291 -0.6742
-2 2 38 3.4755 0.0484
-2 2 39 1.7009 -0.6803
-2 4 1 4.4635 -3.1549
-2 4 2 -1.6294 -4.8649
-2 4 3 1.6115 5.5449
-2 4 4 5.4210 -5.6913
-2 4 5 -6.1717 2.3891
-2 4 6 -0.9856 -8.3094
-2 4 7 6.9064 -0.1948
-2 4 8 1.5760 -3.9749
-2 4 9 -3.0634 -2.1613
-2 4 10 8.0123 -6.9272
-2 4 11 3.3830 1.4897
-2 4 12 0.8930 3.8405
-2 4 13 -3.1516 7.2927
-2 4 14 2.5850 -6.8177
-2 4 15 -3.5681 -0.5445
-2 4 16 5.5888 0.9318
-2 4 17 -0.3480 -5.6491
-2 4 18 3.2726 -0.5067
-2 4 19 0.8088 1.8442
-2 4 20 2.1819 4.2519
-2 4 21 -1.3451 0.6131
-2 4 22 -1.0352 1.6410
-2 4 23 -2.8070 -2.7835
-2 4 24 -2.3591 2.6920
-2 4 25 0.7264 -2.6143
-2 4 26 -3.9229 -4.1751
-2 4 27 2.8033 -1.7117
-2 4 28 2.3593 -1.5848
-2 4 29 0.2577 -0.2216
-2 4 30 1.5979 -2.1794
-2 4 31 2.0214 -1.0740
-2 4 32 0.2930 2.2098
-2 4 33 1.3362 -0.6717
-2 4 34 0.0085 0.7493
-2 4 35 2.2112 1.1160
-2 4 36 -1.2920 -0.4383
-2 4 37 1.6383 1.8738
-2 4 38 -0.2329 -1.6265
-2 6 1 11.5310 -3.2300
-2 6 2 3.2640 0.2785
-2 6 3 9.5588 -1.3372
-2 6 4 0.2170 4.6722
-2 6 5 5.3272 9.1188
-2 6 6 -3.9289 -0.9640
-2 6 7 -4.1237 -1.3989
-2 6 8 -0.4313 -2.5003
-2 6 9 6.3726 2.1073
-2 6 10 1.5348 -1.3901
-2 6 11 4.7441 3.9450
-2 6 12 -0.5808 0.8708
-2 6 13 -0.3280 7.0572
-2 6 14 2.0312 -1.9100
-2 6 15 -1.6338 1.4194
-2 6 16 -1.1075 1.7887
-2 6 17 -1.2743 2.4091
-2 6 18 0.2535 -1.6649
-2 6 19 0.8310 0.5465
-2 6 20 0.5747 -0.5745
-2 6 21 0.3167 3.4754
-2 6 22 1.7693 -0.3332
-2 6 23 0.8979 0.6594
-2 6 24 0.4484 0.9920
-2 6 25 -0.1574 4.9764
-2 6 26 1.2122 -0.0292
-2 6 27 -1.6129 1.5346
-2 6 28 1.0738 0.4679
-2 6 29 -3.1363 1.2750
-2 6 30 0.9110 2.2229
-2 6 31 -0.4982 -0.4145
-2 6 32 0.8568 1.5073
-2 6 33 -0.4209 1.6366
-2 6 34 -1.9147 2.0473
-2 6 35 -0.3585 -1.1918
-2 6 36 -1.1178 -0.8217
-2 6 37 -1.4402 1.5611
-2 8 1 2.7105 -4.2198
-2 8 2 -1.1463 1.6530
-2 8 3 2.8000 0.4665
-2 8 4 -0.0925 2.7576
-2 8 5 1.9065 2.0835
-2 8 6 -0.3224 4.0696
-2 8 7 1.3277 3.7831
-2 8 8 -3.0287 4.1629
-2 8 9 -3.3158 -0.1508
-2 8 10 -4.8858 1.6768
-2 8 11 2.0296 -0.0251
-2 8 12 -0.9733 -0.3632
-2 8 13 -2.7057 2.5936
-2 8 14 -2.7840 0.4740
-2 8 15 -1.7650 -1.3071
-2 8 16 -1.7642 -1.0938
-2 8 17 0.2723 -0.1167
-2 8 18 -1.4532 -0.5022
-2 8 19 -1.4098 0.1076
-2 8 20 0.7643 -0.0115
-2 8 21 -1.4261 -0.6839
-2 8 22 -2.2116 0.5740
-2 8 23 -1.3184 -0.1730
-2 8 24 -2.2199 -2.4424
-2 8 25 -1.3119 -2.1219
-2 8 26 1.4305 -2.3663
-2 8 27 -0.4453 -0.6435
-2 8 28 0.7493 -0.1188
-2 8 29 0.8582 -0.7728
-2 8 30 -0.0534 -0.0013
-2 8 31 -0.0334 -0.2384
-2 8 32 0.2221 0.1995
-2 8 33 -0.7309 -0.2398
-2 8 34 -0.9365 -1.7267
-2 10 1 -1.6222 -0.5463
-2 10 2 0.6961 -2.5057
-2 10 3 -3.2669 2.3841
-2 10 4 0.2119 -0.4252
-2 10 5 -5.5010 -1.9425
-2 10 6 1.6194 0.7624
-2 10 7 -3.1648 -3.7080
-2 10 8 -0.8120 0.9851
-2 10 9 0.8481 -3.5556
-2 10 10 -0.9865 -1.3865
-2 10 11 0.8411 -1.2574
-2 10 12 -0.0894 -0.4532
-2 10 13 1.8795 -0.8696
-2 10 14 -0.7226 1.1629
-2 10 15 -0.5967 0.8496
-2 10 16 -1.0474 -2.0249
-2 10 17 -0.2577 0.1929
-2 10 18 0.7307 -0.5291
-2 10 19 -0.7919 -0.3151
-2 10 20 -0.4650 -0.5400
-2 10 21 -0.0084 -2.0587
-2 10 22 0.1631 -0.7984
-2 10 23 0.8903 0.6579
-2 10 24 1.2014 0.1951
-2 10 25 -0.3937 -0.9124
-2 10 26 0.1392 1.0370
-2 10 27 0.8720 -1.5035
-2 10 28 -0.1635 1.0240
-2 10 29 1.0160 -0.1432
-2 10 30 -0.7041 0.5751
-2 12 1 1.8384 -1.8291
-2 12 2 1.1931 -2.2199
-2 12 3 1.2881 -0.2585
-2 12 4 0.7725 -0.2637
-2 12 5 1.6993 1.7920
-2 12 6 0.9895 -0.5395
-2 12 7 -0.3309 -0.7754
-2 12 8 0.3261 -0.5856
-2 12 9 0.4583 0.9639
-2 12 10 0.6924 0.2950
-2 12 11 -0.9610 0.7047
-2 12 12 1.4243 0.1290
-2 12 13 -0.8550 -2.7962
-2 12 14 -0.5788 -0.1892
-2 12 15 2.7630 -0.0397
-2 12 16 1.4382 0.7353
-2 12 17 0.5521 -0.1000
-2 12 18 -0.0318 -0.6602
-2 12 19 0.2196 1.1173
-2 12 20 0.8136 0.9687
-2 12 21 -0.0525 -0.3954
-2 12 22 0.3941 0.0763
-2 12 23 0.0150 -0.0988
-2 12 24 0.5022 0.4124
-2 12 25 0.1534 -0.3962
-2 14 1 1.1346 0.8492
-2 14 2 0.6691 -1.5174
-2 14 3 0.6103 1.4710
-2 14 4 1.3448 0.4594
-2 14 5 -1.6844 -0.0003
-2 14 6 -1.3583 -0.4067
-2 14 7 0.6970 -0.5709
-2 14 8 1.5749 0.5506
-2 14 9 0.5716 0.3469
-2 14 10 0.2009 -1.3129
-2 14 11 -0.2113 0.6394
-2 14 12 1.0812 2.0690
-2 14 13 -0.0786 1.2980
-2 14 14 -1.9212 0.2450
-2 14 15 -1.4039 0.1252
-2 14 16 0.2366 -1.7174
-1 -15 -7 -1.3281 -0.8531
-1 -15 -6 0.9774 -0.2490
-1 -15 -5 0.2563 -0.1736
-1 -15 -4 0.1537 0.6769
-1 -15 -3 1.2459 -0.2213
-1 -15 -2 0.9483 -0.1993
-1 -15 -1 1.0527 0.4252
-1 -15 0 0.2804 0.3777
-1 -13 -10 1.4305 -0.4261
-1 -13 -9 -0.3117 -0.6680
-1 -13 -8 0.5684 2.9016
-1 -13 -6 -2.2655 2.3181
-1 -13 -5 0.1861 -0.4784
-1 -13 -4 -1.8896 -0.6146
-1 -13 -3 -0.2170 -0.0770
-1 -13 -2 -1.4311 0.7189
-1 -13 -1 0.9750 0.7588
-1 -13 0 -1.6792 -1.0771
-1 -11 -13 -0.3019 -0.4518
-1 -11 -12 -0.8001 1.4432
-1 -11 -11 -0.2206 0.9258
-1 -11 -10 -4.6956 -0.3496
-1 -11 -9 -2.0249 -1.2662
-1 -11 -8 -0.6397 -3.6696
-1 -11 -7 -0.4449 -2.2033
-1 -11 -6 0.4975 -4.3858
-1 -11 -5 -0.3171 -1.3101
-1 -11 -4 6.1826 -0.8308
-1 -11 -3 0.9250 -1.3847
-1 -11 -2 2.3439 3.8024
-1 -11 -1 1.4554 0.1293
-1 -11 0 -2.8227 4.4089
-1 -9 -16 -0.9340 -1.7245
-1 -9 -15 -0.1905 -0.5978
-1 -9 -14 -0.7780 -4.5789
-1 -9 -13 -0.1304 -1.1182
-1 -9 -12 3.6341 -3.3399
-1 -9 -11 0.9742 2.2501
-1 -9 -10 5.0692 0.6161
-1 -9 -9 -2.8285 1.1160
-1 -9 -8 1.8345 1.8500
-1 -9 -7 -0.7449 -0.1653
-1 -9 -6 0.7589 2.7764
-1 -9 -5 -2.4390 0.3362
-1 -9 -4 -2.1298 1.1896
-1 -9 -3 -3.1953 -3.7205
-1 -9 -2 0.0970 -1.0227
-1 -9 -1 2.2888 -1.9515
-1 -9 0 -0.3333 -2.0077
-1 -7 -18 0.6040 -0.1008
-1 -7 -17 2.0130 -2.3195
-1 -7 -16 -0.0681 0.5257
-1 -7 -15 1.6167 1.4824
-1 -7 -14 -0.5377 -0.9270
-1 -7 -13 -0.6467 -1.0228
-1 -7 -12 -0.0996 0.4187
-1 -7 -11 1.4734 -0.1692
-1 -7 -10 -3.4746 -0.5054
-1 -7 -9 -2.9986 -1.9906
-1 -7 -8 -4.1674 -7.0484
-1 -7 -7 3.9635 -4.3345
-1 -7 -6 3.9337 -6.9991
-1 -7 -5 5.9291 -1.5114
-1 -7 -4 6.3968 -2.9967
-1 -7 -3 4.7155 4.1280
-1 -7 -2 6.4377 0.6665
-1 -7 -1 1.7916 5.3474
-1 -7 0 -0.4725 1.4951
-1 -5 -20 1.1292 3.3696
-1 -5 -19 3.7903 -2.3354
-1 -5 -18 -1.2306 5.9218
-1 -5 -17 4.1900 -2.8562
-1 -5 -16 -2.2343 1.3856
-1 -5 -15 4.1001 3.5917
-1 -5 -14 -1.8680 0.3687
-1 -5 -13 4.3887 0.7500
-1 -5 -12 -2.4358 -2.4212
-1 -5 -11 5.3019 4.5681
-1 -5 -10 9.7205 0.9877
-1 -5 -9 1.1581 6.8524
-1 -5 -8 0.2823 7.8270
-1 -5 -7 -3.7689 1.9404
-1 -5 -5 1.1571 2.8760
-1 -5 -4 -1.1291 8.0303
-1 -5 -3 3.4492 0.9673
-1 -5 -2 -2.0368 12.7937
-1 -5 -1 -2.1775 6.0065
-1 -5 0 -4.1969 0.1413
-1 -3 -17 0.0117 4.4016
-1 -3 -16 -0.3080 -0.9097
-1 -3 -14 9.8911 9.0095
-1 -3 -13 -7.7699 -14.7925
-1 -3 -12 2.3727 17.9774
-1 -3 -11 4.7037 -11.2783
-1 -3 -10 -15.7880 22.8017
-1 -3 -9 18.9809 -14.6612
-1 -3 -8 -40.8974 7.6837
-1 -3 -7 28.2351 7.5193
-1 -3 -6 -26.4659 -12.3465
-1 -3 -5 5.3029 39.5573
-1 -3 -4 3.6113 -40.2535
-1 -3 -3 -17.3907 19.6967
-1 -3 -2 11.8674 3.9153
-1 -3 -1 -31.6403 10.6026
-1 -3 0 -4.1470 9.4957
-1 -1 -11 0.3000 -0.9365
-1 -1 -10 -1.3662 -24.4274
-1 -1 -9 -4.8765 23.2965
-1 -1 -8 40.2829 -12.6237
-1 -1 -7 -43.4624 13.5144
-1 -1 -6 20.7302 3.5583
-1 -1 -5 -39.6737 -32.9192
-1 -1 -4 9.1825 48.8380
-1 -1 -3 -32.8264 -99.5053
-1 -1 -2 -33.6782 -22.7204
-1 -1 -1 117.6768 -14.9481
-1 -1 0 33.4363 -4.9015
-1 1 1 -26.3505 -45.7682
-1 1 2 4.8078 12.4329
-1 1 3 14.6697 -68.9550
-1 1 4 5.5074 15.2894
-1 1 5 38.4950 14.5740
-1 1 6 -13.0954 10.0864
-1 1 7 31.4780 11.5105
-1 1 8 -5.0683 1.7753
-1 1 9 -15.5121 13.6331
-1 1 10 -1.3239 2.5039
-1 1 11 -3.8208 1.4066
-1 1 12 -9.0658 -5.2963
-1 1 13 -11.4450 1.2289
-1 1 14 1.3106 2.6048
-1 1 15 -0.9244 -12.1405
-1 1 16 -2.7912 0.2796
-1 1 17 2.8454 -10.0305
-1 1 18 -3.1972 0.8770
-1 1 19 4.4117 -5.8392
-1 1 20 -3.5255 -3.1925
-1 1 21 3.5608 -0.2634
-1 1 22 -1.6883 -0.9190
-1 1 23 2.0151 -0.4340
-1 1 24 -0.8895 -3.1488
-1 1 25 -0.3516 -1.9657
-1 1 26 -1.2291 0.1399
-1 1 27 0.2001 -0.9565
-1 1 28 0.9422 -4.5533
-1 1 29 1.0539 -2.7540
-1 1 30 1.6298 0.6138
-1 1 31 0.3972 -0.6797
-1 1 32 0.8888 -0.2161
-1 1 33 2.0362 -0.7607
-1 1 34 0.5090 1.5351
-1 1 35 0.5654 1.5687
-1 1 36 -1.7963 -0.4483
-1 1 37 -0.0864 1.4993
-1 1 38 2.0260 0.1762
-1 1 39 -1.3198 -0.2933
-1 3 1 30.3711 34.9258
-1 3 2 -27.1183 -4.7814
-1 3 3 -9.0960 29.0362
-1 3 4 1.5375 -29.0679
-1 3 5 -22.0975 5.7743
-1 3 6 22.0993 -9.3867
-1 3 7 -10.4567 -2.6593
-1 3 8 8.3177 -1.0820
-1 3 9 -4.0499 -1.7857
-1 3 10 2.5354 12.6849
-1 3 11 0.3731 -0.9836
-1 3 12 -5.8189 1.5810
-1 3 13 -1.1753 -2.0548
-1 3 14 6.0696 -9.8162
-1 3 15 -0.5286 2.5627
-1 3 16 4.4858 1.0812
-1 3 17 -0.8158 1.1815
-1 3 18 2.8382 3.4854
-1 3 19 -3.7572 1.7955
-1 3 20 2.1571 1.7054
-1 3 21 -1.6681 -4.5558
-1 3 22 1.5816 1.9395
-1 3 23 3.1039 -2.9886
-1 3 24 1.1993 3.5514
-1 3 25 5.2932 0.2313
-1 3 26 -0.8258 0.6644
-1 3 27 3.0757 5.0473
-1 3 28 -0.9293 2.3531
-1 3 29 -2.1447 1.8458
-1 3 30 -0.9245 1.2952
-1 3 31 -0.8195 2.2961
-1 3 32 -2.1326 -0.9096
-1 3 33 -0.9394 -0.5634
-1 3 34 0.0745 1.1170
-1 3 35 0.0553 -1.4354
-1 3 36 -2.1328 -1.8385
-1 3 37 0.5423 0.3947
-1 3 38 0.6738 -1.3090
-1 3 39 0.6007 0.5761
-1 5 1 3.9619 -5.3494
-1 5 2 -9.0805 6.1578
-1 5 3 1.2514 4.8098
-1 5 4 -8.6364 -11.3479
-1 5 5 0.9021 -3.0182
-1 5 6 -1.5836 -0.9682
-1 5 7 2.9805 -2.5873
-1 5 8 2.3141 -0.9983
-1 5 9 3.8880 4.2077
-1 5 10 -3.5274 -6.0748
-1 5 11 2.8011 3.4624
-1 5 12 1.7500 -5.4549
-1 5 13 -4.8294 5.9019
-1 5 14 3.7075 -4.7560
-1 5 15 -3.8796 -2.6927
-1 5 16 5.6639 3.6926
-1 5 17 0.2459 -0.7992
-1 5 18 -0.1770 -1.2647
-1 5 19 0.9831 0.6739
-1 5 20 2.6704 2.0751
-1 5 21 -0.8704 2.0210
-1 5 22 -2.2438 0.1261
-1 5 23 -2.5856 0.3057
-1 5 24 0.3751 -2.0228
-1 5 25 -0.9769 0.5690
-1 5 26 0.8970 -2.6689
-1 5 27 -4.0884 -1.0077
-1 5 28 3.6977 -0.1386
-1 5 29 -0.1903 -0.8299
-1 5 30 1.3931 1.7551
-1 5 31 -0.3007 -3.1491
-1 5 32 0.5121 0.6774
-1 5 33 -0.8553 -0.5320
-1 5 34 -0.1969 -0.7419
-1 5 35 1.5264 -1.5062
-1 5 36 0.6099 0.0219
-1 5 37 0.8072 1.2024
-1 7 1 4.5723 -5.9331
-1 7 2 3.0256 1.7910
-1 7 3 1.0130 2.9993
-1 7 4 0.8249 2.6427
-1 7 5 -2.3621 -1.8399
-1 7 6 -0.1483 1.0980
-1 7 7 0.1493 -6.0573
-1 7 8 -1.1203 -0.4392
-1 7 9 5.1263 -3.2603
-1 7 10 1.3642 1.8598
-1 7 11 4.7402 0.5914
-1 7 12 -1.3471 2.0447
-1 7 13 -0.1679 2.2862
-1 7 14 -0.8905 0.8131
-1 7 15 1.6167 -2.2310
-1 7 16 -0.4535 1.2218
-1 7 17 2.0537 1.8788
-1 7 18 -2.2088 0.3946
-1 7 19 0.3185 0.4126
-1 7 20 -0.8384 -0.8751
-1 7 21 1.2673 -0.1802
-1 7 22 0.8302 -0.0258
-1 7 23 0.9981 1.5288
-1 7 24 -0.3398 0.9515
-1 7 25 0.3859 1.9456
-1 7 26 -0.0050 2.0453
-1 7 27 -1.2934 1.3670
-1 7 28 -1.2384 0.9099
-1 7 29 -1.4352 -1.3711
-1 7 30 -1.7147 -1.0505
-1 7 31 2.4895 -0.3056
-1 7 32 -1.2622 -0.0944
-1 7 33 0.4113 1.8042
-1 7 34 0.2505 -0.2956
-1 7 35 0.0679 1.8542
-1 9 1 1.6218 1.1561
-1 9 2 4.4056 -2.5889
-1 9 3 -2.0754 3.8386
-1 9 4 5.1086 1.7211
-1 9 5 -1.3494 0.5664
-1 9 6 2.5888 4.7929
-1 9 7 -1.2513 1.5211
-1 9 8 -0.6420 5.6794
-1 9 9 -2.3812 0.0358
-1 9 10 -4.0316 0.8876
-1 9 11 -1.7536 0.6003
-1 9 12 0.5581 -0.4591
-1 9 13 -2.1474 -0.6023
-1 9 14 -2.6556 0.8005
-1 9 15 0.0002 -2.1419
-1 9 16 -0.3570 -1.1895
-1 9 17 0.2456 -0.7498
-1 9 18 0.9564 -0.5840
-1 9 19 0.1463 -0.7240
-1 9 20 -1.0300 0.7024
-1 9 21 0.0199 0.5542
-1 9 22 0.4840 -0.5025
-1 9 23 -0.5464 -0.9031
-1 9 24 -0.5999 0.7756
-1 9 25 -0.7996 -1.4725
-1 9 26 0.1777 -1.3929
-1 9 27 2.1619 -2.1237
-1 9 28 -0.5656 2.0645
-1 9 29 0.6669 -0.4300
-1 9 30 -0.9670 -0.1109
-1 9 31 0.9649 0.0865
-1 9 32 -0.7622 0.0667
-1 11 1 1.4260 1.2275
-1 11 2 -3.9899 -0.1639
-1 11 3 -1.8609 1.2143
-1 11 4 -2.2021 -0.9050
-1 11 5 -1.3066 -1.0862
-1 11 6 -1.8520 -3.6350
-1 11 7 -0.4949 -0.1542
-1 11 8 -0.0469 -1.3595
-1 11 9 0.0557 0.7700
-1 11 10 0.7608 -2.2381
-1 11 11 -1.9524 -1.2660
-1 11 12 1.1594 -0.2498
-1 11 13 0.4638 -1.5123
-1 11 14 1.3878 1.1132
-1 11 15 -0.4431 0.8381
-1 11 16 -1.4170 -0.3102
-1 11 17 -0.6051 -1.7217
-1 11 18 -0.1741 0.9061
-1 11 19 -0.1672 0.3732
-1 11 20 -0.2163 -1.4568
-1 11 21 -0.0057 -1.7780
-1 11 22 0.2798 0.4187
-1 11 23 0.8807 -0.1872
-1 11 24 -0.0686 0.0198
-1 11 25 0.1451 -0.0013
-1 11 26 -0.4051 0.0729
-1 11 27 0.4793 0.6552
-1 11 28 0.3479 -1.1341
-1 13 1 0.2160 -0.7033
-1 13 2 0.4880 -1.9089
-1 13 3 1.2020 -0.5902
-1 13 4 -0.1299 -0.1936
-1 13 5 -1.2049 1.1865
-1 13 6 1.3574 -0.0454
-1 13 7 1.3919 -1.0668
-1 13 8 -0.2471 0.0005
-1 13 9 -0.1310 -0.2530
-1 13 10 -0.0226 -0.2126
-1 13 11 -0.1808 1.3160
-1 13 12 -0.0067 -0.5810
-1 13 13 0.3514 -2.5893
-1 13 14 0.5559 -2.3626
-1 13 15 2.6346 1.5379
-1 13 16 3.6075 0.1804
-1 13 17 -0.1224 2.0227
-1 13 18 0.4087 1.7897
-1 13 19 -1.1922 0.0357
-1 13 20 0.0998 0.8418
-1 13 21 0.1090 -0.0017
-1 15 1 0.7093 -1.1112
-1 15 2 0.4257 0.8600
-1 15 3 0.1536 0.7220
-1 15 4 0.0390 1.1118
-1 15 5 -0.0863 -0.8935
-1 15 6 -1.0551 -0.6458
-1 15 7 -0.4952 -0.4345
-1 15 8 1.3545 0.8888
-1 15 9 1.2231 0.6236
0 -14 -8 1.4786 -0.1015
0 -14 -6 -1.0265 -0.6673
0 -14 -5 0.4991 0.7981
0 -14 -4 0.3831 0.1733
0 -14 -3 -0.8265 0.7823
0 -14 -2 0.7409 0.5273
0 -14 -1 0.5516 -0.2709
0 -12 -11 -0.5443 0.7068
0 -12 -10 -0.7749 -0.1627
0 -12 -9 1.7889 -0.0965
0 -12 -8 -0.6173 -0.6013
0 -12 -7 -0.6679 3.6417
0 -12 -6 0.2760 1.2971
0 -12 -5 -1.7074 1.6443
0 -12 -4 -0.4343 -0.1102
0 -12 -3 -3.7146 -0.3984
0 -12 -2 -0.5073 -0.1874
0 -12 -1 -1.7451 -2.6265
0 -10 -14 -1.3768 -0.5205
0 -10 -13 -0.4423 2.0044
0 -10 -12 -0.5848 -0.2038
0 -10 -11 -2.4359 0.6325
0 -10 -10 -1.1879 -0.3405
0 -10 -9 -4.9280 -1.7611
0 -10 -8 -0.4044 -0.8847
0 -10 -7 0.2910 -5.7087
0 -10 -6 -0.3647 -2.2612
0 -10 -5 1.6754 -1.8916
0 -10 -4 1.6254 -1.3306
0 -10 -3 3.8402 -1.8601
0 -10 -2 0.5024 1.6376
0 -10 -1 2.7296 3.0364
0 -8 -16 -1.3669 0.3555
0 -8 -15 0.4172 -1.1937
0 -8 -14 -0.3907 -2.6429
0 -8 -13 -1.1330 -1.9945
0 -8 -12 2.2438 -0.7839
0 -8 -11 3.8536 -1.9742
0 -8 -10 0.7380 0.7618
0 -8 -9 2.5250 3.0945
0 -8 -8 0.5302 0.3186
0 -8 -7 1.7243 3.2808
0 -8 -6 -0.6202 1.4250
0 -8 -5 -3.6721 5.1299
0 -8 -4 -0.4701 -2.8761
0 -8 -3 -5.1572 -1.9705
0 -8 -2 2.2122 0.6516
0 -8 -1 -1.0672 -2.6318
0 -6 -18 -3.9001 0.6385
0 -6 -17 2.7451 -1.9605
0 -6 -16 -0.9115 -1.8771
0 -6 -15 3.4013 0.4844
0 -6 -14 -1.9939 0.3019
0 -6 -13 2.3583 0.1579
0 -6 -12 -2.2242 -1.5542
0 -6 -11 1.8595 1.9395
0 -6 -10 -3.0004 -1.5602
0 -6 -9 0.4935 -1.5638
0 -6 -8 -5.9024 -5.7527
0 -6 -7 4.5987 -1.1788
0 -6 -6 4.8466 -6.0747
0 -6 -5 -1.9882 6.8974
0 -6 -4 2.1875 -3.0637
0 -6 -3 -0.4162 0.6011
0 -6 -2 3.9482 -1.0403
0 -6 -1 -1.5912 -2.7126
0 -4 -17 0.5083 2.7582
0 -4 -16 4.7902 -5.8833
0 -4 -15 -3.2714 5.2932
0 -4 -14 11.2793 6.4694
0 -4 -13 -8.6611 -11.0800
0 -4 -12 -0.6003 10.9410
0 -4 -11 2.0310 -10.2952
0 -4 -10 -2.4092 6.3836
0 -4 -9 8.6801 -8.6656
0 -4 -8 -13.8953 6.9186
0 -4 -7 19.3003 5.9685
0 -4 -6 -6.9997 -13.2119
0 -4 -5 9.3964 4.4118
0 -4 -4 0.0076 -1.6410
0 -4 -3 -7.0448 12.1827
0 -4 -2 7.9010 -12.0499
0 -4 -1 2.0054 2.9909
0 -2 -12 -2.3713 3.4112
0 -2 -11 4.3775 18.6169
0 -2 -10 -4.9174 -9.6125
0 -2 -9 -15.9733 12.6002
0 -2 -8 21.9529 -16.2532
0 -2 -6 38.0369 -7.8935
0 -2 -5 -12.8080 -22.8489
0 -2 -4 25.2563 55.8075
0 -2 -3 3.7920 -42.9121
0 -2 -2 -23.2685 55.1105
0 -2 -1 46.3570 18.2835
0 0 4 -20.3888 46.9096
0 0 6 -51.7314 -26.0422
0 0 8 -6.8951 -21.1799
0 0 10 7.0851 0.6724
0 0 12 -1.7278 7.0445
0 0 14 4.6064 2.7172
0 0 16 -5.7660 7.4710
0 0 18 -7.5869 7.4620
0 0 20 -5.3556 5.6224
0 0 22 -6.7309 2.1863
0 0 24 -5.8569 -1.6392
0 0 26 -1.2443 -0.2170
0 0 28 -1.0222 -0.7771
0 0 30 -0.9856 2.7365
0 0 32 -1.1957 -1.1883
0 0 34 -1.3030 2.1926
0 0 36 -1.6336 -1.9955
0 0 38 0.8139 -1.3407
0 2 1 46.3570 -18.2835
0 2 2 -23.2685 -55.1105
0 2 3 3.7920 42.9121
0 2 4 25.2563 -55.8075
0 2 5 -12.8080 22.8489
0 2 6 38.0369 7.8935
0 2 7 -44.0598 0.9378
0 2 8 21.9529 16.2532
0 2 9 -15.9733 -12.6002
0 2 10 -4.9174 9.6125
0 2 11 4.3775 -18.6169
0 2 12 -2.3713 -3.4112
0 2 13 -0.0899 1.6080
0 2 14 -1.3324 -0.3084
0 2 15 -10.8053 -3.6429
0 2 16 4.1235 -3.1341
0 2 17 -3.8335 -4.6693
0 2 18 1.6784 -0.5395
0 2 19 -4.8603 -8.1599
0 2 20 3.7076 -2.7045
0 2 21 2.9077 -6.7225
0 2 22 -0.9153 3.2263
0 2 23 -1.0000 -4.2874
0 2 24 -0.8972 -0.9424
0 2 25 1.7158 -3.6670
0 2 26 -2.6596 -2.0158
0 2 27 0.4881 -1.6717
0 2 28 0.1402 -3.3068
0 2 29 2.3865 -2.7936
0 2 30 1.1012 -0.9101
0 2 31 1.2158 -0.2520
0 2 32 0.5885 -2.3875
0 2 33 1.2893 0.2295
0 2 34 1.9462 0.3064
0 2 35 -0.1974 -0.3547
0 2 36 -0.5534 0.2056
0 2 37 0.4137 0.9268
0 2 38 1.2811 0.6159
0 2 39 -0.6003 -0.4308
0 4 0 4.9156 -1.0750
0 4 1 2.0054 -2.9909
0 4 2 7.9010 12.0499
0 4 3 -7.0448 -12.1827
0 4 4 0.0076 1.6410
0 4 5 9.3964 -4.4118
0 4 6 -6.9997 13.2119
0 4 7 19.3003 -5.9685
0 4 8 -13.8953 -6.9186
0 4 9 8.6801 8.6656
0 4 10 -2.4092 -6.3836
0 4 11 2.0310 10.2952
0 4 12 -0.6003 -10.9410
0 4 13 -8.6611 11.0800
0 4 14 11.2793 -6.4694
0 4 15 -3.2714 -5.2932
0 4 16 4.7902 5.8833
0 4 17 0.5083 -2.7582
0 4 18 1.4898 1.2082
0 4 19 1.6183 -0.3497
0 4 20 -0.7212 -0.3526
0 4 21 1.0259 0.9934
0 4 22 1.2365 -1.1146
0 4 23 0.4819 1.0498
0 4 24 3.3540 -2.5494
0 4 25 -0.5984 1.7475
0 4 26 2.9076 1.9497
0 4 27 -0.4578 -0.0563
0 4 28 5.1367 0.6643
0 4 29 -2.0485 0.5135
0 4 30 0.3374 3.0841
0 4 31 0.0059 -1.4625
0 4 32 -0.5438 2.2816
0 4 33 -0.6697 -0.9685
0 4 34 -0.0671 1.9650
0 4 35 1.7698 0.4346
0 4 36 -2.0151 -1.6026
0 4 37 -1.1019 1.1276
0 4 38 1.5455 0.1696
0 6 0 2.4445 0.4282
0 6 1 -1.5912 2.7126
0 6 2 3.9482 1.0403
0 6 3 -0.4162 -0.6011
0 6 4 2.1875 3.0637
0 6 5 -1.9882 -6.8974
0 6 6 4.8466 6.0747
0 6 7 4.5987 1.1788
0 6 8 -5.9024 5.7527
0 6 9 0.4935 1.5638
0 6 10 -3.0004 1.5602
0 6 11 1.8595 -1.9395
0 6 12 -2.2242 1.5542
0 6 13 2.3583 -0.1579
0 6 14 -1.9939 -0.3019
0 6 15 3.4013 -0.4844
0 6 16 -0.9115 1.8771
0 6 17 2.7451 1.9605
0 6 18 -3.9001 -0.6385
0 6 19 3.5275 1.7711
0 6 20 -0.0813 -0.6724
0 6 21 0.9024 4.1966
0 6 22 -1.6295 0.1787
0 6 23 -2.3080 2.4672
0 6 24 -0.2955 -0.9116
0 6 25 0.6887 -1.7024
0 6 26 -0.4644 -1.4611
0 6 27 1.0098 0.0439
0 6 28 0.7220 -0.2797
0 6 29 1.4092 -0.9440
0 6 30 0.0338 2.4639
0 6 31 2.2365 2.5242
0 6 32 -2.9908 -0.2401
0 6 33 0.4837 1.8390
0 6 34 -1.0455 -3.5660
0 6 35 -0.1270 0.1617
0 6 36 1.1755 -1.4599
0 8 0 0.4935 -0.0349
0 8 1 -1.0672 2.6318
0 8 2 2.2122 -0.6516
0 8 3 -5.1572 1.9705
0 8 4 -0.4701 2.8761
0 8 5 -3.6721 -5.1299
0 8 6 -0.6202 -1.4250
0 8 7 1.7243 -3.2808
0 8 8 0.5302 -0.3186
0 8 9 2.5250 -3.0945
0 8 10 0.7380 -0.7618
0 8 11 3.8536 1.9742
0 8 12 2.2438 0.7839
0 8 13 -1.1330 1.9945
0 8 14 -0.3907 2.6429
0 8 15 0.4172 1.1937
0 8 16 -1.3669 -0.3555
0 8 17 -1.0886 0.9197
0 8 18 -1.3081 0.8412
0 8 19 -1.2920 1.2060
0 8 20 -0.9259 -1.0689
0 8 21 -0.5147 -0.1390
0 8 22 2.3542 -1.5014
0 8 23 -0.7995 0.2071
0 8 24 0.5234 3.9505
0 8 25 -0.8250 -0.4314
0 8 26 -1.4337 0.6634
0 8 27 -1.3504 0.9294
0 8 28 -2.1187 1.6162
0 8 29 0.2925 -0.7972
0 8 30 -1.4487 -0.8812
0 8 31 0.8183 -1.0139
0 8 32 0.4647 -0.5387
0 8 33 -0.6691 0.6536
0 8 34 -0.3006 0.4803
0 10 0 -0.2402 -0.1369
0 10 1 2.7296 -3.0364
0 10 2 0.5024 -1.6376
0 10 3 3.8402 1.8601
0 10 4 1.6254 1.3306
0 10 5 1.6754 1.8916
0 10 6 -0.3647 2.2612
0 10 7 0.2910 5.7087
0 10 8 -0.4044 0.8847
0 10 9 -4.9280 1.7611
0 10 10 -1.1879 0.3405
0 10 11 -2.4359 -0.6325
0 10 12 -0.5848 0.2038
0 10 13 -0.4423 -2.0044
0 10 14 -1.3768 0.5205
0 10 15 -1.0520 -1.2302
0 10 16 0.1209 -1.1218
0 10 17 0.9339 -0.1484
0 10 18 -0.3030 0.7287
0 10 19 -0.0081 -1.4637
0 10 20 -0.1414 -1.7160
0 10 21 0.7356 0.6310
0 10 22 0.8133 0.5219
0 10 23 -0.1846 0.1423
0 10 24 -1.0062 -0.3434
0 10 25 -0.4890 0.8026
0 10 26 0.2432 -0.3453
0 10 27 -0.1836 -1.2165
0 10 28 0.6125 -0.8263
0 10 29 -0.8806 0.7368
0 10 30 0.3178 -1.0634
0 12 0 -0.0462 0.0388
0 12 1 -1.7451 2.6265
0 12 2 -0.5073 0.1874
0 12 3 -3.7146 0.3984
0 12 4 -0.4343 0.1102
0 12 5 -1.7074 -1.6443
0 12 6 0.2760 -1.2971
0 12 7 -0.6679 -3.6417
0 12 8 -0.6173 0.6013
0 12 9 1.7889 0.0965
0 12 10 -0.7749 0.1627
0 12 11 -0.5443 -0.7068
0 12 12 -0.5666 -1.4471
0 12 13 0.9363 -0.1311
0 12 14 -0.6439 -0.0959
0 12 15 -0.3009 2.4699
0 12 16 -0.9315 -2.0710
0 12 17 -3.5280 -1.3961
0 12 18 0.8366 -1.5823
0 12 19 -0.0263 -1.3401
0 12 20 0.0105 -0.7883
0 12 21 0.6495 -2.3120
0 12 22 1.3057 -0.7542
0 12 23 1.2560 1.2553
0 12 24 0.5642 -0.9357
0 14 0 -0.9980 0.1313
0 14 1 0.5516 0.2709
0 14 2 0.7409 -0.5273
0 14 3 -0.8265 -0.7823
0 14 4 0.3831 -0.1733
0 14 5 0.4991 -0.7981
0 14 6 -1.0265 0.6673
0 14 7 1.1093 0.2376
0 14 8 1.4786 0.1015
0 14 9 -0.5155 -0.3734
0 14 10 -1.3680 -0.7711
0 14 11 0.3549 -0.4192
0 14 12 0.7964 0.5442
0 14 13 0.5272 -2.1852
0 14 14 -0.9022 -1.9837
0 14 15 3.3429 0.2516
0 14 16 2.5943 0.5023
1 -15 -6 -1.0551 0.6458
1 -15 -5 -0.0863 0.8935
1 -15 -4 0.0390 -1.1118
1 -15 -3 0.1536 -0.7220
1 -15 -2 0.4257 -0.8600
1 -15 -1 0.7093 1.1112
1 -13 -10 -0.0226 0.2126
1 -13 -9 -0.1310 0.2530
1 -13 -8 -0.2471 -0.0005
1 -13 -7 1.3919 1.0668
1 -13 -6 1.3574 0.0454
1 -13 -5 -1.2049 -1.1865
1 -13 -4 -0.1299 0.1936
1 -13 -3 1.2020 0.5902
1 -13 -2 0.4880 1.9089
1 -13 -1 0.2160 0.7033
1 -11 -12 1.1594 0.2498
1 -11 -11 -1.9524 1.2660
1 -11 -10 0.7608 2.2381
1 -11 -9 0.0557 -0.7700
1 -11 -8 -0.0469 1.3595
1 -11 -7 -0.4949 0.1542
1 -11 -6 -1.8520 3.6350
1 -11 -5 -1.3066 1.0862
1 -11 -4 -2.2021 0.9050
1 -11 -3 -1.8609 -1.2143
1 -11 -2 -3.9899 0.1639
1 -11 -1 1.4260 -1.2275
1 -9 -15 0.0002 2.1419
1 -9 -14 -2.6556 -0.8005
1 -9 -13 -2.1474 0.6023
1 -9 -12 0.5581 0.4591
1 -9 -11 -1.7536 -0.6003
1 -9 -10 -4.0316 -0.8876
1 -9 -9 -2.3812 -0.0358
1 -9 -8 -0.6420 -5.6794
1 -9 -7 -1.2513 -1.5211
1 -9 -6 2.5888 -4.7929
1 -9 -5 -1.3494 -0.5664
1 -9 -4 5.1086 -1.7211
1 -9 -3 -2.0754 -3.8386
1 -9 -2 4.4056 2.5889
1 -9 -1 1.6218 -1.1561
1 -7 -17 2.0537 -1.8788
1 -7 -16 -0.4535 -1.2218
1 -7 -15 1.6167 2.2310
1 -7 -14 -0.8905 -0.8131
1 -7 -13 -0.1679 -2.2862
1 -7 -12 -1.3471 -2.0447
1 -7 -11 4.7402 -0.5914
1 -7 -10 1.3642 -1.8598
1 -7 -9 5.1263 3.2603
1 -7 -8 -1.1203 0.4392
1 -7 -7 0.1493 6.0573
1 -7 -6 -0.1483 -1.0980
1 -7 -5 -2.3621 1.8399
1 -7 -4 0.8249 -2.6427
1 -7 -3 1.0130 -2.9993
1 -7 -2 3.0256 -1.7910
1 -7 -1 4.5723 5.9331
1 -5 -15 -3.8796 2.6927
1 -5 -14 3.7075 4.7560
1 -5 -13 -4.8294 -5.9019
1 -5 -12 1.7500 5.4549
1 -5 -11 2.8011 -3.4624
1 -5 -10 -3.5274 6.0748
1 -5 -9 3.8880 -4.2077
1 -5 -8 2.3141 0.9983
1 -5 -7 2.9805 2.5873
1 -5 -6 -1.5836 0.9682
1 -5 -5 0.9021 3.0182
1 -5 -4 -8.6364 11.3479
1 -5 -3 1.2514 -4.8098
1 -5 -2 -9.0805 -6.1578
1 -5 -1 3.9619 5.3494
1 -3 -10 2.5354 -12.6849
1 -3 -9 -4.0499 1.7857
1 -3 -8 8.3177 1.0820
1 -3 -7 -10.4567 2.6593
1 -3 -6 22.0993 9.3867
1 -3 -5 -22.0975 -5.7743
1 -3 -4 1.5375 29.0679
1 -3 -3 -9.0960 -29.0362
1 -3 -2 -27.1183 4.7814
1 -3 -1 30.3711 -34.9258
1 -1 -7 31.4780 -11.5105
1 -1 -2 4.8078 -12.4329
1 -1 -1 -26.3505 45.7682
1 1 0 33.4363 4.9015
1 1 1 117.6768 14.9481
1 1 2 -33.6782 22.7204
1 1 3 -32.8264 99.5053
1 1 4 9.1825 -48.8380
1 1 5 -39.6737 32.9192
1 1 6 20.7302 -3.5583
1 1 7 -43.4624 -13.5144
1 1 8 40.2829 12.6237
1 1 9 -4.8765 -23.2965
1 1 10 -1.3662 24.4274
1 1 11 0.3000 0.9365
1 1 12 -2.8076 7.3947
1 1 13 -6.6613 9.9209
1 1 14 -3.9617 2.5836
1 1 15 -4.7144 -0.2430
1 1 16 8.4661 3.2372
1 1 17 -3.9033 0.6350
1 1 18 -0.0136 10.8941
1 1 19 -6.2864 0.1320
1 1 20 -0.5796 2.9621
1 1 21 -2.2397 3.4224
1 1 22 -5.2630 6.3155
1 1 23 -4.9134 0.7729
1 1 24 -0.3083 -0.1818
1 1 25 -2.4297 -1.5075
1 1 26 -2.6264 3.3017
1 1 27 -1.0971 -0.1979
1 1 28 -0.6444 -0.1857
1 1 29 0.2064 -0.3307
1 1 30 -2.1553 1.2536
1 1 31 -0.5959 1.1664
1 1 32 -0.2971 -0.8943
1 1 33 -0.0646 -0.3703
1 1 34 -0.5215 0.9525
1 1 35 -0.7603 1.5661
1 1 36 -0.4478 -0.9730
1 1 37 -0.7216 -0.3352
1 1 38 0.8023 0.4928
1 1 39 -0.4938 -0.8316
1 3 0 -4.1470 -9.4957
1 3 1 -31.6403 -10.6026
1 3 2 11.8674 -3.9153
1 3 3 -17.3907 -19.6967
1 3 4 3.6113 40.2535
1 3 5 5.3029 -39.5573
1 3 6 -26.4659 12.3465
1 3 7 28.2351 -7.5193
1 3 8 -40.8974 -7.6837
1 3 9 18.9809 14.6612
1 3 10 -15.7880 -22.8017
1 3 11 4.7037 11.2783
1 3 12 2.3727 -17.9774
1 3 13 -7.7699 14.7925
1 3 14 9.8911 -9.0095
1 3 15 -12.7886 -3.5613
1 3 16 -0.3080 0.9097
1 3 17 0.0117 -4.4016
1 3 18 -3.8653 -2.1347
1 3 19 -3.4506 -1.8968
1 3 20 -1.8194 -3.8796
1 3 21 3.0619 -2.2695
1 3 22 1.0800 -3.7312
1 3 23 -4.5641 0.8114
1 3 24 0.9682 -4.2341
1 3 25 1.0135 -1.5341
1 3 26 2.7214 -0.5075
1 3 27 -2.3550 -1.4948
1 3 28 -0.0484 -0.5002
1 3 29 -2.1755 -0.7415
1 3 30 1.8390 -0.1070
1 3 31 -1.1480 -2.6977
1 3 32 -0.2608 0.4210
1 3 33 1.0478 -2.1749
1 3 34 0.2528 0.8387
1 3 35 1.7577 -0.9333
1 3 36 -1.8240 -1.5215
1 3 37 0.5470 2.2003
1 3 38 2.0766 -0.2303
1 5 0 -4.1969 -0.1413
1 5 1 -2.1775 -6.0065
1 5 2 -2.0368 -12.7937
1 5 3 3.4492 -0.9673
1 5 4 -1.1291 -8.0303
1 5 5 1.1571 -2.8760
1 5 6 3.7200 1.4685
1 5 7 -3.7689 -1.9404
1 5 8 0.2823 -7.8270
1 5 9 1.1581 -6.8524
1 5 10 9.7205 -0.9877
1 5 11 5.3019 -4.5681
1 5 12 -2.4358 2.4212
1 5 13 4.3887 -0.7500
1 5 14 -1.8680 -0.3687
1 5 15 4.1001 -3.5917
1 5 16 -2.2343 -1.3856
1 5 17 4.1900 2.8562
1 5 18 -1.2306 -5.9218
1 5 19 3.7903 2.3354
1 5 20 1.1292 -3.3696
1 5 21 -0.9257 2.5957
1 5 22 2.6581 -3.0991
1 5 23 -0.2144 -0.1867
1 5 24 2.1171 -1.1576
1 5 25 -0.2258 -1.9453
1 5 26 0.3967 0.2776
1 5 27 1.3273 1.3989
1 5 28 1.5377 -0.9215
1 5 29 0.5666 -0.2737
1 5 30 -1.7408 3.0444
1 5 31 2.1088 -1.2292
1 5 32 -1.7618 -3.3042
1 5 33 0.5077 1.5428
1 5 34 0.1717 -1.9823
1 5 35 0.8350 2.3598
1 5 36 1.1750 -0.3891
1 5 37 -2.1839 0.4955
1 7 0 -0.4725 -1.4951
1 7 1 1.7916 -5.3474
1 7 2 6.4377 -0.6665
1 7 3 4.7155 -4.1280
1 7 4 6.3968 2.9967
1 7 5 5.9291 1.5114
1 7 6 3.9337 6.9991
1 7 7 3.9635 4.3345
1 7 8 -4.1674 7.0484
1 7 9 -2.9986 1.9906
1 7 10 -3.4746 0.5054
1 7 11 1.4734 0.1692
1 7 12 -0.0996 -0.4187
1 7 13 -0.6467 1.0228
1 7 14 -0.5377 0.9270
1 7 15 1.6167 -1.4824
1 7 16 -0.0681 -0.5257
1 7 17 2.0130 2.3195
1 7 18 0.6040 0.1008
1 7 19 2.3121 1.4295
1 7 20 2.8262 -0.7990
1 7 21 -2.2427 3.9180
1 7 22 0.5479 1.6030
1 7 23 -2.7331 -0.5909
1 7 24 -0.0359 1.3121
1 7 25 -0.6055 -2.5371
1 7 26 -0.2537 -0.2634
1 7 27 1.6934 -1.9180
1 7 28 3.5723 -0.2769
1 7 29 2.6877 -0.4385
1 7 30 -0.7161 1.0868
1 7 31 0.5964 1.9442
1 7 32 -0.4020 0.5030
1 7 33 -1.3839 1.0686
1 7 34 1.0390 -0.1312
1 7 35 0.1231 -3.0227
1 9 0 -0.3333 2.0077
1 9 1 2.2888 1.9515
1 9 2 0.0970 1.0227
1 9 3 -3.1953 3.7205
1 9 4 -2.1298 -1.1896
1 9 5 -2.4390 -0.3362
1 9 6 0.7589 -2.7764
1 9 7 -0.7449 0.1653
1 9 8 1.8345 -1.8500
1 9 9 -2.8285 -1.1160
1 9 10 5.0692 -0.6161
1 9 11 0.9742 -2.2501
1 9 12 3.6341 3.3399
1 9 13 -0.1304 1.1182
1 9 14 -0.7780 4.5789
1 9 15 -0.1905 0.5978
1 9 16 -0.9340 1.7245
1 9 17 -1.6285 -0.6660
1 9 18 -1.2397 0.9439
1 9 19 -0.3666 -0.9851
1 9 20 -1.3604 1.2773
1 9 21 0.1869 -0.0022
1 9 22 -0.8972 0.5679
1 9 23 -0.7535 0.1678
1 9 24 -0.6511 -0.2753
1 9 25 0.6914 0.4326
1 9 26 0.6407 -1.5352
1 9 27 -0.6495 -0.0252
1 9 28 0.1496 1.2958
1 9 29 -0.4601 0.2973
1 9 30 1.2565 1.4278
1 9 31 -0.6865 0.6423
1 11 0 -2.8227 -4.4089
1 11 1 1.4554 -0.1293
1 11 2 2.3439 -3.8024
1 11 3 0.9250 1.3847
1 11 4 6.1826 0.8308
1 11 5 -0.3171 1.3101
1 11 6 0.4975 4.3858
1 11 7 -0.4449 2.2033
1 11 8 -0.6397 3.6696
1 11 9 -2.0249 1.2662
1 11 10 -4.6956 0.3496
1 11 11 -0.2206 -0.9258
1 11 12 -0.8001 -1.4432
1 11 13 -0.3019 0.4518
1 11 14 -0.1760 -1.3682
1 11 15 0.5353 1.0104
1 11 16 0.6377 -2.0442
1 11 17 -1.1061 1.2286
1 11 18 2.6445 1.4414
1 11 19 -1.8967 0.4734
1 11 20 -0.6147 0.0413
1 11 21 1.1412 -1.2238
1 11 22 1.2206 1.9182
1 11 23 -0.2973 1.9372
1 11 24 -2.7279 0.5903
1 11 25 -1.6153 -0.6426
1 11 26 0.1854 -0.9786
1 11 27 -0.3828 0.7368
1 13 0 -1.6792 1.0771
1 13 1 0.9750 -0.7588
1 13 2 -1.4311 -0.7189
1 13 3 -0.2170 0.0770
1 13 4 -1.8896 0.6146
1 13 5 0.1861 0.4784
1 13 6 -2.2655 -2.3181
1 13 7 0.9477 -0.8150
1 13 8 0.5684 -2.9016
1 13 9 -0.3117 0.6680
1 13 10 1.4305 0.4261
1 13 11 -0.3356 0.6161
1 13 12 -0.0734 0.0366
1 13 13 -0.3050 -0.9779
1 13 14 -0.8584 1.4996
1 13 15 0.2659 1.9652
1 13 16 -1.7768 -0.7213
1 13 17 -2.7428 -1.3950
1 13 18 -1.7461 -0.5134
1 13 19 0.7563 -2.0344
1 13 20 -0.7486 -1.6475
1 15 0 0.2804 -0.3777
1 15 1 1.0527 -0.4252
1 15 2 0.9483 0.1993
1 15 3 1.2459 0.2213
1 15 4 0.1537 -0.6769
1 15 5 0.2563 0.1736
1 15 6 0.9774 0.2490
1 15 7 -1.3281 0.8531
1 15 8 0.4625 0.3089
2 -14 -8 1.5749 -0.5506
2 -14 -7 0.6970 0.5709
2 -14 -6 -1.3583 0.4067
2 -14 -5 -1.6844 0.0003
2 -14 -4 1.3448 -0.4594
2 -14 -3 0.6103 -1.4710
2 -14 -2 0.6691 1.5174
2 -14 -1 1.1346 -0.8492
2 -12 -11 -0.9610 -0.7047
2 -12 -10 0.6924 -0.2950
2 -12 -9 0.4583 -0.9639
2 -12 -8 0.3261 0.5856
2 -12 -7 -0.3309 0.7754
2 -12 -6 0.9895 0.5395
2 -12 -5 1.6993 -1.7920
2 -12 -4 0.7725 0.2637
2 -12 -3 1.2881 0.2585
2 -12 -2 1.1931 2.2199
2 -12 -1 1.8384 1.8291
2 -10 -13 1.8795 0.8696
2 -10 -12 -0.0894 0.4532
2 -10 -11 0.8411 1.2574
2 -10 -10 -0.9865 1.3865
2 -10 -9 0.8481 3.5556
2 -10 -8 -0.8120 -0.9851
2 -10 -7 -3.1648 3.7080
2 -10 -6 1.6194 -0.7624
2 -10 -5 -5.5010 1.9425
2 -10 -4 0.2119 0.4252
2 -10 -3 -3.2669 -2.3841
2 -10 -2 0.6961 2.5057
2 -10 -1 -1.6222 0.5463
2 -8 -15 -1.7650 1.3071
2 -8 -14 -2.7840 -0.4740
2 -8 -13 -2.7057 -2.5936
2 -8 -12 -0.9733 0.3632
2 -8 -11 2.0296 0.0251
2 -8 -10 -4.8858 -1.6768
2 -8 -9 -3.3158 0.1508
2 -8 -8 -3.0287 -4.1629
2 -8 -7 1.3277 -3.7831
2 -8 -6 -0.3224 -4.0696
2 -8 -5 1.9065 -2.0835
2 -8 -4 -0.0925 -2.7576
2 -8 -3 2.8000 -0.4665
2 -8 -2 -1.1463 -1.6530
2 -8 -1 2.7105 4.2198
2 -6 -16 -1.1075 -1.7887
2 -6 -15 -1.6338 -1.4194
2 -6 -14 2.0312 1.9100
2 -6 -13 -0.3280 -7.0572
2 -6 -12 -0.5808 -0.8708
2 -6 -11 4.7441 -3.9450
2 -6 -10 1.5348 1.3901
2 -6 -9 6.3726 -2.1073
2 -6 -8 -0.4313 2.5003
2 -6 -7 -4.1237 1.3989
2 -6 -6 -3.9289 0.9640
2 -6 -5 5.3272 -9.1188
2 -6 -4 0.2170 -4.6722
2 -6 -3 9.5588 1.3372
2 -6 -2 3.2640 -0.2785
2 -6 -1 11.5310 3.2300
2 -4 -12 0.8930 -3.8405
2 -4 -11 3.3830 -1.4897
2 -4 -10 8.0123 6.9272
2 -4 -9 -3.0634 2.1613
2 -4 -8 1.5760 3.9749
2 -4 -7 6.9064 0.1948
2 -4 -6 -0.9856 8.3094
2 -4 -5 -6.1717 -2.3891
2 -4 -4 5.4210 5.6913
2 -4 -3 1.6115 -5.5449
2 -4 -2 -1.6294 4.8649
2 -4 -1 4.4635 3.1549
2 -2 -6 -16.5048 -4.7085
2 -2 -5 -10.8698 15.7362
2 -2 -4 -21.0447 3.5644
2 -2 -3 -8.1423 11.1745
2 -2 -2 -8.8673 -56.3117
2 -2 -1 -26.4365 -6.3587
2 0 0 -62.8103 9.6948
2 0 12 11.5728 -11.4760
2 0 14 9.2424 -1.6963
2 0 16 10.8412 -2.8903
2 0 18 1.3913 9.4005
2 0 20 0.9800 -1.3179
2 0 22 2.8707 0.4565
2 0 24 2.1370 -3.1960
2 0 26 2.8841 4.5185
2 0 28 -0.4094 -0.4544
2 0 30 -1.0347 2.0973
2 0 32 -0.5579 -1.7272
2 0 34 -0.8096 1.5617
2 0 36 -0.6221 -2.4783
2 0 38 1.4559 0.5851
2 2 0 56.3226 -21.3202
2 2 1 -2.7216 9.4307
2 2 2 55.3035 29.7291
2 2 3 -15.1925 11.7931
2 2 4 -7.0347 48.2012
2 2 5 7.7122 -61.1293
2 2 6 -23.8984 35.9042
2 2 7 45.2333 5.5934
2 2 8 -32.1429 4.0326
2 2 9 32.8956 21.7710
2 2 10 -17.0460 -16.8619
2 2 11 6.8815 36.8355
2 2 12 -1.5882 -13.4410
2 2 13 -13.2491 14.5373
2 2 14 4.6571 -4.4926
2 2 15 -9.5599 0.8245
2 2 16 6.9570 4.2479
2 2 17 -1.2209 4.3948
2 2 18 -0.8396 5.9601
2 2 19 -0.7213 4.4104
2 2 20 -1.1908 -0.3960
2 2 21 -2.5976 1.1235
2 2 22 -1.8822 5.8232
2 2 23 -3.8387 2.5654
2 2 24 -1.2850 -0.7226
2 2 25 -1.1674 -0.8113
2 2 26 -2.5866 1.2555
2 2 27 -3.0161 1.7299
2 2 28 0.0989 -1.3874
2 2 29 -0.4344 -1.5825
2 2 30 0.9790 0.2329
2 2 31 -1.9192 0.2485
2 2 32 1.0910 1.2172
2 2 33 0.0897 -1.8417
2 2 34 -0.6980 0.7310
2 2 35 0.6686 0.6779
2 2 36 -0.5439 -0.1214
2 2 37 -0.5311 0.2741
2 2 38 0.2223 -0.5241
2 4 0 -3.6353 21.3286
2 4 1 13.4931 -9.1747
2 4 2 -25.6297 2.4965
2 4 3 7.4737 18.4609
2 4 4 -8.7051 -11.4462
2 4 5 -4.9324 23.4273
2 4 6 -3.4738 -18.5540
2 4 7 -12.5675 9.0107
2 4 8 16.8112 -3.6862
2 4 9 -17.1781 0.9303
2 4 10 5.5383 11.4985
2 4 11 -11.9483 -7.0400
2 4 12 -4.3859 7.6090
2 4 13 -4.9172 -1.8716
2 4 14 -10.8378 0.2390
2 4 15 1.9172 -8.3187
2 4 16 -3.7979 -0.5266
2 4 17 3.8776 3.4072
2 4 18 -6.1154 -7.6111
2 4 19 -3.1472 3.0601
2 4 20 2.4476 -4.8782
2 4 21 -3.0376 1.8017
2 4 22 1.2478 -3.7640
2 4 23 -3.3911 -0.3281
2 4 24 2.1166 -0.2043
2 4 25 0.1744 -1.2399
2 4 26 1.7794 1.2321
2 4 27 -1.2255 1.0085
2 4 28 0.3934 0.3765
2 4 29 -1.5822 -0.7752
2 4 30 -1.4172 0.6876
2 4 31 1.5520 -2.6286
2 4 32 -1.7346 -0.6260
2 4 33 1.3882 2.3454
2 4 34 0.4183 -1.1241
2 4 35 0.2539 0.8015
2 4 36 0.5463 -0.8753
2 4 37 -1.8047 0.9741
2 6 0 3.6655 4.3925
2 6 1 0.2975 -4.4998
2 6 2 -5.7081 2.5038
2 6 3 -6.5457 -5.3359
2 6 4 -1.5666 2.4521
2 6 5 -6.9279 -9.9363
2 6 6 -4.3349 -2.1133
2 6 7 -0.3895 -13.5339
2 6 8 -6.6493 -4.7702
2 6 9 7.6491 -10.0249
2 6 10 5.0362 -7.2499
2 6 11 9.9666 -3.2210
2 6 12 0.9769 1.2153
2 6 13 1.1901 1.4899
2 6 14 3.1579 -0.5936
2 6 15 1.1366 -3.6963
2 6 16 -1.0573 1.2645
2 6 17 3.6017 -1.2318
2 6 18 -1.3978 -1.4113
2 6 19 1.3893 -1.8566
2 6 20 -0.5671 0.2207
2 6 21 -0.4284 0.1527
2 6 22 0.3023 -2.0252
2 6 23 2.1762 -2.7499
2 6 24 1.6888 0.9335
2 6 25 1.3814 0.9980
2 6 26 -0.6579 0.1384
2 6 27 1.0365 -0.6846
2 6 28 -0.3668 1.0649
2 6 29 -1.3961 0.7351
2 6 30 -3.0540 2.2747
2 6 31 -0.6415 -0.0684
2 6 32 -0.2635 -3.6406
2 6 33 0.1061 -0.6011
2 6 34 0.4887 0.1339
2 6 35 -0.2659 -0.8202
2 8 0 -2.2410 -6.8381
2 8 1 4.7452 -1.8818
2 8 2 3.4536 -7.6852
2 8 3 0.9042 2.8625
2 8 4 7.0633 -4.4801
2 8 5 2.1268 2.5759
2 8 6 8.8079 1.0786
2 8 7 -1.6230 5.3768
2 8 8 3.1556 3.7715
2 8 9 -5.1260 1.0278
2 8 10 3.1392 0.1195
2 8 11 -2.4109 -0.9439
2 8 12 2.7333 5.4606
2 8 13 -2.4534 -1.6378
2 8 14 -0.1432 1.1464
2 8 15 0.1188 -2.9738
2 8 16 1.5804 0.2592
2 8 17 -0.1942 -1.9807
2 8 18 1.3701 3.4793
2 8 19 2.0092 -0.9112
2 8 20 0.1255 1.3964
2 8 21 1.6294 0.1151
2 8 22 -1.3975 2.0761
2 8 23 0.8565 -0.9405
2 8 24 -0.1855 -0.8098
2 8 25 0.1626 -0.0987
2 8 26 -1.2682 -0.3995
2 8 27 -0.7847 0.9956
2 8 28 1.3562 -1.4889
2 8 29 1.0893 -1.0223
2 8 30 1.2720 0.9738
2 8 31 -0.9515 -1.5135
2 8 32 -0.8093 -0.6392
2 10 0 -1.9352 1.4506
2 10 1 5.2861 3.5328
2 10 2 -0.6455 -0.3219
2 10 3 -1.8935 5.5063
2 10 4 -2.5795 0.2477
2 10 5 -2.6398 -1.1639
2 10 6 -1.6491 -1.3131
2 10 7 0.3525 -0.2494
2 10 8 -0.4215 -2.4250
2 10 9 -1.1331 -1.7447
2 10 10 1.1705 -1.4470
2 10 11 4.5996 -0.2714
2 10 12 1.1944 -0.9374
2 10 13 1.1789 3.6991
2 10 14 0.0606 1.9667
2 10 15 -1.8028 2.2087
2 10 16 -1.6920 -1.4199
2 10 17 -1.3064 1.2028
2 10 18 0.7486 0.2842
2 10 19 -1.5145 -1.1682
2 10 20 -0.2810 -1.0857
2 10 21 0.5514 0.2588
2 10 22 -0.2045 0.1366
2 10 23 -2.1129 0.1319
2 10 24 -1.8034 -1.2126
2 10 25 2.2026 -2.2730
2 10 26 1.6540 -1.1486
2 10 27 2.0548 1.6289
2 10 28 1.0826 -0.3051
2 12 0 -2.1200 1.5993
2 12 1 1.1821 -3.7960
2 12 2 -0.0162 -0.3690
2 12 3 3.0866 -0.5474
2 12 4 0.2382 2.2343
2 12 5 3.8732 0.8843
2 12 6 -1.6713 0.3242
2 12 7 1.9290 4.1915
2 12 8 -1.1488 0.9268
2 12 9 -2.0528 4.3243
2 12 10 -2.8067 0.6441
2 12 11 -3.4069 -1.4920
2 12 12 -0.8990 -2.8689
2 12 13 0.2318 -0.4552
2 12 14 0.6298 -1.0540
2 12 15 0.1464 -1.6153
2 12 16 1.9038 -0.7929
2 12 17 1.0662 0.2524
2 12 18 0.8326 1.9880
2 12 19 1.6379 -0.1584
2 12 20 -1.8717 0.8192
2 12 21 1.5267 1.2073
2 12 22 0.5191 -0.5766
2 12 23 -0.1995 2.7494
2 14 0 -1.1705 0.6330
2 14 1 -1.3975 -0.0811
2 14 2 0.4205 -0.1930
2 14 3 -1.4281 -0.8294
2 14 4 -1.6687 -0.3852
2 14 5 -1.3636 -0.1489
2 14 6 0.8815 -0.8864
2 14 7 -1.2606 -2.8823
2 14 8 2.3058 0.7725
2 14 9 1.1970 -1.5408
2 14 10 -1.0631 2.2029
2 14 11 1.1698 0.4160
2 14 12 -1.1265 -0.2445
2 14 13 -1.0433 -0.8616
2 14 14 -0.7765 -0.5591
2 14 15 1.8775 0.9289
3 -15 -6 -0.3786 -0.7248
3 -15 -5 0.2464 0.3059
3 -15 -4 0.9144 -0.7911
3 -15 -3 -0.8182 0.0732
3 -15 -2 0.0822 0.7096
3 -15 -1 0.1600 -1.0820
3 -13 -9 1.0772 1.3075
3 -13 -8 1.4131 -1.0664
3 -13 -7 -0.2452 0.0832
3 -13 -6 0.1198 1.6499
3 -13 -5 -0.4666 -0.7390
3 -13 -4 -1.5117 0.0400
3 -13 -3 0.6240 0.3041
3 -13 -2 -0.6768 -0.1430
3 -13 -1 0.1409 0.0676
3 -11 -12 -0.1402 0.7784
3 -11 -11 1.6478 -0.2970
3 -11 -10 -0.5105 0.6670
3 -11 -9 1.4663 0.6928
3 -11 -8 -0.7035 -2.5435
3 -11 -7 1.4231 1.7601
3 -11 -6 1.7997 -0.2615
3 -11 -5 -1.3957 1.3905
3 -11 -4 3.1640 0.2949
3 -11 -3 -0.0343 1.4019
3 -11 -2 1.0814 0.9752
3 -11 -1 -1.3785 0.0059
3 -9 -14 0.2293 0.4643
3 -9 -13 0.7559 0.1480
3 -9 -12 0.5623 1.9824
3 -9 -11 0.3307 1.3726
3 -9 -10 -1.0581 1.3806
3 -9 -9 -1.2737 2.1169
3 -9 -8 0.3750 1.4885
3 -9 -7 0.4637 0.7579
3 -9 -6 -3.5635 2.1269
3 -9 -5 0.7432 1.8395
3 -9 -4 -3.8914 0.0407
3 -9 -3 0.8812 1.3785
3 -9 -2 -3.0033 -1.4913
3 -9 -1 -0.2694 5.2824
3 -7 -16 -0.2653 1.4406
3 -7 -15 -0.1161 -0.2821
3 -7 -14 -1.6696 2.3291
3 -7 -13 -3.3100 -1.6793
3 -7 -12 -3.3844 3.0327
3 -7 -11 1.7719 -0.7987
3 -7 -10 -6.1374 0.4338
3 -7 -9 -2.9164 -1.9716
3 -7 -8 -5.2866 -2.9056
3 -7 -7 0.5392 -3.8995
3 -7 -6 0.9272 -2.6985
3 -7 -5 3.5168 -2.6875
3 -7 -4 -2.1098 -1.1846
3 -7 -3 0.2130 3.3660
3 -7 -2 -0.7124 -3.3969
3 -7 -1 -3.0848 -2.3796
3 -5 -14 6.2277 -1.6035
3 -5 -13 -3.7616 -6.0268
3 -5 -12 3.0762 2.6370
3 -5 -11 -0.8394 -4.0759
3 -5 -10 3.0769 3.3443
3 -5 -9 -1.4008 -5.0616
3 -5 -8 1.0008 0.6067
3 -5 -7 -0.4142 -2.4135
3 -5 -6 -2.2577 -0.4982
3 -5 -5 1.5177 -9.0757
3 -5 -4 5.5497 -3.6222
3 -5 -3 3.8898 -2.9207
3 -5 -2 1.6000 9.5088
3 -5 -1 5.2844 -2.9001
3 -3 -12 -3.6114 -6.9305
3 -3 -11 9.1163 3.8937
3 -3 -10 3.2303 -9.0779
3 -3 -9 2.1526 10.8869
3 -3 -8 -0.7390 -7.1852
3 -3 -7 -8.7316 7.6425
3 -3 -6 16.6759 -7.8296
3 -3 -5 -9.7795 2.9043
3 -3 -4 14.5857 4.1913
3 -3 -3 11.2044 -4.9272
3 -3 -2 4.7882 6.4855
3 -3 -1 -0.0842 28.4305
3 -1 -2 -3.6220 -13.3151
3 -1 -1 5.1296 -49.3679
3 1 0 -6.3365 -4.1588
3 1 1 -63.9990 -7.2677
3 1 2 13.3265 -3.1506
3 1 3 -39.0273 -43.4782
3 1 9 16.4411 1.3358
3 1 10 -12.2104 -17.3485
3 1 11 1.1073 12.7873
3 1 12 10.2561 -22.9383
3 1 13 -0.4998 3.9081
3 1 14 8.3313 0.5751
3 1 15 1.0687 1.3097
3 1 16 9.6128 1.0609
3 1 17 0.8822 -1.3581
3 1 18 2.5660 3.5163
3 1 19 -2.4374 -1.1543
3 1 20 1.3322 -0.5845
3 1 21 -0.0623 1.9023
3 1 22 3.4970 3.8079
3 1 23 0.2922 -3.6857
3 1 24 -0.9355 1.2559
3 1 25 0.4192 -0.0224
3 1 26 1.0824 2.1805
3 1 27 1.3977 1.3364
3 1 28 -0.2052 -0.8501
3 1 29 -1.9548 0.4614
3 1 30 1.3709 1.6416
3 1 31 -0.7354 0.0552
3 1 32 0.6935 0.5654
3 1 33 -0.8337 -1.1399
3 1 34 -0.4975 1.6314
3 1 35 -0.1545 0.8549
3 1 36 -0.3814 -0.7953
3 1 37 -1.4610 -0.2394
3 3 0 7.9657 15.4653
3 3 1 31.2073 -9.2542
3 3 2 -35.9449 7.4013
3 3 3 33.2837 17.3387
3 3 4 -3.5157 -22.2018
3 3 5 1.4683 23.9219
3 3 6 13.1142 -31.9284
3 3 7 -8.9202 31.5952
3 3 8 26.4463 1.2453
3 3 9 -29.2696 -2.9487
3 3 10 7.4193 7.0621
3 3 11 0.4103 -11.9661
3 3 12 8.8215 12.7256
3 3 13 -0.9430 -6.0732
3 3 14 0.1540 3.7267
3 3 15 13.7476 -1.4198
3 3 16 -2.5895 4.8945
3 3 17 1.0476 11.1067
3 3 18 -8.1222 -0.2850
3 3 19 1.0115 4.8345
3 3 20 1.7608 -3.4223
3 3 21 -5.2994 6.6052
3 3 22 -1.7214 -1.1377
3 3 23 -4.1066 2.2327
3 3 24 1.8113 -2.7267
3 3 25 -3.6132 -0.2021
3 3 26 -0.7637 -0.3048
3 3 27 -3.0355 -1.4026
3 3 28 1.9859 -0.8239
3 3 29 -0.3408 -2.6865
3 3 30 -1.2790 1.3862
3 3 31 -0.0628 -0.4279
3 3 32 -1.1062 0.1347
3 3 33 1.7962 -0.8664
3 3 34 -2.1881 -1.7443
3 3 35 0.3176 1.2033
3 3 36 0.6879 -1.1240
3 3 37 -0.6794 0.1459
3 5 0 4.0722 0.1273
3 5 1 -7.1510 0.0355
3 5 2 2.9213 -1.5197
3 5 3 -7.6309 0.5367
3 5 4 13.4554 7.6142
3 5 5 -5.0989 -14.4939
3 5 6 1.8337 22.8299
3 5 7 8.6201 -8.0385
3 5 8 -8.5856 18.8465
3 5 9 9.6589 3.0324
3 5 10 -14.7010 6.5581
3 5 11 -0.1108 11.0621
3 5 12 -14.7410 1.3328
3 5 13 -6.2541 1.2933
3 5 14 -5.3573 -4.2649
3 5 15 -7.3295 -6.8778
3 5 16 -1.3820 1.0065
3 5 17 3.3673 -3.1492
3 5 18 -4.7507 1.2030
3 5 19 0.7701 -2.9402
3 5 20 -1.9895 0.6753
3 5 21 4.2716 -0.7391
3 5 22 -4.0956 -0.1785
3 5 23 0.6835 -0.5810
3 5 24 -1.0254 -0.9582
3 5 25 1.5821 -0.1520
3 5 26 -1.1549 -1.3485
3 5 27 -0.0662 0.0970
3 5 28 -0.2729 -0.0402
3 5 29 2.3179 0.1975
3 5 30 -0.1298 0.0312
3 5 31 1.3981 -1.5306
3 5 32 0.3535 -1.7220
3 5 33 1.2472 2.2029
3 5 34 0.8420 1.0962
3 5 35 0.4303 0.4011
3 7 0 -3.3029 -2.1058
3 7 1 2.9973 5.0913
3 7 2 0.6752 -2.8540
3 7 3 -7.5032 9.3757
3 7 4 -1.3782 -4.6956
3 7 5 -6.9102 0.2322
3 7 6 0.8448 -5.5032
3 7 7 -7.7556 -1.9177
3 7 8 0.6535 -6.4465
3 7 9 -5.0354 -5.4420
3 7 10 8.7325 -5.2782
3 7 11 -0.2306 -4.7531
3 7 12 6.1971 2.4926
3 7 13 -1.1972 -3.6461
3 7 14 0.8733 1.2821
3 7 15 1.5539 -2.6777
3 7 16 0.1864 2.3366
3 7 17 1.2185 -1.3940
3 7 18 -0.4081 0.0671
3 7 19 1.8419 -0.5553
3 7 20 -0.2532 -1.8917
3 7 21 -0.8690 1.4007
3 7 22 0.5830 -1.4657
3 7 23 0.2698 -1.0653
3 7 24 1.2065 0.5605
3 7 25 -0.4067 1.5572
3 7 26 -0.0318 1.7912
3 7 27 0.8981 0.0411
3 7 28 1.2679 -0.6319
3 7 29 -1.8100 1.4907
3 7 30 -1.2613 1.9010
3 7 31 -2.2873 0.5221
3 7 32 -1.3111 -0.7037
3 7 33 0.2883 -1.1593
3 9 0 -3.0426 -2.8474
3 9 1 6.0434 -3.0578
3 9 2 1.3153 -4.3861
3 9 3 -0.0755 -0.2533
3 9 4 1.5418 -0.9857
3 9 5 6.9163 -3.7094
3 9 6 1.5383 0.3436
3 9 7 5.4512 4.8166
3 9 8 -0.3422 1.3355
3 9 9 1.5553 3.1707
3 9 10 -0.9410 -0.4005
3 9 11 1.0856 1.6524
3 9 12 0.0564 -0.3211
3 9 13 -1.0226 4.4172
3 9 14 -1.6866 -0.8541
3 9 15 -0.4357 -1.6214
3 9 16 2.4882 -1.9693
3 9 17 1.8787 1.8093
3 9 18 0.0864 0.6835
3 9 19 -0.2789 0.2857
3 9 20 -0.6577 -0.5343
3 9 21 0.5892 1.0509
3 9 22 1.0731 0.1414
3 9 23 -0.5911 1.0657
3 9 24 0.9472 0.1751
3 9 25 1.3778 0.3673
3 9 26 -1.9498 -0.4731
3 9 27 -0.8382 1.3809
3 9 28 -0.8243 -1.1751
3 9 29 -1.5824 0.0089
3 9 30 0.7493 -0.9289
3 11 0 1.4440 0.7456
3 11 1 1.2505 0.7063
3 11 2 1.7784 2.5863
3 11 3 -1.2458 2.1351
3 11 4 -1.1233 4.9815
3 11 5 -2.2844 -2.5025
3 11 6 -4.5183 -0.1692
3 11 7 0.3862 -1.7390
3 11 8 -1.1924 -1.4019
3 11 9 1.0169 -1.8882
3 11 10 -0.5758 -3.0422
3 11 11 4.4568 -0.8094
3 11 12 2.5251 0.4220
3 11 13 1.2188 4.0498
3 11 14 0.5538 1.1816
3 11 15 -1.3967 2.7638
3 11 16 -1.2008 1.6040
3 11 17 -3.8360 -0.4336
3 11 18 -0.6542 0.1047
3 11 19 -0.7792 -1.5172
3 11 20 -1.7601 -0.4918
3 11 21 1.6444 -0.8818
3 11 22 -0.1552 -0.9036
3 11 23 -0.8705 1.1811
3 11 24 -0.5669 -1.8457
3 11 25 -1.0788 -1.7957
3 13 0 -0.7958 -2.2015
3 13 1 0.5989 0.1250
3 13 2 2.9020 -1.4391
3 13 3 -0.4095 0.5543
3 13 4 2.1383 1.3505
3 13 5 -0.4281 2.3304
3 13 6 1.7021 1.2246
3 13 7 -1.9819 -0.6382
3 13 8 0.4971 4.1161
3 13 9 -2.4336 0.0278
3 13 10 -3.2463 1.5684
3 13 11 -1.3716 -3.5004
3 13 12 -1.7150 -1.5428
3 13 13 1.0811 -0.9945
3 13 14 0.9056 -0.1503
3 13 15 1.0688 -1.1806
3 13 16 -0.6255 -0.9718
3 13 17 0.4660 0.0523
3 13 18 0.6972 0.9725
3 15 0 -1.0495 -0.0613
3 15 1 -0.2841 0.9282
3 15 2 0.2681 -0.5047
3 15 3 -0.8753 0.1186
3 15 4 -1.0271 -0.3425
4 -14 -8 -0.0015 -1.7111
4 -14 -7 -0.4793 0.4443
4 -14 -6 -0.5337 0.8600
4 -14 -5 0.4683 -2.2220
4 -14 -4 0.3220 -0.4321
4 -14 -3 1.8319 -0.0568
4 -14 -2 -0.8713 0.3392
4 -14 -1 0.5981 0.6997
4 -12 -10 -0.6762 -0.0122
4 -12 -9 0.0568 -0.6529
4 -12 -8 0.0030 -0.6375
4 -12 -7 0.9003 0.7223
4 -12 -6 0.2823 -0.2651
4 -12 -5 -0.1809 0.6804
4 -12 -4 0.7398 -1.1789
4 -12 -3 -1.4700 0.3512
4 -12 -2 0.8406 0.8747
4 -12 -1 -1.1164 -0.8503
4 -10 -13 2.1311 0.1227
4 -10 -12 1.4733 -0.6965
4 -10 -11 0.5047 1.1349
4 -10 -10 1.2431 0.4427
4 -10 -9 0.9574 1.5747
4 -10 -8 1.6471 0.0098
4 -10 -7 -0.7726 -0.5264
4 -10 -6 1.8351 2.0349
4 -10 -5 -0.4944 1.0040
4 -10 -4 -2.5426 0.8528
4 -10 -3 2.1589 -0.8641
4 -10 -2 -1.9061 -0.0136
4 -10 -1 2.0055 2.3384
4 -8 -15 -0.4535 -0.6557
4 -8 -14 -0.3226 2.7302
4 -8 -13 1.1591 -1.0367
4 -8 -12 0.9876 1.5313
4 -8 -11 2.1670 -1.3907
4 -8 -10 -1.5754 1.9131
4 -8 -9 2.5799 2.4532
4 -8 -8 -1.1544 1.2283
4 -8 -7 2.6494 2.3364
4 -8 -6 -1.9930 2.2090
4 -8 -5 -4.0132 3.1336
4 -8 -4 -1.1046 1.1943
4 -8 -3 -0.9917 -1.3121
4 -8 -2 -2.1242 1.9640
4 -8 -1 -2.0257 1.1122
4 -6 -16 2.2365 -0.0289
4 -6 -15 -4.5528 3.4420
4 -6 -14 4.6314 0.5280
4 -6 -13 -5.3108 -0.0142
4 -6 -12 0.4025 4.5294
4 -6 -11 -3.6415 -2.2961
4 -6 -10 -1.4079 1.3372
4 -6 -9 -4.8522 -3.1190
4 -6 -8 1.2516 -0.6813
4 -6 -7 -2.7820 -5.0310
4 -6 -6 2.1885 1.9451
4 -6 -5 -0.9616 -4.8114
4 -6 -4 -0.9082 4.5990
4 -6 -3 0.2624 -4.3821
4 -6 -2 -3.6652 4.4635
4 -6 -1 6.0208 -10.8595
4 -4 -15 1.7763 -1.1107
4 -4 -14 -3.2102 -2.1358
4 -4 -13 4.0416 -2.3841
4 -4 -12 -2.5613 -2.5266
4 -4 -11 4.4486 9.0637
4 -4 -10 -2.8611 -10.9460
4 -4 -9 -4.3065 8.1217
4 -4 -8 5.9424 -8.4499
4 -4 -7 -5.3974 6.5629
4 -4 -6 12.4278 -1.5357
4 -4 -5 -9.9488 -3.3454
4 -4 -4 5.8429 4.7295
4 -4 -3 -2.2648 -5.4920
4 -4 -2 -1.9225 -0.1586
4 -4 -1 -4.6391 -2.1005
4 -2 -4 -2.2068 3.7194
4 -2 -3 24.9786 13.2795
4 -2 -2 -1.8518 0.4230
4 -2 -1 -9.7860 30.6036
4 0 0 9.2590 -18.9224
4 0 16 7.1303 -4.4865
4 0 18 -2.6188 5.6481
4 0 20 7.4480 -1.8474
4 0 22 0.3901 0.1625
4 0 24 3.0873 2.4887
4 0 26 1.0569 0.3668
4 0 28 1.2098 -0.2241
4 0 30 2.6221 1.5593
4 0 32 -0.5766 0.9819
4 0 34 -0.6327 0.2771
4 0 36 1.1303 -1.1802
4 2 0 -2.7338 24.1044
4 2 1 12.6463 -0.6493
4 2 2 -34.1851 -9.2629
4 2 3 28.0684 6.6882
4 2 4 -13.5400 -28.0922
4 2 5 -2.9291 15.5477
4 2 6 10.6421 -18.0276
4 2 7 -9.9337 15.5864
4 2 8 15.1962 -4.5479
4 2 9 -16.5006 -13.8461
4 2 10 11.6621 2.7028
4 2 11 17.7875 3.9064
4 2 12 -1.6084 7.7430
4 2 13 -6.1527 -4.0439
4 2 14 -4.9239 1.2318
4 2 15 5.9257 -0.4976
4 2 16 -3.1858 -0.8316
4 2 17 4.8626 5.5178
4 2 18 -0.3469 -5.0555
4 2 19 4.1476 2.5142
4 2 20 -0.2241 -3.7689
4 2 21 2.9498 7.7265
4 2 22 3.2103 -1.2735
4 2 23 -1.2202 3.4444
4 2 24 3.3152 -1.5171
4 2 25 -0.3542 5.8856
4 2 26 1.0741 2.5786
4 2 27 -3.1477 1.0738
4 2 28 1.2986 0.5820
4 2 29 -0.7095 -0.3992
4 2 30 -1.5158 2.9511
4 2 31 1.7427 -0.0479
4 2 32 0.2879 -0.5219
4 2 33 1.8787 1.0942
4 2 34 -1.6940 1.5558
4 2 35 0.4966 2.7139
4 2 36 -0.1954 -1.4638
4 4 0 5.3796 -8.3742
4 4 1 -1.0331 9.3175
4 4 2 17.1621 3.0631
4 4 3 -22.9771 4.4045
4 4 4 18.4278 12.9985
4 4 5 -11.7096 -19.2853
4 4 6 -4.0350 27.5143
4 4 7 7.3603 -19.0381
4 4 8 -20.4919 14.7746
4 4 9 10.9263 -16.2220
4 4 10 -18.4899 -11.2117
4 4 11 16.1592 -1.0941
4 4 12 7.3132 -13.6959
4 4 13 4.7433 5.3940
4 4 14 6.3917 2.6072
4 4 15 6.7279 -0.6074
4 4 16 4.8908 11.0517
4 4 17 1.5291 3.9487
4 4 18 -7.1974 5.4149
4 4 19 0.1119 -0.9909
4 4 20 -3.6046 1.5984
4 4 21 0.6965 2.2827
4 4 22 -5.6827 0.0842
4 4 23 -1.5074 -1.4298
4 4 24 -1.6954 -1.5301
4 4 25 1.0516 -0.2123
4 4 26 -2.0472 0.3658
4 4 27 -1.7845 0.3062
4 4 28 -0.0879 -0.6014
4 4 29 1.4682 -1.3234
4 4 30 -2.3278 -0.4824
4 4 31 -1.9096 1.5962
4 4 32 -1.6087 -0.7480
4 4 33 0.2556 -0.7235
4 4 34 -0.0736 -1.9440
4 4 35 -1.7027 0.5165
4 6 0 -7.9134 -3.8103
4 6 1 -4.7106 -1.5306
4 6 2 -2.3890 -5.1196
4 6 3 -2.7230 -0.7793
4 6 4 3.0757 -6.3524
4 6 5 4.2678 0.0168
4 6 6 3.0977 -2.4472
4 6 7 -0.9969 11.0981
4 6 8 6.3767 -1.6157
4 6 9 -5.7979 8.1915
4 6 10 4.3339 1.3899
4 6 11 -10.3828 1.4701
4 6 12 2.6428 9.2374
4 6 13 -9.5877 -2.5856
4 6 14 -3.8095 3.2145
4 6 15 0.2555 -6.8793
4 6 16 -5.6215 0.2985
4 6 17 3.5260 -1.1522
4 6 18 -3.4982 -4.4648
4 6 19 2.0262 3.3085
4 6 20 0.8001 -3.5481
4 6 21 -3.2610 4.0144
4 6 22 1.8951 -1.6640
4 6 23 -3.3270 -0.2119
4 6 24 1.4093 -0.6462
4 6 25 -1.0600 -1.3528
4 6 26 1.4337 -1.8960
4 6 27 0.4144 -2.3655
4 6 28 0.1204 -0.1028
4 6 29 0.3643 -0.2678
4 6 30 1.4340 -0.0891
4 6 31 0.8523 -0.2963
4 6 32 1.8099 -1.9482
4 6 33 0.4365 0.3598
4 8 0 -3.3530 -0.9998
4 8 1 0.8964 1.7688
4 8 2 -1.0631 0.0790
4 8 3 -2.1663 1.7113
4 8 4 -2.1786 1.7052
4 8 5 -0.0794 -3.2026
4 8 6 -3.4169 1.4366
4 8 7 0.5350 0.0039
4 8 8 -7.0506 -2.4787
4 8 9 -0.4190 -3.1189
4 8 10 -2.2128 -7.8922
4 8 11 4.4386 -0.3836
4 8 12 3.0202 -1.5782
4 8 13 1.0135 2.8017
4 8 14 0.4431 -2.8500
4 8 15 -0.5820 0.6811
4 8 16 1.8363 -0.2831
4 8 17 -3.3408 0.9411
4 8 18 0.7409 -0.9309
4 8 19 -1.3218 -1.3281
4 8 20 2.1515 0.9026
4 8 21 0.4887 -1.7235
4 8 22 0.2183 2.6244
4 8 23 0.5390 -1.2892
4 8 24 -1.8742 0.7836
4 8 25 -0.0254 -1.0188
4 8 26 -1.7545 -0.7012
4 8 27 1.6341 1.7548
4 8 28 1.3712 -0.1514
4 8 29 -0.5821 1.6189
4 8 30 -0.8625 0.4702
4 8 31 -0.8447 -0.1558
4 10 0 -1.3697 -3.2612
4 10 1 -0.4629 -1.7151
4 10 2 3.1150 -3.6242
4 10 3 0.0867 -2.5973
4 10 4 3.1805 -0.8578
4 10 5 2.6697 -4.0578
4 10 6 4.2749 0.6460
4 10 7 3.9353 1.8413
4 10 8 2.4779 5.2652
4 10 9 0.4854 0.6250
4 10 10 -1.8869 2.1259
4 10 11 0.4754 2.5116
4 10 12 -1.1829 0.4523
4 10 13 -0.7947 -0.2251
4 10 14 -1.5986 -0.5333
4 10 15 -0.9887 -0.1695
4 10 16 0.5865 -2.9471
4 10 17 1.3006 -0.5830
4 10 18 3.3311 1.8458
4 10 19 -0.0005 -0.2537
4 10 20 -0.3619 0.3864
4 10 21 0.6121 0.1919
4 10 22 0.5462 -0.0145
4 10 23 -0.6917 1.0634
4 10 24 -0.5447 0.0760
4 10 25 -0.1395 0.2078
4 10 26 1.6464 0.6355
4 10 27 -1.3147 -1.5339
4 12 0 0.3309 0.2923
4 12 1 1.2089 0.3826
4 12 2 -0.0723 -0.3702
4 12 3 -0.0399 2.2465
4 12 4 0.3059 1.9130
4 12 5 -1.6768 1.4773
4 12 6 -1.4766 -2.6256
4 12 7 -1.6591 -0.9512
4 12 8 2.1101 -0.9287
4 12 9 -0.3836 -0.3858
4 12 10 1.8102 0.1859
4 12 11 0.9776 -2.2832
4 12 12 3.1690 2.5369
4 12 13 1.6445 2.6287
4 12 14 -1.4867 2.8625
4 12 15 -1.4470 -0.4703
4 12 16 -0.6257 2.3439
4 12 17 -0.5566 1.8199
4 12 18 -3.4012 -0.4272
4 12 19 -0.0816 -2.3422
4 12 20 -0.3095 -0.4266
4 12 21 1.3084 1.3567
4 14 0 0.0552 -1.4691
4 14 1 0.5241 -1.4123
4 14 2 1.7514 -0.1678
4 14 3 0.9714 0.7999
4 14 4 -0.5230 0.5576
4 14 5 1.2070 0.9056
4 14 6 0.3397 1.4848
4 14 7 -0.9868 1.1771
4 14 8 -1.7084 -0.1278
4 14 9 -0.2617 1.2929
4 14 10 -0.6796 -0.8029
4 14 11 -1.4363 -1.2334
5 -13 -9 1.0413 1.2207
5 -13 -8 1.0138 0.5222
5 -13 -7 -0.4105 -0.2642
5 -13 -6 -0.6705 -0.2048
5 -13 -5 -1.5348 0.0796
5 -13 -4 1.4811 -1.7246
5 -13 -3 0.4936 -0.3589
5 -13 -2 1.4871 0.6643
5 -13 -1 -0.6075 -1.4003
5 -11 -11 -1.0276 0.2131
5 -11 -10 -0.3807 -1.5558
5 -11 -9 0.6409 -0.6386
5 -11 -8 -1.2249 -2.9715
5 -11 -7 -0.9926 -0.3950
5 -11 -6 3.1619 0.4555
5 -11 -5 0.9054 -1.7580
5 -11 -4 0.0801 0.6366
5 -11 -3 2.4593 -0.5205
5 -11 -2 0.4550 0.9152
5 -11 -1 1.7667 2.6424
5 -9 -14 -0.1251 0.9569
5 -9 -13 1.9850 -2.1734
5 -9 -12 0.0860 0.0553
5 -9 -11 1.2070 -0.1328
5 -9 -10 -0.0414 3.3730
5 -9 -9 0.7105 -0.8655
5 -9 -8 -1.1895 0.8330
5 -9 -7 2.2819 0.6549
5 -9 -6 -2.5993 0.1472
5 -9 -5 1.4747 1.4968
5 -9 -4 -0.3648 -1.3542
5 -9 -3 0.7819 -1.7113
5 -9 -2 0.3180 0.8971
5 -9 -1 1.0862 2.6093
5 -7 -16 -0.5357 1.5854
5 -7 -15 -5.7863 0.1833
5 -7 -14 2.0677 -1.2969
5 -7 -13 -1.0763 -2.7554
5 -7 -12 2.0304 0.4328
5 -7 -11 1.3982 -0.3262
5 -7 -10 1.9764 -0.2814
5 -7 -9 -0.0412 1.7003
5 -7 -8 4.2143 5.2909
5 -7 -7 -3.9018 -0.4544
5 -7 -6 -1.4758 5.6505
5 -7 -5 -2.9223 -2.1205
5 -7 -4 -2.8269 3.2174
5 -7 -3 2.3060 -3.8198
5 -7 -2 -4.5517 2.2415
5 -7 -1 0.4077 2.4019
5 -5 -17 2.5103 -0.6198
5 -5 -16 0.1975 -0.1230
5 -5 -15 -2.4727 3.0882
5 -5 -14 -5.6774 1.2991
5 -5 -13 2.0998 -2.2162
5 -5 -12 -2.6239 -4.0301
5 -5 -11 1.2466 4.4673
5 -5 -10 -1.6549 -6.4870
5 -5 -9 -3.7463 6.2280
5 -5 -8 5.2513 -6.5708
5 -5 -7 -6.0963 -0.1066
5 -5 -6 4.1733 -1.1361
5 -5 -5 -4.4355 -4.7843
5 -5 -4 -1.0763 -3.4117
5 -5 -3 0.6064 -1.4364
5 -5 -2 7.3695 -5.1779
5 -5 -1 -2.4703 2.9286
5 -3 -5 4.8083 4.3473
5 -3 -4 -13.4816 -2.1203
5 -3 -3 6.1794 10.1122
5 -3 -2 -2.9418 -15.8401
5 -3 -1 -4.5515 2.8368
5 -1 -3 1.0764 3.5003
5 -1 -2 7.8944 8.8513
5 -1 -1 -16.2326 3.8879
5 1 0 -14.3051 17.0510
5 1 1 2.3778 0.1920
5 1 2 -12.8026 -8.5426
5 1 3 3.7005 5.2013
5 1 4 -8.4538 -12.9390
5 1 13 -6.6188 -3.2570
5 1 14 6.5299 -8.1721
5 1 15 12.1266 -2.4562
5 1 16 1.7600 1.3736
5 1 17 1.5904 -0.4036
5 1 18 -5.8093 -3.3720
5 1 19 0.1571 3.2390
5 1 20 2.3179 -7.8317
5 1 21 4.7992 -0.2288
5 1 22 -0.2081 -1.1149
5 1 23 -1.8561 1.5530
5 1 24 2.7238 -3.8819
5 1 25 1.3848 0.1643
5 1 26 -0.2082 -1.5246
5 1 27 -0.3787 -0.5112
5 1 28 3.8661 -1.3928
5 1 29 1.4184 0.0567
5 1 30 -0.3951 2.9193
5 1 31 0.6209 0.3657
5 1 32 -1.7972 -1.6764
5 1 33 -0.4524 -0.2955
5 1 34 -0.4073 -0.4940
5 1 35 -0.1776 -0.1973
5 1 36 0.3429 -1.9807
5 3 0 9.4291 -12.0992
5 3 1 -4.0735 9.6412
5 3 2 8.7438 -0.6551
5 3 3 -19.2127 -11.2838
5 3 4 20.8691 6.6272
5 3 5 -3.4204 -25.3763
5 3 6 2.4360 17.8045
5 3 7 16.3216 -15.6107
5 3 8 -5.0514 6.2951
5 3 9 19.9533 -3.6796
5 3 10 -8.5305 2.1006
5 3 11 17.5103 17.9033
5 3 12 5.8087 7.1489
5 3 13 -20.9244 12.4390
5 3 14 -3.8357 -0.3137
5 3 15 1.2438 -14.9533
5 3 16 -0.7210 4.5128
5 3 17 4.0225 0.2433
5 3 18 -2.3863 -0.9031
5 3 19 3.9840 -1.5802
5 3 20 2.0403 1.7174
5 3 21 3.3061 1.9435
5 3 22 2.2294 0.2748
5 3 23 1.0923 1.7741
5 3 24 1.8871 3.5105
5 3 25 2.9870 2.7602
5 3 26 0.3106 3.6789
5 3 27 -2.5207 2.2673
5 3 28 -0.6644 0.1977
5 3 29 1.0578 -1.6333
5 3 30 -0.4850 1.5968
5 3 31 -0.1845 2.6853
5 3 32 1.3393 -1.5623
5 3 33 0.9397 -0.7852
5 3 34 0.9843 1.4018
5 3 35 -0.4676 3.4675
5 5 0 12.0183 -1.1609
5 5 1 8.2352 2.0980
5 5 2 6.6052 8.8367
5 5 3 4.4994 9.4601
5 5 4 -5.2777 6.2898
5 5 5 2.6940 8.9038
5 5 6 -9.0803 -2.6105
5 5 7 -7.1982 12.0029
5 5 8 4.6465 -11.2575
5 5 9 -15.1580 0.7941
5 5 10 6.3881 -5.8115
5 5 11 -3.4224 -4.2485
5 5 12 13.0264 1.9133
5 5 13 -1.9216 -9.6936
5 5 14 2.2117 10.0425
5 5 15 7.7651 -5.1457
5 5 16 -4.3643 4.5725
5 5 17 6.6695 7.8016
5 5 18 -4.1121 -1.1954
5 5 19 -1.1132 5.8945
5 5 20 -2.4025 -1.1454
5 5 21 -4.8813 3.4345
5 5 22 0.6448 -3.4881
5 5 23 -1.2020 -2.2320
5 5 24 1.2021 1.1436
5 5 25 -0.1747 0.5234
5 5 26 -0.6802 -0.0663
5 5 27 -1.8150 1.8430
5 5 28 -1.2914 2.1257
5 5 29 0.1297 -0.3426
5 5 30 -2.3715 -1.0461
5 5 31 -0.7913 0.9653
5 5 32 -0.4890 0.0778
5 5 33 -1.8465 0.0081
5 7 0 -7.2197 0.4738
5 7 1 1.0400 1.1952
5 7 2 -1.1216 -2.5915
5 7 3 0.0741 2.1321
5 7 4 -2.9072 -2.9474
5 7 5 -0.9143 -1.5026
5 7 6 3.3039 -0.7753
5 7 7 -0.3969 -0.2720
5 7 8 -3.9863 3.0792
5 7 9 4.6633 -1.4675
5 7 10 0.0595 -0.7463
5 7 11 0.9494 5.1927
5 7 12 -2.3659 -0.5479
5 7 13 -1.7163 3.5391
5 7 14 -3.6993 -3.5580
5 7 15 -4.8044 1.5126
5 7 16 4.3501 -5.0497
5 7 17 -2.9848 -1.1617
5 7 18 7.3009 1.0202
5 7 19 -3.2335 -2.4709
5 7 20 4.3134 5.0562
5 7 21 -1.8140 -3.9954
5 7 22 -1.8198 5.1470
5 7 23 0.5349 -4.7104
5 7 24 -2.8260 1.2843
5 7 25 3.5569 -1.6716
5 7 26 -0.8852 0.4727
5 7 27 2.6160 -0.0114
5 7 28 -0.0823 -0.8445
5 7 29 -0.7575 0.5425
5 7 30 0.2547 -1.2953
5 7 31 0.4235 -0.3298
5 9 0 0.8567 0.5130
5 9 1 1.6449 0.0031
5 9 2 -0.1206 2.2670
5 9 3 -1.8526 1.2579
5 9 4 -3.6139 1.3881
5 9 5 -1.4088 0.9033
5 9 6 -2.4626 -1.1299
5 9 7 -3.9055 0.9951
5 9 8 -2.4947 -3.4308
5 9 9 -2.4462 -5.1365
5 9 10 1.7121 -4.1822
5 9 11 1.0122 -2.9463
5 9 12 5.2654 -0.2322
5 9 13 1.6431 -0.3983
5 9 14 -0.4422 4.3457
5 9 15 0.8746 0.1947
5 9 16 0.2404 0.5779
5 9 17 0.0351 1.0341
5 9 18 -3.3314 0.8790
5 9 19 0.4116 -1.2232
5 9 20 -1.6748 -0.7996
5 9 21 0.6375 1.6629
5 9 22 -0.0632 -0.8497
5 9 23 -1.0275 2.0269
5 9 24 -0.0021 -0.2774
5 9 25 -0.9736 -0.4875
5 9 26 0.4345 -1.6033
5 9 27 -0.5040 0.1599
5 9 28 -0.0729 2.5836
5 11 0 -2.3308 -1.0459
5 11 1 0.2200 -2.2505
5 11 2 0.1274 -1.3149
5 11 3 1.8763 -0.8425
5 11 4 1.1232 -0.5413
5 11 5 2.4035 -2.1506
5 11 6 -0.0686 -1.1347
5 11 7 2.4832 2.8468
5 11 8 2.5784 0.6083
5 11 9 -0.2986 2.7151
5 11 10 -1.0119 0.4004
5 11 11 -1.4125 0.1075
5 11 12 -0.2653 0.7057
5 11 13 -1.3549 0.5843
5 11 14 -1.2115 -1.7847
5 11 15 -0.3817 -1.9433
5 11 16 1.3581 -0.3488
5 11 17 -0.3079 -1.5703
5 11 18 0.6356 -0.4961
5 11 19 2.3410 -0.4638
5 11 20 -0.1616 0.9534
5 11 21 0.3442 1.7843
5 11 22 -0.5300 -1.3460
5 11 23 -0.5466 -1.0412
5 13 0 0.4838 0.7149
5 13 1 -1.3225 -0.2404
5 13 2 0.7229 1.3624
5 13 3 -0.1567 0.2451
5 13 4 -0.9276 0.6847
5 13 5 -1.1503 0.1986
5 13 6 -0.7858 -0.3423
5 13 7 0.3134 -2.1890
5 13 8 0.6937 0.2526
5 13 9 1.9413 -0.1844
5 13 10 -0.9579 0.1014
5 13 11 0.5142 0.8807
5 13 12 0.2977 0.4584
5 13 13 0.7587 2.8736
5 13 14 -0.1680 0.1444
5 13 15 -2.7377 -0.5165
6 -14 -8 -0.2973 -1.1630
6 -14 -7 -0.5113 -0.3680
6 -14 -6 -0.1265 -0.5125
6 -14 -5 0.1552 0.3672
6 -14 -4 1.2143 -0.0723
6 -14 -3 -0.8850 -0.3055
6 -14 -2 -1.1109 1.0691
6 -14 -1 -0.7447 0.4073
6 -12 -10 -0.4266 -0.2344
6 -12 -9 0.8643 0.1198
6 -12 -8 0.4114 1.6752
6 -12 -7 0.5869 1.6171
6 -12 -6 -0.3668 -0.1624
6 -12 -5 -1.3049 -0.3848
6 -12 -4 -2.9409 0.2726
6 -12 -3 1.5575 -0.5848
6 -12 -2 0.0672 -1.4174
6 -12 -1 -0.3053 0.3869
6 -10 -12 -0.3863 -0.7371
6 -10 -11 -0.2241 0.2137
6 -10 -10 0.5293 0.7554
6 -10 -9 0.5825 -2.5515
6 -10 -8 -1.4550 0.4102
6 -10 -7 1.1740 -3.0541
6 -10 -6 0.5862 -1.5580
6 -10 -5 3.6703 0.7540
6 -10 -4 -0.7035 -0.4656
6 -10 -3 0.8923 1.7430
6 -10 -2 0.5524 -0.6576
6 -10 -1 1.1245 1.8963
6 -8 -15 0.7253 -0.0926
6 -8 -14 4.9668 0.1403
6 -8 -13 -0.4857 -0.4329
6 -8 -12 1.0334 3.3094
6 -8 -11 0.1915 1.9185
6 -8 -10 0.2636 0.5383
6 -8 -9 -2.8500 1.8979
6 -8 -8 -0.5280 -1.4675
6 -8 -7 -1.4188 -2.1792
6 -8 -6 2.8192 1.7473
6 -8 -5 -0.7046 -1.7954
6 -8 -4 2.8378 2.9597
6 -8 -3 2.2518 -3.0922
6 -8 -2 -1.9091 3.5782
6 -8 -1 2.1252 3.4544
6 -6 -17 2.7165 3.0734
6 -6 -16 -1.1773 0.4463
6 -6 -15 -3.0231 3.5258
6 -6 -14 -0.8899 -1.6633
6 -6 -13 2.7743 -1.7831
6 -6 -12 -0.0043 -1.6306
6 -6 -11 0.5774 5.5612
6 -6 -10 0.9472 0.0773
6 -6 -9 -2.9865 2.4406
6 -6 -8 3.2292 -1.5901
6 -6 -7 -3.8722 4.0198
6 -6 -6 -0.6464 1.6286
6 -6 -5 -4.8684 0.2305
6 -6 -4 1.4299 -0.6492
6 -6 -3 -0.8086 2.3913
6 -6 -2 1.4408 1.0779
6 -6 -1 -9.1191 1.9621
6 -4 -20 -3.2370 0.1322
6 -4 -8 -7.2883 -3.0724
6 -4 -7 -1.3091 -3.3642
6 -4 -6 -5.8186 -5.1188
6 -4 -5 4.7208 -4.8111
6 -4 -4 -1.9618 -12.4860
6 -4 -3 4.6878 -0.5389
6 -4 -2 8.3950 -6.1249
6 -4 -1 2.4233 2.8138
6 -2 -4 -2.2242 0.9960
6 -2 -3 -3.3927 -2.7950
6 -2 -2 5.5730 4.4036
6 -2 -1 1.7367 -5.2841
6 0 0 -9.9851 -4.6852
6 0 2 -1.0328 -7.2423
6 0 16 -6.1632 6.5678
6 0 20 1.0192 -5.1135
6 0 24 -0.6525 -3.6005
6 0 26 0.5440 1.1264
6 0 28 1.6128 -1.4289
6 0 30 0.4609 1.9835
6 0 32 -0.7279 -1.4732
6 0 34 1.8251 1.6947
6 2 0 0.3433 6.2502
6 2 1 -13.4326 6.3901
6 2 2 0.9629 -1.0431
6 2 3 -8.5085 -10.8358
6 2 4 3.3603 3.9301
6 2 5 0.6705 -11.7192
6 2 6 -2.0488 12.3084
6 2 7 5.0464 -6.5045
6 2 8 -9.9588 6.8214
6 2 11 0.9862 -3.3287
6 2 12 -1.2032 -9.9847
6 2 13 -12.0513 -10.1604
6 2 14 8.5904 -6.4406
6 2 15 10.8457 -10.3375
6 2 16 2.1675 13.0554
6 2 17 0.5803 4.1843
6 2 18 -10.8255 -8.0940
6 2 19 -0.4293 -3.8505
6 2 20 4.1741 -3.3578
6 2 21 1.3773 -4.0131
6 2 22 0.8978 -1.1409
6 2 23 1.0038 1.5118
6 2 24 0.0547 -0.7835
6 2 25 -0.3325 -2.4549
6 2 26 -0.4087 -2.6222
6 2 27 -0.9864 -2.2715
6 2 28 2.5158 -1.3917
6 2 29 2.9455 -0.7840
6 2 30 -0.3992 2.0712
6 2 31 -0.3463 1.5177
6 2 32 -0.5245 -1.7531
6 2 33 -1.1468 -0.5620
6 2 34 0.5434 0.1509
6 4 0 -0.2881 5.6775
6 4 1 -3.7582 -1.8913
6 4 2 -7.5140 -2.3578
6 4 3 -2.6981 -7.0733
6 4 4 -1.9606 -12.0104
6 4 5 9.0474 -2.2090
6 4 6 1.5487 -12.1966
6 4 7 4.0051 9.7038
6 4 8 14.7533 -9.1800
6 4 9 -5.2223 1.4665
6 4 10 15.6717 8.0295
6 4 11 -4.0879 1.2209
6 4 12 4.8198 6.2472
6 4 13 -7.3399 -0.8808
6 4 14 -6.3793 13.7170
6 4 15 4.7144 -13.5767
6 4 16 -5.1905 -3.0211
6 4 17 8.2609 5.5964
6 4 18 -1.6517 -3.0706
6 4 19 -0.2820 -0.7304
6 4 20 2.3612 -0.7514
6 4 21 4.7355 1.1914
6 4 22 2.4154 -0.9786
6 4 23 2.1815 1.9989
6 4 24 0.1471 4.2256
6 4 25 1.2573 1.6759
6 4 26 -1.7285 0.6483
6 4 27 1.1694 2.0532
6 4 28 -0.2993 0.2864
6 4 29 0.6473 -0.8972
6 4 30 -0.9021 -0.7536
6 4 31 1.8545 2.2790
6 4 32 0.5015 -0.5978
6 4 33 -0.3354 -1.3674
6 6 0 -0.1563 1.6877
6 6 1 10.0416 4.7355
6 6 2 1.3002 -0.1771
6 6 3 0.6498 9.3856
6 6 4 -0.8775 0.2919
6 6 5 -2.2776 2.7788
6 6 6 4.5182 3.7400
6 6 7 -4.8172 2.5441
6 6 8 -3.4937 2.9124
6 6 9 3.9912 -5.3722
6 6 10 -6.0566 -0.0193
6 6 11 1.4930 3.4687
6 6 12 0.2402 -4.8757
6 6 13 0.8913 3.2954
6 6 14 2.1726 -3.0350
6 6 15 -0.8451 4.6268
6 6 16 6.2832 -3.0490
6 6 17 -5.1180 4.9249
6 6 18 6.0742 5.0131
6 6 19 -9.5381 -2.2934
6 6 20 0.6233 5.8879
6 6 21 -4.1469 -5.5247
6 6 22 -1.6496 3.0826
6 6 23 0.7668 -6.0229
6 6 24 0.3573 3.6927
6 6 25 2.4253 0.0733
6 6 26 -3.3707 0.5197
6 6 27 0.1473 -0.4057
6 6 28 -1.6897 0.6744
6 6 29 -0.2200 0.5721
6 6 30 -0.6712 -1.1515
6 6 31 -1.8466 0.8178
6 8 0 -1.0565 -1.8156
6 8 1 -0.5316 0.3860
6 8 2 -0.1600 2.3786
6 8 3 -0.5280 -2.6162
6 8 4 -1.4914 0.3185
6 8 5 2.8729 -1.3663
6 8 6 0.1599 -1.6279
6 8 7 2.7623 1.1328
6 8 8 0.3652 -1.2542
6 8 9 0.1665 4.4837
6 8 10 2.7694 -0.7251
6 8 11 -3.8163 3.1937
6 8 12 1.7134 3.5874
6 8 13 -4.3763 -2.7108
6 8 14 -1.8176 1.9613
6 8 15 -0.6752 -6.1998
6 8 16 -1.9225 -0.7293
6 8 17 4.3731 -4.3523
6 8 18 -0.6498 0.0926
6 8 19 6.7013 1.7733
6 8 20 -2.3981 -1.0368
6 8 21 2.4643 3.5181
6 8 22 -0.1134 -2.5711
6 8 23 0.9991 1.9928
6 8 24 0.2614 -2.4301
6 8 25 -0.1048 0.8433
6 8 26 1.8651 -0.4054
6 8 27 -0.2036 2.5084
6 8 28 0.5289 0.0780
6 10 0 -0.3104 0.0485
6 10 1 2.5789 1.6812
6 10 2 2.5528 -0.6776
6 10 3 -2.3946 0.6607
6 10 4 -0.0053 2.2039
6 10 5 -1.5755 -0.8677
6 10 6 -2.9879 2.0532
6 10 7 -0.4014 -1.6279
6 10 8 -1.9522 -1.5785
6 10 9 0.2886 -3.6809
6 10 10 -0.6724 -1.8211
6 10 11 4.1554 0.3639
6 10 12 0.3609 -1.3192
6 10 13 3.1629 1.2233
6 10 14 1.0374 -1.1366
6 10 15 -0.1113 5.2140
6 10 16 1.0836 0.0330
6 10 17 -1.3504 1.8033
6 10 18 0.6034 2.2668
6 10 19 -2.5085 0.4883
6 10 20 -0.0422 -0.1431
6 10 21 -0.7493 0.2820
6 10 22 -0.3488 0.0942
6 10 23 -1.6364 0.2177
6 10 24 0.2408 1.3403
6 12 0 -0.0647 -2.6217
6 12 1 -0.5269 -1.4999
6 12 2 2.1804 -0.6003
6 12 3 1.2081 -0.1617
6 12 4 1.3382 0.8444
6 12 5 0.1448 -0.3270
6 12 6 2.2268 -0.1234
6 12 7 0.7518 0.6764
6 12 8 -0.2955 2.8993
6 12 9 -0.5453 -0.3362
6 12 10 -1.2377 1.1074
6 12 11 0.9186 0.7604
6 12 12 -0.2799 -1.0115
6 12 13 -1.2123 -0.6457
6 12 14 -0.0396 0.6562
6 12 15 -0.5228 -1.3372
6 12 16 0.6154 0.3836
6 12 17 1.3847 -0.2549
6 12 18 -1.3849 0.7216
6 14 0 0.2134 -0.5397
6 14 1 -0.1287 0.6082
6 14 2 -0.5642 -0.1057
6 14 3 0.8361 0.8392
6 14 4 -0.0729 0.1531
6 14 5 -0.3794 0.8090
6 14 6 -0.8618 -0.0100
7 -13 -8 -0.2008 0.6462
7 -13 -7 -0.7973 -2.2101
7 -13 -6 -1.1480 -0.5515
7 -13 -5 1.2771 -0.0488
7 -13 -4 1.1615 -0.1282
7 -13 -3 1.3184 0.5413
7 -13 -2 -1.5847 -0.7688
7 -13 -1 -0.9283 1.1756
7 -11 -11 -0.0619 -0.4106
7 -11 -10 1.2384 0.5732
7 -11 -9 -1.6845 -0.1230
7 -11 -8 -1.0830 0.4487
7 -11 -7 2.0875 -0.2932
7 -11 -6 -0.1397 1.5376
7 -11 -5 -0.9004 1.7535
7 -11 -4 -2.0293 0.1943
7 -11 -3 -1.9728 -1.4663
7 -11 -2 1.0467 -1.4292
7 -11 -1 1.4215 0.2832
7 -9 -14 -0.9091 -1.2037
7 -9 -13 -1.1499 -0.4459
7 -9 -12 1.3579 -0.5187
7 -9 -11 -0.0196 -2.6692
7 -9 -10 0.5859 -0.3215
7 -9 -9 -0.6016 -0.5827
7 -9 -8 1.9925 -0.5237
7 -9 -7 0.3136 0.8364
7 -9 -6 2.6178 -1.1119
7 -9 -5 -1.1450 -1.2660
7 -9 -4 1.5021 3.2207
7 -9 -3 -0.9804 -2.8577
7 -9 -2 -2.0628 2.6485
7 -9 -1 1.1241 -2.5643
7 -7 -16 0.1698 -1.4847
7 -7 -15 0.6725 0.1136
7 -7 -14 1.8771 -1.8796
7 -7 -13 2.6047 0.1843
7 -7 -12 0.5730 0.1187
7 -7 -11 0.1882 6.2349
7 -7 -10 1.1505 -0.7194
7 -7 -9 -2.6139 -1.0002
7 -7 -8 0.3787 1.0551
7 -7 -7 -0.7956 -1.3494
7 -7 -6 1.9639 -1.1828
7 -7 -5 0.7665 1.3395
7 -7 -4 2.3797 0.5429
7 -7 -3 -0.9911 1.3036
7 -7 -2 -0.0633 0.7789
7 -7 -1 -1.9075 1.4174
7 -5 -18 -0.0256 -1.8783
7 -5 -17 0.2397 0.7230
7 -5 -16 0.9334 2.6579
7 -5 -15 2.0458 0.4344
7 -5 -14 -3.0684 1.9522
7 -5 -13 3.3097 -0.9850
7 -5 -12 -0.5282 -0.1846
7 -5 -11 2.0453 4.3170
7 -5 -10 -2.1375 0.6108
7 -5 -9 0.4601 1.7573
7 -5 -8 -1.3855 -1.7457
7 -5 -7 3.3358 1.7101
7 -5 -6 -1.1492 1.9566
7 -5 -5 0.8532 4.2084
7 -5 -4 -4.1628 -0.7548
7 -5 -3 -0.7011 5.5822
7 -5 -2 -1.2274 1.1992
7 -5 -1 -6.4536 1.9002
7 -3 -5 2.0538 -9.9297
7 -3 -4 1.3380 -7.6716
7 -3 -3 6.6853 -4.7848
7 -3 -2 5.0131 -1.1152
7 -3 -1 3.5116 0.5474
7 -1 -3 2.8718 -2.7173
7 -1 -2 -1.0240 -1.0107
7 -1 -1 7.5586 3.3984
7 1 0 0.9167 2.8756
7 1 1 -0.9963 -7.1783
7 1 2 2.2854 1.8557
7 1 3 -3.2034 -4.6795
7 1 4 -0.0647 2.5063
7 1 5 1.7442 -0.9297
7 1 6 -2.0699 5.5209
7 1 7 1.9899 -2.0819
7 1 16 -2.2948 5.5046
7 1 17 2.2155 -1.3185
7 1 18 -5.0363 -4.6992
7 1 19 6.1491 6.5931
7 1 20 3.5618 -0.2021
7 1 21 -2.8986 0.9603
7 1 22 -0.9865 3.9988
7 1 23 1.3399 1.8191
7 1 24 -3.3855 -2.0433
7 1 25 -0.8176 -0.2057
7 1 26 0.8283 -1.3292
7 1 27 1.3837 1.5242
7 1 28 1.1247 1.3763
7 1 29 0.6428 0.2047
7 1 30 -1.9480 0.4015
7 1 31 1.6895 0.8310
7 1 32 -0.2620 -1.5438
7 1 33 -0.0653 0.5285
7 3 0 -1.1695 1.2538
7 3 1 -0.8043 0.3375
7 3 2 -0.8317 -4.8813
7 3 3 3.3854 -1.5642
7 3 4 3.0847 1.6381
7 3 5 1.0940 6.7513
7 3 6 0.6052 -0.9538
7 3 7 -5.5212 8.5764
7 3 8 0.7621 -7.9205
7 3 9 -9.4685 1.0843
7 3 10 1.8356 3.9243
7 3 11 -11.6757 -8.5573
7 3 12 4.6855 -2.4805
7 3 13 0.2144 -8.7648
7 3 14 2.8235 3.3662
7 3 15 7.1576 -9.9976
7 3 16 -2.5909 5.6716
7 3 17 4.0287 7.6539
7 3 18 -6.9136 -2.4530
7 3 19 -4.3082 -5.4848
7 3 20 1.5534 -1.8404
7 3 21 3.6415 -1.9926
7 3 22 -3.2279 -1.9713
7 3 23 1.0849 0.1782
7 3 24 0.0101 0.0196
7 3 25 -0.4515 -0.6647
7 3 26 -1.1552 -2.5650
7 3 27 1.6398 -2.3593
7 3 28 0.2720 -1.5422
7 3 29 1.6983 -0.0038
7 3 30 0.9003 0.1703
7 3 31 0.1801 0.5853
7 3 32 -0.3576 -0.3226
7 5 0 -6.6389 -2.8966
7 5 1 0.0646 2.5758
7 5 2 -2.9432 -7.0581
7 5 3 -2.7821 1.2385
7 5 4 5.2235 -7.1714
7 5 5 1.0696 -4.4854
7 5 6 5.4561 3.4186
7 5 7 -0.6129 -3.8593
7 5 8 0.2034 2.5548
7 5 9 5.4849 -2.9900
7 5 10 -3.7064 2.0914
7 5 11 8.0515 6.6665
7 5 12 -2.4183 -5.2081
7 5 13 -2.3764 4.3945
7 5 14 3.1165 -0.8199
7 5 15 -4.5057 3.4248
7 5 16 -0.0510 -5.1613
7 5 17 -3.0956 1.3989
7 5 18 6.6421 -2.1186
7 5 19 -7.3784 -3.8857
7 5 20 6.3585 1.8032
7 5 21 2.4571 -4.8568
7 5 22 3.4933 3.2302
7 5 23 2.1070 -1.2204
7 5 24 1.9057 4.6732
7 5 25 0.4211 -0.3666
7 5 26 -0.8394 0.3892
7 5 27 0.3323 0.1570
7 5 28 1.0604 1.5144
7 5 29 0.9855 0.2610
7 5 30 -0.8223 -0.1226
7 5 31 -0.1476 1.2148
7 7 0 2.7347 0.3126
7 7 1 1.2283 5.6062
7 7 2 3.3767 3.6929
7 7 3 -2.1218 -1.4606
7 7 4 -1.9753 4.7158
7 7 5 0.5703 -0.2025
7 7 6 -4.4122 0.9997
7 7 7 1.5065 3.2505
7 7 8 -5.4557 -1.4889
7 7 9 -3.8567 2.1853
7 7 10 3.2530 -6.8035
7 7 11 -3.7795 -0.3275
7 7 12 4.3804 -0.2405
7 7 13 -2.3352 -4.2740
7 7 14 3.0991 4.6487
7 7 15 1.5767 -4.0799
7 7 16 -2.6872 5.6886
7 7 17 5.7842 -0.0545
7 7 18 -4.7278 3.2582
7 7 19 0.8727 2.5930
7 7 20 -6.8161 -2.2408
7 7 21 1.8355 1.8649
7 7 22 -1.7137 -3.7333
7 7 23 -1.1129 2.0997
7 7 24 -1.7322 -2.4068
7 7 25 0.5051 2.6583
7 7 26 -0.3070 -1.2996
7 7 27 -1.8398 0.0967
7 7 28 0.8545 -1.2568
7 9 0 -0.3815 -1.3514
7 9 1 -1.0539 0.6482
7 9 2 -0.7497 -0.4712
7 9 3 -4.2912 0.0325
7 9 4 0.8883 -0.5255
7 9 5 -0.6184 -2.1569
7 9 6 1.4065 0.5967
7 9 7 0.3628 -2.7489
7 9 8 -0.5796 1.3097
7 9 9 2.9652 -1.8330
7 9 10 -0.8170 2.8421
7 9 11 1.8411 0.6187
7 9 12 -5.1536 -1.0488
7 9 13 2.3807 0.6142
7 9 14 -2.4508 -2.4766
7 9 15 -0.4739 3.1988
7 9 16 0.2609 -7.1476
7 9 17 -0.5845 -0.1252
7 9 18 4.0380 -2.7460
7 9 19 -0.2207 -0.1740
7 9 20 3.7913 -0.8049
7 9 21 -0.7518 0.4011
7 9 22 2.1255 1.7196
7 9 23 -0.1447 -0.2975
7 9 24 2.5362 0.1056
7 9 25 -0.8181 -0.2180
7 11 0 -1.5714 0.5701
7 11 1 -0.4787 0.5290
7 11 2 0.2768 -0.0985
7 11 3 0.5154 -0.4533
7 11 4 -1.1403 -0.0349
7 11 5 -0.4821 -0.2203
7 11 6 -1.6233 -0.9206
7 11 7 -1.8308 -0.0289
7 11 8 1.1275 -2.5848
7 11 9 1.1607 -2.1406
7 11 10 1.7340 -1.2883
7 11 11 0.5698 0.1421
7 11 12 3.0544 -0.2032
7 11 13 -0.6975 0.0542
7 11 14 2.9177 3.4814
7 11 15 1.3455 -1.5299
7 11 16 -1.2498 3.7860
7 11 17 0.4880 -0.5046
7 11 18 -1.4444 1.6034
7 11 19 1.1677 0.8724
7 11 20 -2.3442 -0.0634
7 13 0 0.3989 -0.5534
7 13 1 0.9686 -0.8229
7 13 2 0.6716 -0.9225
7 13 3 1.4536 0.5532
7 13 4 0.6666 -0.7329
7 13 5 0.4480 0.4889
7 13 6 1.0727 -0.1370
7 13 7 2.6044 1.0640
7 13 8 1.3092 -0.1821
7 13 9 -1.3172 0.9682
7 13 10 0.4042 -0.6864
7 13 11 1.2269 1.0976
8 -12 -9 0.1959 -0.7518
8 -12 -8 1.2711 -0.3096
8 -12 -7 -0.0143 -0.3024
8 -12 -6 -1.8467 -1.2157
8 -12 -5 0.5226 0.3668
8 -12 -4 1.0227 -0.5126
8 -12 -3 -0.4848 -0.7295
8 -12 -2 0.5894 0.8490
8 -12 -1 0.5912 -1.3680
8 -10 -12 -0.5765 -0.1489
8 -10 -11 -0.3092 -1.1556
8 -10 -10 0.4011 1.0022
8 -10 -9 1.3848 0.7982
8 -10 -8 -0.8670 0.2226
8 -10 -7 -1.2073 -1.5525
8 -10 -6 1.8860 -0.0708
8 -10 -5 -1.2246 1.6295
8 -10 -4 -0.4562 2.0554
8 -10 -3 -0.6495 -2.2309
8 -10 -2 -0.9442 -0.5237
8 -10 -1 2.5937 -0.8697
8 -8 -15 -0.9953 0.4445
8 -8 -14 -1.2134 0.5300
8 -8 -13 -1.0352 -0.2067
8 -8 -12 -0.4851 -1.0498
8 -8 -11 0.2391 -0.5811
8 -8 -10 1.1407 -4.0416
8 -8 -9 -0.3084 -0.4175
8 -8 -8 0.8935 -0.1123
8 -8 -7 2.5654 0.8094
8 -8 -6 0.4035 0.4474
8 -8 -5 -1.2471 0.7678
8 -8 -4 1.0039 0.2531
8 -8 -3 0.1972 -0.2086
8 -8 -2 -0.4443 -0.6817
8 -8 -1 -0.7717 2.3044
8 -6 -17 -0.5762 1.0595
8 -6 -16 1.1578 -1.3690
8 -6 -15 0.4448 -1.0633
8 -6 -14 -2.3942 -0.3934
8 -6 -13 2.4318 -1.6714
8 -6 -12 0.3188 -1.5457
8 -6 -11 3.3034 1.7322
8 -6 -10 -1.9736 0.6675
8 -6 -9 -0.0014 1.7913
8 -6 -8 0.7280 -2.2689
8 -6 -7 -0.0606 3.3343
8 -6 -6 -1.0558 -1.6227
8 -6 -5 -0.4794 0.5535
8 -6 -4 0.9278 -1.3371
8 -6 -3 0.1067 0.1000
8 -6 -2 -1.6202 -1.1173
8 -6 -1 0.4051 0.7057
8 -4 -6 2.2257 6.0224
8 -4 -5 1.2109 0.4712
8 -4 -4 -5.1747 3.7653
8 -4 -3 -1.8476 5.3812
8 -4 -2 -4.3503 0.6695
8 -4 -1 -3.5917 -0.1242
8 -2 -4 -0.1711 -3.4445
8 -2 -3 6.1055 -2.6972
8 -2 -2 2.4276 -1.9321
8 -2 -1 0.7362 1.0120
8 0 0 6.8231 5.2620
8 0 2 -2.8829 8.3794
8 0 4 1.8416 2.9833
8 0 6 4.0206 6.2694
8 0 22 1.2067 2.6390
8 0 24 -6.7662 -1.9099
8 0 28 0.3475 -0.6329
8 0 30 -2.3530 0.0774
8 0 32 -1.7411 -2.5370
8 2 0 -1.4524 3.1904
8 2 1 -4.3521 4.6261
8 2 2 -0.5386 -4.6020
8 2 3 -3.0775 2.9386
8 2 4 -1.3237 0.2968
8 2 5 -3.6563 -2.1783
8 2 6 0.0048 -2.5812
8 2 7 -3.8804 -0.9067
8 2 8 1.6536 -1.6298
8 2 9 -2.3079 4.3694
8 2 10 2.6132 -1.2567
8 2 11 -4.0010 -2.4711
8 2 12 5.8242 1.7437
8 2 13 -2.9919 -2.2489
8 2 14 -2.7317 8.4529
8 2 15 -2.5875 -2.5111
8 2 16 -3.5317 -1.4167
8 2 17 1.5479 -3.0223
8 2 18 -1.1022 -3.1278
8 2 19 1.9277 -1.5572
8 2 20 4.2003 2.3324
8 2 21 1.8302 0.7445
8 2 22 -2.0415 2.1332
8 2 23 1.8699 4.4956
8 2 24 -0.7428 -0.4833
8 2 25 -3.7961 0.1221
8 2 26 1.8600 -1.7161
8 2 27 -0.3706 -0.6664
8 2 28 0.9807 2.9168
8 2 29 -0.4801 0.3756
8 2 30 -1.1245 0.2946
8 2 31 -1.5418 -0.5896
8 4 0 -5.7245 -4.1809
8 4 1 2.5932 3.1724
8 4 2 2.6231 -3.2933
8 4 3 -0.9751 1.3042
8 4 4 4.2947 -2.1957
8 4 5 -5.0809 2.2943
8 4 6 -1.7877 4.0818
8 4 7 -1.3599 -4.9598
8 4 8 -1.9083 1.3404
8 4 9 2.4895 -6.0878
8 4 10 -2.3740 -1.2181
8 4 11 3.1792 2.7945
8 4 12 -4.4035 -8.1089
8 4 13 0.7527 -0.9547
8 4 14 6.5329 -2.3447
8 4 15 0.4451 0.6668
8 4 16 2.2579 -1.1051
8 4 17 1.6697 2.6089
8 4 18 2.2578 0.1210
8 4 19 -4.8352 2.8126
8 4 20 4.0844 1.2580
8 4 21 -3.3288 -2.4819
8 4 22 -0.9250 2.4575
8 4 23 -1.2482 -2.4116
8 4 24 -0.3985 0.5774
8 4 25 -1.8947 -1.3190
8 4 26 -1.5990 -0.2142
8 4 27 -0.0285 -2.9778
8 4 28 1.0800 0.5461
8 4 29 1.1823 -1.0034
8 4 30 -1.0817 -0.8639
8 6 0 3.4057 -2.2342
8 6 1 -0.2953 -2.3589
8 6 2 1.5842 -1.5906
8 6 3 0.0056 -4.2543
8 6 4 0.8974 3.2252
8 6 5 6.0754 -2.6292
8 6 6 -1.3192 -1.6367
8 6 7 6.3151 4.7331
8 6 8 0.8752 -4.6163
8 6 9 0.6895 5.4368
8 6 10 6.3795 -0.8106
8 6 11 -4.2975 3.5383
8 6 12 3.2534 4.7082
8 6 13 -4.1944 0.1278
8 6 14 1.0896 4.0877
8 6 15 -1.7274 -4.2276
8 6 16 -4.9864 4.2813
8 6 17 3.6112 -3.0955
8 6 18 -3.7260 -3.1368
8 6 19 0.9416 -0.7044
8 6 20 -0.7051 -2.6219
8 6 21 5.4451 -0.6527
8 6 22 -0.2288 -2.0797
8 6 23 0.2894 1.9431
8 6 24 3.0311 -1.3343
8 6 25 3.1273 1.6145
8 6 26 0.4467 -0.3901
8 6 27 0.5711 1.0924
8 6 28 0.6812 0.4327
8 8 0 1.2867 -3.2283
8 8 1 1.3807 0.9725
8 8 2 1.7209 4.3485
8 8 3 2.0217 0.9357
8 8 4 -0.2975 -0.5606
8 8 5 -0.3319 3.1728
8 8 6 0.6517 3.0603
8 8 7 -3.5826 -0.5360
8 8 8 -2.1333 1.5004
8 8 9 -0.1753 -1.4138
8 8 10 -2.9653 1.8374
8 8 11 1.2128 -2.5446
8 8 12 -4.0830 -0.6164
8 8 13 4.4076 1.1608
8 8 14 -2.4271 -2.8736
8 8 15 1.5082 2.7886
8 8 16 -0.4375 -3.7097
8 8 17 -0.4556 5.3886
8 8 18 2.5254 -1.6942
8 8 19 -5.1017 2.8381
8 8 20 0.6601 0.1725
8 8 21 -2.6531 -0.1417
8 8 22 1.5541 -0.2370
8 8 23 -2.3646 -1.2535
8 8 24 0.0286 -0.0030
8 8 25 -1.3958 -1.2197
8 10 0 0.4382 2.4762
8 10 1 0.9710 -1.4063
8 10 2 -0.5801 0.1415
8 10 3 -0.1547 0.2158
8 10 4 -2.4459 0.3466
8 10 5 0.2894 0.7041
8 10 6 -1.3023 -0.8747
8 10 7 0.5534 -0.2608
8 10 8 0.9204 -1.9232
8 10 9 -0.8431 1.4515
8 10 10 -0.3546 -0.2659
8 10 11 -1.5031 1.5539
8 10 12 1.4308 -0.4575
8 10 13 -4.1913 -1.6725
8 10 14 1.1672 -0.4119
8 10 15 -1.3560 -3.1675
8 10 16 -0.8226 1.0501
8 10 17 1.2894 -4.8857
8 10 18 1.1113 0.1197
8 10 19 3.0429 -0.8932
8 10 20 -0.3521 0.0566
8 10 21 1.5108 -0.4502
8 12 0 -0.7293 0.1160
8 12 1 -0.7434 -0.7267
8 12 2 -1.6614 -0.1543
8 12 3 -0.5870 1.1778
8 12 4 0.3333 0.0074
8 12 5 -1.4413 -0.6633
8 12 6 -1.9969 -1.1898
8 12 7 -1.1973 -0.9910
8 12 8 -0.6809 -2.4307
8 12 9 -0.3760 -1.2124
8 12 10 1.8854 -0.2018
8 12 11 1.5035 -1.0918
8 12 12 -0.5298 -1.1898
8 12 13 0.6723 -0.6419
9 -13 -8 -0.9812 0.5987
9 -13 -7 -1.4298 1.3214
9 -13 -6 0.0189 0.2190
9 -13 -5 0.5563 0.3599
9 -13 -4 0.4044 -0.5568
9 -13 -3 -0.9883 -0.1041
9 -13 -2 0.0773 0.3450
9 -13 -1 1.4168 -0.6618
9 -11 -10 -0.2382 0.7719
9 -11 -9 -0.4181 1.0362
9 -11 -8 -1.3420 -0.9301
9 -11 -7 -0.2324 -0.4730
9 -11 -6 -0.1106 0.1358
9 -11 -5 -0.5961 -0.8749
9 -11 -4 1.0748 -0.1667
9 -11 -3 -1.1402 -1.0220
9 -11 -2 -0.6359 0.1740
9 -11 -1 1.7945 -0.3695
9 -9 -13 -1.0890 -1.4154
9 -9 -12 0.9228 -2.4716
9 -9 -11 1.1940 0.3702
9 -9 -10 -0.0942 1.1623
9 -9 -9 -0.8914 1.0785
9 -9 -8 0.6137 -0.0657
9 -9 -7 -0.1749 1.5144
9 -9 -6 -1.1636 -2.9670
9 -9 -5 -0.8853 0.7538
9 -9 -4 1.5247 0.3497
9 -9 -3 -1.0088 -1.4202
9 -9 -2 -0.6648 -0.1991
9 -9 -1 0.2627 -0.3213
9 -7 -16 -0.0607 0.2331
9 -7 -15 0.4091 -0.0495
9 -7 -14 -1.7229 0.6831
9 -7 -13 0.3116 0.0963
9 -7 -12 -0.5547 -1.9891
9 -7 -11 0.3133 1.4417
9 -7 -10 -0.9465 -0.7607
9 -7 -9 1.7106 -1.2190
9 -7 -8 1.5597 -1.4187
9 -7 -7 0.2748 0.4090
9 -7 -6 1.5344 -0.5826
9 -7 -5 -0.4437 0.9042
9 -7 -4 1.7100 1.0363
9 -7 -3 1.6911 1.6309
9 -7 -2 -1.2667 0.8925
9 -7 -1 -0.5116 3.1113
9 -5 -14 -1.5036 0.9768
9 -5 -13 0.8146 -0.8724
9 -5 -12 1.8961 -0.9015
9 -5 -11 1.7503 -0.7792
9 -5 -10 1.5217 2.5497
9 -5 -8 -2.3616 3.0551
9 -5 -7 1.5096 -1.8658
9 -5 -6 -4.7557 1.8361
9 -5 -5 1.1028 -2.7476
9 -5 -4 -3.0411 -2.2425
9 -5 -3 4.2129 0.0948
9 -5 -2 0.6302 -4.0412
9 -5 -1 0.6041 1.1856
9 -3 -5 2.1252 1.1760
9 -3 -4 -6.0633 -0.2478
9 -3 -3 -3.1248 2.2260
9 -3 -2 -2.8246 3.3832
9 -3 -1 -2.5202 -3.0380
9 -1 -2 6.3085 1.4355
9 -1 -1 -6.8582 -7.8390
9 1 0 -1.4230 4.5963
9 1 1 -0.4189 4.7938
9 1 2 1.2596 -3.5778
9 1 3 -4.7401 4.2958
9 1 4 5.1511 -2.2241
9 1 5 -2.0913 -0.9745
9 1 6 4.0237 4.9550
9 1 7 1.1657 1.5547
9 1 8 -1.4422 4.3931
9 1 9 -2.7405 -0.5361
9 1 10 -0.1537 -2.8853
9 1 14 1.3191 3.1724
9 1 16 -0.2028 0.1415
9 1 18 -0.4098 2.4918
9 1 19 -1.1629 1.1273
9 1 20 -2.2530 -0.1074
9 1 21 -1.6081 -0.2994
9 1 22 -0.7190 0.0494
9 1 23 -1.3684 1.2165
9 1 24 -2.2463 -4.1132
9 1 25 -4.6097 -1.3149
9 1 26 4.4745 -2.1033
9 1 27 -0.6026 -2.6135
9 1 28 1.7387 2.4803
9 1 29 0.5812 -1.3371
9 1 30 -0.4438 0.9303
9 3 0 -2.1334 -1.9458
9 3 1 -0.1432 5.7143
9 3 2 -3.9189 -0.1182
9 3 3 -4.7217 -1.4325
9 3 4 -1.2008 0.3802
9 3 5 -1.1344 1.3976
9 3 6 0.5384 -2.1529
9 3 7 1.5799 -1.0960
9 3 8 -0.2812 0.4375
9 3 9 0.1980 2.3873
9 3 10 -2.0522 3.5090
9 3 11 -2.0551 2.9565
9 3 12 -0.2487 -3.1806
9 3 13 -1.5772 2.0314
9 3 14 0.6640 4.7019
9 3 15 -5.1248 2.4397
9 3 16 -5.1094 0.1433
9 3 17 -3.7052 -4.0578
9 3 18 -1.7283 -2.5657
9 3 19 0.1736 -1.5105
9 3 20 2.8619 -4.3124
9 3 21 -1.3325 -1.9466
9 3 22 4.1269 3.0998
9 3 23 1.2726 -1.4107
9 3 24 -1.1121 4.6016
9 3 25 -0.8945 -0.4624
9 3 26 -0.8321 0.1136
9 3 27 3.1588 -1.9303
9 3 28 -1.2317 2.6358
9 3 29 0.4619 0.3207
9 5 0 1.3144 -0.3538
9 5 1 -3.5246 -3.1374
9 5 2 0.7501 2.5099
9 5 3 1.8631 0.3859
9 5 4 -3.0682 3.0621
9 5 5 0.8962 -3.9054
9 5 6 -6.6089 -2.2642
9 5 7 1.6966 3.4552
9 5 8 -1.2942 -6.1879
9 5 9 -4.2798 1.8716
9 5 10 0.3166 -5.0476
9 5 11 -1.7954 -2.5399
9 5 12 4.0013 -1.3667
9 5 13 -0.4367 -4.5163
9 5 14 1.9893 -1.5350
9 5 15 3.1516 -1.0057
9 5 16 1.2416 1.0118
9 5 17 3.3923 0.1296
9 5 18 0.0173 -0.3057
9 5 19 -0.3077 3.9034
9 5 20 2.1228 0.9358
9 5 21 -0.5874 1.0715
9 5 22 -3.4060 2.5739
9 5 23 -0.6332 1.3371
9 5 24 0.0572 -1.4110
9 5 25 -2.0527 0.4021
9 5 26 -3.0591 0.1372
9 5 27 -1.6218 -1.1664
9 5 28 -0.7166 -2.4852
9 7 0 0.4128 0.2635
9 7 1 3.8294 1.1694
9 7 2 -0.1604 1.0620
9 7 3 0.9026 -0.7461
9 7 4 -2.3544 -3.1581
9 7 5 0.0081 2.9155
9 7 6 3.0557 -0.9113
9 7 7 -1.2610 -3.9789
9 7 8 2.1242 1.4011
9 7 9 3.7036 -0.0795
9 7 10 0.8637 3.1990
9 7 11 2.5610 -0.6342
9 7 12 -3.7435 1.4790
9 7 13 2.8143 2.9442
9 7 14 -2.0524 -2.1001
9 7 15 -0.0783 2.2500
9 7 16 -1.9574 -1.1952
9 7 17 -0.3588 2.3719
9 7 18 0.9546 -5.3350
9 7 19 -3.0181 0.8291
9 7 20 4.2844 0.0791
9 7 21 -0.2813 -2.9293
9 7 22 1.0308 0.0292
9 7 23 -0.4929 0.2854
9 7 24 0.9782 -0.4090
9 7 25 1.9243 -0.8718
9 9 0 2.1968 -2.2176
9 9 1 0.3891 -2.1199
9 9 2 1.0318 1.9029
9 9 3 0.6221 1.4581
9 9 4 0.8071 0.7587
9 9 5 0.2498 0.6354
9 9 6 -0.3960 1.3198
9 9 7 -0.1507 0.1113
9 9 8 -1.8610 -0.3820
9 9 9 -0.1588 1.4025
9 9 10 1.1983 -0.5225
9 9 11 -1.0920 0.6131
9 9 12 -0.4100 -0.9562
9 9 13 -1.4723 -0.5082
9 9 14 2.9480 0.4092
9 9 15 -1.0732 0.1199
9 9 16 1.5941 2.2211
9 9 17 -0.3645 -0.9415
9 9 18 -0.8010 2.8984
9 9 19 -0.9504 -0.6689
9 9 20 -2.0294 0.9897
9 9 21 0.0280 -1.4754
9 11 0 -0.1346 -0.2704
9 11 1 -0.1047 -0.5042
9 11 2 0.2287 -0.5560
9 11 3 1.9324 0.6834
9 11 4 0.7834 -0.1849
9 11 5 -1.9241 -0.6925
9 11 6 -0.3971 0.4612
9 11 7 1.9779 0.7015
9 11 8 1.9883 0.0232
9 11 9 0.2253 1.1528
9 11 10 -0.5690 1.9440
9 11 11 -1.8719 -0.3312
9 11 12 -1.0953 0.4347
9 11 13 0.8866 0.7344
9 11 14 -2.5441 -0.0862
9 11 15 -0.7915 -1.2487
9 13 0 -0.4368 1.6454
9 13 1 -0.1266 -1.8852
9 13 2 -1.0916 -1.1277
10 -12 -8 -0.0721 0.8554
10 -12 -7 -1.4285 -0.0040
10 -12 -6 -0.5738 0.2010
10 -12 -5 1.1439 0.0868
10 -12 -4 0.1331 0.6792
10 -12 -3 -1.1073 -0.0423
10 -12 -2 0.4189 0.2705
10 -12 -1 1.4331 -0.5928
10 -10 -12 0.3792 2.4207
10 -10 -11 -0.3548 1.7180
10 -10 -10 -2.2028 -1.6448
10 -10 -9 -0.0099 0.6804
10 -10 -8 0.1786 0.4958
10 -10 -7 -1.7358 -0.5818
10 -10 -6 -0.5131 -1.3295
10 -10 -5 -0.0284 0.8279
10 -10 -4 1.6512 -0.6087
10 -10 -3 -0.0040 -0.2389
10 -10 -2 -1.2551 1.0982
10 -10 -1 0.2756 0.3882
10 -8 -14 0.1265 0.7235
10 -8 -13 0.0199 -0.8186
10 -8 -12 -1.0159 -0.3685
10 -8 -11 1.6378 0.3996
10 -8 -10 0.8556 0.2691
10 -8 -8 -2.1511 -1.1726
10 -8 -7 -0.3581 0.1168
10 -8 -6 -0.0921 1.6619
10 -8 -5 -1.7001 -2.7999
10 -8 -4 -0.8133 0.0510
10 -8 -3 1.5386 -1.3607
10 -8 -2 -2.3682 -2.7985
10 -8 -1 0.5301 0.4650
10 -6 -17 0.2446 -0.9538
10 -6 -16 -1.1020 0.8006
10 -6 -15 -0.2374 -0.2013
10 -6 -14 0.9432 1.7639
10 -6 -13 1.0469 -0.6913
10 -6 -12 -2.1301 -0.8954
10 -6 -11 0.5995 -0.6949
10 -6 -9 -1.4786 -0.7354
10 -6 -8 0.1217 -0.4790
10 -6 -7 3.3655 -1.6786
10 -6 -6 -0.1632 -0.0686
10 -6 -5 3.2735 0.3639
10 -6 -4 -0.5508 0.8390
10 -6 -3 2.7503 3.2109
10 -6 -2 -1.8917 2.3346
10 -6 -1 -2.9166 2.5337
10 -4 -5 -1.6370 -1.7695
10 -4 -4 0.9101 -1.6697
10 -4 -3 -0.2926 -1.0469
10 -4 -2 4.7626 2.2255
10 -4 -1 2.2259 -4.9779
10 -2 -3 -6.6101 -2.6360
10 -2 -2 1.7719 0.4012
10 -2 -1 -2.6020 -2.3570
10 0 2 6.3482 -6.7840
10 0 4 10.4946 -0.1596
10 0 6 2.7244 8.4126
10 0 8 -2.9252 2.0486
10 0 10 -0.3148 0.8014
10 0 22 1.5592 -1.6812
10 0 24 1.7487 -0.4234
10 0 26 4.0810 1.6347
10 0 28 -0.3202 4.4688
10 2 0 1.2795 2.9512
10 2 1 -3.2158 3.1336
10 2 2 -1.4567 -0.2446
10 2 3 2.1746 -2.9907
10 2 4 0.3035 1.8293
10 2 5 5.5942 -0.8141
10 2 6 -1.8761 -1.5624
10 2 7 1.7911 6.5041
10 2 8 -1.6775 -1.5683
10 2 9 -2.5777 3.5182
10 2 10 0.5028 -4.3544
10 2 11 -1.9222 -0.9941
10 2 12 3.8925 -2.8713
10 2 13 -1.7978 0.4398
10 2 14 2.8038 1.1053
10 2 15 -0.5853 -3.3401
10 2 16 2.8351 -2.3269
10 2 17 3.2363 -0.8506
10 2 18 3.1682 3.6044
10 2 19 0.8839 2.6115
10 2 20 0.5423 1.2750
10 2 21 -3.8546 1.8203
10 2 22 0.6061 3.9266
10 2 23 -2.9916 -3.2026
10 2 25 1.7114 -5.1564
10 2 26 -0.6145 -1.5088
10 2 27 3.0134 -0.9176
10 2 28 -1.3842 0.6033
10 4 0 -2.8521 4.6703
10 4 1 -1.3582 -1.1968
10 4 2 1.2173 2.0531
10 4 3 -2.1440 1.0197
10 4 4 -5.0975 -0.7270
10 4 5 -0.1034 -3.4180
10 4 6 0.5473 -0.1886
10 4 7 3.1648 1.6110
10 4 8 1.0410 0.2020
10 4 9 -1.1679 1.1908
10 4 10 0.0915 1.7604
10 4 11 2.3980 2.3121
10 4 12 -0.5538 1.0050
10 4 13 -2.1394 0.7494
10 4 14 -2.6385 3.6130
10 4 15 1.1563 3.0707
10 4 16 -5.0476 -2.2728
10 4 17 -3.7548 2.0062
10 4 18 -1.1419 -3.5241
10 4 19 -2.0538 -1.0179
10 4 20 1.7741 -2.9984
10 4 21 -0.5840 -1.8629
10 4 22 1.6025 0.2105
10 4 23 2.7940 -1.6300
10 4 24 -0.7710 -2.1186
10 4 25 0.5480 3.0275
10 4 26 1.6210 -0.4250
10 4 27 0.4088 0.1770
10 6 0 -2.1492 -0.5596
10 6 1 1.0533 -0.5256
10 6 2 -3.4092 -2.9982
10 6 3 0.1603 0.9782
10 6 4 1.1672 -2.3633
10 6 5 -0.7066 1.7202
10 6 6 2.3314 -1.9598
10 6 7 -0.9334 -1.1469
10 6 8 0.7618 3.9268
10 6 9 -0.5769 -0.1076
10 6 10 -3.6383 -1.5032
10 6 11 -1.1293 -2.6685
10 6 12 0.6070 -1.5375
10 6 13 2.5089 0.1705
10 6 14 1.2938 -1.1717
10 6 15 -0.0909 0.4111
10 6 16 1.1978 1.9665
10 6 17 1.1818 -0.0097
10 6 18 -0.1994 -0.2466
10 6 19 -0.4093 2.8714
10 6 20 0.8417 1.4252
10 6 21 -1.8977 -1.8491
10 6 22 -1.8187 3.2645
10 6 23 0.3287 0.7236
10 6 24 -1.5773 -1.1457
10 8 0 2.8826 -3.3455
10 8 1 -1.3735 2.1150
10 8 2 1.8461 2.8962
10 8 3 -1.3059 -1.0418
10 8 4 0.3980 0.0238
10 8 5 -1.6842 -2.4197
10 8 6 -0.1393 1.7434
10 8 7 2.3520 -1.1016
10 8 8 -1.1871 -1.2273
10 8 9 1.1561 1.6649
10 8 10 1.8461 0.5563
10 8 11 -2.1446 0.4905
10 8 12 -1.2476 0.5266
10 8 13 0.4034 0.2499
10 8 14 0.4709 -0.2936
10 8 15 -2.3889 -0.6892
10 8 16 0.0192 0.6579
10 8 17 -1.1499 -2.2105
10 8 18 -0.9915 -0.8630
10 8 19 1.1679 -2.3897
10 8 20 1.7198 0.4164
10 8 21 1.1971 0.3258
10 10 0 0.6448 -0.0871
10 10 1 1.4691 -1.3800
10 10 2 0.7382 0.0888
10 10 3 1.3109 1.8655
10 10 4 -1.9658 1.5506
10 10 5 -1.6088 1.6262
10 10 6 -0.3539 0.3122
10 10 7 -0.1834 -1.4247
10 10 8 -2.0326 -1.5817
10 10 9 -0.8814 0.3881
10 10 10 -0.3060 -0.7379
10 10 11 -0.3208 -1.3969
10 10 12 1.1548 -0.8982
10 10 13 0.7345 -1.0414
10 10 14 0.5351 -0.2085
10 10 15 1.4222 0.0343
10 10 16 0.3951 1.4025
10 12 0 0.0003 0.4323
10 12 1 0.8525 -1.7571
10 12 2 -1.0151 0.1277
10 12 3 0.7585 1.8778
10 12 4 1.9543 0.4453
10 12 5 -1.2521 -0.5192
10 12 6 -1.4921 -0.0349
11 -11 -10 0.5390 -1.0702
11 -11 -9 3.2659 4.3759
11 -11 -8 -0.1572 -0.2821
11 -11 -7 -1.4497 0.4680
11 -11 -6 0.3697 -0.0720
11 -11 -5 0.3958 0.4377
11 -11 -4 0.4948 0.2753
11 -11 -3 -1.5325 0.1650
11 -11 -2 -0.9666 0.0322
11 -11 -1 1.7555 -0.4103
11 -9 -13 -1.8653 0.2632
11 -9 -12 -1.1594 0.4407
11 -9 -11 1.7340 -0.6315
11 -9 -10 -0.6296 -0.0129
11 -9 -9 -1.0813 -0.0918
11 -9 -8 1.4961 -0.0276
11 -9 -7 1.0187 1.8889
11 -9 -6 0.0301 -0.2259
11 -9 -5 -0.9506 -1.2031
11 -9 -4 0.5188 1.9129
11 -9 -3 2.0000 0.3188
11 -9 -2 -0.6894 1.0880
11 -9 -1 -1.0305 2.0871
11 -7 -16 0.7429 1.0653
11 -7 -15 0.8032 -1.0293
11 -7 -14 0.5718 -0.1405
11 -7 -13 -0.5219 -0.5004
11 -7 -12 -1.9151 0.8552
11 -7 -11 0.2059 1.1876
11 -7 -10 0.3870 -0.7775
11 -7 -9 0.5680 -0.8761
11 -7 -8 -1.2439 0.4559
11 -7 -7 -0.4753 -0.8773
11 -7 -6 -0.8622 -0.4215
11 -7 -5 -1.1109 1.0503
11 -7 -4 -1.3663 -2.0874
11 -7 -3 0.1736 -0.8884
11 -7 -2 0.0530 -2.1598
11 -7 -1 0.3875 -2.0606
11 -5 -11 -2.2863 -0.5539
11 -5 -10 1.9072 -0.1042
11 -5 -9 -0.2094 -0.1446
11 -5 -8 -3.0203 -0.5466
11 -5 -7 -0.8562 -0.9204
11 -5 -6 3.8097 1.3151
11 -5 -5 1.9802 -0.4609
11 -5 -4 0.2215 1.3127
11 -5 -3 -2.0149 0.4925
11 -5 -2 1.0787 3.0574
11 -5 -1 -1.2214 0.1241
11 -3 -3 -0.4372 -0.1697
11 -3 -2 1.3624 1.1436
11 -3 -1 1.4153 1.2663
11 1 0 0.5427 0.0189
11 1 1 0.6401 -5.1185
11 1 2 2.7232 -0.9460
11 1 3 6.1622 0.0986
11 1 4 -1.6746 2.5426
11 1 5 3.3459 2.6996
11 1 6 -2.5993 -0.4889
11 1 7 -1.2106 4.7547
11 1 8 -1.2837 -3.6658
11 1 9 0.2598 1.3932
11 1 10 1.8334 -2.7209
11 1 11 -1.2188 1.8663
11 1 12 3.1932 0.1755
11 1 13 0.0029 1.6096
11 1 14 0.2586 1.0941
11 1 15 -0.4717 1.0211
11 1 16 0.6744 0.4730
11 1 17 -1.1363 3.7737
11 1 20 0.5357 -2.4072
11 1 21 -1.8021 -2.0363
11 1 22 2.6423 2.3771
11 1 23 0.4721 -1.6780
11 1 24 -0.6663 0.2572
11 1 25 1.4719 -0.3363
11 1 26 -0.4865 1.9208
11 3 0 0.0858 -1.7110
11 3 1 3.5056 -2.3290
11 3 2 0.7749 -0.1713
11 3 3 -0.8606 1.4158
11 3 4 2.4486 -0.9630
11 3 5 1.6013 1.0610
11 3 6 3.2563 1.7643
11 3 7 -1.5215 0.6454
11 3 8 -0.5495 5.3013
11 3 9 -2.2337 -2.7236
11 3 10 -2.4128 -0.5582
11 3 11 2.5069 -2.1007
11 3 12 -0.8152 -0.3601
11 3 13 -0.4183 0.0394
11 3 14 -0.2586 1.5332
11 3 15 2.3001 -2.3429
11 3 16 -2.1652 -2.3543
11 3 17 2.4086 0.2380
11 3 18 2.3993 -0.7204
11 3 19 2.1504 1.6592
11 3 20 0.7098 1.5848
11 3 21 1.0029 1.5870
11 3 22 -2.4576 1.1254
11 3 23 -1.3035 2.3865
11 3 24 -2.5899 -1.0843
11 3 25 0.0174 1.2416
11 5 0 -4.1204 0.1728
11 5 1 0.9535 3.0391
11 5 2 0.0287 0.1247
11 5 3 0.4020 3.2043
11 5 4 -1.2398 0.6382
11 5 5 -4.2914 0.1830
11 5 6 -0.5851 -2.0311
11 5 7 0.4592 0.2921
11 5 8 -0.7506 -0.8528
11 5 9 -1.7583 -1.1125
11 5 10 0.5550 -2.2433
11 5 11 1.5972 1.3734
11 5 12 3.7693 0.6975
11 5 13 -2.6456 1.3018
11 5 14 -0.9560 1.5309
11 5 15 -2.2082 -1.1161
11 5 16 0.3162 0.3312
11 5 17 -1.2944 -2.9776
11 5 18 -1.0976 0.4779
11 5 19 0.7520 -1.8446
11 5 20 -0.0316 -1.7760
11 5 21 0.7004 -0.9127
11 5 22 1.1327 0.9168
11 5 23 1.5396 -1.5100
11 7 0 2.9140 -0.1506
11 7 1 -3.2661 -0.0436
11 7 2 1.4771 -0.2162
11 7 3 -0.6314 -2.7947
11 7 4 0.4170 1.6704
11 7 5 0.8903 -2.8544
11 7 6 -0.1061 2.6240
11 7 7 3.2113 0.1725
11 7 8 -2.1090 -0.9987
11 7 9 -0.3290 2.1097
11 7 10 0.8094 0.1223
11 7 11 -0.8198 -2.0038
11 7 12 0.1064 0.0781
11 7 13 2.8788 -0.4114
11 7 14 0.3381 -0.0081
11 7 15 0.9115 1.6331
11 7 16 0.5349 1.6940
11 7 17 0.7616 1.2734
11 7 18 -1.2230 0.6847
11 7 19 0.7582 1.8835
11 7 20 -0.6149 1.2224
11 9 0 -0.7930 0.3264
11 9 1 1.0605 -0.9688
11 9 2 -2.2689 1.0539
11 9 3 0.5115 0.4557
11 9 4 -0.7885 -2.1439
11 9 5 1.7530 -0.2646
11 9 6 0.8344 -2.2678
11 9 7 0.7424 -0.2086
11 9 8 1.7393 1.8371
11 9 9 1.5714 2.7751
11 9 10 -0.3449 0.5206
11 9 11 -0.8824 0.9807
11 9 12 -1.2939 0.8717
11 9 13 -0.6679 0.9571
11 9 14 -0.3147 -0.0800
11 9 15 -2.4941 0.1873
11 9 16 -1.2819 -0.0371
11 11 0 0.5375 -0.8303
11 11 1 0.7340 -0.7324
11 11 2 0.6086 0.1841
11 11 3 0.9013 0.5248
11 11 4 0.1143 0.1042
11 11 5 -2.2972 0.4543
11 11 6 -0.6742 0.0521
11 11 7 0.7750 -0.3647
11 11 8 1.2654 0.2909
12 -10 -11 0.3148 0.1600
12 -10 -9 -0.3503 1.2337
12 -10 -8 0.1449 2.2616
12 -10 -7 -1.2572 -1.2329
12 -10 -6 -0.5031 -0.7973
12 -10 -5 0.0371 0.2972
12 -10 -4 0.0496 0.3229
12 -10 -3 0.0854 -0.8861
12 -10 -2 -0.5080 -0.5747
12 -10 -1 -0.0808 -0.4474
12 -8 -14 -1.3556 0.0240
12 -8 -13 0.7763 0.4743
12 -8 -12 -1.0702 1.0914
12 -8 -10 2.4392 -1.8792
12 -8 -9 0.9862 1.1224
12 -8 -8 -1.0641 2.2265
12 -8 -7 0.0585 -0.2965
12 -8 -6 0.6288 1.3474
12 -8 -5 1.1060 -0.5620
12 -8 -4 -1.2584 0.9399
12 -8 -3 0.8541 2.0379
12 -8 -2 -0.1429 0.0569
12 -8 -1 -0.6045 1.9126
12 -6 -17 -2.1509 -0.7904
12 -6 -16 -0.9525 0.2477
12 -6 -15 0.5610 -0.3645
12 -6 -14 1.0754 -0.3567
12 -6 -13 -0.8363 0.1449
12 -6 -12 -1.3444 -1.0588
12 -6 -11 -1.7087 -1.9780
12 -6 -10 0.8069 0.3500
12 -6 -9 0.2425 -1.5456
12 -6 -8 0.6926 0.5194
12 -6 -7 0.9393 0.3330
12 -6 -6 0.4183 -0.1808
12 -6 -5 -0.2613 -1.3798
12 -6 -4 -2.2237 0.5549
12 -6 -3 1.0259 -0.3986
12 -6 -2 1.6063 -0.8168
12 -6 -1 -0.3578 -0.7605
12 -4 -4 0.2044 -0.1748
12 -4 -3 -1.4033 0.6171
12 -4 -2 -0.0251 0.1453
12 -4 -1 1.1781 1.4966
12 0 22 1.6982 1.3897
12 0 24 -1.6284 -1.3935
12 2 13 -0.1243 -0.7058
12 2 15 -0.2718 -2.4372
12 2 16 1.1668 2.0628
12 2 17 1.5159 -0.3485
12 2 18 -1.2260 4.1252
12 2 19 1.2960 -1.0534
12 2 20 -3.5755 -0.3025
12 2 21 0.1291 -0.1289
12 2 22 -1.5827 -0.1475
12 2 23 2.0522 1.3073
12 2 24 0.1536 -2.9126
12 4 0 -0.1532 0.4546
12 4 1 3.0357 0.9120
12 4 2 1.4181 -1.9749
12 4 3 -0.1328 0.0772
12 4 4 -1.1940 0.0615
12 4 5 2.1897 -0.6324
12 4 6 2.9744 -0.1428
12 4 7 1.5238 2.1059
12 4 8 -1.5967 0.6141
12 4 9 0.0376 4.7060
12 4 10 1.0179 -1.2039
12 4 11 -1.7171 -0.3832
12 4 12 1.1859 0.0621
12 4 13 -1.6444 1.3132
12 4 14 -0.4931 0.3381
12 4 15 0.3432 -0.6643
12 4 16 1.1184 -0.7629
12 4 17 -0.3706 1.2409
12 4 18 0.1788 0.3868
12 4 19 -0.2608 0.3371
12 4 20 2.1676 0.2765
12 4 21 -0.4006 1.5875
12 4 22 0.3220 1.6168
12 6 0 0.2480 -0.0551
12 6 1 -0.8756 -2.0146
12 6 2 1.4820 2.8271
12 6 3 -1.1890 1.7021
12 6 4 -1.7156 1.1226
12 6 5 0.1168 -2.7477
12 6 6 -2.7587 2.0591
12 6 7 1.1928 -0.0908
12 6 8 -2.1930 -2.4950
12 6 9 -0.9108 -0.9788
12 6 10 0.7765 -0.8406
12 6 11 2.2778 -1.4941
12 6 12 -0.9792 0.6745
12 6 13 0.6774 1.0683
12 6 14 -1.5041 0.1992
12 6 15 -0.0368 0.1714
12 6 16 -1.6798 -1.8159
12 6 17 0.0279 -0.7695
12 6 18 -0.3539 -2.5087
12 6 19 1.1871 0.3173
12 6 20 1.0208 -1.5621
12 8 0 -1.3877 0.4668
12 8 1 2.8134 0.5657
12 8 2 -0.9467 -0.1093
12 8 3 1.8837 0.7934
12 8 4 0.3640 -0.4442
12 8 5 -0.9896 3.0739
12 8 6 -1.4406 -0.5888
12 8 7 -1.2478 1.2096
12 8 8 0.8025 -0.0721
12 8 9 -1.9492 -1.6834
12 8 10 -0.6466 -0.9688
12 8 11 0.9299 -0.7139
12 8 12 0.4922 -0.9615
12 8 13 1.6670 0.2522
12 8 14 1.2652 -0.8123
12 8 15 -0.2905 1.5303
12 10 0 1.2058 -0.1937
12 10 1 -0.9186 0.3406
12 10 2 0.3340 -0.1106
12 10 3 -1.1416 -0.3577
12 10 4 -0.4710 0.8260
12 10 5 -0.0998 -0.5890
12 10 6 1.2432 -0.4281
12 10 7 0.6748 -0.6790
12 10 8 0.0992 0.1511
13 -9 -12 -0.3920 1.1409
13 -9 -10 0.1926 1.9051
13 -9 -9 0.1602 1.7098
13 -9 -8 -2.2860 0.5666
13 -9 -7 -0.6914 -0.7801
13 -9 -6 0.7469 -1.2575
13 -9 -5 0.2264 -0.8910
13 -9 -4 -1.3064 1.5202
13 -9 -3 0.9716 -0.9625
13 -9 -2 0.4939 -1.8140
13 -9 -1 0.5293 0.4517
13 -7 -15 2.2384 0.9587
13 -7 -14 0.0095 -0.5298
13 -7 -13 -0.7451 0.3986
13 -7 -12 1.2452 0.7843
13 -7 -11 -0.4277 2.0137
13 -7 -10 0.2897 0.1028
13 -7 -9 2.0927 -0.0072
13 -7 -8 -0.4766 1.9071
13 -7 -7 -2.3931 2.0160
13 -7 -6 -0.9916 -1.9475
13 -7 -5 0.5771 0.5633
13 -7 -4 0.7945 0.0528
13 -7 -3 -2.0521 2.0659
13 -7 -2 -0.1888 -0.5576
13 -7 -1 -1.8795 -0.9453
13 -5 -4 0.5387 0.7123
13 -5 -3 -1.1396 0.2885
13 -5 -2 1.4122 1.2991
13 -5 -1 -0.0246 -0.5244
13 1 15 -2.4677 -2.6729
13 1 16 2.7316 1.6649
13 1 18 -2.0261 1.4512
13 1 19 0.7981 -4.3390
13 1 20 -1.0572 0.5066
13 1 21 2.6675 1.1816
13 3 7 -1.5466 -1.7527
13 3 12 2.6199 2.2185
13 3 13 0.8020 0.4860
13 3 14 -1.7546 -1.5902
13 3 15 -0.1530 0.1469
13 3 16 0.5671 -1.8242
13 3 17 0.9700 1.6657
13 3 18 -0.2929 -0.8906
13 3 19 -1.1229 1.9913
13 3 20 2.3032 -2.1401
13 5 0 -3.2380 -0.3309
13 5 1 1.2098 1.8206
13 5 2 0.0785 0.3150
13 5 3 -1.7207 -1.5658
13 5 4 1.3076 -1.5611
13 5 5 1.1436 -0.4034
13 5 6 0.8829 1.9891
13 5 7 2.4054 -0.1182
13 5 8 -1.2823 0.0677
13 5 9 -0.1808 1.5424
13 5 10 1.2847 2.4122
13 5 11 0.1711 0.4704
13 5 12 -3.3628 -0.0511
13 5 13 0.1727 0.9576
13 5 14 0.9784 -0.8337
13 5 15 -0.5834 -1.1144
13 5 16 -0.5989 0.5884
13 5 17 1.3561 0.6607
13 5 18 0.2770 0.3185
13 7 0 1.1561 1.4223
13 7 1 0.5990 1.8817
13 7 2 -1.6889 -2.1482
13 7 3 -1.5581 0.6016
13 7 4 -0.1321 -0.3164
13 7 5 0.0998 -1.6354
13 7 6 1.9807 -2.0779
13 7 7 0.6144 1.5605
13 7 8 1.0805 -0.1779
13 7 9 -1.0543 -0.5311
13 7 10 1.2387 1.3261
13 7 11 0.4799 -0.1944
13 7 12 -0.6034 -0.1003
13 7 13 -0.6724 0.7251
13 7 14 0.1495 -0.4114
13 9 0 0.0067 0.2003
13 9 1 -0.8452 -0.2109
13 9 2 1.8582 0.3899
13 9 3 -0.4315 0.3747
13 9 4 0.3539 1.5585
13 9 5 0.1209 -1.1449
13 9 6 -0.3867 1.3147
13 9 7 -0.5804 -0.6369
13 9 8 -1.1410 0.6574
14 -8 -13 0.6418 1.3226
14 -8 -12 -0.2529 0.3585
14 -8 -11 -0.6863 0.2401
14 -8 -10 1.3476 -2.8033
14 -8 -9 -0.1427 1.0143
14 -8 -8 -0.1799 1.0981
14 -8 -7 -0.9839 -0.4617
14 -8 -6 0.9478 -1.8206
14 -8 -5 1.2844 0.9029
14 -8 -4 0.1578 0.2790
14 -8 -3 -1.5096 1.1718
14 -8 -2 2.2034 -2.0232
14 -8 -1 0.5901 -0.2322
14 -6 -17 -0.7194 -1.8357
14 -6 -16 0.3789 -0.9008
14 -6 -15 1.5165 -0.9865
14 -6 -14 3.0805 2.5879
14 -6 -13 1.3026 -0.1076
14 -6 -12 -1.5508 0.3603
14 -6 -11 0.7010 0.3760
14 -6 -10 -0.3230 2.1997
14 -6 -9 0.5574 1.3835
14 -6 -8 0.6419 0.0111
14 -6 -7 -1.2931 1.3159
14 -6 -6 -0.7007 1.2259
14 -6 -5 -1.2596 -1.2547
14 -6 -4 0.5080 1.9513
14 -6 -3 -0.0645 -2.0204
14 -6 -2 -2.8797 0.4543
14 -6 -1 0.4134 -2.2973
14 2 11 -0.4021 3.0680
14 2 12 2.9605 -1.1307
14 2 13 -0.2554 -2.3039
14 2 15 0.5066 0.6024
14 2 16 2.0941 -1.3802
14 2 17 1.5649 1.2892
14 2 18 -1.4637 -0.0902
14 4 2 1.5120 -3.7584
14 4 3 -0.6803 -0.2610
14 4 4 0.8342 2.2829
14 4 5 0.1988 -0.2497
14 4 6 1.0756 -1.2093
14 4 7 -1.1506 0.8754
14 4 8 -0.8794 0.0845
14 4 9 0.4846 0.2487
14 4 10 2.6029 -0.3423
14 4 11 -2.5100 -2.8169
14 4 12 0.1146 1.5929
14 4 13 3.1466 -0.1892
14 4 14 -0.2094 0.1016
14 4 15 -1.5087 0.7860
14 4 16 -0.2026 1.4015
14 6 0 -0.2626 -0.4859
14 6 1 -4.0290 -1.1808
14 6 2 0.3695 -0.4968
14 6 3 -0.0354 -0.4900
14 6 4 0.8686 1.0120
14 6 5 1.8044 -0.7288
14 6 6 -1.9907 1.6879
14 6 7 -1.6955 2.0627
14 6 8 -0.2994 -1.8109
14 6 9 -0.4988 -0.6136
14 6 10 0.4754 0.0464
14 6 11 -0.3800 0.1812
14 6 12 -0.5181 0.5381
14 6 13 -0.2554 0.1573
14 8 0 0.8047 2.5256
14 8 1 0.6694 -0.3022
14 8 2 -0.2155 0.1164
14 8 3 -0.8865 -2.0429
14 8 4 0.0541 -0.2783
14 8 5 1.6094 -1.0343
14 8 6 0.3194 0.3713
14 8 7 1.0626 -0.1080
15 -7 -15 -0.5262 0.1685
15 -7 -14 -0.0732 0.1993
15 -7 -13 -1.6948 -1.9766
15 -7 -12 -0.7174 1.4478
15 -7 -11 0.7061 -1.2821
15 -7 -10 -0.4140 -0.1589
15 -7 -9 2.0308 -1.3996
15 -7 -8 -0.7275 0.4216
15 -7 -7 0.2727 0.9282
15 -7 -6 0.4721 -1.2613
15 -7 -5 0.2446 -0.9210
15 -7 -4 1.1486 1.7442
15 -7 -3 0.0701 -0.8025
15 -7 -2 -0.9753 1.4070
15 -7 -1 2.6891 -0.4501
15 -5 -7 0.2183 0.9032
15 -5 -2 0.0973 -3.9972
15 1 14 -1.0683 1.2771
15 1 15 3.1870 1.2868
15 3 7 -1.9042 1.9332
15 3 8 2.1519 -2.1046
15 3 9 -1.3128 0.1403
15 3 10 0.2547 -0.8276
15 3 11 -2.7665 -2.7451
15 3 12 2.7077 2.8681
15 3 13 2.4435 -1.8508
15 3 14 -2.4240 0.3017
15 5 0 2.6883 -1.3979
15 5 1 -0.6989 -0.9083
15 5 2 2.9401 2.5536
15 5 3 2.3595 -3.1354
15 5 4 -0.7146 1.3847
15 5 5 2.0268 0.9115
15 5 6 -0.8936 -0.5824
15 5 7 2.2210 -0.0413
15 5 8 0.2653 0.7239
15 5 9 0.2217 0.9167
15 5 10 -0.7419 -0.5788
15 5 11 0.8794 1.4250
15 7 0 0.1506 1.6378
15 7 1 0.4054 -1.9458
15 7 2 -2.5816 -0.5947
15 7 3 0.8052 -0.0926
15 7 4 0.3297 1.3779
15 7 5 0.4242 1.3493
16 -6 -15 -0.1548 1.1271
16 -6 -14 -0.8027 -1.0550
16 -6 -13 0.3090 -0.4135
16 -6 -12 -0.0074 -1.9323
16 -6 -11 0.5813 1.5879
16 -6 -10 1.4082 -1.5135
16 -6 -9 -0.7810 0.6296
16 -6 -8 1.4141 0.2027
16 -6 -7 -1.1823 0.6875
16 -6 -6 0.3630 0.2720
16 -6 -5 0.5038 -1.6993
16 -6 -4 0.1399 -0.6647
16 -6 -3 1.5759 0.8995
16 -6 -2 0.1058 -0.8885
16 -6 -1 -0.6760 2.4098
16 2 10 -0.8114 -0.8463
16 4 0 -1.1899 0.3592
16 4 1 -2.5923 -0.4061
16 4 2 -1.5322 0.3259
16 4 3 0.3986 -2.6978
16 4 4 -2.7603 0.7013
16 4 5 0.3507 0.6076
16 4 6 -0.1625 -1.8535
16 4 7 -1.1322 0.0836
16 6 0 1.3504 -0.4012
16 6 1 0.5283 -1.3054
0 0 0 0.0 0.0
;
_shelx_fab_checksum              3590
_olex2_submission_special_instructions 'No special instructions were received'
loop_
_space_group_symop_operation_xyz
'x, y, z'
'x, -y, z+1/2'
'x+1/2, y+1/2, z'
'x+1/2, -y+1/2, z+1/2'
loop_
_atom_site_label
_atom_site_type_symbol
_atom_site_fract_x
_atom_site_fract_y
_atom_site_fract_z
_atom_site_U_iso_or_equiv
_atom_site_adp_type
_atom_site_occupancy
_atom_site_site_symmetry_order
_atom_site_calc_flag
_atom_site_refinement_flags_posn
_atom_site_refinement_flags_adp
_atom_site_refinement_flags_occupancy
_atom_site_disorder_assembly
_atom_site_disorder_group
CoO1 Co 0.81901(4) 0.19970(5) 0.54427(2) 0.02699(18) Uani 1 1 d . . . . .
Co2 Co 0.60587(4) 0.24054(5) 0.59877(2) 0.02942(19) Uani 1 1 d . . . . .
O3 O 0.9302(3) 0.2275(3) 0.51042(15) 0.0444(12) Uani 1 1 d . . . . .
O4 O 0.9924(3) -0.2849(3) 0.63291(14) 0.0461(12) Uani 1 1 d . . . . .
N2 N 1.0420(3) 0.3452(3) 1.04747(16) 0.0354(11) Uani 1 1 d . . . . .
O6 O 1.2723(3) 0.1338(4) 0.43615(18) 0.0651(15) Uani 1 1 d . . . . .
H6 H 1.292379 0.174174 0.421768 0.098 Uiso 1 1 calc GR . . . .
O7 O 1.0004(3) -0.1533(3) 0.59489(14) 0.0497(11) Uani 1 1 d . . . . .
O8 O 0.9214(3) 0.0907(3) 0.54677(14) 0.0447(11) Uani 1 1 d . . . . .
N5 N 0.7474(3) 0.1285(3) 0.49175(15) 0.0339(11) Uani 1 1 d . . . . .
O10 O 1.1675(3) -0.1638(3) 0.56591(13) 0.0389(10) Uani 1 1 d . . . . .
C1 C 1.1558(3) -0.0311(4) 0.51736(17) 0.0282(12) Uani 1 1 d . . . . .
N10 N 0.3879(4) 0.2241(4) 0.09619(16) 0.0395(12) Uani 1 1 d . . . . .
C13 C 1.0406(4) 0.0981(4) 0.51098(17) 0.0305(12) Uani 1 1 d . . . . .
C2 C 1.0792(3) 0.0070(4) 0.52863(16) 0.0278(12) Uani 1 1 d . . . . .
H2 H 1.053902 -0.026001 0.547800 0.033 Uiso 1 1 d . . . . .
O12 O 0.6679(3) 0.1117(3) 0.62214(12) 0.0423(10) Uani 1 1 d . . . . .
C4 C 1.0784(4) 0.1457(4) 0.48152(18) 0.0347(13) Uani 1 1 d . . . . .
H4 H 1.051399 0.203600 0.468801 0.040 Uiso 1 1 d . . . . .
N17 N 0.8673(4) 0.5240(4) 0.84186(16) 0.0498(14) Uani 1 1 d . . . . .
C3 C 1.1548(4) 0.1072(4) 0.47049(17) 0.0323(13) Uani 1 1 d . . . . .
O9 O 1.1554(4) 0.2348(4) 0.42216(17) 0.0642(15) Uani 1 1 d . . . . .
O15 O 0.7560(3) 0.1066(3) 0.57793(13) 0.0418(10) Uani 1 1 d . . . . .
N21 N 0.8931(4) 0.6723(4) 0.88197(16) 0.0480(14) Uani 1 1 d . . . . .
C112 C 0.6669(4) 0.0268(5) 0.42176(18) 0.0393(14) Uani 1 1 d . . . . .
C6 C 0.9768(4) 0.4698(4) 0.98142(19) 0.0388(14) Uani 1 1 d . . . . .
C5 C 0.7832(4) -0.0099(4) 0.63137(17) 0.0361(13) Uani 1 1 d . . . . .
O5 O 1.2608(3) -0.1661(3) 0.52332(12) 0.0373(10) Uani 1 1 d . . . . .
C7 C 0.9663(4) -0.1988(5) 0.6203(2) 0.0387(15) Uani 1 1 d . . . . .
C27 C 0.8941(4) -0.1434(4) 0.63670(18) 0.0349(13) Uani 1 1 d . . . . .
C28 C 0.4337(5) 0.0699(5) 0.1318(2) 0.0502(17) Uani 1 1 d . . . . .
H28 H 0.435999 -0.002200 0.131701 0.063 Uiso 1 1 d . . . . .
C29 C 0.8927(5) 0.5699(5) 0.87618(19) 0.0443(15) Uani 1 1 d . . . . .
C30 C 0.6830(5) -0.0219(5) 0.45846(19) 0.0430(15) Uani 1 1 d . . . . .
H30 H 0.671101 -0.090200 0.460900 0.051 Uiso 1 1 d . . . . .
C31 C 1.1929(4) 0.0168(4) 0.48848(18) 0.0328(13) Uani 1 1 d . . . . .
H31 H 1.241501 -0.012300 0.479799 0.041 Uiso 1 1 d . . . . .
C32 C 0.7328(4) 0.0757(4) 0.60879(17) 0.0316(13) Uani 1 1 d . . . . .
N7 N 0.5810(5) -0.1597(4) 0.32021(17) 0.0526(15) Uani 1 1 d . . . . .
N8 N 0.5360(5) -0.1753(4) 0.25109(17) 0.0590(17) Uani 1 1 d . . . . .
C35 C 0.7303(5) 0.1758(5) 0.45674(19) 0.0416(15) Uani 1 1 d . . . . .
H35 H 0.745300 0.245399 0.455300 0.052 Uiso 1 1 d . . . . .
C36 C 0.3966(5) 0.1225(5) 0.09897(19) 0.0420(15) Uani 1 1 d . . . . .
H36 H 0.376200 0.084700 0.075500 0.049 Uiso 1 1 d . . . . .
C37 C 1.0277(5) 0.3076(4) 1.0108(2) 0.0435(16) Uani 1 1 d . . . . .
H37 H 1.043400 0.240100 1.007301 0.050 Uiso 1 1 d . . . . .
C38 C 0.9251(4) 0.5030(5) 0.9106(2) 0.0449(15) Uani 1 1 d . . . . .
C39 C 0.9603(4) 0.1413(4) 0.52345(18) 0.0333(13) Uani 1 1 d . . . . .
C40 C 0.4649(6) 0.1219(5) 0.1660(2) 0.0557(19) Uani 1 1 d . . . . .
C41 C 0.8487(4) -0.0622(4) 0.61595(19) 0.0387(14) Uani 1 1 d . . . . .
H41 H 0.864201 -0.041400 0.592400 0.044 Uiso 1 1 d . . . . .
C42 C 1.1969(4) -0.1284(4) 0.53711(16) 0.0280(12) Uani 1 1 d . . . . .
N6 N 0.5571(4) -0.0110(4) 0.28030(16) 0.0515(15) Uani 1 1 d . . . . .
C44 C 0.9911(5) 0.5086(5) 1.01894(19) 0.0466(16) Uani 1 1 d . . . . .
H44 H 0.978700 0.576300 1.023399 0.057 Uiso 1 1 d . . . . .
C45 C 0.6923(5) 0.1295(5) 0.4225(2) 0.0482(17) Uani 1 1 d . . . . .
H45 H 0.681301 0.165601 0.398500 0.062 Uiso 1 1 d . . . . .
C46 C 0.5063(6) -0.0286(6) 0.2096(2) 0.059(2) Uani 1 1 d . . . . .
C47 C 0.6314(5) -0.0301(5) 0.3860(2) 0.0436(15) Uani 1 1 d . . . . .
O48 O 0.8275(6) -0.2268(5) 0.74276(18) 0.099(2) Uani 1 1 d . . . . .
H48 H 0.820896 -0.234163 0.765708 0.148 Uiso 1 1 calc R . . . .
C49 C 0.5848(6) -0.3757(6) 0.3241(3) 0.065(2) Uani 1 1 d . . . . .
N4 N 0.6752(4) 0.3128(4) 0.65257(16) 0.0450(13) Uani 1 1 d . . . . .
C51 C 0.5795(5) -0.0573(5) 0.31513(19) 0.0444(15) Uani 1 1 d . . . . .
C52 C 0.4999(5) 0.0725(5) 0.2041(2) 0.0539(18) Uani 1 1 d . . . . .
C53 C 0.7212(4) 0.0296(4) 0.49119(17) 0.0363(14) Uani 1 1 d . . . . .
H53 H 0.729800 -0.005401 0.515100 0.042 Uiso 1 1 d . . . . .
C54 C 0.9433(4) 0.5355(5) 0.9469(2) 0.0433(15) Uani 1 1 d . . . . .
C55 C 1.0246(5) 0.4477(5) 1.05125(19) 0.0466(16) Uani 1 1 d . . . . .
H55 H 1.037100 0.475999 1.075800 0.058 Uiso 1 1 d . . . . .
C56 C 0.4584(7) 0.2294(5) 0.1635(2) 0.076(3) Uani 1 1 d . . . . .
H56 H 0.474299 0.266500 0.186500 0.088 Uiso 1 1 d . . . . .
C57 C 0.8642(6) 0.7263(5) 0.8495(2) 0.0494(17) Uani 1 1 d . . . . .
N1 N 0.8380(5) 0.6878(4) 0.81352(18) 0.0609(17) Uani 1 1 d . . . . .
C59 C 0.7649(5) -0.0373(6) 0.6686(2) 0.057(2) Uani 1 1 d . . . . .
H59 H 0.722400 -0.000601 0.678301 0.062 Uiso 1 1 d . . . . .
C60 C 1.1936(4) 0.1645(4) 0.4411(2) 0.0425(15) Uani 1 1 d . . . . .
C61 C 0.7254(7) 0.3004(7) 0.7230(2) 0.068(2) Uani 1 1 d . . . . .
H61 H 0.733200 0.259300 0.745000 0.080 Uiso 1 1 d . . . . .
C62 C 0.9958(5) 0.3645(5) 0.97770(19) 0.0465(16) Uani 1 1 d . . . . .
H62 H 0.985300 0.332399 0.953000 0.057 Uiso 1 1 d . . . . .
C63 C 0.5341(5) -0.0722(5) 0.2491(2) 0.0521(18) Uani 1 1 d . . . . .
C64 C 0.5585(6) -0.2134(5) 0.2875(2) 0.0526(19) Uani 1 1 d . . . . .
C65 C 0.8121(6) -0.1173(6) 0.6899(2) 0.062(2) Uani 1 1 d . . . . .
C66 C 0.7942(6) 0.4441(7) 0.7645(2) 0.069(2) Uani 1 1 d . . . . .
C67 C 0.5615(6) -0.3294(6) 0.2908(2) 0.061(2) Uani 1 1 d . . . . .
C68 C 0.4210(6) 0.2746(5) 0.1288(2) 0.064(2) Uani 1 1 d . . . . .
H68 H 0.417500 0.346900 0.128701 0.079 Uiso 1 1 d . . . . .
C69 C 0.8793(6) 1.0027(6) 0.8898(3) 0.067(2) Uani 1 1 d . . . . .
C70 C 0.8383(6) 0.5851(5) 0.8107(2) 0.0546(19) Uani 1 1 d . . . . .
C71 C 0.8755(5) -0.1731(5) 0.6736(2) 0.0513(17) Uani 1 1 d . . . . .
H71 H 0.903100 -0.230500 0.686700 0.061 Uiso 1 1 d . . . . .
C72 C 0.7556(6) 0.3989(6) 0.7251(2) 0.059(2) Uani 1 1 d . . . . .
C73 C 0.6080(5) 0.0090(5) 0.3497(2) 0.0491(16) Uani 1 1 d . . . . .
N3 N 0.8500(6) 1.2125(5) 0.9020(3) 0.081(2) Uani 1 1 d . . . . .
N9 N 0.6091(9) -0.6979(6) 0.3449(3) 0.120(4) Uani 1 1 d . . . . .
C76 C 0.8846(6) 0.8880(6) 0.8843(2) 0.062(2) Uani 1 1 d . . . . .
C77 C 0.5895(6) -0.4878(6) 0.3304(3) 0.068(2) Uani 1 1 d . . . . .
C78 C 0.8073(6) 0.5442(7) 0.7719(2) 0.069(2) Uani 1 1 d . . . . .
C79 C 0.6850(7) 0.2621(6) 0.6869(3) 0.074(3) Uani 1 1 d . . . . .
H79 H 0.667001 0.195701 0.686600 0.089 Uiso 1 1 d . . . . .
C80 C 0.8538(8) 1.0694(6) 0.8586(3) 0.078(3) Uani 1 1 d . . . . .
H80 H 0.851301 1.044498 0.833500 0.101 Uiso 1 1 d . . . . .
C81 C 0.8929(6) 1.0433(6) 0.9280(3) 0.072(2) Uani 1 1 d . . . . .
H81 H 0.910600 1.001999 0.949699 0.089 Uiso 1 1 d . . . . .
C82 C 0.7470(7) 0.4529(6) 0.6894(3) 0.076(3) Uani 1 1 d . . . . .
H82 H 0.770499 0.520400 0.689900 0.088 Uiso 1 1 d . . . . .
C83 C 0.8390(8) 1.1728(7) 0.8656(3) 0.087(3) Uani 1 1 d . . . . .
H83 H 0.820601 1.215200 0.843400 0.105 Uiso 1 1 d . . . . .
C84 C 0.7969(7) -0.1417(8) 0.7303(3) 0.094(4) Uani 1 1 d . . . . .
C85 C 0.8766(7) 1.1454(7) 0.9320(3) 0.081(3) Uani 1 1 d . . . . .
H85 H 0.883600 1.174400 0.956699 0.104 Uiso 1 1 d . . . . .
C86 C 0.7089(7) 0.4076(6) 0.6552(2) 0.068(2) Uani 1 1 d . . . . .
H86 H 0.708800 0.445300 0.631500 0.086 Uiso 1 1 d . . . . .
C87 C 0.5797(11) -0.5585(7) 0.3017(3) 0.120(5) Uani 1 1 d . . . . .
H87 H 0.563400 -0.535800 0.276699 0.148 Uiso 1 1 d . . . . .
C88 C 0.8596(7) 0.8391(5) 0.8521(3) 0.064(2) Uani 1 1 d . . . . .
C89 C 0.6087(12) -0.5249(7) 0.3675(3) 0.131(6) Uani 1 1 d . . . . .
H89 H 0.630800 -0.484200 0.388700 0.150 Uiso 1 1 d . . . . .
O2 O 0.7643(10) -0.0820(8) 0.7498(3) 0.205(7) Uani 1 1 d . . . . .
C92 C 0.6163(13) -0.6304(8) 0.3734(4) 0.147(7) Uani 1 1 d . . . . .
H92 H 0.616301 -0.654799 0.396900 0.161 Uiso 1 1 d . . . . .
C99 C 0.5869(13) -0.6625(8) 0.3092(4) 0.143(6) Uani 1 1 d . . . . .
H99 H 0.573100 -0.709500 0.289700 0.168 Uiso 1 1 d . . . . .
loop_
_atom_site_aniso_label
_atom_site_aniso_U_11
_atom_site_aniso_U_22
_atom_site_aniso_U_33
_atom_site_aniso_U_23
_atom_site_aniso_U_13
_atom_site_aniso_U_12
CoO1 0.0311(4) 0.0245(3) 0.0252(4) 0.0023(3) 0.0048(3) 0.0100(3)
Co2 0.0344(4) 0.0286(4) 0.0252(4) 0.0032(3) 0.0050(3) 0.0107(3)
O3 0.042(3) 0.031(2) 0.063(3) 0.004(2) 0.017(2) 0.013(2)
O4 0.049(3) 0.044(2) 0.048(3) 0.014(2) 0.015(2) 0.025(2)
N2 0.040(3) 0.030(2) 0.036(3) 0.003(2) 0.005(2) -0.006(2)
O6 0.057(3) 0.053(3) 0.096(4) 0.035(3) 0.043(3) 0.018(2)
O7 0.051(3) 0.052(2) 0.052(3) 0.011(2) 0.025(2) 0.025(2)
O8 0.045(2) 0.037(2) 0.058(3) 0.015(2) 0.025(2) 0.0180(19)
N5 0.039(3) 0.033(2) 0.029(3) 0.000(2) 0.001(2) 0.008(2)
O10 0.046(2) 0.034(2) 0.039(3) 0.0146(19) 0.015(2) 0.0088(19)
C1 0.030(3) 0.018(2) 0.034(3) 0.000(2) 0.000(2) 0.006(2)
N10 0.049(3) 0.037(3) 0.030(3) -0.001(2) -0.001(2) -0.005(2)
C13 0.029(3) 0.028(3) 0.034(3) 0.002(2) 0.004(2) 0.009(2)
C2 0.030(3) 0.023(2) 0.031(3) 0.001(2) 0.005(2) 0.008(2)
O12 0.051(3) 0.048(2) 0.031(2) 0.0026(19) 0.014(2) 0.026(2)
C4 0.040(3) 0.024(3) 0.039(3) 0.007(2) 0.004(3) 0.009(2)
N17 0.071(4) 0.046(3) 0.029(3) 0.002(3) -0.003(3) -0.002(3)
C3 0.037(3) 0.028(3) 0.033(3) 0.011(2) 0.010(3) 0.006(2)
O9 0.071(3) 0.056(3) 0.071(4) 0.038(3) 0.027(3) 0.022(3)
O15 0.048(2) 0.046(2) 0.032(2) 0.0149(19) 0.0102(19) 0.010(2)
N21 0.077(4) 0.037(3) 0.029(3) 0.002(2) 0.004(3) -0.002(3)
C112 0.050(4) 0.037(3) 0.028(3) 0.003(3) 0.000(3) 0.011(3)
C6 0.046(3) 0.033(3) 0.037(4) 0.008(3) 0.007(3) -0.002(3)
C5 0.045(3) 0.040(3) 0.026(3) 0.008(2) 0.011(3) 0.012(3)
O5 0.038(2) 0.038(2) 0.036(2) 0.0108(18) 0.0094(19) 0.0228(18)
C7 0.040(4) 0.038(3) 0.038(4) -0.003(3) 0.006(3) 0.016(3)
C27 0.044(3) 0.029(3) 0.033(3) 0.004(3) 0.010(3) 0.009(2)
C28 0.083(5) 0.033(3) 0.032(4) 0.001(3) 0.004(3) 0.000(3)
C29 0.061(4) 0.042(3) 0.028(4) 0.004(3) 0.005(3) -0.002(3)
C30 0.059(4) 0.035(3) 0.034(4) 0.009(3) 0.008(3) 0.005(3)
C31 0.039(3) 0.026(3) 0.036(3) 0.002(2) 0.014(3) 0.009(2)
C32 0.039(3) 0.028(3) 0.027(3) 0.002(2) 0.003(3) 0.012(2)
N7 0.088(4) 0.038(3) 0.026(3) 0.006(3) -0.006(3) 0.002(3)
N8 0.098(5) 0.040(3) 0.033(3) -0.001(3) -0.005(3) 0.000(3)
C35 0.067(4) 0.033(3) 0.024(3) 0.006(3) 0.006(3) 0.003(3)
C36 0.059(4) 0.037(3) 0.028(3) -0.005(3) 0.003(3) -0.006(3)
C37 0.054(4) 0.031(3) 0.040(4) -0.003(3) -0.007(3) -0.005(3)
C38 0.053(4) 0.040(3) 0.039(4) 0.006(3) -0.001(3) -0.004(3)
C39 0.032(3) 0.028(3) 0.037(3) 0.000(3) -0.001(3) 0.012(2)
C40 0.088(5) 0.039(4) 0.039(4) 0.003(3) 0.005(4) 0.004(3)
C41 0.045(3) 0.037(3) 0.036(4) 0.009(3) 0.015(3) 0.010(3)
C42 0.036(3) 0.020(2) 0.025(3) -0.001(2) 0.000(2) 0.003(2)
N6 0.084(4) 0.043(3) 0.023(3) 0.005(2) -0.005(3) 0.004(3)
C44 0.065(4) 0.040(3) 0.033(4) -0.004(3) 0.006(3) 0.006(3)
C45 0.076(5) 0.039(3) 0.028(4) 0.010(3) 0.004(3) 0.007(3)
C46 0.088(6) 0.056(4) 0.030(4) 0.004(3) -0.003(4) 0.003(4)
C47 0.057(4) 0.041(3) 0.030(4) 0.002(3) 0.001(3) 0.006(3)
O48 0.171(7) 0.086(4) 0.049(4) 0.034(3) 0.049(4) 0.051(5)
C49 0.085(6) 0.047(4) 0.061(5) 0.011(4) 0.007(4) 0.001(4)
N4 0.062(4) 0.042(3) 0.031(3) 0.000(2) 0.009(3) 0.000(3)
C51 0.065(4) 0.037(3) 0.028(4) 0.002(3) -0.002(3) 0.008(3)
C52 0.082(5) 0.044(4) 0.029(4) 0.007(3) -0.010(3) 0.000(3)
C53 0.054(4) 0.030(3) 0.023(3) 0.003(2) 0.000(3) -0.003(3)
C54 0.048(4) 0.047(3) 0.034(4) 0.002(3) 0.002(3) -0.012(3)
C55 0.067(4) 0.044(3) 0.028(3) -0.004(3) 0.005(3) 0.012(3)
C56 0.132(8) 0.041(4) 0.038(4) -0.004(3) -0.034(5) 0.000(4)
C57 0.073(5) 0.033(3) 0.043(4) 0.000(4) 0.011(3) 0.000(4)
N1 0.103(5) 0.048(3) 0.031(3) 0.006(3) 0.012(3) 0.011(3)
C59 0.073(5) 0.063(4) 0.043(4) 0.017(3) 0.028(4) 0.035(4)
C60 0.055(4) 0.029(3) 0.048(4) 0.011(3) 0.022(3) 0.009(3)
C61 0.094(6) 0.074(6) 0.028(4) 0.003(4) -0.010(4) -0.002(5)
C62 0.064(4) 0.044(4) 0.026(3) -0.004(3) -0.006(3) -0.005(3)
C63 0.078(5) 0.047(4) 0.028(4) 0.005(3) 0.000(3) -0.003(3)
C64 0.084(5) 0.035(3) 0.035(4) 0.006(3) -0.002(4) -0.005(4)
C65 0.080(5) 0.067(5) 0.045(4) 0.025(4) 0.026(4) 0.044(4)
C66 0.090(6) 0.081(6) 0.030(4) 0.001(4) -0.001(4) 0.006(5)
C67 0.103(7) 0.035(4) 0.043(5) 0.003(4) 0.006(4) -0.005(4)
C68 0.102(7) 0.035(3) 0.043(4) -0.001(3) -0.021(4) -0.003(4)
C69 0.071(5) 0.065(5) 0.073(6) -0.006(4) 0.031(4) -0.001(4)
C70 0.087(6) 0.044(4) 0.030(4) -0.004(3) 0.002(4) 0.003(4)
C71 0.062(4) 0.054(4) 0.042(4) 0.011(3) 0.019(3) 0.026(3)
C72 0.085(6) 0.052(4) 0.039(4) -0.004(3) 0.010(4) -0.001(4)
C73 0.076(5) 0.036(3) 0.032(3) 0.002(3) 0.000(3) 0.004(3)
N3 0.096(5) 0.056(4) 0.103(7) -0.027(4) 0.052(5) -0.014(4)
N9 0.204(12) 0.060(5) 0.088(7) 0.016(5) 0.006(7) 0.011(6)
C76 0.076(5) 0.053(4) 0.057(5) 0.001(4) 0.016(4) 0.004(4)
C77 0.085(6) 0.049(4) 0.066(6) 0.001(4) 0.002(4) 0.005(4)
C78 0.100(6) 0.068(5) 0.035(4) -0.007(4) -0.001(4) 0.002(4)
C79 0.123(8) 0.051(4) 0.043(5) 0.001(4) 0.002(5) -0.006(5)
C80 0.132(8) 0.050(5) 0.055(6) 0.000(4) 0.021(5) 0.011(5)
C81 0.087(6) 0.059(5) 0.064(6) -0.013(4) -0.005(5) 0.002(4)
C82 0.118(8) 0.061(5) 0.045(5) -0.011(4) 0.000(5) -0.029(5)
C83 0.135(9) 0.057(5) 0.071(6) -0.005(5) 0.026(6) 0.008(5)
C84 0.127(8) 0.106(7) 0.062(6) 0.047(6) 0.051(6) 0.076(7)
C85 0.090(6) 0.063(5) 0.096(8) -0.032(5) 0.026(6) -0.018(5)
C86 0.102(7) 0.063(5) 0.037(4) 0.007(4) 0.009(4) -0.008(5)
C87 0.236(16) 0.043(5) 0.072(7) 0.003(5) 0.005(8) -0.005(6)
C88 0.104(6) 0.036(4) 0.056(5) 0.001(4) 0.027(4) -0.002(4)
C89 0.270(18) 0.054(6) 0.060(7) 0.023(5) 0.004(9) 0.032(8)
O2 0.370(18) 0.183(9) 0.099(7) 0.073(7) 0.141(10) 0.185(12)
C92 0.28(2) 0.051(6) 0.090(9) 0.021(6) -0.021(11) 0.018(8)
C99 0.28(2) 0.052(6) 0.091(9) -0.003(6) 0.010(10) 0.018(8)
loop_
_atom_type_symbol
_atom_type_description
_atom_type_scat_dispersion_real
_atom_type_scat_dispersion_imag
_atom_type_scat_source
C C 0.0033 0.0016 'International Tables Vol C Tables 4.2.6.8 and 6.1.1.4'
H H 0.0000 0.0000 'International Tables Vol C Tables 4.2.6.8 and 6.1.1.4'
Co Co 0.3494 0.9721 'International Tables Vol C Tables 4.2.6.8 and 6.1.1.4'
N N 0.0061 0.0033 'International Tables Vol C Tables 4.2.6.8 and 6.1.1.4'
O O 0.0106 0.0060 'International Tables Vol C Tables 4.2.6.8 and 6.1.1.4'
loop_
_geom_angle_atom_site_label_1
_geom_angle_atom_site_label_2
_geom_angle_atom_site_label_3
_geom_angle
_geom_angle_site_symmetry_1
_geom_angle_site_symmetry_3
_geom_angle_publ_flag
O3 CoO1 C39 30.20(17) . . ?
O8 CoO1 O3 60.40(15) . . ?
O8 CoO1 N5 90.48(18) . . ?
O8 CoO1 N10 91.5(2) . 4 ?
O8 CoO1 C39 30.22(17) . . ?
N5 CoO1 O3 87.37(19) . . ?
N5 CoO1 C39 88.07(19) . . ?
N10 CoO1 O3 92.9(2) 4 . ?
N10 CoO1 N5 177.89(19) 4 . ?
N10 CoO1 C39 93.3(2) 4 . ?
O15 CoO1 O3 150.06(16) . . ?
O15 CoO1 O8 89.83(17) . . ?
O15 CoO1 N5 89.93(19) . . ?
O15 CoO1 N10 90.8(2) . 4 ?
O15 CoO1 O5 119.56(16) . 3_455 ?
O15 CoO1 C39 119.93(18) . . ?
O5 CoO1 O3 90.08(15) 3_455 . ?
O5 CoO1 O8 150.47(17) 3_455 . ?
O5 CoO1 N5 86.95(18) 3_455 . ?
O5 CoO1 N10 90.96(19) 3_455 4 ?
O5 CoO1 C39 120.25(18) 3_455 . ?
O4 Co2 C7 29.62(18) 3_455 3_455 ?
N2 Co2 O4 93.99(19) 4_454 3_455 ?
N2 Co2 C7 96.8(2) 4_454 3_455 ?
N2 Co2 N4 174.6(2) 4_454 . ?
O7 Co2 O4 59.14(16) 3_455 3_455 ?
O7 Co2 N2 93.24(19) 3_455 4_454 ?
O7 Co2 C7 29.73(18) 3_455 3_455 ?
O7 Co2 N4 91.3(2) 3_455 . ?
O10 Co2 O4 147.90(15) 3_455 3_455 ?
O10 Co2 N2 92.88(19) 3_455 4_454 ?
O10 Co2 O7 89.19(17) 3_455 3_455 ?
O10 Co2 O12 120.09(17) 3_455 . ?
O10 Co2 C7 118.35(19) 3_455 3_455 ?
O10 Co2 N4 90.20(19) 3_455 . ?
O12 Co2 O4 91.18(16) . 3_455 ?
O12 Co2 N2 90.48(18) . 4_454 ?
O12 Co2 O7 150.27(18) . 3_455 ?
O12 Co2 C7 120.54(19) . 3_455 ?
O12 Co2 N4 84.10(19) . . ?
N4 Co2 O4 85.7(2) . 3_455 ?
N4 Co2 C7 85.7(2) . 3_455 ?
C39 O3 CoO1 86.2(3) . . ?
C7 O4 Co2 85.2(4) . 3_545 ?
C37 N2 Co2 123.7(4) . 4 ?
C37 N2 C55 116.4(5) . . ?
C55 N2 Co2 119.4(4) . 4 ?
C7 O7 Co2 93.0(3) . 3_545 ?
C39 O8 CoO1 92.9(3) . . ?
C35 N5 CoO1 123.2(4) . . ?
C35 N5 C53 114.7(5) . . ?
C53 N5 CoO1 122.0(4) . . ?
C42 O10 Co2 160.1(4) . 3_545 ?
C2 C1 C42 118.4(5) . . ?
C31 C1 C2 120.9(5) . . ?
C31 C1 C42 120.7(5) . . ?
C36 N10 CoO1 123.2(4) . 4_454 ?
C68 N10 CoO1 122.2(4) . 4_454 ?
C68 N10 C36 114.5(5) . . ?
C2 C13 C39 120.0(5) . . ?
C4 C13 C2 119.3(5) . . ?
C4 C13 C39 120.7(5) . . ?
C1 C2 C13 119.3(5) . . ?
C32 O12 Co2 120.7(4) . . ?
C3 C4 C13 121.0(5) . . ?
C29 N17 C70 116.5(6) . . ?
C4 C3 C31 119.1(5) . . ?
C4 C3 C60 117.9(5) . . ?
C31 C3 C60 123.0(5) . . ?
C32 O15 CoO1 156.1(4) . . ?
C57 N21 C29 114.1(6) . . ?
C30 C112 C47 120.9(6) . . ?
C45 C112 C30 114.5(6) . . ?
C45 C112 C47 124.5(6) . . ?
C44 C6 C54 121.2(5) . . ?
C44 C6 C62 116.3(6) . . ?
C62 C6 C54 122.5(6) . . ?
C41 C5 C32 120.5(5) . . ?
C41 C5 C59 119.7(5) . . ?
C59 C5 C32 119.8(5) . . ?
C42 O5 CoO1 121.4(3) . 3_545 ?
O4 C7 Co2 65.2(3) . 3_545 ?
O4 C7 O7 121.8(5) . . ?
O4 C7 C27 120.9(6) . . ?
O7 C7 Co2 57.3(3) . 3_545 ?
O7 C7 C27 117.3(5) . . ?
C27 C7 Co2 168.0(5) . 3_545 ?
C41 C27 C7 120.2(5) . . ?
C41 C27 C71 120.8(6) . . ?
C71 C27 C7 118.9(5) . . ?
C36 C28 C40 119.8(6) . . ?
N17 C29 N21 125.0(6) . . ?
N17 C29 C38 116.8(6) . . ?
N21 C29 C38 118.1(6) . . ?
C53 C30 C112 120.7(5) . . ?
C1 C31 C3 120.4(5) . . ?
O12 C32 C5 117.3(5) . . ?
O15 C32 O12 123.6(5) . . ?
O15 C32 C5 119.1(5) . . ?
C64 N7 C51 114.9(5) . . ?
C64 N8 C63 114.7(6) . . ?
N5 C35 C45 124.1(6) . . ?
N10 C36 C28 125.7(6) . . ?
N2 C37 C62 124.0(5) . . ?
C54 C38 C29 124.0(6) . . ?
O3 C39 CoO1 63.5(3) . . ?
O3 C39 C13 120.2(5) . . ?
O8 C39 CoO1 56.9(3) . . ?
O8 C39 O3 120.4(5) . . ?
O8 C39 C13 119.4(5) . . ?
C13 C39 CoO1 175.2(4) . . ?
C28 C40 C52 124.4(6) . . ?
C28 C40 C56 115.5(6) . . ?
C56 C40 C52 120.1(6) . . ?
C27 C41 C5 120.3(6) . . ?
O10 C42 C1 119.0(5) . . ?
O10 C42 O5 124.6(5) . . ?
O5 C42 C1 116.3(5) . . ?
C51 N6 C63 116.2(6) . . ?
C6 C44 C55 121.3(6) . . ?
C35 C45 C112 121.3(6) . . ?
C52 C46 C63 121.1(7) . . ?
C73 C47 C112 126.4(6) . . ?
C67 C49 C77 126.4(8) . . ?
C79 N4 Co2 119.9(5) . . ?
C86 N4 Co2 125.6(5) . . ?
C86 N4 C79 114.5(6) . . ?
N7 C51 C73 118.8(6) . . ?
N6 C51 N7 124.2(6) . . ?
N6 C51 C73 117.0(6) . . ?
C46 C52 C40 124.4(6) . . ?
N5 C53 C30 124.7(5) . . ?
C38 C54 C6 124.5(6) . . ?
N2 C55 C44 122.1(6) . . ?
C68 C56 C40 120.0(7) . . ?
N21 C57 N1 125.7(6) . . ?
N21 C57 C88 119.4(7) . . ?
N1 C57 C88 114.9(7) . . ?
C57 N1 C70 116.0(6) . . ?
C65 C59 C5 120.1(6) . . ?
O6 C60 C3 115.3(5) . . ?
O9 C60 O6 121.9(6) . . ?
O9 C60 C3 122.8(6) . . ?
C72 C61 C79 118.9(8) . . ?
C37 C62 C6 119.9(6) . . ?
N8 C63 C46 115.7(6) . . ?
N6 C63 N8 123.8(6) . . ?
N6 C63 C46 120.4(6) . . ?
N7 C64 N8 126.1(6) . . ?
N7 C64 C67 117.9(6) . . ?
N8 C64 C67 116.0(7) . . ?
C59 C65 C71 120.2(6) . . ?
C59 C65 C84 120.1(6) . . ?
C71 C65 C84 119.8(6) . . ?
C78 C66 C72 125.3(7) . . ?
C49 C67 C64 122.2(7) . . ?
N10 C68 C56 124.5(7) . . ?
C80 C69 C76 122.6(8) . . ?
C80 C69 C81 117.9(8) . . ?
C81 C69 C76 119.3(8) . . ?
N17 C70 C78 121.8(6) . . ?
N1 C70 N17 122.6(6) . . ?
N1 C70 C78 115.6(6) . . ?
C27 C71 C65 118.8(6) . . ?
C61 C72 C66 119.7(7) . . ?
C61 C72 C82 116.6(7) . . ?
C82 C72 C66 123.7(7) . . ?
C47 C73 C51 121.5(6) . . ?
C83 N3 C85 115.7(7) . . ?
C99 N9 C92 116.4(9) . . ?
C88 C76 C69 126.0(8) . . ?
C87 C77 C49 125.2(9) . . ?
C87 C77 C89 115.4(8) . . ?
C89 C77 C49 119.4(8) . . ?
C66 C78 C70 123.5(7) . . ?
N4 C79 C61 125.3(7) . . ?
C69 C80 C83 120.3(8) . . ?
C85 C81 C69 117.6(9) . . ?
C86 C82 C72 120.2(7) . . ?
N3 C83 C80 122.5(9) . . ?
O48 C84 C65 113.7(7) . . ?
O2 C84 O48 123.6(8) . . ?
O2 C84 C65 122.4(8) . . ?
N3 C85 C81 125.9(9) . . ?
N4 C86 C82 124.3(7) . . ?
C77 C87 C99 123.0(11) . . ?
C76 C88 C57 122.6(8) . . ?
C77 C89 C92 119.5(10) . . ?
N9 C92 C89 124.0(12) . . ?
N9 C99 C87 121.5(11) . . ?
loop_
_geom_bond_atom_site_label_1
_geom_bond_atom_site_label_2
_geom_bond_distance
_geom_bond_site_symmetry_2
_geom_bond_publ_flag
CoO1 O3 2.256(5) . ?
CoO1 O8 2.108(4) . ?
CoO1 N5 2.155(5) . ?
CoO1 N10 2.154(5) 4 ?
CoO1 O15 2.036(4) . ?
CoO1 O5 2.040(4) 3_455 ?
CoO1 C39 2.514(6) . ?
Co2 O4 2.286(5) 3_455 ?
Co2 N2 2.174(5) 4_454 ?
Co2 O7 2.115(4) 3_455 ?
Co2 O10 2.027(4) 3_455 ?
Co2 O12 2.028(4) . ?
Co2 C7 2.510(6) 3_455 ?
Co2 N4 2.183(6) . ?
O3 C39 1.267(7) . ?
O4 C7 1.245(7) . ?
N2 C37 1.339(8) . ?
N2 C55 1.375(8) . ?
O6 C60 1.309(8) . ?
O7 C7 1.246(8) . ?
O8 C39 1.267(7) . ?
N5 C35 1.340(8) . ?
N5 C53 1.352(7) . ?
O10 C42 1.248(7) . ?
C1 C2 1.391(7) . ?
C1 C31 1.379(8) . ?
C1 C42 1.524(7) . ?
N10 C36 1.334(8) . ?
N10 C68 1.326(9) . ?
C13 C2 1.417(7) . ?
C13 C4 1.399(8) . ?
C13 C39 1.483(8) . ?
O12 C32 1.256(7) . ?
C4 C3 1.387(8) . ?
N17 C29 1.322(9) . ?
N17 C70 1.348(9) . ?
C3 C31 1.411(7) . ?
C3 C60 1.465(8) . ?
O9 C60 1.216(8) . ?
O15 C32 1.246(7) . ?
N21 C29 1.351(8) . ?
N21 C57 1.330(10) . ?
C112 C30 1.398(9) . ?
C112 C45 1.396(9) . ?
C112 C47 1.458(9) . ?
C6 C44 1.370(9) . ?
C6 C54 1.482(9) . ?
C6 C62 1.415(9) . ?
C5 C32 1.497(8) . ?
C5 C41 1.394(8) . ?
C5 C59 1.405(9) . ?
O5 C42 1.260(6) . ?
C7 C27 1.512(8) . ?
C27 C41 1.393(8) . ?
C27 C71 1.404(9) . ?
C28 C36 1.361(9) . ?
C28 C40 1.372(10) . ?
C29 C38 1.488(9) . ?
C30 C53 1.354(9) . ?
N7 C51 1.347(8) . ?
N7 C64 1.320(9) . ?
N8 C63 1.348(9) . ?
N8 C64 1.339(9) . ?
C35 C45 1.361(10) . ?
C37 C62 1.376(9) . ?
C38 C54 1.304(9) . ?
C40 C52 1.476(10) . ?
C40 C56 1.408(10) . ?
N6 C51 1.334(8) . ?
N6 C63 1.336(9) . ?
C44 C55 1.391(9) . ?
C46 C52 1.334(10) . ?
C46 C63 1.467(10) . ?
C47 C73 1.340(9) . ?
O48 C84 1.253(10) . ?
C49 C67 1.292(11) . ?
C49 C77 1.480(10) . ?
N4 C79 1.341(10) . ?
N4 C86 1.338(9) . ?
C51 C73 1.477(9) . ?
C56 C68 1.365(11) . ?
C57 N1 1.334(10) . ?
C57 C88 1.478(9) . ?
N1 C70 1.344(9) . ?
C59 C65 1.403(9) . ?
C61 C72 1.364(11) . ?
C61 C79 1.383(12) . ?
C64 C67 1.518(10) . ?
C65 C71 1.409(9) . ?
C65 C84 1.484(11) . ?
C66 C72 1.501(11) . ?
C66 C78 1.339(12) . ?
C69 C76 1.514(11) . ?
C69 C80 1.387(12) . ?
C69 C81 1.400(12) . ?
C70 C78 1.442(10) . ?
C72 C82 1.405(11) . ?
N3 C83 1.343(12) . ?
N3 C85 1.361(14) . ?
N9 C92 1.309(15) . ?
N9 C99 1.305(15) . ?
C76 C88 1.280(11) . ?
C77 C87 1.342(13) . ?
C77 C89 1.350(13) . ?
C80 C83 1.396(11) . ?
C81 C85 1.367(12) . ?
C82 C86 1.355(11) . ?
C84 O2 1.194(11) . ?
C87 C99 1.382(14) . ?
C89 C92 1.395(13) . ?
loop_
_twin_individual_id
_twin_individual_mass_fraction_refined
1 0.516(19)
2 0.484(19)
loop_
_smtbx_masks_void_nr
_smtbx_masks_void_average_x
_smtbx_masks_void_average_y
_smtbx_masks_void_average_z
_smtbx_masks_void_volume
_smtbx_masks_void_count_electrons
_smtbx_masks_void_content
1 0.112 -0.192 0.154 314.1 48.7 ?
2 0.112 0.192 0.654 314.1 48.8 ?
3 0.612 0.308 0.154 314.1 48.7 ?
4 0.612 0.692 0.654 314.1 48.8 ?
