#------------------------------------------------------------------------------
#$Date: 2021-03-05 03:55:42 +0200 (Fri, 05 Mar 2021) $
#$Revision: 262606 $
#$URL: file:///home/coder/svn-repositories/cod/cif/7/70/64/7706456.cif $
#------------------------------------------------------------------------------
#
# This file is available in the Crystallography Open Database (COD),
# http://www.crystallography.net/
#
# All data on this site have been placed in the public domain by the
# contributors.
#
data_7706456
loop_
_publ_author_name
'Xia, Tifeng'
'Wan, Yating'
'Yan, Xiayan'
'Hu, Li'
'Wu, Zhigang'
'Zhang, Jun'
_publ_section_title
;
 The ratiometric detection of the biomarker Ap5A for dry eye disease and
 physiological temperature using a rare trinuclear lanthanide
 metal-organic framework.
;
_journal_issue                   8
_journal_name_full
'Dalton transactions (Cambridge, England : 2003)'
_journal_page_first              2792
_journal_page_last               2799
_journal_paper_doi               10.1039/d0dt03647a
_journal_volume                  50
_journal_year                    2021
_chemical_formula_moiety
'0.5(C76 H46 Eu6 O36), 1(O), 0.96(C O), 0.33(H6 O3)'
_chemical_formula_sum            'C38.96 H25 Eu3 O20.96'
_chemical_formula_weight         1284.35
_space_group_crystal_system      hexagonal
_space_group_IT_number           176
_space_group_name_Hall           '-P 6c'
_space_group_name_H-M_alt        'P 63/m'
_atom_sites_solution_hydrogens   mixed
_audit_block_doi                 10.5517/ccdc.csd.cc26fd02
_audit_creation_date             2021-01-14
_audit_creation_method
;
Olex2 1.2-beta
(compiled 2015.08.17 svn.r3210 for OlexSys, GUI svn.r5083)
;
_audit_update_record
;
2021-01-18 deposited with the CCDC.	2021-01-19 downloaded from the CCDC.
;
_cell_angle_alpha                90
_cell_angle_beta                 90
_cell_angle_gamma                120
_cell_formula_units_Z            2
_cell_length_a                   10.5738(4)
_cell_length_b                   10.5738(4)
_cell_length_c                   24.7974(10)
_cell_measurement_reflns_used    7901
_cell_measurement_temperature    293(2)
_cell_measurement_theta_max      23.040
_cell_measurement_theta_min      2.224
_cell_volume                     2401.04(16)
_computing_cell_refinement       'SAINT v7.68A (Bruker, 2009)'
_computing_data_collection       'SAINT v7.68A (Bruker, 2009)'
_computing_data_reduction        'SAINT v7.68A (Bruker, 2009)'
_computing_molecular_graphics    'Olex2 (Dolomanov et al., 2009)'
_computing_publication_material  'Olex2 (Dolomanov et al., 2009)'
_computing_structure_refinement  'ShelXL (Sheldrick, 2015)'
_computing_structure_solution    'SIR2004 (Burla et al., 2007)'
_diffrn_ambient_temperature      293(2)
_diffrn_measured_fraction_theta_full 0.995
_diffrn_measured_fraction_theta_max 0.995
_diffrn_measurement_device_type  'CCD area detector'
_diffrn_measurement_method       'phi and omega scans'
_diffrn_radiation_monochromator  graphite
_diffrn_radiation_type           MoK\a
_diffrn_radiation_wavelength     0.71073
_diffrn_reflns_av_R_equivalents  0.0309
_diffrn_reflns_av_unetI/netI     0.0108
_diffrn_reflns_Laue_measured_fraction_full 0.995
_diffrn_reflns_Laue_measured_fraction_max 0.995
_diffrn_reflns_limit_h_max       11
_diffrn_reflns_limit_h_min       -11
_diffrn_reflns_limit_k_max       11
_diffrn_reflns_limit_k_min       -11
_diffrn_reflns_limit_l_max       26
_diffrn_reflns_limit_l_min       -27
_diffrn_reflns_number            19898
_diffrn_reflns_point_group_measured_fraction_full 0.995
_diffrn_reflns_point_group_measured_fraction_max 0.995
_diffrn_reflns_theta_full        23.140
_diffrn_reflns_theta_max         23.140
_diffrn_reflns_theta_min         1.642
_exptl_absorpt_coefficient_mu    3.944
_exptl_absorpt_correction_T_max  0.437
_exptl_absorpt_correction_T_min  0.345
_exptl_absorpt_correction_type   multi-scan
_exptl_absorpt_process_details
;
SADABS-2008/1 (Bruker,2008) was used for absorption correction.
wR2(int) was 0.0648 before and 0.0340 after correction.
The Ratio of minimum to maximum transmission is 0.8506.
The \l/2 correction factor is 0.0015.
;
_exptl_crystal_colour            colourless
_exptl_crystal_colour_primary    colourless
_exptl_crystal_density_diffrn    1.776
_exptl_crystal_description       block
_exptl_crystal_F_000             1231
_exptl_crystal_size_max          0.28
_exptl_crystal_size_mid          0.25
_exptl_crystal_size_min          0.21
_refine_diff_density_max         1.285
_refine_diff_density_min         -1.621
_refine_diff_density_rms         0.124
_refine_ls_extinction_method     none
_refine_ls_goodness_of_fit_ref   1.175
_refine_ls_hydrogen_treatment    mixed
_refine_ls_matrix_type           full
_refine_ls_number_parameters     182
_refine_ls_number_reflns         1167
_refine_ls_number_restraints     193
_refine_ls_restrained_S_all      2.283
_refine_ls_R_factor_all          0.0428
_refine_ls_R_factor_gt           0.0405
_refine_ls_shift/su_max          0.000
_refine_ls_shift/su_mean         0.000
_refine_ls_structure_factor_coef Fsqd
_refine_ls_weighting_details
'w=1/[\s^2^(Fo^2^)+(0.0479P)^2^+15.6096P] where P=(Fo^2^+2Fc^2^)/3'
_refine_ls_weighting_scheme      calc
_refine_ls_wR_factor_gt          0.1031
_refine_ls_wR_factor_ref         0.1043
_reflns_Friedel_coverage         0.000
_reflns_number_gt                1100
_reflns_number_total             1167
_reflns_threshold_expression     'I > 2\s(I)'
_cod_data_source_file            d0dt03647a2.cif
_cod_data_source_block           EuNDC
_cod_depositor_comments          'Adding full bibliography for 7706456.cif.'
_cod_original_cell_volume        2401.0(2)
_cod_database_code               7706456
_shelx_space_group_comment
;
The symmetry employed for this shelxl refinement is uniquely defined
by the following loop, which should always be used as a source of
symmetry information in preference to the above space-group names.
They are only intended as comments.
;
_olex2_refinement_description
;
1. Fixed Uiso
 At 1.2 times of:
  All C(H) groups
 At 1.5 times of:
  All O(H,H) groups
2. Restrained distances
 C7-O3
 1.3 with sigma of 0.02
 C7-O4
 1.3 with sigma of 0.02
 C8-O6
 1.25 with sigma of 0.001
 O5-H5
 0.85 with sigma of 0.001
 H3AA-O3A
 0.85 with sigma of 0.001
 O3A-H3AB
 0.85 with sigma of 0.001
 O3-C7 \\sim C7-O4
 with sigma of 0.02
 Eu1-H5_$3 \\sim H5_$3-Eu1_$4
 with sigma of 0.02
 Eu1_$4-H5_$3 \\sim H5_$3-Eu1_$3
 with sigma of 0.02
3. Uiso/Uaniso restraints and constraints
O4 \\sim O3 \\sim C7 \\sim O3A \\sim O4A: within 2A with sigma of 0.01 and
sigma for terminal atoms of 0.01
Uanis(O4) \\sim Ueq: with sigma of 0.1 and sigma for terminal atoms of 0.2
Uanis(O2A) = Uanis(O2)
Uanis(C8) = Uanis(O6)
Uanis(C0AA) = Uanis(C2A)
Uanis(C6A) = Uanis(C1AA)
Uanis(C3) = Uanis(C3A)
Uanis(C4A) = Uanis(C4)
Uanis(C5) = Uanis(C5A)
4. Rigid body (RIGU) restrains
 All non-hydrogen atoms
 with sigma for 1-2 distances of 0.004 and sigma for 1-3 distances of 0.004
5. Others
 Sof(C0AA)=Sof(C1AA)=Sof(H1AA)=1-FVAR(1)
 Sof(C2A)=Sof(C6A)=Sof(H6A)=FVAR(1)
 Fixed Sof: O2(0.5) O1A(0.5) O1(0.5) O3(0.33333) O3A(0.16667) H3AA(0.16667)
 H3AB(0.16667) O4(0.33333) C1A(0.5) C1(0.5) C3(0.5) H3(0.5) C4(0.5) C5(0.5)
 H5A(0.5) C7(0.33333) H7(0.33333) O7(0.16667) O2A(0.5) O6(0.16) C8(0.16)
 O4A(0.16667) H4AA(0.16667) H4AB(0.16667) H5(0.16666) C3A(0.5) H3A(0.5)
 C4A(0.5) C5A(0.5) H5AA(0.5)
6.a Rotating group:
 O3A(H3AA,H3AB), O4A(H4AA,H4AB)
6.b Aromatic/amide H refined with riding coordinates:
 C3(H3), C5(H5A), C6A(H6A), C7(H7), C1AA(H1AA), C3A(H3A), C5A(H5AA)
;
_shelx_res_file
;
    ndc.res created by SHELXL-2014/7

TITL NDC in New: P63/m
CELL 0.71073 10.5738 10.5738 24.7974 90 90 120
ZERR 2 0.0004 0.0004 0.001 0 0 0
LATT 1
SYMM -Y+X,+X,0.5+Z
SYMM -Y,+X-Y,+Z
SYMM -X,-Y,0.5+Z
SYMM +Y-X,-X,+Z
SYMM +Y,-X+Y,0.5+Z
SFAC C H Eu O
UNIT 77.92 50 6 41.92
EQIV $1 2-Y,1+X-Y,+Z
EQIV $2 1+Y-X,2-X,1.5-Z
EQIV $3 1-Y,+X-Y,+Z
EQIV $4 1+Y-X,1-X,1.5-Z
DFIX 1.3 C7 O3
DFIX 1.3 C7 O4
DFIX 1.25 0.001 C8 O6
DFIX 0.85 0.001 O5 H5
DFIX 0.85 0.001 H3Aa O3A
DFIX 0.85 0.001 O3A H3Ab
SADI O3 C7 C7 O4
SADI Eu1 H5_$3 H5_$3 Eu1_$4
SADI Eu1_$4 H5_$3 H5_$3 Eu1_$3
SIMU 0.01 0.01 2 O4 O3 C7 O3A O4A
RIGU
ISOR O4
EADP O2A O2
EADP C8 O6
EADP C0AA C2A
EADP C6A C1AA
EADP C3 C3A
EADP C4A C4
EADP C5 C5A

L.S. 15
PLAN  -20
BIND O4 Eu1_$2
BIND Eu1 O4A_$1
LIST 6
BOND $H
CONF
MORE -1
fmap 2
acta
SHEL 999 0.837
OMIT 0 1 4
OMIT -1 3 2
OMIT 0 1 0
OMIT -1 2 0
OMIT 0 2 0
REM <olex2.extras>
REM <HklSrc "%.\\NDC.hkl">
REM </olex2.extras>

WGHT    0.047900   15.609600
FVAR       0.07130   0.40539
EU1   3    0.829381    0.585557    0.750000    10.50000    0.04750    0.03268 =
         0.03756    0.00000    0.00000    0.01830
PART 2
O2    4    0.962743    0.525925    0.691568    10.50000    0.06420    0.08887 =
         0.03183    0.00572    0.01160    0.04250
PART 0
PART 1
O1A   4    0.758642    0.580203    0.657459    10.50000    0.05524    0.07932 =
         0.04117    0.01201   -0.00292    0.02764
PART 0
PART 2
O1    4    0.705357    0.543160    0.668241    10.50000    0.07712    0.07344 =
         0.05059    0.02262   -0.01063    0.02630
PART 0
PART -1
O3    4    0.738789    0.752654    0.761969    10.33333    0.14536    0.06909 =
         0.05007    0.00287    0.00955    0.07634
PART 0
PART -2
O3A   4    0.800538    0.789890    0.757974    10.16667    0.14532    0.06781 =
         0.05035    0.00393    0.01011    0.07443
AFIX   7
H3AA  2    0.843947    0.865013    0.779321    10.16667   -1.50000
H3AB  2    0.766278    0.826808    0.732351    10.16667   -1.50000
AFIX   0
PART 0
PART -1
O4    4    0.720849    0.943007    0.768077    10.33333    0.15064    0.07169 =
         0.05026   -0.00013    0.01076    0.08384
PART 0
O5    4    0.666667    0.333333    0.750000    10.16667    0.02298    0.02298 =
         0.01770    0.00000    0.00000    0.01149
PART 1
C1A   1    0.626902    0.523063    0.654607    10.50000    0.05280    0.04517 =
         0.03469    0.00994   -0.00060    0.02291
PART 0
PART 2
C1    1    0.571852    0.489351    0.657432    10.50000    0.07897    0.03912 =
         0.03843    0.00753   -0.00959    0.02735
PART 0
PART 1
C2A   1    0.565601    0.509069    0.597753    21.00000    0.06682    0.05039 =
         0.03544    0.00974   -0.00413    0.02882
C3    1    0.642826    0.543692    0.556695    10.50000    0.07009    0.06130 =
         0.03406    0.00992   -0.00396    0.03267
AFIX  43
H3    2    0.743304    0.583207    0.559676    10.50000   -1.20000
AFIX   0
C4    1    0.567101    0.519506    0.497429    10.50000    0.06547    0.06525 =
         0.03281    0.00966   -0.00191    0.03630
C5    1    0.659138    0.550235    0.462071    10.50000    0.07439    0.10932 =
         0.03534    0.01121    0.00169    0.04680
AFIX  43
H5A   2    0.755387    0.573361    0.467516    10.50000   -1.20000
AFIX   0
C6A   1    0.415130    0.456278    0.595492    21.00000    0.06946    0.08548 =
         0.04207    0.00743   -0.00590    0.03666
AFIX  43
H6A   2    0.358794    0.425424    0.626676    21.00000   -1.20000
AFIX   0
PART 0
PART -1
C7    1    0.748318    0.862103    0.734856    10.33333    0.14599    0.06865 =
         0.05090    0.00123    0.00919    0.08065
AFIX  43
H7    2    0.770606    0.880350    0.698392    10.33333   -1.20000
AFIX   0

PART 0
O7    4    1.000000    1.000000    0.610703    10.16667    0.34148    0.34148 =
         0.02978    0.00000    0.00000    0.17074

PART 1
O2A   4    0.925279    0.455015    0.695711    10.50000    0.06420    0.08887 =
         0.03183    0.00572    0.01160    0.04250

PART 0
PART -1
O6    4    1.305719    1.637607    0.700991    10.16000    0.03730    0.04568 =
         0.08338    0.02363    0.00431   -0.00207
C8    1    1.231455    1.591997    0.743132    10.16000    0.03730    0.04568 =
         0.08338    0.02363    0.00431   -0.00207

PART 0
PART -3
O4A   4    0.712125    0.942436    0.788612    10.16667    0.14689    0.07034 =
         0.05114   -0.00220    0.01568    0.08445
AFIX   7
H4AA  2    0.683005    0.936346    0.820952    10.16667   -1.50000
H4AB  2    0.789845    0.937336    0.788163    10.16667   -1.50000
AFIX   0

PART 0
H5    2    0.666667    0.333333    0.784277    10.16666    0.03187
PART 2
C0AA  1    0.528851    0.490903    0.600570   -21.00000    0.06682    0.05039 =
         0.03544    0.00974   -0.00413    0.02882
C1AA  1    0.379631    0.453576    0.589776   -21.00000    0.06946    0.08548 =
         0.04207    0.00743   -0.00590    0.03666
AFIX  43
H1AA  2    0.317312    0.434190    0.618961   -21.00000   -1.20000
AFIX   0
C3A   1    0.616397    0.515775    0.556966    10.50000    0.07009    0.06130 =
         0.03406    0.00992   -0.00396    0.03267
AFIX  43
H3A   2    0.709307    0.529534    0.562883    10.50000   -1.20000
AFIX   0
C4A   1    0.578467    0.521519    0.507628    10.50000    0.06547    0.06525 =
         0.03281    0.00966   -0.00191    0.03630
C5A   1    0.666825    0.553555    0.453439    10.50000    0.07439    0.10932 =
         0.03534    0.01121    0.00169    0.04680
AFIX  43
H5AA  2    0.764887    0.580600    0.456143    10.50000   -1.20000
AFIX   0
HKLF 4

REM  NDC in New: P63/m
REM R1 =  0.0405 for    1100 Fo > 4sig(Fo)  and  0.0428 for all    1167 data
REM    182 parameters refined using    193 restraints

END

WGHT      0.0479     15.6132

REM Highest difference peak  1.285,  deepest hole -1.621,  1-sigma level  0.124
Q1    1   0.9595  0.7826  0.8229  11.00000  0.05    1.28
Q2    1   0.8879  0.6042  0.7244  11.00000  0.05    0.71
Q3    1   0.8284  0.6832  0.7500  10.50000  0.05    0.63
Q4    1   0.8385  0.4976  0.7500  10.50000  0.05    0.57
Q5    1   0.4775  0.7393  0.7500  10.50000  0.05    0.56
Q6    1   0.9724  0.9027  0.9037  11.00000  0.05    0.55
Q7    1   0.8641  0.8646  0.9020  11.00000  0.05    0.49
Q8    1   1.0000  1.0000  0.7767  10.33333  0.05    0.49
Q9    1   0.6054  0.7477  0.7500  10.50000  0.05    0.43
Q10   1   1.0000  1.0000  0.9283  10.33333  0.05    0.40
Q11   1   0.9222  0.8489  0.8532  11.00000  0.05    0.39
Q12   1   0.9803  0.8019  0.7683  11.00000  0.05    0.39
Q13   1   0.4076  0.6674  0.8065  11.00000  0.05    0.38
Q14   1   0.6165  0.4771  0.6799  11.00000  0.05    0.34
Q15   1   0.6712  0.7880  0.7500  10.50000  0.05    0.34
Q16   1   1.0030  0.6158  0.8122  11.00000  0.05    0.33
Q17   1   0.3333  0.6667  0.8237  10.33333  0.05    0.31
Q18   1   0.6962  0.5752  0.5083  11.00000  0.05    0.31
Q19   1   0.3976  0.5812  0.7500  10.50000  0.05    0.29
Q20   1   0.6124  0.8198  0.7931  11.00000  0.05    0.29
;
_shelx_res_checksum              31650
_shelx_hkl_file
;
   0  -1   0   36.22    0.64
   0  -1   0   36.17    0.65
   0   1   0   35.98    0.61
   0   1   0   35.12    0.64
   0  -2   0   49.50    0.97
   0  -2   0   50.49    0.95
   0  -2   0   48.83    0.94
   0   2   0   50.00    0.88
   0   2   0   49.17    0.97
   0  -3   0  128.26    2.18
   0  -3   0  125.03    2.21
   0  -3   0  123.93    2.17
   0   3   0  124.36    2.10
   0   3   0  123.85    2.19
   0  -4   0    8.73    0.45
   0  -4   0    8.53    0.50
   0  -4   0    8.95    0.49
   0   4   0    8.63    0.33
   0   4   0    8.87    0.49
   0  -5   0   49.12    1.18
   0  -5   0   47.40    1.17
   0   5   0   46.16    0.97
   0   5   0   49.02    1.24
   0  -6   0   27.36    0.97
   0  -6   0   26.85    0.93
   0   6   0   27.92    0.72
   0   6   0   28.29    1.03
   0  -7   0    4.29    0.58
   0  -7   0    5.60    0.60
   0   7   0    4.95    0.64
   0  -8   0    1.38    0.55
   0  -8   0    0.80    0.46
   0   8   0    0.67    0.50
   0  -9   0    1.69    0.58
   0  -9   0    2.46    0.58
   0   9   0    1.50    0.60
   0 -10   0    0.27    0.55
   0 -10   0    1.38    0.61
   0  10   0    0.32    0.60
   1   9   0    0.61    0.51
  -1  -9   0   -0.90    0.53
  -1  -9   0    0.10    0.49
   1   8   0    9.32    0.86
  -1  -8   0    8.07    0.78
  -1  -8   0    7.98    0.75
   1   7   0   76.38    1.95
  -1  -7   0   75.06    1.86
  -1  -7   0   74.54    1.86
   1   6   0    2.38    0.33
   1   6   0    1.84    0.46
  -1  -6   0    2.69    0.51
  -1  -6   0    2.34    0.50
   1   5   0   21.71    0.84
   1   5   0   19.71    0.63
  -1  -5   0   19.80    0.81
  -1  -5   0   20.65    0.80
   1   4   0   16.96    0.68
   1   4   0   16.12    0.52
  -1  -4   0   17.12    0.68
  -1  -4   0   16.53    0.67
   1   3   0    1.32    0.28
   1   3   0    1.27    0.20
  -1  -3   0    0.99    0.28
  -1  -3   0    1.44    0.29
   1   2   0   52.13    1.00
   1   2   0   51.98    1.09
  -1  -2   0   52.36    1.05
  -1  -2   0   52.07    1.09
   1   1   0   50.64    0.93
   1   1   0   48.59    0.95
  -1  -1   0   49.72    0.93
  -1  -1   0   49.26    0.95
   1   0   0   36.17    0.66
   1   0   0   37.26    0.69
   1  -1   0   36.14    0.64
   1  -1   0   36.42    0.66
   1  -1   0   36.09    0.65
   1  -2   0   49.40    0.91
   1  -2   0   50.34    0.86
   1  -2   0   48.14    0.95
   1  -2   0   49.37    0.94
   1  -3   0  148.90    2.51
   1  -3   0  156.15    2.48
   1  -3   0  147.47    2.58
   1  -3   0  149.82    2.58
   1  -4   0  144.81    2.59
   1  -4   0  146.24    2.60
   1  -4   0  148.93    2.45
   1  -4   0  145.97    2.54
  -1   4   0  147.88    2.43
  -1   4   0  144.51    2.56
   1  -5   0  342.00    5.72
   1  -5   0  345.16    5.74
   1  -5   0  350.87    5.61
   1  -5   0  346.27    5.61
  -1   5   0  344.73    5.58
  -1   5   0  335.66    5.64
   1  -6   0    1.10    0.35
   1  -6   0    0.95    0.36
   1  -6   0    1.01    0.21
   1  -6   0    0.44    0.35
  -1   6   0    0.70    0.20
  -1   6   0    0.60    0.36
   1  -7   0    9.47    0.71
   1  -7   0    9.11    0.71
   1  -7   0    8.91    0.66
  -1   7   0    9.09    0.71
   1  -8   0    5.12    0.66
   1  -8   0    5.88    0.64
  -1   8   0    5.52    0.69
   1  -9   0    1.39    0.49
   1  -9   0    1.79    0.57
  -1   9   0    2.66    0.60
   1 -10   0   32.63    1.33
   1 -10   0   32.86    1.26
  -1  10   0   33.12    1.40
   2   8   0   -0.95    0.47
  -2  -8   0    0.54    0.52
  -2  -8   0    0.34    0.54
   2   7   0   19.49    1.07
  -2  -7   0   19.33    0.99
  -2  -7   0   22.04    1.03
   2   6   0   14.57    0.93
  -2  -6   0   13.19    0.83
  -2  -6   0   13.22    0.86
   2   5   0    4.03    0.39
   2   5   0    4.66    0.56
   2   5   0    3.98    0.41
  -2  -5   0    3.56    0.51
  -2  -5   0    3.60    0.51
   2   4   0   37.39    0.89
   2   4   0   37.82    0.93
   2   4   0   36.20    1.11
  -2  -4   0   37.83    1.07
  -2  -4   0   37.33    1.07
   2   3   0   18.03    0.73
   2   3   0   19.11    0.57
   2   3   0   19.18    0.63
  -2  -3   0   19.21    0.70
  -2  -3   0   18.47    0.71
   2   2   0   77.90    1.40
   2   2   0   78.08    1.56
   2   2   0   77.72    1.50
  -2  -2   0   78.74    1.57
  -2  -2   0   79.90    1.54
   2   1   0  153.32    2.62
   2   1   0  150.63    2.57
  -2  -1   0  150.23    2.56
  -2  -1   0  149.14    2.60
   2   0   0   50.10    1.01
   2   0   0   49.29    0.98
   2  -1   0   49.79    0.92
   2  -1   0   48.68    0.96
   2  -1   0   48.55    0.93
   2  -2   0   48.72    0.95
   2  -2   0   50.70    1.03
   2  -2   0   51.97    0.99
   2  -2   0   51.10    0.99
   2  -3   0   49.77    1.07
   2  -3   0   50.84    1.02
   2  -3   0   51.90    0.97
   2  -4   0   79.96    1.38
   2  -4   0   77.36    1.49
   2  -4   0   78.16    1.57
   2  -5   0  176.79    3.17
   2  -5   0  181.74    2.94
   2  -5   0  173.99    3.05
   2  -5   0  175.27    3.14
   2  -6   0   12.87    0.65
   2  -6   0   12.66    0.71
   2  -6   0   12.92    0.62
   2  -6   0   13.93    0.42
  -2   6   0   13.40    0.68
   2  -7   0   22.44    0.86
   2  -7   0   23.70    0.90
   2  -7   0   24.53    0.96
  -2   7   0   23.99    0.94
   2  -8   0   68.57    1.67
   2  -8   0   69.88    1.78
   2  -8   0   67.10    1.70
  -2   8   0   67.49    1.73
   2  -9   0    6.68    0.72
   2  -9   0    5.13    0.62
   2  -9   0    6.47    0.72
  -2   9   0    4.78    0.69
   2 -10   0    0.63    0.54
   2 -10   0    0.14    0.47
  -2  10   0    0.50    0.50
   3   8   0   -0.11    0.53
  -3  -8   0    0.53    0.57
   3   7   0    3.92    0.67
  -3  -7   0    3.05    0.61
  -3  -7   0    3.69    0.64
   3   6   0    9.63    0.82
  -3  -6   0    8.82    0.79
  -3  -6   0    9.32    0.78
   3   5   0   12.97    0.88
   3   5   0   12.62    0.68
  -3  -5   0   10.45    0.80
  -3  -5   0   13.68    0.83
   3   4   0   50.09    1.41
   3   4   0   52.25    1.26
  -3  -4   0   52.56    1.38
  -3  -4   0   51.14    1.38
   3   3   0   38.19    0.99
   3   3   0   38.57    1.12
   3   3   0   38.66    0.89
  -3  -3   0   37.86    1.09
  -3  -3   0   40.17    1.10
   3   2   0  171.47    3.10
   3   2   0  176.77    3.12
   3   2   0  178.91    2.93
  -3  -2   0  174.99    3.09
  -3  -2   0  172.43    3.15
   3   1   0  141.72    2.57
   3   1   0  146.14    2.62
   3   1   0  146.69    2.43
  -3  -1   0  146.60    2.58
  -3  -1   0  146.22    2.62
   3   0   0  126.65    2.22
   3   0   0  127.35    2.12
   3   0   0  126.77    2.31
  -3   0   0  124.41    2.25
   3  -1   0   52.83    1.08
   3  -1   0   52.92    1.05
   3  -1   0   50.95    1.11
   3  -2   0  151.97    2.58
   3  -2   0  143.96    2.61
   3  -2   0  152.82    2.54
   3  -3   0  127.38    2.23
   3  -3   0  127.38    2.28
   3  -3   0  125.57    2.20
   3  -3   0  127.57    2.25
   3  -4   0    0.93    0.23
   3  -4   0    1.19    0.26
   3  -4   0    1.48    0.33
   3  -5   0   18.52    0.56
   3  -5   0   18.15    0.64
   3  -5   0   17.49    0.68
   3  -6   0   39.21    1.01
   3  -6   0   38.49    0.83
   3  -6   0   37.79    1.12
   3  -7   0    6.47    0.54
   3  -7   0    5.02    0.59
   3  -8   0    7.78    0.65
   3  -8   0    6.90    0.71
  -3   8   0    7.49    0.68
   3  -9   0   13.37    0.78
   3  -9   0   13.01    0.90
  -3   9   0   13.41    0.95
   3 -10   0   17.57    1.04
   3 -10   0   17.34    0.91
  -3  10   0   17.21    0.98
   3 -11   0    0.03    0.47
  -3  11   0    0.75    0.56
   4   7   0    8.68    0.90
  -4  -7   0    9.50    0.92
   4   6   0   22.50    1.12
  -4  -6   0   20.81    1.05
  -4  -6   0   20.14    1.05
   4   5   0   15.92    0.96
   4   5   0   14.19    0.74
  -4  -5   0   15.89    0.94
  -4  -5   0   14.41    0.92
   4   4   0   29.67    1.15
   4   4   0   30.18    1.00
  -4  -4   0   30.36    1.09
  -4  -4   0   30.27    1.13
   4   3   0    5.91    0.52
   4   3   0    5.26    0.57
  -4  -3   0    5.08    0.59
  -4  -3   0    5.88    0.60
   4   2   0   15.79    0.75
   4   2   0   13.86    0.52
   4   2   0   14.42    0.70
  -4  -2   0   14.73    0.72
  -4  -2   0   13.98    0.72
   4   1   0  346.34    5.67
   4   1   0  330.67    5.50
   4   1   0  352.16    5.83
  -4  -1   0  338.99    5.64
  -4  -1   0  344.05    5.76
   4   0   0    9.34    0.53
   4   0   0    8.34    0.51
   4   0   0    8.49    0.43
  -4   0   0    9.17    0.48
   4  -1   0    0.90    0.25
   4  -1   0    1.08    0.30
   4  -1   0    1.68    0.27
   4  -2   0   78.97    1.52
   4  -2   0   79.46    1.54
   4  -2   0   77.43    1.58
   4  -3   0  149.18    2.65
   4  -3   0  145.15    2.62
   4  -3   0  146.58    2.59
   4  -4   0    8.47    0.58
   4  -4   0    8.49    0.49
   4  -4   0    8.85    0.48
   4  -4   0    9.25    0.53
   4  -5   0   16.55    0.61
   4  -5   0   16.57    0.76
   4  -5   0   17.03    0.65
   4  -6   0   36.39    0.98
   4  -6   0   34.52    0.86
   4  -6   0   32.95    1.04
   4  -7   0   52.26    1.46
   4  -7   0   53.61    1.32
   4  -8   0   31.68    1.04
   4  -8   0   30.66    1.21
   4  -9   0    5.47    0.72
   4  -9   0    4.61    0.60
   4 -10   0   13.33    0.82
   4 -10   0   14.63    1.00
  -4  10   0   14.99    0.93
   4 -11   0   17.51    0.96
   4 -11   0   20.89    1.15
  -4  11   0   18.86    1.08
   5   6   0    4.91    0.76
  -5  -6   0    7.54    0.84
   5   5   0    2.00    0.50
   5   5   0    1.35    0.54
  -5  -5   0    1.37    0.57
  -5  -5   0    1.17    0.55
   5   4   0    6.15    0.71
   5   4   0    5.62    0.61
  -5  -4   0    5.75    0.70
  -5  -4   0    6.35    0.73
   5   3   0    6.89    0.62
   5   3   0    7.44    0.72
  -5  -3   0    7.43    0.71
  -5  -3   0    6.25    0.69
   5   2   0   24.48    0.91
   5   2   0   26.00    1.00
  -5  -2   0   24.75    0.94
  -5  -2   0   24.68    0.98
   5   1   0    0.81    0.35
   5   1   0    0.91    0.39
   5   1   0    0.65    0.28
  -5  -1   0    0.88    0.37
  -5  -1   0    0.93    0.38
   5   0   0   45.93    1.03
   5   0   0   49.37    1.22
   5   0   0   47.05    1.26
  -5   0   0   48.04    1.23
   5  -1   0   15.30    0.63
   5  -1   0   15.90    0.63
   5  -1   0   16.30    0.71
   5  -2   0   18.50    0.73
   5  -2   0   18.98    0.66
   5  -2   0   19.78    0.68
   5  -3   0  180.75    3.12
   5  -3   0  175.35    3.20
   5  -3   0  172.57    3.12
   5  -4   0  355.68    5.88
   5  -4   0  342.74    5.83
   5  -4   0  342.91    5.71
   5  -5   0   47.18    1.16
   5  -5   0   48.38    1.17
   5  -5   0   47.08    1.22
   5  -5   0   46.82    1.20
   5  -6   0   21.69    0.94
   5  -6   0   21.50    0.79
   5  -6   0   19.58    0.73
   5  -7   0    3.41    0.48
   5  -7   0    3.65    0.59
   5  -7   0    3.56    0.41
   5  -8   0   12.67    0.93
   5  -8   0   11.80    0.74
   5  -9   0   15.57    0.82
   5  -9   0   12.34    0.86
   5 -10   0    1.78    0.49
   5 -10   0    1.53    0.61
   5 -11   0    0.84    0.62
   5 -11   0    0.12    0.49
  -5  11   0   -0.12    0.57
   6   5   0   -0.18    0.46
   6   5   0    0.09    0.52
  -6  -5   0    0.04    0.57
   6   4   0   13.32    0.94
   6   4   0   12.22    0.84
  -6  -4   0   14.74    0.95
  -6  -4   0   13.76    0.93
   6   3   0   11.88    0.83
   6   3   0   12.18    0.87
  -6  -3   0   15.11    0.91
  -6  -3   0   13.44    0.90
   6   2   0   72.86    1.76
   6   2   0   66.79    1.75
  -6  -2   0   64.63    1.76
  -6  -2   0   64.45    1.74
   6   1   0    9.64    0.74
   6   1   0    9.47    0.74
  -6  -1   0    9.44    0.73
  -6  -1   0    9.89    0.72
   6   0   0   26.62    0.78
   6   0   0   27.81    1.03
   6   0   0   28.07    0.98
  -6   0   0   25.54    1.00
  -6   0   0   27.10    1.00
   6  -1   0   19.25    0.72
   6  -1   0   18.18    0.83
   6  -1   0   19.53    0.77
   6  -2   0   37.70    1.08
   6  -2   0   35.94    0.99
   6  -2   0   36.82    1.11
   6  -3   0   38.04    1.07
   6  -3   0   38.83    1.06
   6  -3   0   37.57    1.10
   6  -4   0   11.56    0.71
   6  -4   0   14.33    0.67
   6  -4   0   13.06    0.73
   6  -5   0    0.88    0.38
   6  -5   0    0.36    0.34
   6  -5   0    0.89    0.44
   6  -6   0   26.66    0.91
   6  -6   0   29.14    1.08
   6  -6   0   28.67    0.96
   6  -6   0   26.70    1.00
   6  -7   0    2.61    0.47
   6  -7   0    1.98    0.59
   6  -7   0    2.89    0.46
   6  -8   0   11.33    0.90
   6  -8   0   13.28    0.79
   6  -9   0    9.00    0.73
   6  -9   0    8.73    0.84
   6 -10   0   19.78    1.11
   6 -10   0   20.76    0.96
   6 -11   0    5.89    0.83
   6 -11   0    5.86    0.70
   7   4   0   19.61    1.10
   7   4   0   17.81    1.00
  -7  -4   0   16.69    1.05
   7   3   0   15.02    0.89
   7   3   0   16.35    0.99
  -7  -3   0   16.58    1.01
  -7  -3   0   16.59    1.04
   7   2   0    5.57    0.64
   7   2   0    5.87    0.68
  -7  -2   0    5.33    0.69
  -7  -2   0    4.40    0.65
   7   1   0    5.22    0.65
   7   1   0    6.34    0.66
  -7  -1   0    6.67    0.71
  -7  -1   0    6.18    0.70
   7   0   0    5.07    0.63
   7   0   0    4.77    0.56
  -7   0   0    4.26    0.60
  -7   0   0    4.45    0.62
   7  -1   0    1.27    0.41
   7  -1   0    2.03    0.44
   7  -1   0    2.47    0.57
  -7   1   0    2.73    0.51
   7  -2   0    3.87    0.60
   7  -2   0    4.46    0.52
   7  -2   0    3.61    0.49
   7  -3   0   50.42    1.40
   7  -3   0   50.14    1.31
   7  -3   0   50.00    1.33
   7  -4   0    6.62    0.60
   7  -4   0    4.18    0.55
   7  -4   0    4.58    0.52
   7  -5   0   21.68    0.88
   7  -5   0   22.74    1.00
   7  -5   0   22.90    0.96
   7  -6   0    8.71    0.68
   7  -6   0    7.84    0.73
   7  -6   0    9.07    0.68
   7  -7   0    3.80    0.66
   7  -7   0    5.09    0.57
   7  -7   0    4.48    0.57
   7  -8   0   74.29    1.81
   7  -8   0   76.31    2.00
   7  -9   0   20.19    1.13
   7  -9   0   18.96    0.94
   7 -10   0    3.04    0.67
   7 -10   0    2.49    0.54
   7 -11   0    8.54    0.80
   7 -11   0    7.44    0.91
   8   3   0    0.44    0.49
   8   3   0   -0.63    0.53
  -8  -3   0   -0.48    0.55
   8   2   0    0.11    0.54
   8   2   0    0.70    0.50
  -8  -2   0    1.27    0.61
  -8  -2   0    0.67    0.56
   8   1   0    1.03    0.48
   8   1   0    1.33    0.57
  -8  -1   0    1.03    0.58
  -8  -1   0    2.75    0.61
   8   0   0    0.82    0.44
   8   0   0    0.15    0.47
  -8   0   0    0.68    0.49
  -8   0   0    0.34    0.53
   8  -1   0   75.50    1.95
   8  -1   0   72.54    1.86
  -8   1   0   70.48    1.88
   8  -2   0   11.62    0.81
   8  -2   0   11.17    0.84
   8  -3   0   10.27    0.78
   8  -3   0   12.23    0.82
   8  -3   0   11.85    0.88
   8  -4   0   31.98    1.16
   8  -4   0   29.56    1.12
   8  -4   0   29.09    1.19
   8  -5   0    6.87    0.72
   8  -5   0    7.09    0.66
   8  -5   0    7.92    0.74
   8  -6   0   69.01    1.75
   8  -6   0   66.09    1.75
   8  -6   0   69.32    1.78
   8  -7   0    5.99    0.69
   8  -7   0    4.76    0.62
   8  -7   0    5.29    0.74
   8  -8   0    0.64    0.43
   8  -8   0    1.12    0.56
   8  -9   0    7.02    0.82
   8  -9   0    8.82    0.73
   8 -10   0   -0.23    0.45
   8 -10   0    1.41    0.63
   8 -11   0    0.61    0.51
   8 -11   0    0.95    0.64
   9   1   0   31.06    1.31
   9   1   0   32.32    1.34
  -9  -1   0   31.68    1.30
  -9  -1   0   31.83    1.37
   9   0   0    1.04    0.49
   9   0   0    1.41    0.61
  -9   0   0    2.27    0.61
  -9   0   0    2.27    0.66
   9  -1   0    7.49    0.75
   9  -1   0    8.02    0.79
  -9   1   0    7.94    0.81
  -9   1   0    7.24    0.79
   9  -2   0   16.51    0.98
   9  -2   0   21.68    1.03
  -9   2   0   18.57    1.00
   9  -3   0    9.66    0.78
   9  -3   0   10.67    0.89
   9  -4   0   14.28    0.89
   9  -4   0   13.73    0.89
   9  -4   0   13.96    0.91
   9  -5   0    4.62    0.63
   9  -5   0    4.70    0.67
   9  -5   0    6.39    0.71
   9  -6   0   11.97    0.89
   9  -6   0   13.35    0.88
   9  -6   0   12.19    0.91
   9  -7   0    5.32    0.67
   9  -7   0    5.41    0.66
   9  -7   0    5.57    0.72
   9  -8   0    1.11    0.53
   9  -8   0    1.85    0.63
   9  -9   0    2.12    0.66
   9 -10   0   -0.07    0.60
   9 -10   0    0.00    0.50
  10   0   0    0.17    0.62
  10   0   0    0.41    0.50
 -10   0   0    1.60    0.62
 -10   0   0    0.53    0.64
  10  -1   0   -0.28    0.52
  10  -1   0    0.43    0.50
 -10   1   0   -0.05    0.53
 -10   1   0    0.04    0.59
  10  -2   0   -0.64    0.54
  10  -2   0    0.31    0.46
 -10   2   0    0.14    0.51
  10  -3   0    1.99    0.60
  10  -3   0    3.40    0.59
  10  -4   0   21.55    1.06
  10  -4   0   18.81    1.03
  10  -5   0    1.87    0.50
  10  -5   0    1.27    0.54
  10  -5   0    0.60    0.54
  10  -6   0   15.24    1.03
  10  -6   0   12.29    0.91
  10  -6   0   13.02    0.96
  10  -7   0   17.90    1.05
  10  -7   0   12.21    0.95
  10  -7   0   14.48    0.96
  10  -8   0    0.60    0.54
  10  -8   0    0.40    0.56
  10  -8   0    0.76    0.64
  10  -9   0   32.06    1.39
  10 -10   0    0.51    0.65
  11  -3   0    0.23    0.56
  11  -3   0    0.57    0.54
 -11   3   0    0.49    0.56
  11  -4   0    8.21    0.82
  11  -4   0    5.51    0.84
  11  -5   0    4.17    0.66
  11  -5   0    5.28    0.76
  11  -6   0   -0.13    0.54
  11  -6   0    0.25    0.50
  11  -6   0   -0.49    0.56
  11  -7   0   17.86    1.07
  11  -7   0   16.55    1.08
  11  -7   0   19.34    1.10
  11  -8   0    0.16    0.57
  11  -8   0   -0.50    0.45
  11  -8   0    1.19    0.64
  11  -8   1    1.44    0.60
  11  -8   1    2.20    0.63
  11  -8   1    1.61    0.66
  11  -7   1    0.64    0.56
  11  -7   1    1.56    0.63
  11  -7   1    0.93    0.56
  11  -6   1    3.89    0.72
  11  -6   1    5.08    0.71
  11  -5   1   12.00    1.00
  11  -5   1   14.07    0.98
  11  -4   1   13.27    0.97
  11  -4   1   16.38    1.03
 -11   3  -1    6.38    0.82
  11  -3   1    5.28    0.77
  11  -3   1    7.50    0.84
  10 -10   1    8.51    0.94
  10  -9   1    0.04    0.63
  10  -8   1    8.69    0.89
  10  -8   1    7.53    0.77
  10  -8   1    7.94    0.80
  10  -7   1   31.81    1.28
  10  -7   1   28.13    1.16
  10  -7   1   30.86    1.27
  10  -6   1   29.04    1.21
  10  -6   1   28.60    1.16
  10  -6   1   25.29    1.18
  10  -5   1    7.58    0.72
  10  -5   1    6.53    0.75
  10  -5   1    5.89    0.71
  10  -4   1    1.15    0.52
  10  -4   1   -0.51    0.54
 -10   3  -1    4.97    0.71
  10  -3   1    2.02    0.58
  10  -3   1    1.90    0.56
 -10   2  -1    2.65    0.59
  10  -2   1    1.85    0.56
  10  -2   1    1.86    0.59
 -10   1  -1    4.25    0.75
 -10   1  -1    3.30    0.71
  10  -1   1    4.16    0.69
  10  -1   1    3.57    0.73
 -10   0  -1    6.87    0.83
 -10   0  -1    8.27    0.91
  10   0   1    7.97    0.86
  10   0   1    6.97    0.86
   9 -10   1    2.46    0.60
   9 -10   1    3.47    0.75
   9  -9   1   19.10    1.11
   9  -8   1   10.52    0.81
   9  -8   1   13.12    0.96
   9  -7   1   -1.08    0.44
   9  -7   1    0.84    0.49
   9  -7   1    0.61    0.54
   9  -6   1    2.25    0.58
   9  -6   1    3.46    0.63
   9  -6   1    3.11    0.55
   9  -5   1    3.36    0.62
   9  -5   1    2.13    0.51
   9  -5   1    2.25    0.60
   9  -4   1    0.82    0.52
   9  -4   1    0.20    0.54
   9  -4   1    0.83    0.47
   9  -3   1    1.92    0.59
   9  -3   1    1.72    0.52
  -9   2  -1   39.37    1.39
   9  -2   1   38.67    1.35
   9  -2   1   36.90    1.32
  -9   1  -1   11.74    0.90
  -9   1  -1   12.41    0.92
   9  -1   1   12.14    0.92
   9  -1   1   12.33    0.83
  -9   0  -1   16.69    1.03
  -9   0  -1   17.12    1.04
   9   0   1   17.97    1.01
   9   0   1   15.10    0.96
  -9  -1  -1    0.07    0.58
  -9  -1  -1    0.55    0.57
   9   1   1    0.97    0.55
   9   1   1    0.43    0.55
   8 -11   1    5.60    0.83
   8 -11   1    7.05    0.78
   8 -10   1    0.55    0.60
   8 -10   1    1.82    0.55
   8  -9   1   12.62    0.90
   8  -9   1   13.00    0.84
   8  -8   1    2.87    0.57
   8  -8   1    2.70    0.64
   8  -7   1   25.59    1.02
   8  -7   1   26.38    1.13
   8  -7   1   25.54    1.16
   8  -6   1    0.67    0.45
   8  -6   1   -0.37    0.48
   8  -6   1   -0.16    0.53
   8  -5   1    7.68    0.71
   8  -5   1    7.45    0.72
   8  -5   1    7.99    0.71
   8  -4   1   56.47    1.48
   8  -4   1   59.67    1.60
   8  -4   1   57.05    1.57
   8  -3   1   15.59    0.96
   8  -3   1   14.24    0.81
   8  -3   1   14.87    0.82
   8  -2   1   35.88    1.24
   8  -2   1   34.23    1.23
  -8   1  -1    0.92    0.48
   8  -1   1   -0.16    0.50
   8  -1   1    0.48    0.44
  -8   0  -1    3.12    0.65
  -8   0  -1    3.81    0.61
   8   0   1    3.27    0.59
   8   0   1    3.49    0.59
  -8  -1  -1   12.11    0.91
  -8  -1  -1   11.50    0.93
   8   1   1   11.89    0.81
   8   1   1   11.48    0.82
  -8  -2  -1    8.11    0.87
  -8  -2  -1    8.37    0.88
   8   2   1    8.39    0.84
   8   2   1    8.21    0.79
  -8  -3  -1    1.55    0.64
   8   3   1    1.91    0.61
   8   3   1    1.46    0.61
   7 -11   1   17.07    1.11
   7 -11   1   17.44    0.99
   7 -10   1    2.44    0.65
   7 -10   1    2.57    0.51
   7  -9   1   39.21    1.30
   7  -9   1   38.90    1.42
   7  -8   1   -0.01    0.44
   7  -8   1    0.71    0.62
   7  -7   1    8.04    0.67
   7  -7   1    9.52    0.78
   7  -7   1    8.86    0.65
   7  -6   1   63.15    1.65
   7  -6   1   62.92    1.63
   7  -6   1   63.36    1.58
   7  -5   1    8.24    0.64
   7  -5   1    8.68    0.67
   7  -5   1    8.26    0.68
   7  -4   1   22.46    0.90
   7  -4   1   22.04    0.88
   7  -4   1   21.06    0.94
   7  -3   1    2.68    0.43
   7  -3   1    2.65    0.47
   7  -3   1    2.61    0.51
   7  -2   1    5.00    0.60
   7  -2   1    5.97    0.53
   7  -2   1    6.30    0.60
  -7   1  -1    7.09    0.65
   7  -1   1    8.78    0.74
   7  -1   1    7.05    0.62
  -7   0  -1    9.00    0.77
  -7   0  -1    9.34    0.79
   7   0   1    9.78    0.77
   7   0   1    9.67    0.75
  -7  -1  -1   24.41    1.10
  -7  -1  -1   24.79    1.10
   7   1   1   24.89    1.11
   7   1   1   24.23    1.08
  -7  -2  -1    0.70    0.49
  -7  -2  -1    0.47    0.50
   7   2   1    0.00    0.42
   7   2   1    0.09    0.43
  -7  -3  -1   29.95    1.23
  -7  -3  -1   29.94    1.27
   7   3   1   29.12    1.21
   7   3   1   28.56    1.20
  -7  -4  -1    1.69    0.63
   7   4   1    1.85    0.58
   7   4   1    0.72    0.52
   6 -11   1   14.49    1.04
   6 -11   1   14.85    0.92
   6 -10   1    1.16    0.62
   6 -10   1    0.68    0.45
   6  -9   1    1.46    0.50
   6  -9   1    2.51    0.63
   6  -8   1   32.06    1.09
   6  -8   1   33.78    1.28
   6  -7   1    7.78    0.74
   6  -7   1    6.71    0.61
   6  -7   1    7.49    0.60
   6  -6   1    0.19    0.36
   6  -6   1    0.35    0.45
   6  -6   1    0.07    0.33
   6  -6   1   -0.09    0.33
   6  -5   1    0.50    0.31
   6  -5   1    0.55    0.41
   6  -5   1    0.17    0.34
   6  -5   1   -0.05    0.35
   6  -4   1   84.86    1.81
   6  -4   1   81.96    1.79
   6  -4   1   80.58    1.76
   6  -3   1    4.25    0.47
   6  -3   1    3.08    0.47
   6  -3   1    3.65    0.45
   6  -2   1   -0.07    0.29
   6  -2   1    0.43    0.37
   6  -2   1    0.47    0.32
  -6   1  -1  116.59    2.40
   6  -1   1  116.83    2.38
   6  -1   1  113.73    2.13
   6  -1   1  115.51    2.33
  -6   0  -1    0.26    0.39
  -6   0  -1    0.38    0.43
   6   0   1    0.56    0.32
   6   0   1    0.52    0.40
  -6  -1  -1   61.89    1.64
  -6  -1  -1   63.02    1.65
   6   1   1   65.91    1.66
   6   1   1   65.57    1.67
  -6  -2  -1    0.87    0.52
  -6  -2  -1    0.48    0.50
   6   2   1   -0.37    0.47
   6   2   1   -0.20    0.38
  -6  -3  -1    3.60    0.62
  -6  -3  -1    3.85    0.63
   6   3   1    2.56    0.56
   6   3   1    4.03    0.61
  -6  -4  -1   30.92    1.26
  -6  -4  -1   31.63    1.24
   6   4   1   29.24    1.14
   6   4   1   28.16    1.26
  -6  -5  -1    6.42    0.79
   6   5   1    4.57    0.64
   6   5   1    3.59    0.67
  -5  11  -1    3.23    0.73
   5 -11   1    5.05    0.68
   5 -11   1    4.55    0.75
   5 -10   1    6.82    0.69
   5 -10   1    5.88    0.78
   5  -9   1    1.18    0.46
   5  -9   1    0.25    0.56
   5  -8   1   14.25    0.87
   5  -8   1   16.87    0.83
   5  -7   1    5.09    0.54
   5  -7   1    6.61    0.67
   5  -6   1  112.46    2.33
   5  -6   1  111.72    2.12
   5  -6   1  114.22    2.23
   5  -5   1    0.76    0.35
   5  -5   1   -0.02    0.30
   5  -5   1    0.44    0.31
   5  -5   1    0.33    0.28
   5  -4   1    0.60    0.32
   5  -4   1    0.34    0.32
   5  -4   1    0.48    0.30
   5  -4   1    0.47    0.30
   5  -3   1  359.52    5.94
   5  -3   1  359.07    5.88
   5  -3   1  358.22    6.06
   5  -2   1   36.40    1.00
   5  -2   1   38.98    1.04
   5  -2   1   40.58    0.96
   5  -1   1  100.99    1.85
   5  -1   1  101.39    2.05
   5  -1   1   99.66    1.99
  -5   0  -1    0.52    0.31
   5   0   1    0.34    0.30
   5   0   1    0.25    0.25
   5   0   1    0.33    0.33
  -5  -1  -1    0.84    0.36
  -5  -1  -1    1.25    0.38
   5   1   1    0.31    0.35
   5   1   1    0.86    0.33
  -5  -2  -1    8.96    0.70
  -5  -2  -1    8.63    0.72
   5   2   1    8.32    0.64
   5   2   1    8.25    0.66
  -5  -3  -1    8.71    0.75
  -5  -3  -1    7.64    0.73
   5   3   1    8.76    0.77
   5   3   1    8.11    0.67
  -5  -4  -1    2.83    0.60
  -5  -4  -1    1.65    0.57
   5   4   1    2.52    0.50
   5   4   1    2.81    0.58
  -5  -5  -1    7.20    0.78
  -5  -5  -1    8.62    0.81
   5   5   1    7.07    0.65
   5   5   1    8.57    0.83
  -5  -6  -1   12.87    0.96
   5   6   1   14.23    1.04
  -4  11  -1    1.43    0.63
   4 -11   1    1.83    0.53
   4 -11   1    0.65    0.63
  -4  10  -1   28.04    1.19
   4 -10   1   31.92    1.29
   4 -10   1   28.21    1.12
   4  -9   1    1.49    0.49
   4  -9   1    2.77    0.62
   4  -8   1   58.21    1.64
   4  -8   1   57.71    1.49
   4  -7   1    3.22    0.43
   4  -7   1    2.96    0.51
   4  -6   1    0.56    0.30
   4  -6   1    0.28    0.25
   4  -6   1    0.15    0.39
   4  -5   1  100.29    1.87
   4  -5   1  103.78    2.06
   4  -5   1  100.80    1.96
   4  -4   1    0.27    0.30
   4  -4   1    0.15    0.24
   4  -4   1    0.09    0.25
   4  -4   1   -0.20    0.23
   4  -3   1   18.65    0.63
   4  -3   1   17.44    0.63
   4  -3   1   17.09    0.66
   4  -3   1   19.68    0.67
   4  -2   1    3.79    0.35
   4  -2   1    4.47    0.40
   4  -2   1    4.28    0.35
   4  -1   1   38.78    0.97
   4  -1   1   39.73    0.87
   4  -1   1   37.75    0.94
  -4   0  -1    0.52    0.28
   4   0   1    0.15    0.22
   4   0   1    0.32    0.20
   4   0   1    0.40    0.27
  -4  -1  -1    0.56    0.32
  -4  -1  -1    0.67    0.34
   4   1   1    0.01    0.20
   4   1   1    0.53    0.30
   4   1   1    0.31    0.32
  -4  -2  -1   82.21    1.82
  -4  -2  -1   81.56    1.75
   4   2   1   82.20    1.73
   4   2   1   77.79    1.45
   4   2   1   80.22    1.80
  -4  -3  -1   21.82    0.91
  -4  -3  -1   24.56    0.98
   4   3   1   20.85    0.95
   4   3   1   22.76    0.86
  -4  -4  -1   60.74    1.60
  -4  -4  -1   60.80    1.65
   4   4   1   59.28    1.65
   4   4   1   58.72    1.47
  -4  -5  -1    1.13    0.56
  -4  -5  -1   -0.12    0.49
   4   5   1    0.82    0.47
   4   5   1    0.98    0.41
  -4  -6  -1    0.86    0.53
  -4  -6  -1    0.86    0.54
   4   6   1    1.00    0.52
  -4  -7  -1   15.54    1.00
   4   7   1   15.20    1.08
  -3  11  -1    1.47    0.64
   3 -11   1    1.48    0.56
  -3  10  -1   30.62    1.29
   3 -10   1   30.58    1.17
   3 -10   1   31.61    1.27
  -3   9  -1    2.86    0.60
   3  -9   1    3.48    0.54
   3  -9   1    2.71    0.63
  -3   8  -1    9.30    0.77
   3  -8   1    7.64    0.74
   3  -8   1    8.87    0.70
   3  -7   1   21.27    0.83
   3  -7   1   22.01    0.95
   3  -6   1    3.03    0.46
   3  -6   1    3.13    0.25
   3  -6   1    3.51    0.41
   3  -5   1   37.19    1.05
   3  -5   1   40.76    1.00
   3  -5   1   39.11    0.82
   3  -4   1   37.75    0.82
   3  -4   1   37.98    0.90
   3  -4   1   38.81    0.99
   3  -3   1  179.65    3.05
   3  -3   1  181.13    3.12
   3  -3   1  185.28    3.04
   3  -3   1  182.13    3.09
   3  -2   1   80.80    1.49
   3  -2   1   79.80    1.48
   3  -2   1   77.67    1.51
   3  -2   1   78.05    1.46
   3  -1   1   31.72    0.73
   3  -1   1   33.05    0.84
   3  -1   1   33.01    0.81
  -3   0  -1  186.81    3.17
   3   0   1  183.63    3.11
   3   0   1  180.13    3.18
  -3  -1  -1   18.87    0.65
  -3  -1  -1   20.40    0.71
   3   1   1   19.12    0.70
   3   1   1   19.65    0.63
  -3  -2  -1  361.65    6.07
  -3  -2  -1  357.62    5.90
   3   2   1  365.22    6.07
   3   2   1  364.34    5.79
   3   2   1  363.85    5.98
  -3  -3  -1    3.37    0.46
  -3  -3  -1    3.32    0.44
   3   3   1    2.97    0.38
   3   3   1    3.61    0.31
   3   3   1    3.65    0.44
  -3  -4  -1    3.69    0.51
  -3  -4  -1    3.56    0.53
   3   4   1    3.94    0.43
   3   4   1    2.95    0.48
  -3  -5  -1   16.17    0.88
  -3  -5  -1   16.27    0.91
   3   5   1   14.99    0.87
   3   5   1   16.51    0.72
  -3  -6  -1    2.04    0.55
  -3  -6  -1    1.93    0.58
   3   6   1    2.61    0.58
  -3  -7  -1    2.55    0.58
  -3  -7  -1    1.87    0.62
   3   7   1    1.95    0.57
  -3  -8  -1    6.44    0.80
   3   8   1    5.99    0.83
  -2  10  -1    8.05    0.85
   2 -10   1    7.84    0.78
  -2   9  -1    0.84    0.48
   2  -9   1    0.45    0.47
  -2   8  -1    0.90    0.49
   2  -8   1    0.71    0.45
   2  -8   1   -0.48    0.48
   2  -8   1   -0.31    0.42
  -2   7  -1    9.11    0.69
   2  -7   1    9.51    0.73
   2  -7   1    9.21    0.71
   2  -7   1    8.32    0.63
   2  -6   1   82.99    1.73
   2  -6   1   82.30    1.74
   2  -6   1   81.34    1.78
   2  -5   1  361.91    5.88
   2  -5   1  362.62    6.05
   2  -5   1  363.78    5.81
   2  -4   1    4.09    0.39
   2  -4   1    4.59    0.27
   2  -4   1    4.00    0.35
   2  -3   1   32.17    0.81
   2  -3   1   32.61    0.67
   2  -3   1   31.60    0.76
   2  -2   1  215.14    3.47
   2  -2   1  214.77    3.56
   2  -2   1  217.36    3.56
   2  -2   1  221.57    3.50
   2  -1   1   31.70    0.70
   2  -1   1   32.44    0.71
  -2   0  -1  219.40    3.57
   2   0   1  215.63    3.50
   2   0   1  215.04    3.61
  -2  -1  -1   79.14    1.48
  -2  -1  -1   79.82    1.53
   2   1   1   79.45    1.52
   2   1   1   77.50    1.48
  -2  -2  -1    4.53    0.38
  -2  -2  -1    3.87    0.35
   2   2   1    4.25    0.32
   2   2   1    4.63    0.38
  -2  -3  -1   38.62    1.00
  -2  -3  -1   40.80    1.08
   2   3   1   38.30    0.83
   2   3   1   40.99    0.94
   2   3   1   40.06    1.09
  -2  -4  -1    0.24    0.32
  -2  -4  -1    0.25    0.32
   2   4   1    0.03    0.25
   2   4   1   -0.27    0.22
   2   4   1   -0.05    0.29
  -2  -5  -1    5.74    0.61
  -2  -5  -1    5.80    0.58
   2   5   1    5.55    0.43
   2   5   1    4.94    0.43
   2   5   1    5.61    0.59
  -2  -6  -1   34.82    1.18
  -2  -6  -1   34.77    1.23
   2   6   1   34.26    0.98
   2   6   1   34.56    1.23
  -2  -7  -1   40.94    1.37
  -2  -7  -1   39.87    1.33
   2   7   1   39.56    1.39
  -2  -8  -1    2.32    0.60
  -2  -8  -1    1.75    0.63
   2   8   1    1.89    0.62
  -1  10  -1    1.18    0.59
   1 -10   1   -0.69    0.51
   1 -10   1    1.18    0.54
  -1   9  -1   11.94    0.90
   1  -9   1   11.96    0.87
   1  -9   1   12.74    0.83
  -1   8  -1   24.93    1.07
   1  -8   1   24.74    1.00
   1  -8   1   26.40    1.04
  -1   7  -1   64.61    1.66
   1  -7   1   63.25    1.54
   1  -7   1   65.21    1.59
  -1   6  -1    0.89    0.33
   1  -6   1    0.82    0.37
   1  -6   1    0.38    0.34
   1  -6   1    0.88    0.34
  -1   5  -1    0.55    0.31
   1  -5   1   -0.46    0.29
   1  -5   1    0.82    0.31
   1  -5   1    0.59    0.31
   1  -5   1    0.50    0.16
   1  -4   1   18.09    0.60
   1  -4   1   18.37    0.60
   1  -4   1   18.51    0.64
   1  -4   1   19.74    0.41
   1  -3   1   81.83    1.32
   1  -3   1   79.96    1.52
   1  -3   1   80.79    1.50
   1  -3   1   78.92    1.47
   1  -2   1   31.96    0.67
   1  -2   1   31.16    0.67
   1  -1   1  235.36    3.67
   1  -1   1  233.28    3.67
   1  -1   1  239.51    3.79
  -1   0  -1  235.57    3.77
   1   0   1  236.22    3.69
   1   0   1  237.34    3.83
  -1  -1  -1   32.27    0.66
  -1  -1  -1   32.59    0.73
   1   1   1   32.50    0.70
   1   1   1   32.46    0.67
  -1  -2  -1   32.64    0.76
  -1  -2  -1   31.93    0.81
   1   2   1   31.81    0.80
   1   2   1   33.06    0.72
  -1  -3  -1   40.49    0.93
  -1  -3  -1   40.03    0.99
   1   3   1   40.27    1.00
   1   3   1   36.81    0.84
  -1  -4  -1  103.03    1.97
  -1  -4  -1  102.07    2.03
   1   4   1  101.55    2.04
   1   4   1  102.10    1.88
  -1  -5  -1  116.93    2.25
  -1  -5  -1  116.73    2.32
   1   5   1  111.80    2.31
   1   5   1  111.24    2.10
  -1  -6  -1    8.88    0.67
  -1  -6  -1    7.73    0.68
   1   6   1    8.69    0.52
   1   6   1    7.99    0.71
  -1  -7  -1    0.69    0.46
  -1  -7  -1    0.69    0.54
   1   7   1    0.60    0.51
  -1  -8  -1   12.47    0.91
  -1  -8  -1   13.99    0.84
   1   8   1   12.82    0.95
  -1  -9  -1    3.64    0.64
  -1  -9  -1    4.81    0.74
   1   9   1    3.98    0.69
   0  10  -1    7.67    0.91
   0 -10   1    7.77    0.84
   0   9  -1   20.36    1.13
   0  -9   1   20.84    1.02
   0  -9   1   19.11    1.02
   0   8  -1    3.72    0.58
   0  -8   1    3.55    0.58
   0  -8   1    3.59    0.59
   0   7  -1    9.91    0.77
   0  -7   1    9.69    0.75
   0  -7   1    8.94    0.72
   0   6  -1    0.16    0.20
   0   6  -1   -0.15    0.36
   0  -6   1    0.46    0.38
   0  -6   1   -0.13    0.36
   0   5  -1    0.26    0.17
   0   5  -1    0.55    0.29
   0  -5   1    0.47    0.32
   0  -5   1    0.27    0.30
   0   4  -1    0.25    0.14
   0   4  -1    0.35    0.25
   0  -4   1    0.15    0.24
   0  -4   1    0.47    0.28
   0   3  -1  181.87    2.98
   0   3  -1  181.03    3.04
   0  -3   1  183.36    3.07
   0  -3   1  185.85    3.08
   0   2  -1  223.65    3.49
   0   2  -1  216.26    3.47
   0  -2   1  212.64    3.48
   0  -2   1  216.78    3.51
   0  -1   1  238.49    3.66
   0  -1   1  226.40    3.61
   0  -1  -1  232.29    3.57
   0  -1  -1  232.82    3.69
   0   1   1  230.82    3.61
   0   1   1  230.16    3.72
   0  -2  -1  213.13    3.42
   0  -2  -1  215.70    3.54
   0   2   1  217.61    3.47
   0   2   1  218.29    3.52
   0  -3  -1  185.27    3.05
   0  -3  -1  184.84    3.15
   0  -3  -1  184.66    3.08
   0   3   1  184.92    3.09
   0   3   1  181.91    3.06
   0  -4  -1    0.26    0.27
   0  -4  -1    0.28    0.25
   0  -4  -1    0.42    0.24
   0   4   1    0.25    0.17
   0   4   1    0.61    0.27
   0  -5  -1    0.55    0.31
   0  -5  -1    0.46    0.31
   0  -5  -1    0.62    0.32
   0   5   1    0.46    0.21
   0   5   1    0.43    0.32
   0  -6  -1    0.37    0.34
   0  -6  -1   -0.04    0.39
   0   6   1    0.50    0.25
   0   6   1    0.19    0.37
   0  -7  -1    8.75    0.70
   0  -7  -1   11.56    0.82
   0   7   1    9.04    0.75
   0  -8  -1    3.27    0.62
   0  -8  -1    3.64    0.57
   0   8   1    4.13    0.63
   0  -9  -1   20.27    0.98
   0  -9  -1   19.15    1.06
   0   9   1   18.37    1.11
   0 -10  -1    8.03    0.82
   0 -10  -1    7.77    0.87
   0  10   1    8.21    0.93
   1   9  -1    3.90    0.72
  -1  -9   1    4.63    0.69
   1   8  -1   14.76    0.96
  -1  -8   1   14.11    0.88
  -1  -8   1   13.50    0.88
   1   7  -1    0.82    0.49
  -1  -7   1    0.09    0.46
  -1  -7   1    0.45    0.50
   1   6  -1    8.64    0.71
  -1  -6   1    8.06    0.65
  -1  -6   1   10.10    0.73
   1   5  -1  113.76    2.05
   1   5  -1  110.85    2.26
  -1  -5   1  113.11    2.26
  -1  -5   1  113.84    2.22
   1   4  -1  101.35    1.97
   1   4  -1   99.52    1.81
  -1  -4   1  100.88    1.98
  -1  -4   1  100.06    1.95
   1   3  -1   38.98    0.81
   1   3  -1   37.31    0.92
  -1  -3   1   39.68    0.96
  -1  -3   1   38.11    0.91
   1   2  -1   32.07    0.70
   1   2  -1   32.18    0.79
   1   2  -1   33.27    0.72
  -1  -2   1   32.44    0.76
  -1  -2   1   32.51    0.78
   1   1  -1   31.31    0.66
   1   1  -1   32.23    0.66
  -1  -1   1   31.57    0.68
  -1  -1   1   31.38    0.65
   1   0  -1  234.03    3.80
  -1   0   1  234.17    3.64
   1  -1  -1  233.74    3.69
   1  -1  -1  243.57    3.87
   1  -1  -1  241.38    3.72
   1  -2  -1   30.32    0.62
   1  -2  -1   32.27    0.62
   1  -2  -1   31.68    0.69
   1  -2  -1   31.57    0.70
   1  -3  -1   80.37    1.51
   1  -3  -1   83.33    1.43
   1  -3  -1   78.65    1.44
   1  -3  -1   79.61    1.52
   1  -4  -1   19.19    0.52
   1  -4  -1   18.24    0.62
   1  -4  -1   19.94    0.68
   1  -4  -1   18.65    0.58
  -1   4   1   18.71    0.50
  -1   4   1   17.32    0.63
   1  -5  -1    0.39    0.21
   1  -5  -1    0.76    0.31
   1  -5  -1    0.27    0.27
   1  -5  -1    0.43    0.31
  -1   5   1    0.06    0.26
  -1   5   1    0.01    0.19
   1  -6  -1    0.85    0.37
   1  -6  -1    0.53    0.35
   1  -6  -1    0.63    0.23
   1  -6  -1    0.20    0.30
  -1   6   1    0.73    0.37
  -1   6   1    0.56    0.22
   1  -7  -1   65.33    1.63
   1  -7  -1   67.00    1.59
   1  -7  -1   64.79    1.61
  -1   7   1   68.53    1.72
   1  -8  -1   26.27    1.06
   1  -8  -1   26.71    1.05
   1  -8  -1   24.75    1.10
  -1   8   1   24.64    1.14
   1  -9  -1   11.41    0.81
   1  -9  -1   12.10    0.78
  -1   9   1   11.78    0.91
   1 -10  -1    0.95    0.54
   1 -10  -1    0.58    0.62
  -1  10   1    0.49    0.57
   2   8  -1    1.25    0.58
  -2  -8   1    1.62    0.59
   2   7  -1   40.63    1.43
  -2  -7   1   41.56    1.39
  -2  -7   1   42.50    1.33
   2   6  -1   34.05    1.25
  -2  -6   1   34.04    1.20
  -2  -6   1   35.38    1.22
   2   5  -1    5.65    0.58
   2   5  -1    5.99    0.47
   2   5  -1    5.13    0.42
  -2  -5   1    5.03    0.55
  -2  -5   1    4.77    0.53
   2   4  -1    0.31    0.26
   2   4  -1    0.20    0.26
   2   4  -1    0.33    0.31
  -2  -4   1    0.24    0.32
  -2  -4   1   -0.02    0.29
   2   3  -1   39.93    0.92
   2   3  -1   38.18    1.01
   2   3  -1   38.96    0.90
  -2  -3   1   41.15    1.05
  -2  -3   1   40.09    1.00
   2   2  -1    4.25    0.36
   2   2  -1    4.11    0.33
   2   2  -1    4.04    0.32
  -2  -2   1    4.39    0.39
  -2  -2   1    4.20    0.35
   2   1  -1   80.80    1.44
   2   1  -1   82.79    1.51
   2   1  -1   81.46    1.54
  -2  -1   1   82.01    1.52
  -2  -1   1   79.49    1.52
   2   0  -1  215.36    3.59
   2   0  -1  212.85    3.41
   2  -1  -1   31.48    0.65
   2  -1  -1   31.76    0.72
   2  -1  -1   32.48    0.69
   2  -2  -1  219.83    3.61
   2  -2  -1  215.88    3.47
   2  -2  -1  220.44    3.63
   2  -2  -1  218.69    3.50
   2  -3  -1   33.34    0.73
   2  -3  -1   31.68    0.73
   2  -3  -1   32.84    0.82
   2  -4  -1    3.77    0.32
   2  -4  -1    4.59    0.37
   2  -4  -1    4.34    0.39
   2  -4  -1    4.33    0.31
   2  -5  -1  359.44    5.81
   2  -5  -1  364.52    5.87
   2  -5  -1  361.53    5.99
   2  -5  -1  357.21    6.00
   2  -6  -1   82.65    1.78
   2  -6  -1   81.70    1.77
   2  -6  -1   82.66    1.52
   2  -6  -1   81.86    1.69
  -2   6   1   83.36    1.79
   2  -7  -1   10.25    0.63
   2  -7  -1    9.06    0.68
   2  -7  -1    8.66    0.68
  -2   7   1    9.58    0.70
   2  -8  -1    0.31    0.49
   2  -8  -1    0.26    0.39
   2  -8  -1    0.85    0.53
  -2   8   1    0.70    0.43
   2  -9  -1   -0.19    0.50
   2  -9  -1    0.02    0.48
   2  -9  -1    0.45    0.45
  -2   9   1    0.42    0.51
   2 -10  -1    8.42    0.83
   2 -10  -1    9.28    0.78
  -2  10   1    8.80    0.88
   3   8  -1    6.10    0.83
  -3  -8   1    8.27    0.88
   3   7  -1    2.74    0.62
  -3  -7   1    2.97    0.62
   3   6  -1    1.68    0.55
  -3  -6   1    2.76    0.57
  -3  -6   1    1.87    0.55
   3   5  -1   16.93    0.94
   3   5  -1   15.69    0.69
  -3  -5   1   18.05    0.93
  -3  -5   1   17.12    0.87
   3   4  -1    2.91    0.40
   3   4  -1    3.59    0.50
   3   4  -1    2.77    0.38
  -3  -4   1    2.86    0.47
  -3  -4   1    3.56    0.53
   3   3  -1    3.77    0.35
   3   3  -1    4.12    0.43
   3   3  -1    3.28    0.39
  -3  -3   1    3.40    0.43
  -3  -3   1    4.25    0.48
   3   2  -1  351.12    5.93
   3   2  -1  358.08    5.75
   3   2  -1  355.04    5.81
  -3  -2   1  349.67    5.79
  -3  -2   1  358.20    5.89
   3   1  -1   19.45    0.55
   3   1  -1   17.79    0.63
   3   1  -1   19.11    0.69
  -3  -1   1   19.13    0.64
  -3  -1   1   20.30    0.66
   3   0  -1  185.44    3.21
   3   0  -1  182.73    3.05
   3   0  -1  184.13    3.07
   3  -1  -1   32.94    0.86
   3  -1  -1   33.74    0.79
   3  -1  -1   32.35    0.75
   3  -2  -1   79.59    1.52
   3  -2  -1   79.39    1.56
   3  -2  -1   79.88    1.47
   3  -3  -1  183.61    3.06
   3  -3  -1  180.12    3.01
   3  -3  -1  183.39    3.13
   3  -3  -1  182.68    3.15
   3  -4  -1   39.99    0.89
   3  -4  -1   39.53    1.02
   3  -4  -1   38.05    0.89
   3  -5  -1   40.40    0.89
   3  -5  -1   37.54    1.06
   3  -5  -1   39.42    0.95
   3  -6  -1    3.52    0.48
   3  -6  -1    3.86    0.40
   3  -6  -1    3.49    0.31
   3  -7  -1   22.00    0.83
   3  -7  -1   20.57    0.93
   3  -8  -1    7.66    0.74
   3  -8  -1    8.33    0.65
  -3   8   1    8.92    0.77
   3  -9  -1    3.01    0.62
   3  -9  -1    2.71    0.50
  -3   9   1    2.41    0.59
   3 -10  -1   31.61    1.17
   3 -10  -1   32.05    1.28
  -3  10   1   30.62    1.25
   3 -11  -1    1.90    0.55
   3 -11  -1    1.46    0.61
  -3  11   1    0.83    0.63
   4   7  -1   16.60    1.08
  -4  -7   1   14.64    1.01
   4   6  -1    0.48    0.50
  -4  -6   1    0.18    0.52
   4   5  -1    0.60    0.47
   4   5  -1    0.23    0.39
  -4  -5   1    1.19    0.54
  -4  -5   1    1.21    0.51
   4   4  -1   57.27    1.44
   4   4  -1   58.34    1.60
  -4  -4   1   58.90    1.59
  -4  -4   1   58.34    1.59
   4   3  -1   22.11    0.84
   4   3  -1   20.74    0.86
  -4  -3   1   22.07    0.89
  -4  -3   1   21.44    0.88
   4   2  -1   82.90    1.76
   4   2  -1   81.85    1.78
   4   2  -1   79.73    1.57
  -4  -2   1   83.31    1.80
  -4  -2   1   82.99    1.79
   4   1  -1    0.22    0.25
   4   1  -1   -0.15    0.34
   4   1  -1    0.45    0.29
  -4  -1   1    0.09    0.30
  -4  -1   1    0.23    0.29
   4   0  -1    0.37    0.24
   4   0  -1    0.10    0.29
   4   0  -1    0.20    0.23
  -4   0   1    0.47    0.26
   4  -1  -1   39.20    1.00
   4  -1  -1   39.59    0.90
   4  -1  -1   38.27    0.91
   4  -2  -1    4.27    0.38
   4  -2  -1    4.39    0.34
   4  -2  -1    4.22    0.39
   4  -3  -1   18.42    0.70
   4  -3  -1   18.66    0.65
   4  -3  -1   19.97    0.70
   4  -4  -1    0.63    0.24
   4  -4  -1    0.29    0.27
   4  -4  -1    0.28    0.30
   4  -4  -1    0.24    0.22
   4  -5  -1   99.80    1.92
   4  -5  -1  101.37    1.92
   4  -5  -1  102.11    2.06
   4  -6  -1    0.35    0.37
   4  -6  -1    0.07    0.27
   4  -6  -1    0.31    0.29
   4  -7  -1    3.40    0.43
   4  -7  -1    2.90    0.57
   4  -8  -1   60.05    1.65
   4  -8  -1   58.82    1.47
   4  -9  -1    2.22    0.61
   4  -9  -1    2.99    0.50
  -4   9   1    2.19    0.55
   4 -10  -1   31.71    1.12
   4 -10  -1   31.57    1.29
  -4  10   1   28.54    1.20
   4 -11  -1    1.84    0.51
   4 -11  -1    2.21    0.66
  -4  11   1    1.96    0.64
   5   6  -1   13.30    0.98
  -5  -6   1   14.28    1.00
   5   5  -1    7.87    0.80
   5   5  -1    5.19    0.61
  -5  -5   1    7.01    0.79
   5   4  -1    1.47    0.48
   5   4  -1    2.47    0.56
  -5  -4   1    2.46    0.58
  -5  -4   1    2.40    0.60
   5   3  -1    8.63    0.69
   5   3  -1    8.52    0.73
  -5  -3   1    8.27    0.73
  -5  -3   1    8.14    0.76
   5   2  -1    8.63    0.66
   5   2  -1    8.97    0.67
  -5  -2   1    9.68    0.74
  -5  -2   1    9.02    0.69
   5   1  -1    1.05    0.31
   5   1  -1    1.20    0.42
   5   1  -1    0.72    0.28
  -5  -1   1    0.30    0.34
  -5  -1   1    0.49    0.40
   5   0  -1    0.60    0.28
   5   0  -1    1.04    0.40
   5   0  -1    0.22    0.24
  -5   0   1    0.63    0.37
  -5   0   1    0.72    0.30
   5  -1  -1   98.82    1.91
   5  -1  -1  103.73    1.99
   5  -1  -1  104.88    2.12
   5  -2  -1   39.09    1.00
   5  -2  -1   38.36    0.98
   5  -2  -1   40.71    1.08
   5  -3  -1  354.97    5.99
   5  -3  -1  361.42    5.87
   5  -3  -1  366.25    6.14
   5  -4  -1   -0.15    0.33
   5  -4  -1    0.05    0.33
   5  -4  -1    0.55    0.29
   5  -5  -1    0.49    0.33
   5  -5  -1    0.00    0.40
   5  -5  -1    0.44    0.29
   5  -5  -1    0.11    0.29
   5  -6  -1  112.63    2.36
   5  -6  -1  113.37    2.19
   5  -6  -1  117.31    2.23
   5  -7  -1    5.38    0.67
   5  -7  -1    5.82    0.52
   5  -7  -1    6.01    0.49
   5  -8  -1   16.82    0.80
   5  -8  -1   15.25    0.99
   5  -9  -1    0.80    0.57
   5  -9  -1    0.68    0.44
   5 -10  -1    8.09    0.72
   5 -10  -1    7.44    0.82
   5 -11  -1    5.19    0.67
   5 -11  -1    3.25    0.74
  -5  11   1    4.31    0.76
   6   5  -1    4.79    0.73
  -6  -5   1    4.89    0.76
   6   4  -1   28.56    1.13
   6   4  -1   29.05    1.22
  -6  -4   1   30.30    1.25
   6   3  -1    3.21    0.57
   6   3  -1    3.29    0.58
  -6  -3   1    3.40    0.64
  -6  -3   1    3.29    0.60
   6   2  -1    0.06    0.39
   6   2  -1    0.27    0.47
  -6  -2   1    0.52    0.53
  -6  -2   1    0.15    0.46
   6   1  -1   63.85    1.62
   6   1  -1   66.00    1.65
  -6  -1   1   65.43    1.68
  -6  -1   1   64.43    1.65
   6   0  -1    0.40    0.30
   6   0  -1    0.02    0.33
   6   0  -1    0.59    0.46
  -6   0   1    0.46    0.43
  -6   0   1    0.02    0.37
   6  -1  -1  112.76    2.13
   6  -1  -1  114.92    2.26
   6  -1  -1  112.70    2.37
   6  -2  -1    0.15    0.36
   6  -2  -1    0.25    0.29
   6  -2  -1    0.05    0.41
   6  -3  -1    3.83    0.49
   6  -3  -1    2.71    0.45
   6  -3  -1    3.23    0.39
   6  -4  -1   80.70    1.76
   6  -4  -1   78.79    1.71
   6  -4  -1   80.60    1.80
   6  -5  -1    0.92    0.40
   6  -5  -1    0.33    0.34
   6  -5  -1    0.57    0.40
   6  -6  -1    0.95    0.34
   6  -6  -1    0.75    0.42
   6  -6  -1   -0.22    0.47
   6  -7  -1    8.08    0.75
   6  -7  -1    8.05    0.63
   6  -7  -1    8.77    0.67
   6  -8  -1   33.83    1.12
   6  -8  -1   32.78    1.21
   6  -9  -1    1.89    0.52
   6  -9  -1    1.96    0.64
   6 -10  -1    0.96    0.46
   6 -10  -1    0.35    0.57
   6 -11  -1   13.70    1.05
   6 -11  -1   15.49    0.94
   7   4  -1    2.57    0.60
   7   4  -1    0.65    0.56
  -7  -4   1    2.30    0.68
   7   3  -1   28.07    1.17
   7   3  -1   30.34    1.23
  -7  -3   1   31.96    1.29
   7   2  -1    0.04    0.40
   7   2  -1   -0.78    0.43
  -7  -2   1   -0.13    0.52
  -7  -2   1    0.50    0.50
   7   1  -1   23.73    1.05
   7   1  -1   26.46    1.06
  -7  -1   1   24.04    1.06
  -7  -1   1   25.45    1.11
   7   0  -1    9.82    0.74
   7   0  -1    9.67    0.80
  -7   0   1    8.91    0.69
  -7   0   1    9.55    0.78
   7  -1  -1    7.64    0.59
   7  -1  -1    8.65    0.67
   7  -1  -1    8.84    0.76
  -7   1   1    8.42    0.69
   7  -2  -1    4.89    0.61
   7  -2  -1    5.53    0.57
   7  -2  -1    5.18    0.55
   7  -3  -1    3.44    0.48
   7  -3  -1    2.94    0.58
   7  -3  -1    2.99    0.52
   7  -4  -1   23.58    1.00
   7  -4  -1   21.08    0.89
   7  -4  -1   21.48    0.99
   7  -5  -1    8.63    0.67
   7  -5  -1    9.15    0.73
   7  -5  -1    9.03    0.69
   7  -6  -1   61.21    1.57
   7  -6  -1   61.47    1.57
   7  -6  -1   62.68    1.63
   7  -7  -1    8.85    0.68
   7  -7  -1    9.26    0.83
   7  -7  -1    9.52    0.72
   7  -8  -1    0.05    0.60
   7  -8  -1    0.72    0.45
   7  -9  -1   39.42    1.45
   7  -9  -1   39.49    1.27
   7 -10  -1    1.91    0.66
   7 -10  -1    3.62    0.58
   7 -11  -1   18.71    0.99
   7 -11  -1   18.44    1.14
   8   3  -1    2.03    0.59
   8   3  -1    1.99    0.59
  -8  -3   1    1.25    0.63
   8   2  -1    7.89    0.78
   8   2  -1    8.67    0.81
  -8  -2   1    6.94    0.80
   8   1  -1   12.47    0.85
   8   1  -1   11.21    0.90
  -8  -1   1   12.75    0.91
  -8  -1   1   12.40    0.88
   8   0  -1    3.13    0.55
   8   0  -1    2.95    0.60
  -8   0   1    3.43    0.65
  -8   0   1    3.92    0.62
   8  -1  -1   -0.55    0.56
   8  -1  -1    0.73    0.45
  -8   1   1    1.37    0.50
  -8   1   1    0.34    0.55
   8  -2  -1   32.59    1.14
   8  -2  -1   34.78    1.19
   8  -2  -1   35.81    1.27
   8  -3  -1   15.43    0.85
   8  -3  -1   15.58    0.90
   8  -3  -1   16.20    1.00
   8  -4  -1   58.51    1.58
   8  -4  -1   58.48    1.56
   8  -4  -1   58.42    1.67
   8  -5  -1    7.45    0.75
   8  -5  -1    8.33    0.71
   8  -5  -1    8.07    0.72
   8  -6  -1   -0.15    0.47
   8  -6  -1   -0.49    0.56
   8  -6  -1    0.55    0.45
   8  -7  -1   24.78    1.08
   8  -7  -1   24.57    1.17
   8  -7  -1   24.46    1.08
   8  -8  -1    2.06    0.65
   8  -9  -1   12.73    0.83
   8  -9  -1   12.19    0.98
   8 -10  -1    1.67    0.53
   8 -10  -1    1.99    0.68
   8 -11  -1    6.28    0.82
   8 -11  -1    6.85    0.75
   9   1  -1    0.47    0.48
   9   1  -1   -0.07    0.59
  -9  -1   1    0.57    0.62
   9   0  -1   19.39    1.02
   9   0  -1   19.16    1.03
  -9   0   1   19.41    1.05
  -9   0   1   19.19    1.07
   9  -1  -1   13.84    0.87
   9  -1  -1   12.42    0.95
  -9   1   1   12.15    0.88
  -9   1   1   11.97    0.83
   9  -2  -1   38.71    1.39
   9  -2  -1   38.71    1.32
  -9   2   1   39.65    1.39
   9  -3  -1    2.44    0.66
   9  -3  -1    1.26    0.48
   9  -4  -1    1.01    0.60
   9  -4  -1    0.93    0.46
   9  -4  -1    1.12    0.53
   9  -5  -1    2.77    0.61
   9  -5  -1    2.41    0.54
   9  -5  -1    2.09    0.62
   9  -6  -1    3.54    0.58
   9  -6  -1    3.15    0.66
   9  -6  -1    3.16    0.63
   9  -7  -1    0.92    0.58
   9  -7  -1   -0.22    0.50
   9  -7  -1    0.54    0.44
   9  -8  -1   12.35    0.99
   9  -8  -1   13.37    0.87
   9  -9  -1   19.89    1.15
   9 -10  -1    4.00    0.77
   9 -10  -1    3.47    0.65
  10   0  -1    8.47    0.92
  10   0  -1    8.82    0.86
 -10   0   1    6.39    0.87
  10  -1  -1    2.67    0.66
  10  -1  -1    4.01    0.64
 -10   1   1    2.76    0.69
 -10   1   1    4.71    0.74
  10  -2  -1    1.04    0.57
  10  -2  -1    1.04    0.49
 -10   2   1    1.91    0.59
 -10   2   1    2.59    0.61
  10  -3  -1    1.91    0.65
  10  -3  -1    2.37    0.54
  10  -4  -1   -0.03    0.53
  10  -4  -1    0.79    0.47
  10  -5  -1    7.00    0.75
  10  -5  -1    6.99    0.77
  10  -5  -1    7.43    0.76
  10  -6  -1   26.55    1.18
  10  -6  -1   28.31    1.20
  10  -6  -1   28.85    1.20
  10  -7  -1   30.41    1.28
  10  -7  -1   28.05    1.17
  10  -7  -1   28.46    1.18
  10  -8  -1    7.61    0.80
  10  -8  -1    7.95    0.88
  10  -8  -1    8.42    0.81
  10  -9  -1    0.47    0.66
  10 -10  -1    8.69    0.96
  11  -3  -1    6.82    0.80
  11  -3  -1    5.41    0.79
 -11   3   1    6.24    0.81
  11  -4  -1   14.79    1.00
  11  -4  -1   15.38    1.11
  11  -5  -1   13.12    0.96
  11  -5  -1   12.96    1.07
  11  -6  -1    3.28    0.65
  11  -6  -1    3.68    0.75
  11  -6  -1    4.36    0.75
  11  -7  -1    0.98    0.56
  11  -7  -1    1.43    0.69
  11  -7  -1   -0.06    0.62
  11  -8  -1    2.50    0.64
  11  -8  -1    0.12    0.60
  11  -8  -1    2.55    0.71
  11  -8   2    0.61    0.56
  11  -8   2    1.01    0.63
  11  -8   2    0.59    0.59
  11  -7   2   22.48    1.19
  11  -7   2   24.12    1.22
  11  -7   2   23.96    1.15
  11  -6   2    0.12    0.50
  11  -6   2    0.80    0.59
  11  -5   2    5.78    0.76
  11  -5   2    6.06    0.78
  11  -4   2    7.17    0.81
  11  -4   2    7.00    0.81
 -11   3  -2   -0.06    0.54
  11  -3   2   -0.14    0.54
  11  -3   2   -0.68    0.49
  10 -10   2    0.12    0.62
  10  -9   2   34.67    1.43
  10  -8   2   -0.56    0.58
  10  -8   2   -0.34    0.45
  10  -7   2   11.54    0.90
  10  -7   2    8.48    0.79
  10  -7   2    9.91    0.89
  10  -6   2   14.20    0.89
  10  -6   2   15.47    0.94
  10  -6   2   15.51    0.92
  10  -5   2    0.07    0.52
  10  -5   2    0.93    0.50
  10  -4   2   29.17    1.24
  10  -4   2   30.59    1.26
 -10   3  -2    4.81    0.71
  10  -3   2    4.46    0.72
  10  -3   2    5.08    0.71
 -10   2  -2   -0.67    0.49
  10  -2   2    0.74    0.55
  10  -2   2    0.81    0.53
 -10   1  -2    0.38    0.57
 -10   1  -2    0.27    0.55
  10  -1   2   -0.98    0.53
  10  -1   2    0.17    0.52
 -10   0  -2    0.26    0.59
 -10   0  -2    0.21    0.62
  10   0   2    0.23    0.59
  10   0   2    0.36    0.52
   9 -10   2   -0.28    0.59
   9 -10   2    0.13    0.51
   9  -9   2    2.65    0.68
   9  -9   2    0.97    0.49
   9  -8   2    4.28    0.67
   9  -8   2    3.94    0.69
   9  -7   2    1.79    0.52
   9  -7   2    1.50    0.58
   9  -7   2    2.00    0.55
   9  -6   2    4.60    0.65
   9  -6   2    5.39    0.68
   9  -6   2    5.41    0.66
   9  -5   2    4.14    0.63
   9  -5   2    3.64    0.63
   9  -5   2    4.88    0.62
   9  -4   2   12.21    0.83
   9  -4   2   14.53    0.85
   9  -4   2   14.36    0.85
   9  -3   2    3.47    0.60
   9  -3   2    3.04    0.59
  -9   2  -2   16.35    0.94
   9  -2   2   16.64    0.95
   9  -2   2   18.37    0.99
  -9   1  -2   10.87    0.90
  -9   1  -2    9.46    0.89
   9  -1   2   10.02    0.87
   9  -1   2   11.18    0.91
  -9   0  -2    0.29    0.54
  -9   0  -2    2.01    0.64
   9   0   2    1.01    0.53
   9   0   2    1.82    0.61
  -9  -1  -2   34.05    1.40
  -9  -1  -2   37.43    1.49
   9   1   2   37.84    1.48
   9   1   2   35.32    1.37
   8 -11   2   -0.15    0.52
   8 -11   2    0.38    0.61
   8 -10   2    0.43    0.59
   8 -10   2    0.91    0.46
   8  -9   2    9.91    0.91
   8  -9   2    9.90    0.72
   8  -8   2   -0.36    0.54
   8  -8   2    0.19    0.46
   8  -7   2    3.01    0.64
   8  -7   2    4.28    0.59
   8  -7   2    3.48    0.55
   8  -6   2   47.65    1.42
   8  -6   2   44.64    1.41
   8  -6   2   46.72    1.36
   8  -5   2   16.37    0.89
   8  -5   2   16.18    0.84
   8  -5   2   16.07    0.93
   8  -4   2   26.17    1.00
   8  -4   2   29.39    1.14
   8  -4   2   28.13    1.06
   8  -3   2   14.29    0.92
   8  -3   2   13.90    0.87
   8  -3   2   13.99    0.84
  -8   2  -2    4.18    0.64
   8  -2   2    5.02    0.62
   8  -2   2    4.27    0.66
  -8   1  -2   57.96    1.70
   8  -1   2   63.62    1.73
   8  -1   2   64.97    1.76
  -8   0  -2    0.11    0.48
  -8   0  -2    0.09    0.52
   8   0   2    0.02    0.42
   8   0   2    0.61    0.48
  -8  -1  -2    5.85    0.75
  -8  -1  -2    4.74    0.72
   8   1   2    3.10    0.62
   8   1   2    3.84    0.61
  -8  -2  -2    0.73    0.58
  -8  -2  -2    0.31    0.51
   8   2   2   -0.47    0.52
   8   2   2    0.38    0.51
  -8  -3  -2    1.31    0.63
  -8  -3  -2    0.57    0.61
   8   3   2    0.76    0.57
   8   3   2    0.00    0.54
   7 -11   2    8.03    0.91
   7 -11   2    8.70    0.81
   7 -10   2    3.52    0.60
   7 -10   2    4.58    0.74
   7  -9   2   16.08    1.04
   7  -9   2   16.71    0.86
   7  -8   2   61.85    1.76
   7  -8   2   61.27    1.59
   7  -7   2   10.48    0.80
   7  -7   2   10.07    0.67
   7  -7   2    9.70    0.69
   7  -7   2   12.28    0.90
   7  -6   2   37.52    1.13
   7  -6   2   40.09    1.20
   7  -6   2   35.45    1.24
   7  -6   2   36.14    1.23
   7  -5   2    3.92    0.54
   7  -5   2    3.16    0.47
   7  -5   2    3.55    0.57
   7  -4   2   31.40    1.07
   7  -4   2   32.99    1.07
   7  -4   2   33.11    1.11
   7  -3   2   45.28    1.30
   7  -3   2   48.03    1.22
   7  -3   2   46.61    1.33
   7  -2   2    5.18    0.49
   7  -2   2    4.25    0.55
   7  -2   2    3.22    0.55
  -7   1  -2    0.36    0.43
   7  -1   2    0.05    0.35
   7  -1   2    0.41    0.45
  -7   0  -2    9.76    0.75
  -7   0  -2   11.44    0.83
   7   0   2   10.40    0.81
   7   0   2   11.01    0.85
  -7  -1  -2    3.72    0.64
  -7  -1  -2    3.65    0.65
   7   1   2    2.88    0.56
   7   1   2    4.13    0.62
  -7  -2  -2    2.04    0.55
  -7  -2  -2    1.31    0.55
   7   2   2    1.14    0.47
   7   2   2    1.42    0.47
  -7  -3  -2   11.19    0.87
  -7  -3  -2   11.51    0.96
   7   3   2   12.01    0.94
   7   3   2   10.66    0.86
  -7  -4  -2   22.82    1.17
  -7  -4  -2   25.22    1.25
   7   4   2   22.60    1.09
   7   4   2   23.64    1.23
   6 -11   2    6.77    0.85
   6 -11   2    6.15    0.73
   6 -10   2   28.79    1.20
   6 -10   2   28.20    1.13
   6  -9   2    2.84    0.61
   6  -9   2    2.89    0.56
   6  -8   2    3.57    0.66
   6  -8   2    5.29    0.61
   6  -7   2   -0.25    0.49
   6  -7   2    0.36    0.35
   6  -7   2    0.10    0.39
   6  -6   2   18.43    0.90
   6  -6   2   19.76    0.83
   6  -6   2   19.82    0.85
   6  -6   2   18.39    0.73
   6  -5   2    3.54    0.44
   6  -5   2    3.66    0.45
   6  -5   2    3.77    0.51
   6  -5   2    3.84    0.44
   6  -4   2   25.74    0.89
   6  -4   2   26.19    0.89
   6  -4   2   26.96    0.91
   6  -3   2   65.32    1.53
   6  -3   2   66.03    1.45
   6  -3   2   63.45    1.50
   6  -2   2   70.09    1.63
   6  -2   2   71.85    1.47
   6  -2   2   71.69    1.62
  -6   1  -2   46.97    1.31
   6  -1   2   45.51    1.29
   6  -1   2   47.83    1.30
   6  -1   2   47.23    1.07
  -6   0  -2   19.64    0.90
   6   0   2   17.88    0.81
   6   0   2   19.89    0.88
  -6  -1  -2   36.16    1.21
  -6  -1  -2   36.12    1.17
   6   1   2   38.96    1.26
   6   1   2   38.52    1.22
  -6  -2  -2   46.33    1.41
  -6  -2  -2   45.58    1.47
   6   2   2   45.71    1.46
   6   2   2   46.91    1.36
  -6  -3  -2    4.81    0.67
  -6  -3  -2    5.24    0.69
   6   3   2    3.40    0.61
   6   3   2    4.76    0.58
  -6  -4  -2   17.13    0.98
  -6  -4  -2   19.96    1.07
   6   4   2   17.02    1.04
   6   4   2   16.25    0.90
  -6  -5  -2   -0.08    0.55
  -6  -5  -2    1.37    0.63
   6   5   2    0.30    0.47
   6   5   2    0.06    0.54
  -5  11  -2    0.50    0.56
   5 -11   2    1.10    0.62
   5 -11   2    0.59    0.49
   5 -10   2    0.80    0.57
   5 -10   2    0.68    0.47
   5  -9   2   15.08    0.99
   5  -9   2   14.45    0.84
   5  -8   2   13.83    0.79
   5  -8   2   13.77    0.96
   5  -7   2    3.58    0.55
   5  -7   2    3.47    0.50
   5  -6   2   46.96    1.10
   5  -6   2   47.21    1.33
   5  -6   2   49.14    1.25
   5  -5   2   91.46    1.93
   5  -5   2   89.96    1.89
   5  -5   2   93.60    1.87
   5  -5   2   90.55    1.79
   5  -4   2   92.82    1.86
   5  -4   2   88.67    1.80
   5  -4   2   89.16    1.79
   5  -4   2   89.98    1.83
   5  -3   2   51.43    1.25
   5  -3   2   51.90    1.21
   5  -3   2   50.28    1.20
   5  -2   2   82.18    1.59
   5  -2   2   78.37    1.69
   5  -2   2   85.18    1.74
   5  -1   2   14.06    0.64
   5  -1   2   14.40    0.68
   5  -1   2   13.59    0.52
  -5   0  -2   95.88    1.99
   5   0   2   91.93    1.91
   5   0   2   88.73    1.91
   5   0   2   88.47    1.63
  -5  -1  -2    3.75    0.46
  -5  -1  -2    3.20    0.50
   5   1   2    3.87    0.48
   5   1   2    3.86    0.47
  -5  -2  -2    3.07    0.55
  -5  -2  -2    3.40    0.54
   5   2   2    3.36    0.54
   5   2   2    3.67    0.51
  -5  -3  -2   17.77    0.91
  -5  -3  -2   14.76    0.86
   5   3   2   16.95    0.85
   5   3   2   17.29    0.91
  -5  -4  -2    5.28    0.66
  -5  -4  -2    5.39    0.71
   5   4   2    4.52    0.58
   5   4   2    5.09    0.68
  -5  -5  -2    2.04    0.59
  -5  -5  -2    1.42    0.55
   5   5   2    1.33    0.54
   5   5   2    0.91    0.45
  -5  -6  -2    5.73    0.80
  -5  -6  -2    6.12    0.81
   5   6   2    6.55    0.82
  -4  11  -2   22.92    1.22
   4 -11   2   24.21    1.10
  -4  10  -2   15.34    1.01
   4 -10   2   16.05    1.03
   4 -10   2   17.59    0.92
   4  -9   2    3.74    0.66
   4  -9   2    4.91    0.61
   4  -8   2   28.17    1.18
   4  -8   2   30.95    1.07
   4  -7   2   44.70    1.34
   4  -7   2   45.34    1.23
   4  -6   2   70.98    1.66
   4  -6   2   70.26    1.34
   4  -6   2   71.06    1.57
   4  -5   2   13.55    0.59
   4  -5   2   14.40    0.54
   4  -5   2   15.49    0.73
   4  -4   2    6.64    0.48
   4  -4   2    6.70    0.45
   4  -4   2    6.79    0.45
   4  -4   2    6.98    0.47
   4  -3   2   15.89    0.62
   4  -3   2   14.53    0.59
   4  -3   2   16.15    0.59
   4  -3   2   16.55    0.57
   4  -2   2   36.34    0.89
   4  -2   2   34.99    0.92
   4  -2   2   34.07    0.84
   4  -1   2   14.62    0.58
   4  -1   2   15.21    0.59
   4  -1   2   15.15    0.50
  -4   0  -2    6.38    0.47
   4   0   2    6.25    0.47
   4   0   2    7.05    0.46
   4   0   2    6.51    0.34
  -4  -1  -2   90.00    1.82
  -4  -1  -2   89.08    1.90
   4   1   2   89.47    1.88
   4   1   2   92.30    1.86
  -4  -2  -2   23.70    0.94
  -4  -2  -2   26.35    0.89
   4   2   2   26.42    0.97
   4   2   2   24.90    0.86
  -4  -3  -2   30.94    1.09
  -4  -3  -2   32.69    1.06
   4   3   2   34.09    1.02
   4   3   2   31.43    1.10
  -4  -4  -2   28.71    1.16
  -4  -4  -2   27.14    1.06
   4   4   2   27.64    1.10
   4   4   2   28.09    0.98
  -4  -5  -2   15.49    0.98
  -4  -5  -2   14.31    0.89
   4   5   2   14.74    0.76
   4   5   2   16.06    0.98
  -4  -6  -2   31.25    1.21
  -4  -6  -2   30.70    1.27
   4   6   2   28.59    1.28
  -4  -7  -2    9.47    0.92
  -4  -7  -2    7.35    0.83
   4   7   2    8.56    0.93
  -3  11  -2    1.69    0.59
   3 -11   2    3.00    0.65
  -3  10  -2   12.23    0.97
   3 -10   2   11.71    0.83
  -3   9  -2    4.84    0.67
   3  -9   2    5.69    0.65
   3  -9   2    5.85    0.71
   3  -8   2   16.58    0.94
   3  -8   2   15.63    0.83
   3  -7   2   34.35    1.06
   3  -7   2   32.49    1.13
   3  -6   2   63.37    1.12
   3  -6   2   65.70    1.44
   3  -6   2   62.16    1.48
   3  -5   2   82.18    1.43
   3  -5   2   79.73    1.64
   3  -5   2   80.07    1.70
   3  -4   2   14.50    0.54
   3  -4   2   15.31    0.46
   3  -4   2   15.81    0.60
   3  -3   2   41.95    0.97
   3  -3   2   41.50    0.95
   3  -3   2   41.00    0.92
   3  -3   2   41.74    0.89
   3  -2   2   10.83    0.49
   3  -2   2   11.08    0.50
   3  -2   2   10.61    0.44
   3  -2   2   11.09    0.47
   3  -1   2  363.86    5.77
   3  -1   2  361.12    5.77
   3  -1   2  359.82    5.95
  -3   0  -2   40.72    0.98
   3   0   2   40.21    0.96
   3   0   2   42.51    0.96
  -3  -1  -2   16.62    0.61
  -3  -1  -2   15.25    0.65
   3   1   2   16.61    0.63
   3   1   2   16.16    0.60
  -3  -2  -2   52.98    1.31
  -3  -2  -2   53.07    1.21
   3   2   2   53.13    1.30
   3   2   2   48.61    1.16
  -3  -3  -2   65.62    1.47
  -3  -3  -2   63.48    1.53
   3   3   2   64.26    1.41
   3   3   2   62.44    1.55
   3   3   2   63.52    1.20
  -3  -4  -2   47.45    1.30
  -3  -4  -2   48.86    1.37
   3   4   2   47.10    1.19
   3   4   2   42.62    1.31
  -3  -5  -2   11.80    0.80
  -3  -5  -2   12.76    0.80
   3   5   2   15.15    0.70
   3   5   2   14.36    0.93
  -3  -6  -2    3.56    0.60
  -3  -6  -2    3.54    0.66
   3   6   2    4.10    0.67
   3   6   2    3.75    0.49
  -3  -7  -2    6.67    0.71
  -3  -7  -2    5.50    0.75
   3   7   2    5.36    0.76
  -3  -8  -2    0.57    0.60
  -3  -8  -2    0.83    0.56
   3   8   2    1.02    0.61
  -2  10  -2    0.49    0.54
   2 -10   2   -0.52    0.47
  -2   9  -2    1.87    0.54
   2  -9   2    2.03    0.51
  -2   8  -2   46.97    1.45
   2  -8   2   48.74    1.39
  -2   7  -2    3.74    0.51
   2  -7   2    4.49    0.57
   2  -7   2    4.54    0.53
   2  -6   2   24.34    0.89
   2  -6   2   24.98    0.82
   2  -5   2   49.12    1.22
   2  -5   2   51.10    1.19
   2  -4   2   33.48    0.62
   2  -4   2   33.74    0.84
   2  -4   2   34.30    0.87
   2  -3   2  355.76    5.83
   2  -3   2  358.83    5.66
   2  -3   2  358.82    5.73
   2  -2   2  245.78    4.06
   2  -2   2  250.71    3.97
   2  -2   2  250.01    4.05
   2  -2   2  249.36    3.98
   2  -1   2    6.90    0.35
   2  -1   2    6.02    0.29
   2  -1   2    5.93    0.36
  -2   0  -2  250.13    4.08
   2   0   2  248.00    4.00
   2   0   2  245.62    4.10
  -2  -1  -2   11.49    0.47
  -2  -1  -2   10.57    0.50
   2   1   2   10.16    0.50
   2   1   2   10.93    0.44
  -2  -2  -2   32.26    0.92
  -2  -2  -2   33.80    0.84
   2   2   2   33.89    0.82
   2   2   2   33.92    0.93
  -2  -3  -2   82.52    1.65
  -2  -3  -2   80.19    1.73
   2   3   2   82.14    1.62
   2   3   2   83.66    1.76
   2   3   2   82.71    1.46
  -2  -4  -2   69.92    1.66
  -2  -4  -2   74.74    1.60
   2   4   2   72.88    1.51
   2   4   2   74.05    1.71
  -2  -5  -2    4.63    0.58
  -2  -5  -2    3.94    0.52
   2   5   2    3.94    0.56
   2   5   2    3.95    0.42
  -2  -6  -2    5.99    0.69
  -2  -6  -2    4.90    0.60
   2   6   2    5.15    0.49
   2   6   2    3.68    0.59
  -2  -7  -2   18.15    0.94
  -2  -7  -2   17.30    1.02
   2   7   2   19.61    1.07
  -2  -8  -2    0.73    0.53
  -2  -8  -2    0.97    0.58
   2   8   2    0.77    0.54
  -1  10  -2   35.55    1.40
   1 -10   2   38.63    1.42
   1 -10   2   37.89    1.36
  -1   9  -2    4.79    0.68
   1  -9   2    3.90    0.63
   1  -9   2    4.88    0.65
  -1   8  -2    3.88    0.62
   1  -8   2    3.33    0.59
   1  -8   2    4.70    0.61
  -1   7  -2   36.47    1.23
   1  -7   2   36.30    1.14
   1  -7   2   37.05    1.14
  -1   6  -2    3.92    0.47
   1  -6   2    3.83    0.47
   1  -6   2    4.26    0.47
  -1   5  -2   92.99    1.84
   1  -5   2   91.16    1.87
   1  -5   2   92.90    1.81
   1  -5   2   89.31    1.83
   1  -4   2   16.39    0.62
   1  -4   2   16.92    0.58
   1  -4   2   15.70    0.57
   1  -3   2   11.18    0.48
   1  -3   2   10.86    0.51
   1  -2   2    6.48    0.33
   1  -2   2    5.82    0.36
   1  -1   2    1.12    0.13
   1  -1   2    0.81    0.14
   1  -1   2    1.11    0.12
  -1   0  -2    1.28    0.17
   1   0   2    0.99    0.15
   1   0   2    1.06    0.14
  -1  -1  -2    6.07    0.35
  -1  -1  -2    6.47    0.30
   1   1   2    5.89    0.29
   1   1   2    6.11    0.39
  -1  -2  -2  359.95    5.84
  -1  -2  -2  351.61    5.61
   1   2   2  362.98    5.72
   1   2   2  357.49    5.84
  -1  -3  -2   16.07    0.58
  -1  -3  -2   15.66    0.66
   1   3   2   14.44    0.51
   1   3   2   16.02    0.65
  -1  -4  -2   14.66    0.61
  -1  -4  -2   15.18    0.66
   1   4   2   14.31    0.66
   1   4   2   14.76    0.54
  -1  -5  -2   47.45    1.31
  -1  -5  -2   47.25    1.20
   1   5   2   49.61    1.31
   1   5   2   48.09    1.10
  -1  -6  -2    0.32    0.46
  -1  -6  -2    0.19    0.39
   1   6   2   -0.65    0.40
   1   6   2   -0.07    0.29
  -1  -7  -2   63.47    1.64
  -1  -7  -2   66.01    1.75
   1   7   2   62.17    1.77
  -1  -8  -2   12.61    0.85
  -1  -8  -2   10.20    0.75
   1   8   2   10.10    0.90
  -1  -9  -2    0.66    0.50
  -1  -9  -2    0.04    0.60
   1   9   2    0.76    0.52
   0  10  -2    1.24    0.62
   0 -10   2    0.47    0.54
   0   9  -2    1.68    0.59
   0  -9   2    1.80    0.57
   0  -9   2    1.98    0.55
   0   8  -2   -0.44    0.45
   0  -8   2    0.42    0.47
   0  -8   2    0.33    0.50
   0   7  -2   10.37    0.75
   0  -7   2   10.43    0.74
   0  -7   2   10.94    0.77
   0   6  -2   19.89    0.88
   0  -6   2   20.45    0.85
   0  -6   2   19.50    0.79
   0   5  -2   93.58    1.88
   0   5  -2   90.77    1.59
   0  -5   2   89.09    1.87
   0  -5   2   90.89    1.81
   0   4  -2    6.40    0.48
   0   4  -2    6.62    0.27
   0  -4   2    6.25    0.43
   0  -4   2    6.48    0.44
   0   3  -2   41.16    0.76
   0   3  -2   42.18    0.92
   0  -3   2   40.48    0.88
   0  -3   2   41.91    0.97
   0   2  -2  250.81    3.96
   0   2  -2  246.39    3.90
   0  -2   2  240.21    3.95
   0  -2   2  252.45    3.96
   0   1  -2    0.69    0.11
   0  -1   2    1.51    0.16
   0  -1   2    0.98    0.10
   0   0  -2  990.57   15.35
   0   0   2 1000.00   14.96
   0   0   2  937.88   15.85
   0  -1  -2    1.04    0.17
   0  -1  -2    1.23    0.10
   0   1   2    1.20    0.14
   0   1   2    1.22    0.14
   0  -2  -2  243.81    3.85
   0  -2  -2  247.94    4.02
   0   2   2  244.18    3.93
   0   2   2  246.53    4.02
   0  -3  -2   41.71    0.98
   0  -3  -2   40.74    0.88
   0  -3  -2   41.01    0.88
   0   3   2   42.09    0.96
   0   3   2   42.74    0.87
   0  -4  -2    6.75    0.52
   0  -4  -2    6.32    0.42
   0  -4  -2    5.93    0.41
   0   4   2    6.19    0.36
   0   4   2    7.02    0.48
   0  -5  -2   91.05    1.90
   0  -5  -2   91.40    1.80
   0  -5  -2   92.29    1.82
   0   5   2   91.25    1.73
   0   5   2   93.16    1.93
   0  -6  -2   19.34    0.78
   0  -6  -2   20.35    0.78
   0  -6  -2   21.47    0.93
   0   6   2   20.16    0.87
   0   6   2   20.23    0.67
   0  -7  -2   11.55    0.75
   0  -7  -2   11.63    0.87
   0   7   2   11.13    0.80
   0  -8  -2   -0.01    0.53
   0  -8  -2    0.50    0.44
   0   8   2    0.09    0.51
   0  -9  -2    2.04    0.53
   0  -9  -2    1.16    0.61
   0   9   2    1.94    0.59
   0 -10  -2   -0.63    0.58
   0  10   2    0.68    0.60
   1   9  -2    0.13    0.54
  -1  -9   2    0.60    0.54
   1   8  -2   11.47    0.89
  -1  -8   2    9.52    0.82
  -1  -8   2   10.36    0.79
   1   7  -2   66.76    1.58
   1   7  -2   65.39    1.77
  -1  -7   2   62.73    1.72
  -1  -7   2   64.32    1.63
   1   6  -2   -0.16    0.35
  -1  -6   2    0.26    0.40
  -1  -6   2    0.00    0.43
   1   5  -2   47.92    1.29
   1   5  -2   48.15    1.03
  -1  -5   2   49.29    1.29
  -1  -5   2   47.78    1.19
   1   4  -2   15.82    0.69
   1   4  -2   15.08    0.49
  -1  -4   2   14.16    0.67
  -1  -4   2   15.33    0.61
   1   3  -2   15.97    0.53
   1   3  -2   17.16    0.61
   1   3  -2   15.76    0.47
  -1  -3   2   16.21    0.62
  -1  -3   2   16.35    0.54
   1   2  -2  361.55    5.76
   1   2  -2  367.62    5.93
   1   2  -2  360.30    5.87
  -1  -2   2  366.33    5.82
  -1  -2   2  374.46    5.84
   1   1  -2    5.88    0.30
   1   1  -2    6.15    0.30
   1   1  -2    7.16    0.34
  -1  -1   2    6.37    0.32
  -1  -1   2    6.65    0.28
   1   0  -2    0.65    0.17
  -1   0   2    0.88    0.15
   1  -1  -2    0.52    0.15
   1  -1  -2    0.95    0.13
   1  -2  -2    6.48    0.37
   1  -2  -2    5.81    0.32
   1  -2  -2    5.74    0.25
   1  -2  -2    6.40    0.38
   1  -3  -2   11.04    0.50
   1  -3  -2   11.12    0.43
   1  -3  -2   10.74    0.51
   1  -3  -2   11.05    0.41
  -1   3   2   11.42    0.41
  -1   3   2   11.77    0.47
   1  -4  -2   16.50    0.61
   1  -4  -2   17.15    0.53
   1  -4  -2   15.07    0.61
   1  -4  -2   16.76    0.53
  -1   4   2   15.97    0.50
  -1   4   2   15.81    0.60
   1  -5  -2   91.52    1.71
   1  -5  -2   89.42    1.86
   1  -5  -2   90.85    1.78
   1  -5  -2   89.96    1.73
  -1   5   2   87.94    1.67
  -1   5   2   90.48    1.84
   1  -6  -2    3.86    0.35
   1  -6  -2    3.61    0.47
   1  -6  -2    4.25    0.42
   1  -6  -2    4.67    0.47
  -1   6   2    3.38    0.33
  -1   6   2    4.02    0.51
   1  -7  -2   38.38    1.11
   1  -7  -2   40.76    1.27
   1  -7  -2   37.78    1.19
  -1   7   2   36.40    1.26
   1  -8  -2    3.58    0.65
   1  -8  -2    3.94    0.55
   1  -8  -2    3.83    0.62
  -1   8   2    4.80    0.66
   1  -9  -2    5.16    0.68
   1  -9  -2    4.98    0.63
  -1   9   2    4.73    0.71
   1 -10  -2   38.67    1.32
   1 -10  -2   38.68    1.45
  -1  10   2   36.17    1.48
   2   8  -2    0.81    0.53
  -2  -8   2   -0.58    0.48
   2   7  -2   21.19    1.06
  -2  -7   2   19.61    0.99
  -2  -7   2   16.91    0.97
   2   6  -2    4.74    0.53
   2   6  -2    4.52    0.61
  -2  -6   2    6.13    0.62
  -2  -6   2    4.36    0.64
   2   5  -2    4.51    0.39
   2   5  -2    4.02    0.46
   2   5  -2    5.66    0.56
  -2  -5   2    4.31    0.56
  -2  -5   2    4.70    0.52
   2   4  -2   72.42    1.47
   2   4  -2   71.26    1.62
   2   4  -2   74.07    1.50
  -2  -4   2   74.11    1.67
  -2  -4   2   74.31    1.57
   2   3  -2   82.45    1.60
   2   3  -2   84.54    1.61
   2   3  -2   82.49    1.69
  -2  -3   2   84.46    1.73
  -2  -3   2   82.52    1.64
   2   2  -2   34.18    0.86
   2   2  -2   32.98    0.82
   2   2  -2   34.65    0.80
  -2  -2   2   33.42    0.89
  -2  -2   2   35.47    0.83
   2   1  -2   11.75    0.45
   2   1  -2   11.17    0.53
   2   1  -2   11.24    0.45
  -2  -1   2   10.46    0.52
  -2  -1   2   11.13    0.45
   2   0  -2  244.91    4.12
   2   0  -2  246.81    3.89
   2   0  -2  249.29    4.01
  -2   0   2  247.36    3.95
   2  -1  -2    6.68    0.43
   2  -1  -2    6.13    0.28
   2  -1  -2    6.42    0.36
   2  -2  -2  249.61    4.11
   2  -2  -2  255.15    4.14
   2  -2  -2  245.83    3.93
   2  -3  -2  366.35    5.91
   2  -3  -2  364.82    5.90
   2  -3  -2  356.15    5.66
   2  -4  -2   33.25    0.79
   2  -4  -2   34.19    0.91
   2  -4  -2   34.68    0.78
   2  -4  -2   34.22    0.91
   2  -5  -2   49.80    1.22
   2  -5  -2   52.47    1.07
   2  -5  -2   52.75    1.14
   2  -5  -2   51.17    1.23
   2  -6  -2   25.44    0.78
   2  -6  -2   24.49    0.87
   2  -6  -2   26.67    0.70
   2  -6  -2   25.89    0.94
  -2   6   2   25.50    0.88
   2  -7  -2    2.85    0.53
   2  -7  -2    4.55    0.49
   2  -7  -2    3.41    0.53
  -2   7   2    3.95    0.54
   2  -8  -2   47.36    1.29
   2  -8  -2   44.97    1.39
   2  -8  -2   45.90    1.37
  -2   8   2   47.02    1.47
   2  -9  -2    1.98    0.60
   2  -9  -2    1.60    0.46
   2  -9  -2    0.61    0.53
  -2   9   2    0.56    0.51
   2 -10  -2    0.59    0.54
   2 -10  -2   -0.19    0.44
   2 -10  -2    0.32    0.54
  -2  10   2    0.35    0.54
   3   8  -2    1.05    0.57
  -3  -8   2   -0.14    0.55
   3   7  -2    6.73    0.76
  -3  -7   2    4.58    0.69
   3   6  -2    2.20    0.56
  -3  -6   2    4.28    0.59
  -3  -6   2    3.67    0.64
   3   5  -2   15.08    0.89
   3   5  -2   14.41    0.70
  -3  -5   2   14.66    0.80
  -3  -5   2   14.56    0.88
   3   4  -2   47.58    1.32
   3   4  -2   46.35    1.18
   3   4  -2   48.16    1.17
  -3  -4   2   46.37    1.35
  -3  -4   2   49.78    1.29
   3   3  -2   62.95    1.35
   3   3  -2   63.22    1.47
   3   3  -2   66.50    1.41
  -3  -3   2   62.21    1.50
  -3  -3   2   64.90    1.46
   3   2  -2   50.52    1.10
   3   2  -2   50.32    1.18
   3   2  -2   49.13    1.18
  -3  -2   2   50.25    1.17
  -3  -2   2   50.63    1.22
   3   1  -2   15.98    0.58
   3   1  -2   16.08    0.61
   3   1  -2   16.50    0.56
  -3  -1   2   16.40    0.59
  -3  -1   2   16.14    0.60
   3   0  -2   42.52    0.90
   3   0  -2   40.20    0.89
   3   0  -2   40.52    0.98
  -3   0   2   40.35    0.94
   3  -1  -2  359.45    5.63
   3  -1  -2  354.27    5.77
   3  -1  -2  358.75    5.94
   3  -2  -2   11.30    0.47
   3  -2  -2   10.24    0.55
   3  -2  -2   10.82    0.58
   3  -3  -2   41.44    1.02
   3  -3  -2   43.00    0.97
   3  -3  -2   40.23    0.89
   3  -4  -2   14.96    0.56
   3  -4  -2   15.90    0.53
   3  -4  -2   16.28    0.69
   3  -5  -2   80.24    1.71
   3  -5  -2   81.11    1.57
   3  -5  -2   82.14    1.55
   3  -6  -2   63.86    1.30
   3  -6  -2   64.05    1.50
   3  -6  -2   65.55    1.40
   3  -7  -2   31.40    1.11
   3  -7  -2   33.81    0.99
   3  -8  -2   16.16    0.77
   3  -8  -2   16.88    0.93
  -3   8   2   16.71    0.89
   3  -9  -2    5.40    0.60
   3  -9  -2    4.50    0.70
  -3   9   2    5.29    0.66
   3 -10  -2   11.88    0.81
   3 -10  -2   10.14    0.88
  -3  10   2   10.89    0.91
   3 -11  -2    1.74    0.66
   3 -11  -2    1.80    0.53
  -3  11   2    1.76    0.67
   4   7  -2    8.67    0.87
  -4  -7   2    8.13    0.88
   4   6  -2   31.54    1.26
  -4  -6   2   30.27    1.26
   4   5  -2   14.60    0.78
   4   5  -2   14.62    0.90
  -4  -5   2   13.76    0.90
  -4  -5   2   14.67    0.84
   4   4  -2   28.67    1.11
   4   4  -2   30.19    1.02
  -4  -4   2   29.40    1.13
  -4  -4   2   29.35    1.09
   4   3  -2   32.43    1.07
   4   3  -2   33.44    0.95
   4   3  -2   33.38    1.02
  -4  -3   2   32.54    1.08
  -4  -3   2   33.34    1.12
   4   2  -2   26.56    0.87
   4   2  -2   26.27    0.89
   4   2  -2   27.80    0.81
  -4  -2   2   25.82    0.90
  -4  -2   2   27.36    0.95
   4   1  -2   90.96    1.72
   4   1  -2   90.59    1.81
   4   1  -2   92.83    1.90
  -4  -1   2   90.60    1.83
  -4  -1   2   90.92    1.85
   4   0  -2    7.04    0.52
   4   0  -2    5.92    0.43
   4   0  -2    6.40    0.43
  -4   0   2    6.13    0.47
  -4   0   2    6.73    0.45
   4  -1  -2   16.14    0.56
   4  -1  -2   15.54    0.59
   4  -1  -2   15.06    0.65
   4  -2  -2   33.57    0.92
   4  -2  -2   33.33    0.87
   4  -2  -2   33.50    0.83
   4  -3  -2   16.07    0.68
   4  -3  -2   15.93    0.67
   4  -3  -2   16.53    0.57
   4  -4  -2    6.76    0.52
   4  -4  -2    6.80    0.50
   4  -4  -2    6.47    0.44
   4  -5  -2   14.29    0.63
   4  -5  -2   15.20    0.78
   4  -5  -2   14.35    0.59
   4  -6  -2   70.86    1.46
   4  -6  -2   69.55    1.63
   4  -6  -2   71.86    1.50
   4  -7  -2   47.24    1.11
   4  -7  -2   47.19    1.20
   4  -7  -2   48.65    1.40
   4  -8  -2   27.96    0.98
   4  -8  -2   27.93    1.17
   4  -9  -2    5.01    0.69
   4  -9  -2    4.62    0.57
  -4   9   2    5.78    0.70
   4 -10  -2   14.35    0.99
   4 -10  -2   18.53    0.90
  -4  10   2   16.23    1.03
   4 -11  -2   24.64    1.26
   4 -11  -2   22.82    1.01
  -4  11   2   24.32    1.23
   5   6  -2    5.79    0.74
  -5  -6   2    5.07    0.76
   5   5  -2    0.83    0.46
   5   5  -2    1.07    0.51
  -5  -5   2    0.43    0.56
   5   4  -2    4.95    0.58
   5   4  -2    4.39    0.61
  -5  -4   2    3.83    0.65
  -5  -4   2    5.34    0.65
   5   3  -2   18.91    0.89
   5   3  -2   17.50    0.91
  -5  -3   2   18.90    0.97
  -5  -3   2   16.82    0.92
   5   2  -2    3.50    0.48
   5   2  -2    3.85    0.54
  -5  -2   2    4.30    0.53
  -5  -2   2    3.50    0.56
   5   1  -2    3.96    0.39
   5   1  -2    4.19    0.45
   5   1  -2    3.79    0.49
  -5  -1   2    3.45    0.45
  -5  -1   2    4.05    0.52
   5   0  -2   94.17    1.98
   5   0  -2   93.06    1.87
   5   0  -2   92.24    1.78
  -5   0   2   91.36    1.93
  -5   0   2   92.55    1.90
   5  -1  -2   13.75    0.70
   5  -1  -2   15.58    0.63
   5  -1  -2   14.33    0.63
   5  -2  -2   84.36    1.80
   5  -2  -2   83.04    1.66
   5  -2  -2   83.24    1.67
   5  -3  -2   49.76    1.23
   5  -3  -2   52.25    1.20
   5  -3  -2   50.64    1.26
   5  -4  -2   91.83    1.83
   5  -4  -2   89.06    1.90
   5  -4  -2   92.71    1.89
   5  -5  -2   89.84    1.94
   5  -5  -2   93.97    1.83
   5  -5  -2   92.11    1.89
   5  -6  -2   44.09    1.28
   5  -6  -2   47.06    1.17
   5  -6  -2   46.78    1.18
   5  -7  -2    3.86    0.46
   5  -7  -2    3.88    0.45
   5  -7  -2    3.63    0.61
   5  -8  -2   15.60    0.76
   5  -8  -2   13.62    0.88
   5  -9  -2   13.74    0.98
   5  -9  -2   14.44    0.78
   5 -10  -2    0.94    0.59
   5 -10  -2    0.80    0.44
  -5  10   2    0.94    0.52
   5 -11  -2    1.15    0.63
   5 -11  -2    0.15    0.45
  -5  11   2    0.74    0.61
   6   5  -2    0.62    0.54
  -6  -5   2    0.26    0.59
   6   4  -2   18.10    0.99
   6   4  -2   15.46    0.95
  -6  -4   2   15.55    0.98
   6   3  -2    5.34    0.63
   6   3  -2    5.17    0.64
  -6  -3   2    5.22    0.68
  -6  -3   2    5.42    0.65
   6   2  -2   47.26    1.39
   6   2  -2   47.01    1.42
  -6  -2   2   46.22    1.41
  -6  -2   2   47.53    1.40
   6   1  -2   38.08    1.24
   6   1  -2   39.76    1.19
  -6  -1   2   39.22    1.27
  -6  -1   2   38.70    1.22
   6   0  -2   20.15    0.83
   6   0  -2   19.43    0.77
   6   0  -2   18.69    0.88
  -6   0   2   18.82    0.84
  -6   0   2   19.16    0.82
   6  -1  -2   47.63    1.22
   6  -1  -2   49.12    1.35
   6  -1  -2   46.69    1.16
   6  -2  -2   70.23    1.56
   6  -2  -2   71.43    1.57
   6  -2  -2   72.26    1.69
   6  -3  -2   63.80    1.58
   6  -3  -2   63.16    1.47
   6  -3  -2   64.26    1.46
   6  -4  -2   25.30    0.88
   6  -4  -2   24.70    0.96
   6  -4  -2   26.68    0.96
   6  -5  -2    2.92    0.52
   6  -5  -2    4.19    0.46
   6  -5  -2    3.61    0.50
   6  -6  -2   19.65    0.89
   6  -6  -2   20.14    0.80
   6  -6  -2   17.83    0.89
   6  -7  -2    0.49    0.53
   6  -7  -2   -0.22    0.34
   6  -7  -2   -0.17    0.40
   6  -8  -2    4.46    0.55
   6  -8  -2    4.23    0.72
   6  -9  -2    3.39    0.64
   6  -9  -2    3.62    0.54
   6 -10  -2   28.38    1.28
   6 -10  -2   32.09    1.15
   6 -11  -2    6.05    0.85
   6 -11  -2    7.06    0.71
   7   4  -2   22.24    1.09
   7   4  -2   24.47    1.17
  -7  -4   2   23.83    1.22
   7   3  -2   10.58    0.86
   7   3  -2    8.85    0.80
  -7  -3   2    9.64    0.90
   7   2  -2    1.48    0.52
   7   2  -2    1.41    0.48
  -7  -2   2    1.99    0.55
  -7  -2   2    2.16    0.56
   7   1  -2    4.08    0.67
   7   1  -2    3.15    0.53
  -7  -1   2    4.83    0.63
  -7  -1   2    4.61    0.69
   7   0  -2   11.13    0.83
   7   0  -2   10.18    0.74
  -7   0   2   11.38    0.77
  -7   0   2   10.54    0.81
   7  -1  -2   -0.45    0.32
   7  -1  -2    0.79    0.54
   7  -1  -2    0.04    0.41
  -7   1   2    0.19    0.40
   7  -2  -2    4.78    0.55
   7  -2  -2    3.63    0.48
   7  -2  -2    3.65    0.58
   7  -3  -2   45.90    1.25
   7  -3  -2   46.84    1.35
   7  -3  -2   44.61    1.25
   7  -4  -2   32.81    1.06
   7  -4  -2   33.55    1.16
   7  -4  -2   30.76    1.10
   7  -5  -2    3.16    0.54
   7  -5  -2    4.16    0.52
   7  -5  -2    4.71    0.63
   7  -6  -2   36.87    1.24
   7  -6  -2   34.92    1.19
   7  -6  -2   37.42    1.17
   7  -7  -2   10.77    0.89
   7  -7  -2   10.40    0.68
   7  -7  -2   10.11    0.78
   7  -8  -2   64.64    1.62
   7  -8  -2   60.46    1.78
   7  -9  -2   16.33    0.99
   7  -9  -2   16.94    0.88
   7 -10  -2    4.58    0.62
   7 -10  -2    4.81    0.77
   7 -11  -2    6.90    0.74
   7 -11  -2    6.58    0.87
   8   3  -2    2.18    0.57
   8   3  -2    0.24    0.50
  -8  -3   2    1.43    0.66
   8   2  -2   -0.29    0.42
   8   2  -2   -0.72    0.54
  -8  -2   2    0.30    0.56
   8   1  -2    4.60    0.62
   8   1  -2    4.33    0.66
  -8  -1   2    4.67    0.72
  -8  -1   2    5.11    0.67
   8   0  -2   -0.01    0.50
   8   0  -2    0.33    0.40
  -8   0   2    0.19    0.50
  -8   0   2   -0.92    0.50
   8  -1  -2   62.41    1.79
   8  -1  -2   61.24    1.62
  -8   1   2   60.09    1.66
  -8   1   2   58.80    1.66
   8  -2  -2    5.09    0.62
   8  -2  -2    4.79    0.73
   8  -2  -2    3.95    0.56
   8  -3  -2   14.85    0.86
   8  -3  -2   14.11    0.82
   8  -3  -2   15.85    0.95
   8  -4  -2   27.99    1.21
   8  -4  -2   27.96    1.00
   8  -4  -2   27.46    1.10
   8  -5  -2   16.48    0.91
   8  -5  -2   15.63    0.81
   8  -5  -2   16.61    0.98
   8  -6  -2   44.68    1.34
   8  -6  -2   45.36    1.48
   8  -6  -2   46.11    1.42
   8  -7  -2    2.78    0.60
   8  -7  -2    3.41    0.70
   8  -8  -2   -0.15    0.47
   8  -8  -2   -0.08    0.57
   8  -9  -2    9.79    0.94
   8  -9  -2   10.13    0.78
   8 -10  -2    0.52    0.62
   8 -10  -2    0.37    0.47
   8 -11  -2    0.87    0.53
   8 -11  -2    0.54    0.64
   9   1  -2   36.09    1.34
   9   1  -2   33.90    1.41
  -9  -1   2   37.09    1.45
   9   0  -2    1.37    0.59
   9   0  -2    2.07    0.53
  -9   0   2    3.12    0.62
  -9   0   2    2.67    0.67
   9  -1  -2   10.74    0.80
   9  -1  -2   10.81    0.89
  -9   1   2   10.24    0.89
  -9   1   2    9.88    0.85
   9  -2  -2   17.04    0.92
   9  -2  -2   14.59    0.97
  -9   2   2   16.09    0.89
   9  -3  -2    3.28    0.56
   9  -3  -2    3.64    0.61
   9  -3  -2    3.27    0.70
   9  -4  -2   14.54    0.86
   9  -4  -2   13.43    0.97
   9  -4  -2   14.48    1.01
   9  -5  -2    5.54    0.71
   9  -5  -2    4.25    0.68
   9  -5  -2    4.11    0.58
   9  -6  -2    3.64    0.67
   9  -6  -2    4.30    0.68
   9  -6  -2    5.86    0.66
   9  -7  -2    1.32    0.63
   9  -7  -2    0.95    0.45
   9  -7  -2    1.47    0.57
   9  -8  -2    4.32    0.74
   9  -8  -2    4.56    0.65
   9  -9  -2    2.28    0.68
   9 -10  -2    0.48    0.64
  10   0  -2   -0.59    0.60
  10   0  -2    0.38    0.48
 -10   0   2    1.24    0.65
  10  -1  -2    0.70    0.59
  10  -1  -2   -0.16    0.44
 -10   1   2   -0.46    0.50
 -10   1   2    0.04    0.52
  10  -2  -2    0.68    0.46
  10  -2  -2   -0.38    0.53
 -10   2   2    0.54    0.58
 -10   2   2    0.44    0.50
  10  -3  -2    4.89    0.73
  10  -3  -2    4.62    0.64
  10  -4  -2   29.93    1.18
  10  -4  -2   28.96    1.31
  10  -5  -2    0.97    0.49
  10  -5  -2    0.62    0.61
  10  -5  -2    0.21    0.57
  10  -6  -2   14.68    0.93
  10  -6  -2   15.81    0.99
  10  -6  -2   15.47    1.01
  10  -7  -2   10.93    0.90
  10  -7  -2   12.84    1.02
  10  -7  -2    9.52    0.89
  10  -8  -2   -0.53    0.54
  10  -8  -2   -0.51    0.60
  10  -9  -2   35.47    1.47
  10 -10  -2    0.94    0.68
  11  -3  -2   -0.04    0.48
  11  -3  -2   -0.07    0.58
 -11   3   2    0.17    0.49
  11  -4  -2    7.23    0.88
  11  -4  -2    7.67    0.81
  11  -5  -2    4.69    0.67
  11  -5  -2    5.29    0.79
  11  -6  -2    1.00    0.67
  11  -6  -2    0.38    0.60
  11  -6  -2    1.16    0.57
  11  -7  -2   21.32    1.19
  11  -7  -2   20.78    1.18
  11  -7  -2   22.75    1.15
  11  -8  -2    2.49    0.76
  11  -8  -2    1.04    0.63
  11  -8  -2    1.78    0.56
  11  -8   3    1.41    0.65
  11  -8   3    0.59    0.57
  11  -7   3   -0.66    0.52
  11  -7   3    0.37    0.54
  11  -7   3   -0.14    0.55
  11  -6   3    6.28    0.77
  11  -6   3    6.85    0.81
  11  -5   3   11.22    0.95
  11  -5   3    9.55    0.91
 -11   4  -3   15.34    1.01
  11  -4   3   16.23    1.08
  11  -4   3   17.03    1.07
 -11   3  -3    6.97    0.85
  11  -3   3    7.76    0.87
  11  -3   3    6.43    0.83
  10 -10   3    5.61    0.83
  10  -9   3    0.86    0.68
  10  -8   3   11.26    0.95
  10  -8   3    9.81    0.88
  10  -7   3   25.37    1.19
  10  -7   3   22.85    1.12
  10  -7   3   23.22    1.07
  10  -6   3   24.83    1.08
  10  -6   3   26.78    1.14
  10  -6   3   24.49    1.13
  10  -5   3    7.29    0.76
  10  -5   3    8.81    0.84
  10  -4   3    0.45    0.53
  10  -4   3    0.30    0.48
 -10   3  -3    3.60    0.68
  10  -3   3    3.41    0.64
  10  -3   3    4.47    0.66
 -10   2  -3    2.16    0.61
  10  -2   3    0.98    0.57
  10  -2   3    1.33    0.56
 -10   1  -3    2.85    0.70
 -10   1  -3    2.07    0.60
  10  -1   3    1.34    0.56
  10  -1   3    1.81    0.60
 -10   0  -3    5.36    0.83
 -10   0  -3    7.06    0.90
  10   0   3    5.54    0.81
  10   0   3    6.04    0.76
   9 -10   3    1.38    0.67
   9 -10   3    2.49    0.63
   9  -9   3   17.11    0.91
   9  -9   3   17.00    1.07
   9  -8   3   11.62    0.93
   9  -8   3   10.14    0.88
   9  -7   3   -0.32    0.41
   9  -7   3    0.30    0.44
   9  -7   3   -0.69    0.51
   9  -6   3    1.88    0.57
   9  -6   3    0.78    0.49
   9  -6   3    0.93    0.51
   9  -5   3    7.30    0.75
   9  -5   3    7.73    0.70
   9  -5   3    6.47    0.70
   9  -4   3    0.41    0.43
   9  -4   3    0.10    0.51
   9  -3   3    0.35    0.47
   9  -3   3    0.48    0.43
  -9   2  -3   35.08    1.31
   9  -2   3   36.55    1.34
   9  -2   3   34.74    1.28
  -9   1  -3   14.32    0.97
   9  -1   3   15.61    0.91
   9  -1   3   13.74    0.90
  -9   0  -3   16.27    1.06
  -9   0  -3   16.66    1.01
   9   0   3   16.25    1.03
   9   0   3   17.12    0.96
  -9  -1  -3    1.09    0.62
  -9  -1  -3    0.12    0.59
   9   1   3    1.24    0.59
   9   1   3   -0.77    0.55
   8 -11   3    6.54    0.79
   8 -11   3    6.82    0.88
   8 -10   3    1.45    0.50
   8 -10   3    0.95    0.63
   8  -9   3   15.82    0.90
   8  -9   3   14.59    1.00
   8  -8   3    3.27    0.66
   8  -8   3    3.59    0.60
   8  -7   3   29.33    1.19
   8  -7   3   28.58    1.01
   8  -7   3   27.91    1.18
   8  -7   3   29.71    1.14
   8  -6   3    0.86    0.48
   8  -6   3    0.89    0.48
   8  -6   3    0.88    0.56
   8  -5   3    1.70    0.48
   8  -5   3    2.63    0.55
   8  -5   3    3.13    0.56
   8  -4   3   78.20    1.79
   8  -4   3   79.74    1.91
   8  -4   3   79.56    1.93
   8  -3   3   15.44    0.92
   8  -3   3   17.79    0.94
   8  -3   3   15.26    0.77
  -8   2  -3   31.74    1.22
   8  -2   3   31.38    1.19
   8  -2   3   29.79    1.19
  -8   1  -3    0.21    0.49
   8  -1   3   -0.32    0.46
   8  -1   3    0.28    0.41
  -8   0  -3    4.02    0.65
  -8   0  -3    4.32    0.67
   8   0   3    3.20    0.57
   8   0   3    3.87    0.60
  -8  -1  -3   11.78    0.87
  -8  -1  -3   10.74    0.90
   8   1   3   14.40    0.92
   8   1   3   11.37    0.88
  -8  -2  -3   12.30    1.03
  -8  -2  -3   11.58    0.94
   8   2   3   10.75    0.89
   8   2   3    9.44    0.93
  -8  -3  -3    1.07    0.63
  -8  -3  -3    0.50    0.60
   8   3   3   -0.30    0.52
   8   3   3    0.77    0.58
   7 -11   3   15.65    0.98
   7 -11   3   15.35    1.07
   7 -10   3    4.17    0.71
   7 -10   3    4.77    0.65
   7  -9   3   37.51    1.23
   7  -9   3   33.59    1.36
   7  -8   3    0.04    0.45
   7  -8   3   -0.27    0.55
   7  -7   3    6.34    0.66
   7  -7   3    6.84    0.57
   7  -7   3    6.09    0.64
   7  -7   3    7.14    0.74
   7  -6   3   72.00    1.65
   7  -6   3   75.15    1.75
   7  -6   3   71.39    1.76
   7  -6   3   69.73    1.76
   7  -5   3   28.85    1.05
   7  -5   3   27.71    1.02
   7  -5   3   30.81    1.01
   7  -4   3   12.38    0.78
   7  -4   3   12.44    0.71
   7  -4   3   11.82    0.76
   7  -3   3   -0.22    0.36
   7  -3   3   -0.26    0.41
   7  -3   3    0.59    0.36
   7  -2   3    6.21    0.59
   7  -2   3    6.88    0.51
   7  -2   3    6.04    0.63
  -7   1  -3    7.99    0.72
   7  -1   3    8.73    0.73
   7  -1   3    6.32    0.63
  -7   0  -3    6.70    0.70
  -7   0  -3    6.24    0.70
   7   0   3    6.39    0.65
   7   0   3    7.05    0.71
  -7  -1  -3   31.06    1.20
  -7  -1  -3   29.24    1.22
   7   1   3   28.78    1.15
   7   1   3   29.74    1.12
  -7  -2  -3   -0.16    0.51
  -7  -2  -3    0.49    0.52
   7   2   3   -0.94    0.40
   7   2   3   -0.67    0.44
  -7  -3  -3   22.95    1.17
  -7  -3  -3   22.70    1.11
   7   3   3   21.50    1.10
   7   3   3   24.05    1.08
  -7  -4  -3    1.84    0.59
  -7  -4  -3    0.37    0.57
   7   4   3   -0.01    0.51
   7   4   3    0.27    0.54
   6 -11   3   10.46    0.78
   6 -11   3   10.62    0.98
   6 -10   3    0.57    0.57
   6 -10   3    0.98    0.49
   6  -9   3    0.93    0.55
   6  -9   3    0.32    0.46
   6  -8   3   30.39    1.11
   6  -8   3   29.01    1.21
   6  -7   3    8.33    0.67
   6  -7   3    7.22    0.72
   6  -6   3    0.91    0.38
   6  -6   3    0.52    0.41
   6  -6   3    0.58    0.38
   6  -6   3    0.46    0.33
   6  -5   3    2.13    0.41
   6  -5   3    2.55    0.47
   6  -5   3    2.76    0.45
   6  -5   3    2.55    0.40
   6  -4   3   46.90    1.24
   6  -4   3   45.78    1.19
   6  -4   3   45.92    1.18
   6  -3   3    2.52    0.41
   6  -3   3    2.40    0.42
   6  -3   3    2.22    0.38
   6  -2   3    0.29    0.32
   6  -2   3    0.46    0.38
   6  -2   3    0.66    0.29
  -6   1  -3  125.85    2.55
   6  -1   3  122.58    2.19
   6  -1   3  123.68    2.49
   6  -1   3  119.16    2.46
  -6   0  -3    0.32    0.38
   6   0   3    0.59    0.42
   6   0   3    0.68    0.35
  -6  -1  -3   73.27    1.76
  -6  -1  -3   72.90    1.85
   6   1   3   69.83    1.81
   6   1   3   69.76    1.71
  -6  -2  -3    1.22    0.53
  -6  -2  -3    1.07    0.52
   6   2   3    1.17    0.51
   6   2   3    1.57    0.49
  -6  -3  -3    1.27    0.54
  -6  -3  -3    1.36    0.56
   6   3   3    0.90    0.44
   6   3   3    0.61    0.50
  -6  -4  -3   27.88    1.16
  -6  -4  -3   25.32    1.21
   6   4   3   26.57    1.25
   6   4   3   25.84    1.08
  -6  -5  -3    7.45    0.84
  -6  -5  -3    6.52    0.84
   6   5   3    8.21    0.90
   6   5   3    7.05    0.72
  -5  11  -3    6.62    0.84
   5 -11   3    6.65    0.85
   5 -11   3    7.82    0.79
   5 -10   3    6.66    0.79
   5 -10   3    7.56    0.73
   5  -9   3    0.10    0.55
   5  -9   3    0.55    0.46
   5  -8   3   18.06    0.88
   5  -8   3   14.94    0.96
   5  -7   3    7.27    0.62
   5  -7   3    5.52    0.64
   5  -6   3  122.97    2.51
   5  -6   3  123.42    2.43
   5  -6   3  126.12    2.27
   5  -5   3    7.41    0.57
   5  -5   3    7.07    0.57
   5  -5   3    6.97    0.54
   5  -5   3    7.15    0.51
   5  -4   3    1.01    0.35
   5  -4   3    1.13    0.31
   5  -4   3    0.50    0.28
   5  -4   3    0.78    0.32
   5  -3   3  205.77    3.66
   5  -3   3  216.02    3.70
   5  -3   3  209.28    3.62
   5  -2   3    5.59    0.39
   5  -2   3    4.99    0.43
   5  -2   3    5.28    0.45
  -5   1  -3  129.06    2.57
   5  -1   3  132.14    2.54
   5  -1   3  134.44    2.31
   5  -1   3  136.71    2.56
  -5   0  -3    7.84    0.57
   5   0   3    7.30    0.58
   5   0   3    7.01    0.54
   5   0   3    7.20    0.38
  -5  -1  -3    2.09    0.46
  -5  -1  -3    2.61    0.42
   5   1   3    2.97    0.45
   5   1   3    2.90    0.47
  -5  -2  -3   29.72    1.13
  -5  -2  -3   28.01    1.03
   5   2   3   30.53    1.10
   5   2   3   29.63    0.99
  -5  -3  -3    1.70    0.52
  -5  -3  -3    3.06    0.57
   5   3   3    2.38    0.54
   5   3   3    3.08    0.52
  -5  -4  -3    6.61    0.77
  -5  -4  -3    6.58    0.70
   5   4   3    5.76    0.74
   5   4   3    6.45    0.63
  -5  -5  -3    7.43    0.79
  -5  -5  -3    8.59    0.81
   5   5   3    7.25    0.81
   5   5   3    7.94    0.68
  -5  -6  -3   12.74    1.00
  -5  -6  -3   11.98    0.97
   5   6   3   12.57    1.06
  -4  11  -3    0.79    0.62
   4 -11   3    0.89    0.50
  -4  10  -3   28.07    1.23
   4 -10   3   27.05    1.22
   4 -10   3   26.58    1.11
   4  -9   3    6.75    0.77
   4  -9   3    7.37    0.70
   4  -8   3   80.09    1.86
   4  -8   3   76.47    1.91
   4  -7   3    0.52    0.46
   4  -7   3    0.38    0.39
   4  -6   3    0.03    0.21
   4  -6   3    0.49    0.30
   4  -6   3    0.06    0.39
   4  -5   3  129.31    2.45
   4  -5   3  133.28    2.50
   4  -5   3  135.45    2.34
   4  -5   3  135.83    2.56
   4  -4   3    0.20    0.26
   4  -4   3    1.43    0.33
   4  -4   3    0.49    0.22
   4  -4   3    0.52    0.26
   4  -3   3   40.58    0.98
   4  -3   3   41.37    1.03
   4  -3   3   41.47    0.95
   4  -3   3   41.95    0.98
   4  -2   3   24.32    0.73
   4  -2   3   23.88    0.67
   4  -2   3   24.76    0.74
   4  -1   3   50.45    1.17
   4  -1   3   49.18    1.12
   4  -1   3   48.45    0.97
  -4   0  -3    0.31    0.27
   4   0   3    0.40    0.26
   4   0   3    0.46    0.26
  -4  -1  -3    1.00    0.31
  -4  -1  -3    0.25    0.31
   4   1   3    0.93    0.35
   4   1   3    0.41    0.30
  -4  -2  -3   47.68    1.22
  -4  -2  -3   47.48    1.33
   4   2   3   46.18    1.18
   4   2   3   47.01    1.32
  -4  -3  -3   11.47    0.81
  -4  -3  -3   12.05    0.76
   4   3   3   11.84    0.82
   4   3   3   10.29    0.61
  -4  -4  -3   82.68    1.93
  -4  -4  -3   81.70    2.01
   4   4   3   79.55    2.04
   4   4   3   83.25    1.87
  -4  -5  -3    0.01    0.47
  -4  -5  -3    0.06    0.54
   4   5   3    0.95    0.48
   4   5   3    0.38    0.39
  -4  -6  -3    1.04    0.57
  -4  -6  -3    0.29    0.49
   4   6   3    0.55    0.48
  -4  -7  -3   17.92    1.10
  -4  -7  -3   14.50    0.96
   4   7   3   15.21    1.10
  -3  11  -3    1.22    0.61
   3 -11   3    1.18    0.57
  -3  10  -3   24.34    1.13
   3 -10   3   26.15    1.12
  -3   9  -3    2.37    0.59
   3  -9   3    1.08    0.50
   3  -8   3    2.68    0.53
   3  -8   3    2.08    0.58
   3  -7   3   12.17    0.71
   3  -7   3   11.68    0.79
   3  -6   3    2.28    0.40
   3  -6   3    2.31    0.45
   3  -5   3    4.93    0.28
   3  -5   3    5.29    0.43
   3  -5   3    5.15    0.48
   3  -4   3   50.55    1.13
   3  -4   3   50.19    1.17
   3  -4   3   50.13    0.97
   3  -4   3   51.31    1.15
   3  -3   3  247.79    4.07
   3  -3   3  249.30    4.14
   3  -3   3  247.41    4.05
   3  -3   3  246.52    4.09
   3  -2   3   29.29    0.76
   3  -2   3   30.58    0.73
   3  -2   3   30.42    0.76
   3  -2   3   29.87    0.74
   3  -1   3    0.30    0.24
   3  -1   3    0.52    0.22
   3  -1   3    0.33    0.20
  -3   0  -3  253.93    4.28
   3   0   3  251.18    4.20
   3   0   3  252.90    4.28
  -3  -1  -3   41.53    0.99
  -3  -1  -3   40.59    1.08
   3   1   3   43.59    1.01
  -3  -2  -3  208.56    3.73
  -3  -2  -3  205.75    3.54
   3   2   3  207.87    3.65
   3   2   3  209.01    3.69
  -3  -3  -3    2.22    0.46
  -3  -3  -3    3.18    0.42
   3   3   3    2.26    0.43
   3   3   3    2.32    0.36
  -3  -4  -3    0.72    0.39
  -3  -4  -3    0.04    0.44
   3   4   3   -0.08    0.31
   3   4   3    0.30    0.37
  -3  -5  -3   15.88    0.98
  -3  -5  -3   17.45    0.90
   3   5   3   16.23    0.74
   3   5   3   16.85    0.98
  -3  -6  -3    0.76    0.52
  -3  -6  -3    0.74    0.51
   3   6   3    0.09    0.50
   3   6   3    0.47    0.37
  -3  -7  -3    3.72    0.63
  -3  -7  -3    4.50    0.73
   3   7   3    4.58    0.74
  -3  -8  -3    6.89    0.86
  -3  -8  -3    7.87    0.83
   3   8   3    8.82    0.97
  -2  10  -3    9.92    0.88
   2 -10   3   11.36    0.90
  -2   9  -3   -0.33    0.45
   2  -9   3    0.73    0.46
  -2   8  -3    0.24    0.48
   2  -8   3    1.01    0.48
  -2   7  -3   31.45    1.10
   2  -7   3   30.61    1.05
   2  -7   3   30.05    1.07
   2  -6   3   48.31    1.23
   2  -6   3   45.71    1.22
   2  -5   3  211.56    3.64
   2  -5   3  210.04    3.72
   2  -4   3   23.12    0.72
   2  -4   3   24.82    0.75
   2  -3   3    0.58    0.14
   2  -3   3    0.70    0.25
   2  -3   3    0.56    0.27
   2  -3   3    0.93    0.24
   2  -2   3  144.25    2.41
   2  -2   3  144.71    2.41
   2  -2   3  146.15    2.41
   2  -2   3  141.64    2.45
   2  -1   3   29.17    0.63
   2  -1   3   28.85    0.66
   2  -1   3   29.18    0.65
  -2   0  -3  145.96    2.54
   2   0   3  149.89    2.53
   2   0   3  142.27    2.48
  -2  -1  -3   30.56    0.82
  -2  -1  -3   28.82    0.71
   2   1   3   29.31    0.73
  -2  -2  -3   24.26    0.81
  -2  -2  -3   24.09    0.69
   2   2   3   25.53    0.70
   2   2   3   24.03    0.77
  -2  -3  -3    5.20    0.42
  -2  -3  -3    5.62    0.51
   2   3   3    4.94    0.38
   2   3   3    4.72    0.46
  -2  -4  -3    0.68    0.35
  -2  -4  -3    0.33    0.38
   2   4   3    0.59    0.28
   2   4   3    0.41    0.34
  -2  -5  -3    6.67    0.67
  -2  -5  -3    6.42    0.57
   2   5   3    6.20    0.63
   2   5   3    5.77    0.48
  -2  -6  -3   32.10    1.10
  -2  -6  -3   33.12    1.25
   2   6   3   33.28    1.00
   2   6   3   30.45    1.25
  -2  -7  -3   37.75    1.26
  -2  -7  -3   38.70    1.39
   2   7   3   36.49    1.41
  -2  -8  -3    0.66    0.59
  -2  -8  -3    1.10    0.54
   2   8   3    1.60    0.59
  -1  10  -3    0.09    0.50
   1 -10   3    1.35    0.56
  -1   9  -3   11.71    0.84
   1  -9   3   12.61    0.86
   1  -9   3   11.63    0.82
  -1   8  -3   29.68    1.19
   1  -8   3   30.25    1.09
   1  -8   3   29.45    1.14
  -1   7  -3   74.07    1.78
   1  -7   3   73.08    1.77
   1  -7   3   74.00    1.68
  -1   6  -3    2.31    0.42
   1  -6   3    3.70    0.47
   1  -6   3    3.71    0.43
  -1   5  -3    1.21    0.30
   1  -5   3    1.29    0.34
   1  -5   3    1.01    0.31
   1  -4   3   40.21    0.99
   1  -3   3   28.83    0.73
   1  -3   3   28.55    0.73
   1  -2   3   28.97    0.67
   1  -2   3   28.34    0.53
   1  -1   3  109.40    1.78
   1  -1   3  105.38    1.74
   1  -1   3  104.05    1.74
   1   0   3  103.95    1.77
   1   0   3  107.49    1.81
  -1  -1  -3   28.83    0.75
  -1  -1  -3   29.61    0.60
   1   1   3   28.51    0.67
  -1  -2  -3    0.32    0.21
  -1  -2  -3   -0.11    0.26
   1   2   3    0.73    0.21
   1   2   3    0.17    0.23
  -1  -3  -3   51.90    1.08
  -1  -3  -3   51.67    0.98
  -1  -3  -3   51.02    1.22
   1   3   3   50.73    1.08
   1   3   3   49.08    1.16
  -1  -4  -3  134.44    2.32
  -1  -4  -3  134.85    2.39
  -1  -4  -3  132.18    2.54
   1   4   3  128.66    2.39
   1   4   3  131.77    2.52
  -1  -5  -3  123.67    2.48
  -1  -5  -3  124.49    2.33
   1   5   3  120.28    2.29
   1   5   3  119.46    2.45
  -1  -6  -3    7.28    0.62
  -1  -6  -3    8.65    0.72
   1   6   3    7.71    0.54
   1   6   3    6.61    0.65
  -1  -7  -3    0.51    0.44
  -1  -7  -3   -0.04    0.49
   1   7   3    0.84    0.52
  -1  -8  -3   15.60    1.00
  -1  -8  -3   14.08    0.86
   1   8   3   13.59    0.92
  -1  -9  -3    1.90    0.70
  -1  -9  -3    2.56    0.58
   1   9   3    2.42    0.67
   0  10  -3    6.41    0.84
   0 -10   3    7.23    0.85
   0   9  -3   19.11    1.09
   0  -9   3   18.42    1.01
   0   8  -3    4.44    0.65
   0  -8   3    4.52    0.59
   0  -8   3    4.33    0.62
   0   7  -3    6.95    0.68
   0  -7   3    6.89    0.63
   0  -7   3    5.46    0.64
   0   6  -3    0.78    0.38
   0  -6   3    0.47    0.39
   0  -6   3    0.35    0.34
   0   5  -3    7.39    0.53
   0   5  -3    6.88    0.29
   0  -5   3    6.67    0.52
   0  -5   3    6.34    0.48
   0   4  -3    0.49    0.24
   0   4  -3    0.33    0.13
   0  -4   3    0.21    0.24
   0  -4   3    0.38    0.29
   0   3  -3  252.62    4.04
   0   3  -3  250.91    4.05
   0  -3   3  251.92    4.08
   0  -3   3  248.31    4.13
   0   2  -3  149.04    2.41
   0  -2   3  150.40    2.40
   0  -2   3  142.87    2.47
   0   1  -3  107.46    1.79
   0   1  -3  107.32    1.82
   0  -1   3  108.91    1.79
   0   0  -3    0.04    0.10
   0   0   3    0.07    0.09
   0   0   3   -0.11    0.12
   0  -1  -3  103.81    1.62
   0  -1  -3  103.82    1.79
   0   1   3  106.79    1.75
   0   1   3  106.43    1.81
   0  -2  -3  144.20    2.51
   0  -2  -3  145.33    2.32
   0   2   3  145.42    2.48
   0   2   3  145.67    2.44
   0  -3  -3  240.11    3.92
   0  -3  -3  249.62    4.01
   0  -3  -3  246.21    4.13
   0   3   3  241.34    4.03
   0   3   3  249.63    4.10
   0  -4  -3    0.03    0.28
   0  -4  -3    0.38    0.22
   0  -4  -3    0.26    0.24
   0   4   3    0.72    0.22
   0   4   3    0.21    0.25
   0  -5  -3    7.56    0.51
   0  -5  -3    6.90    0.55
   0  -5  -3    7.03    0.49
   0   5   3    7.66    0.58
   0   5   3    6.78    0.44
   0  -6  -3    0.27    0.35
   0  -6  -3    0.79    0.34
   0  -6  -3    0.56    0.44
   0   6   3    1.03    0.43
   0   6   3    0.10    0.28
   0  -7  -3    7.71    0.72
   0  -7  -3    7.71    0.63
   0  -7  -3    8.32    0.65
   0   7   3    6.71    0.69
   0  -8  -3    4.11    0.65
   0  -8  -3    3.43    0.55
   0   8   3    3.68    0.64
   0  -9  -3   17.94    0.91
   0  -9  -3   15.05    0.97
   0   9   3   16.78    1.07
   0 -10  -3    7.05    0.89
   0  10   3    4.24    0.74
   1   9  -3    3.20    0.67
  -1  -9   3    1.89    0.62
   1   8  -3   17.91    1.01
  -1  -8   3   15.67    0.94
   1   7  -3    0.47    0.44
   1   7  -3    0.74    0.50
  -1  -7   3    1.23    0.53
  -1  -7   3    0.49    0.48
   1   6  -3    7.89    0.67
   1   6  -3    7.98    0.64
  -1  -6   3    8.28    0.73
  -1  -6   3    7.77    0.61
   1   5  -3  127.72    2.39
   1   5  -3  125.54    2.45
   1   5  -3  124.31    2.22
  -1  -5   3  124.64    2.50
  -1  -5   3  127.95    2.39
   1   4  -3  132.46    2.42
   1   4  -3  134.30    2.32
   1   4  -3  133.95    2.45
  -1  -4   3  133.65    2.52
  -1  -4   3  133.94    2.40
   1   3  -3   50.66    1.09
   1   3  -3   52.11    1.02
   1   3  -3   52.18    1.10
  -1  -3   3   50.15    1.15
  -1  -3   3   49.85    1.04
   1   2  -3    0.36    0.21
   1   2  -3    0.46    0.23
   1   2  -3    0.43    0.24
  -1  -2   3    1.19    0.29
  -1  -2   3    0.64    0.19
   1   1  -3   29.09    0.60
   1   1  -3   29.47    0.68
   1   1  -3   29.97    0.68
  -1  -1   3   28.53    0.67
  -1  -1   3   29.50    0.57
   1   0  -3  107.20    1.81
   1   0  -3  101.85    1.79
  -1   0   3  105.22    1.72
   1  -1  -3  106.33    1.81
   1  -1  -3  108.19    1.85
   1  -1  -3  104.80    1.77
   1  -2  -3   28.81    0.69
   1  -2  -3   29.23    0.56
   1  -2  -3   29.82    0.70
   1  -2  -3   29.00    0.71
   1  -3  -3   29.47    0.75
   1  -3  -3   29.20    0.78
   1  -3  -3   29.25    0.74
   1  -3  -3   28.16    0.63
  -1   3   3   29.28    0.71
  -1   3   3   29.16    0.73
   1  -4  -3   40.36    0.89
   1  -4  -3   42.26    0.98
   1  -4  -3   41.37    1.03
   1  -4  -3   41.85    0.95
  -1   4   3   41.40    0.91
  -1   4   3   40.83    1.00
   1  -5  -3    1.06    0.27
   1  -5  -3    0.73    0.35
   1  -5  -3    0.76    0.26
   1  -5  -3    0.70    0.35
  -1   5   3    0.68    0.25
  -1   5   3    0.73    0.32
   1  -6  -3    2.21    0.34
   1  -6  -3    2.56    0.38
   1  -6  -3    2.42    0.48
   1  -6  -3    3.17    0.45
  -1   6   3    3.22    0.47
  -1   6   3    1.86    0.31
   1  -7  -3   74.62    1.72
   1  -7  -3   73.21    1.64
   1  -7  -3   75.41    1.84
  -1   7   3   73.30    1.79
   1  -8  -3   32.13    1.07
   1  -8  -3   31.62    1.13
   1  -8  -3   29.48    1.17
  -1   8   3   27.22    1.14
   1  -9  -3   13.71    0.81
   1  -9  -3   13.02    0.95
   1  -9  -3   14.43    0.87
  -1   9   3   11.95    0.96
   1 -10  -3    0.13    0.61
  -1  10   3    0.29    0.60
   2   8  -3    1.09    0.56
  -2  -8   3    2.25    0.62
   2   7  -3   38.50    1.35
  -2  -7   3   37.31    1.35
   2   6  -3   31.10    1.17
   2   6  -3   32.50    1.04
  -2  -6   3   30.95    1.08
  -2  -6   3   31.53    1.18
   2   5  -3    7.06    0.54
   2   5  -3    6.36    0.50
   2   5  -3    7.14    0.60
  -2  -5   3    5.95    0.63
  -2  -5   3    6.78    0.56
   2   4  -3    0.56    0.31
   2   4  -3    0.41    0.29
   2   4  -3    0.10    0.27
  -2  -4   3    0.52    0.37
  -2  -4   3    0.61    0.31
   2   3  -3    5.57    0.41
   2   3  -3    5.49    0.43
   2   3  -3    5.08    0.39
  -2  -3   3    5.17    0.46
  -2  -3   3    5.18    0.40
   2   2  -3   23.62    0.69
   2   2  -3   24.32    0.69
   2   2  -3   23.59    0.67
  -2  -2   3   25.14    0.65
  -2  -2   3   24.08    0.74
   2   1  -3   31.02    0.80
   2   1  -3   30.27    0.74
   2   1  -3   28.97    0.68
  -2  -1   3   29.03    0.68
  -2  -1   3   29.93    0.79
   2   0  -3  147.55    2.56
   2   0  -3  146.40    2.47
   2   0  -3  145.79    2.33
  -2   0   3  140.41    2.42
   2  -1  -3   29.44    0.61
   2  -1  -3   28.86    0.74
   2  -1  -3   29.75    0.72
   2  -2  -3  147.60    2.57
   2  -2  -3  147.79    2.53
   2  -3  -3    0.58    0.24
   2  -3  -3    0.81    0.19
   2  -3  -3    0.45    0.25
   2  -3  -3    0.14    0.31
   2  -4  -3   24.46    0.74
   2  -4  -3   24.70    0.67
   2  -4  -3   22.90    0.60
   2  -4  -3   23.53    0.76
   2  -5  -3  216.95    3.62
   2  -5  -3  208.60    3.50
   2  -5  -3  203.78    3.67
   2  -5  -3  214.59    3.73
  -2   5   3  210.26    3.63
   2  -6  -3   48.69    1.09
   2  -6  -3   45.40    1.24
   2  -6  -3   47.50    1.12
   2  -6  -3   47.05    1.22
  -2   6   3   48.52    1.29
   2  -7  -3   30.91    0.92
   2  -7  -3   29.67    1.09
   2  -7  -3   29.94    1.06
  -2   7   3   30.41    1.12
   2  -8  -3    0.92    0.42
   2  -8  -3    0.31    0.54
   2  -8  -3    0.83    0.51
  -2   8   3    1.22    0.49
   2  -9  -3   -0.22    0.49
   2  -9  -3    0.38    0.48
   2  -9  -3    0.13    0.40
  -2   9   3    0.72    0.47
   2 -10  -3   11.72    1.00
   2 -10  -3   10.16    0.79
   2 -10  -3   12.66    0.94
  -2  10   3   11.08    0.96
   3   8  -3    8.84    0.89
  -3  -8   3    7.20    0.87
   3   7  -3    4.87    0.68
  -3  -7   3    4.53    0.69
   3   6  -3    0.85    0.48
  -3  -6   3    1.17    0.55
   3   5  -3   15.21    0.72
   3   5  -3   15.11    0.88
  -3  -5   3   17.78    0.85
  -3  -5   3   15.79    0.85
   3   4  -3    0.08    0.36
   3   4  -3    0.47    0.36
   3   4  -3    0.58    0.34
  -3  -4   3    0.44    0.43
  -3  -4   3    0.58    0.35
   3   3  -3    2.47    0.38
   3   3  -3    2.87    0.37
   3   3  -3    2.33    0.37
  -3  -3   3    2.53    0.38
  -3  -3   3    3.12    0.46
   3   2  -3  210.58    3.60
   3   2  -3  209.74    3.61
   3   2  -3  211.55    3.70
  -3  -2   3  211.99    3.67
  -3  -2   3  212.28    3.63
   3   1  -3   42.91    1.05
   3   1  -3   42.84    0.95
   3   1  -3   41.89    0.97
  -3  -1   3   41.51    1.01
  -3  -1   3   41.20    0.95
   3   0  -3  247.84    4.08
   3   0  -3  248.18    3.96
   3   0  -3  243.97    4.22
  -3   0   3  245.86    4.05
   3  -1  -3    0.54    0.19
   3  -1  -3    0.55    0.27
   3  -1  -3    0.66    0.30
   3  -2  -3   29.71    0.80
   3  -2  -3   29.03    0.81
   3  -2  -3   29.45    0.71
   3  -3  -3  245.63    4.02
   3  -3  -3  254.91    4.25
   3  -3  -3  251.51    4.23
   3  -4  -3   51.89    1.12
   3  -4  -3   49.60    1.05
   3  -4  -3   51.89    1.22
   3  -5  -3    5.57    0.40
   3  -5  -3    5.98    0.52
   3  -5  -3    5.37    0.45
   3  -6  -3    2.87    0.44
   3  -6  -3    2.96    0.34
   3  -6  -3    2.92    0.34
   3  -6  -3    2.49    0.46
   3  -7  -3   11.94    0.56
   3  -7  -3   11.30    0.73
   3  -7  -3   11.11    0.59
   3  -7  -3   11.74    0.81
  -3   7   3   11.53    0.71
   3  -8  -3    3.20    0.62
   3  -8  -3    3.04    0.60
   3  -8  -3    2.95    0.46
  -3   8   3    3.26    0.56
   3  -9  -3    1.36    0.55
   3  -9  -3    1.49    0.42
   3  -9  -3    1.26    0.58
  -3   9   3    1.46    0.50
   3 -10  -3   25.99    1.20
   3 -10  -3   23.59    0.97
  -3  10   3   21.68    1.10
   3 -11  -3    0.73    0.58
  -3  11   3    1.00    0.57
   4   7  -3   17.27    1.05
  -4  -7   3   15.17    1.04
   4   6  -3    0.55    0.46
  -4  -6   3    0.63    0.55
   4   5  -3    0.64    0.47
   4   5  -3   -0.07    0.42
  -4  -5   3    1.45    0.55
   4   4  -3   80.56    1.91
   4   4  -3   80.05    1.81
  -4  -4   3   83.73    1.87
  -4  -4   3   81.85    1.98
   4   3  -3   11.03    0.66
   4   3  -3   12.30    0.71
   4   3  -3   11.78    0.70
  -4  -3   3   10.38    0.75
  -4  -3   3   12.15    0.70
   4   2  -3   46.77    1.25
   4   2  -3   48.53    1.15
   4   2  -3   48.34    1.23
  -4  -2   3   50.03    1.23
  -4  -2   3   48.12    1.28
   4   1  -3    0.88    0.28
   4   1  -3    1.10    0.39
   4   1  -3    1.27    0.31
  -4  -1   3    1.05    0.30
  -4  -1   3    0.90    0.33
   4   0  -3    0.91    0.33
   4   0  -3    0.33    0.22
   4   0  -3    0.88    0.28
  -4   0   3    0.64    0.31
   4  -1  -3   51.64    1.22
   4  -1  -3   50.13    1.07
   4  -1  -3   50.40    1.11
   4  -2  -3   24.70    0.76
   4  -2  -3   23.41    0.67
   4  -2  -3   26.07    0.85
   4  -3  -3   41.53    1.06
   4  -3  -3   39.50    0.93
   4  -3  -3   41.14    1.03
   4  -4  -3    0.33    0.23
   4  -4  -3    0.34    0.29
   4  -4  -3    0.40    0.34
   4  -5  -3  134.88    2.52
   4  -5  -3  136.66    2.43
   4  -5  -3  135.65    2.61
   4  -6  -3    0.77    0.29
   4  -6  -3    0.81    0.33
   4  -6  -3    0.55    0.44
   4  -7  -3    0.45    0.33
   4  -7  -3   -0.18    0.48
   4  -7  -3    0.49    0.32
   4  -8  -3   79.15    1.97
   4  -8  -3   81.55    1.76
   4  -9  -3    6.93    0.76
   4  -9  -3    6.30    0.61
  -4   9   3    6.90    0.71
   4 -10  -3   29.21    1.31
   4 -10  -3   30.15    1.09
  -4  10   3   27.50    1.24
   4 -11  -3    0.36    0.61
  -4  11   3    0.83    0.62
   5   6  -3   10.89    0.93
  -5  -6   3   11.78    0.99
   5   5  -3    8.77    0.81
  -5  -5   3    7.57    0.82
   5   4  -3    7.71    0.68
   5   4  -3    6.42    0.68
  -5  -4   3    7.63    0.79
   5   3  -3    3.22    0.55
   5   3  -3    2.24    0.49
  -5  -3   3    2.11    0.50
  -5  -3   3    2.23    0.58
   5   2  -3   30.42    1.01
   5   2  -3   29.55    0.92
   5   2  -3   28.87    1.01
  -5  -2   3   30.26    1.06
  -5  -2   3   31.45    1.04
   5   1  -3    1.59    0.44
   5   1  -3    2.19    0.36
   5   1  -3    2.61    0.40
  -5  -1   3    2.58    0.45
  -5  -1   3    2.69    0.42
   5   0  -3    7.61    0.62
   5   0  -3    7.40    0.56
   5   0  -3    7.81    0.52
  -5   0   3    8.35    0.56
  -5   0   3    7.50    0.53
   5  -1  -3  132.46    2.41
   5  -1  -3  134.46    2.44
   5  -1  -3  131.66    2.61
   5  -2  -3    5.48    0.54
   5  -2  -3    5.20    0.45
   5  -2  -3    4.70    0.40
   5  -3  -3  206.63    3.56
   5  -3  -3  209.13    3.77
   5  -3  -3  210.82    3.68
   5  -4  -3    1.13    0.28
   5  -4  -3    0.05    0.35
   5  -4  -3    0.63    0.36
   5  -5  -3    6.83    0.54
   5  -5  -3    8.00    0.51
   5  -5  -3    6.39    0.57
   5  -6  -3  126.56    2.35
   5  -6  -3  122.26    2.41
   5  -6  -3  125.79    2.58
   5  -7  -3    5.91    0.54
   5  -7  -3    5.87    0.68
   5  -7  -3    7.01    0.56
   5  -8  -3   14.22    1.01
   5  -8  -3   18.23    0.83
   5  -9  -3    0.48    0.53
   5  -9  -3    0.28    0.39
   5 -10  -3    8.66    0.70
   5 -10  -3    8.44    0.86
  -5  10   3    6.36    0.78
   5 -11  -3    6.13    0.83
   5 -11  -3    7.58    0.71
  -5  11   3    6.36    0.84
   6   5  -3    6.78    0.78
  -6  -5   3    6.07    0.83
   6   4  -3   25.18    1.06
   6   4  -3   25.65    1.11
  -6  -4   3   25.87    1.19
   6   3  -3    1.83    0.48
   6   3  -3    0.49    0.50
  -6  -3   3    0.59    0.50
   6   2  -3    1.18    0.55
   6   2  -3    0.71    0.41
  -6  -2   3    0.49    0.48
  -6  -2   3    0.94    0.54
   6   1  -3   72.26    1.80
   6   1  -3   74.27    1.71
   6   1  -3   74.29    1.60
  -6  -1   3   71.98    1.75
  -6  -1   3   71.47    1.81
   6   0  -3    0.46    0.38
   6   0  -3    0.57    0.46
   6   0  -3    0.46    0.31
  -6   0   3    0.36    0.35
  -6   0   3    0.51    0.42
   6  -1  -3  123.86    2.36
   6  -1  -3  122.77    2.53
   6  -1  -3  119.33    2.32
   6  -2  -3    0.42    0.37
   6  -2  -3    0.60    0.29
   6  -2  -3    0.02    0.41
   6  -3  -3    2.58    0.37
   6  -3  -3    3.17    0.47
   6  -3  -3    1.88    0.46
   6  -4  -3   45.59    1.29
   6  -4  -3   48.09    1.21
   6  -4  -3   48.26    1.31
   6  -5  -3    2.49    0.42
   6  -5  -3    2.79    0.51
   6  -5  -3    2.56    0.54
   6  -6  -3    0.19    0.43
   6  -6  -3    0.88    0.48
   6  -7  -3    5.92    0.73
   6  -7  -3    7.78    0.59
   6  -7  -3    8.05    0.64
   6  -8  -3   29.79    1.27
   6  -8  -3   31.40    1.04
   6  -9  -3    0.73    0.61
   6  -9  -3    0.13    0.40
   6 -10  -3    1.09    0.46
   6 -10  -3    0.45    0.59
   6 -11  -3   10.64    0.78
   6 -11  -3   10.97    1.00
  -6  11   3   10.59    0.94
   7   4  -3   -0.60    0.51
   7   4  -3    0.08    0.50
  -7  -4   3    0.24    0.59
   7   3  -3   25.33    1.14
   7   3  -3   26.01    1.11
  -7  -3   3   23.72    1.12
   7   2  -3   -0.37    0.43
   7   2  -3   -0.17    0.38
  -7  -2   3    0.01    0.46
   7   1  -3   29.62    1.09
   7   1  -3   31.09    1.25
  -7  -1   3   29.10    1.14
  -7  -1   3   31.36    1.22
   7   0  -3    7.06    0.77
   7   0  -3    6.80    0.61
  -7   0   3    7.70    0.75
  -7   0   3    7.10    0.67
   7  -1  -3    7.16    0.61
   7  -1  -3    7.17    0.60
   7  -1  -3    7.28    0.73
  -7   1   3    7.05    0.64
  -7   1   3    6.61    0.66
   7  -2  -3    7.66    0.59
   7  -2  -3    5.42    0.65
   7  -2  -3    6.38    0.61
   7  -3  -3   -0.14    0.31
   7  -3  -3    0.07    0.50
   7  -3  -3    0.59    0.46
   7  -4  -3   12.01    0.70
   7  -4  -3   10.48    0.81
   7  -4  -3   10.79    0.83
   7  -5  -3   29.85    1.15
   7  -5  -3   28.52    1.02
   7  -5  -3   30.20    1.08
   7  -6  -3   70.07    1.72
   7  -6  -3   67.69    1.73
   7  -6  -3   71.94    1.83
   7  -7  -3    6.23    0.78
   7  -7  -3    5.65    0.65
   7  -8  -3    1.00    0.45
   7  -8  -3    0.01    0.61
   7  -8  -3   -0.35    0.47
   7  -9  -3   38.49    1.22
   7  -9  -3   37.57    1.45
   7 -10  -3    3.23    0.72
   7 -10  -3    4.92    0.61
   7 -11  -3   17.57    0.95
   7 -11  -3   17.10    1.12
   8   3  -3    0.52    0.51
  -8  -3   3    0.28    0.54
   8   2  -3   10.00    0.90
   8   2  -3   10.67    0.82
  -8  -2   3   10.71    0.94
   8   1  -3   11.24    0.92
   8   1  -3    9.88    0.78
  -8  -1   3   12.27    0.90
   8   0  -3    2.91    0.63
   8   0  -3    3.43    0.52
  -8   0   3    3.96    0.66
  -8   0   3    2.41    0.56
   8  -1  -3   -0.11    0.60
   8  -1  -3    0.10    0.42
  -8   1   3    0.91    0.47
  -8   1   3   -0.67    0.46
   8  -2  -3   29.48    1.22
   8  -2  -3   30.85    1.13
   8  -2  -3   31.87    1.10
   8  -3  -3   17.78    1.05
   8  -3  -3   16.40    0.84
   8  -3  -3   15.24    0.97
   8  -4  -3   76.48    1.95
   8  -4  -3   79.01    1.85
   8  -4  -3   78.42    1.89
   8  -5  -3    1.82    0.59
   8  -5  -3    3.10    0.52
   8  -5  -3    2.59    0.65
   8  -6  -3    0.43    0.58
   8  -6  -3    0.91    0.46
   8  -6  -3   -0.10    0.60
   8  -7  -3   28.49    1.28
   8  -7  -3   30.03    1.17
   8  -8  -3    3.65    0.71
   8  -8  -3    3.79    0.61
   8  -9  -3   13.01    0.84
   8  -9  -3   13.92    1.01
   8 -10  -3    1.53    0.67
   8 -10  -3    2.11    0.53
   8 -11  -3    7.36    0.90
   8 -11  -3    7.83    0.79
   9   1  -3   -0.66    0.60
   9   1  -3   -0.04    0.46
  -9  -1   3   -0.32    0.57
   9   0  -3   16.05    1.07
   9   0  -3   15.40    0.91
  -9   0   3   15.09    0.94
   9  -1  -3   14.98    0.87
   9  -1  -3   13.68    1.03
  -9   1   3   15.71    0.92
  -9   1   3   13.68    0.87
   9  -2  -3   37.63    1.44
   9  -2  -3   38.41    1.27
  -9   2   3   35.98    1.32
   9  -3  -3    0.33    0.41
   9  -3  -3    0.35    0.59
   9  -3  -3    0.07    0.55
   9  -4  -3    0.91    0.62
   9  -4  -3    0.20    0.37
   9  -4  -3    0.31    0.54
   9  -5  -3    6.60    0.75
   9  -5  -3    6.30    0.76
   9  -5  -3    6.68    0.67
   9  -6  -3    1.26    0.44
   9  -6  -3    0.40    0.58
   9  -6  -3    1.17    0.59
   9  -7  -3    0.06    0.53
   9  -7  -3    0.26    0.61
   9  -7  -3   -0.42    0.43
   9  -8  -3   13.06    1.00
   9  -8  -3   10.55    0.84
   9  -9  -3   16.75    1.11
   9 -10  -3    2.63    0.74
  10   0  -3    6.32    0.75
  10   0  -3    5.98    0.81
 -10   0   3    4.13    0.79
  10  -1  -3    1.94    0.54
  10  -1  -3    1.93    0.65
 -10   1   3    1.32    0.61
  10  -2  -3    1.51    0.51
  10  -2  -3    1.89    0.68
 -10   2   3    2.08    0.60
 -10   2   3    1.76    0.63
  10  -3  -3    3.17    0.70
  10  -3  -3    5.72    0.67
  10  -4  -3    0.67    0.58
  10  -4  -3    0.62    0.59
  10  -4  -3    0.27    0.44
  10  -5  -3    6.52    0.75
  10  -5  -3    6.26    0.71
  10  -5  -3    7.05    0.83
  10  -6  -3   26.02    1.25
  10  -6  -3   26.49    1.22
  10  -6  -3   28.44    1.16
  10  -7  -3   21.70    1.08
  10  -7  -3   23.51    1.22
  10  -7  -3   20.36    1.14
  10  -8  -3    9.14    0.86
  10  -8  -3   10.69    0.98
  10  -9  -3    0.72    0.69
  10 -10  -3    5.52    0.87
  11  -3  -3    7.16    0.79
  11  -3  -3    5.82    0.84
 -11   3   3    6.46    0.84
 -11   3   3    7.58    0.86
  11  -4  -3   17.20    0.99
  11  -4  -3   13.53    1.03
  11  -5  -3   10.05    0.96
  11  -5  -3   10.00    0.87
  11  -6  -3    6.76    0.86
  11  -6  -3    6.85    0.77
  11  -6  -3    6.79    0.89
  11  -7  -3    0.58    0.66
  11  -7  -3   -0.01    0.50
  11  -7  -3    0.24    0.70
  11  -8  -3    0.21    0.55
  11  -8  -3    0.89    0.72
  11  -8  -3    0.31    0.63
  11  -8   4    0.11    0.55
  11  -8   4   -0.45    0.51
  11  -7   4   17.08    1.03
  11  -7   4   19.44    1.14
  11  -7   4   21.72    1.13
  11  -6   4   -0.24    0.54
  11  -6   4   -0.37    0.52
  11  -5   4    5.38    0.78
  11  -5   4    6.38    0.81
 -11   4  -4    6.09    0.78
  11  -4   4    5.30    0.77
  11  -4   4    6.90    0.86
 -11   3  -4   -0.37    0.48
  11  -3   4   -0.04    0.55
  11  -3   4   -0.23    0.52
  10 -10   4    0.81    0.65
  10 -10   4    0.24    0.57
  10  -9   4   31.24    1.35
  10  -9   4   29.35    1.30
  10  -8   4   -0.12    0.47
  10  -8   4    0.32    0.56
  10  -7   4   13.26    0.96
  10  -7   4   11.65    0.85
  10  -7   4   13.32    1.01
  10  -6   4   15.48    0.95
  10  -6   4   14.14    0.91
  10  -6   4   15.64    0.91
  10  -5   4   -0.01    0.49
  10  -5   4    0.07    0.46
  10  -4   4   23.43    1.10
  10  -4   4   22.85    1.12
 -10   3  -4    3.24    0.67
  10  -3   4    3.53    0.66
  10  -3   4    1.95    0.58
 -10   2  -4   -0.26    0.47
  10  -2   4   -0.38    0.49
  10  -2   4    0.74    0.49
 -10   1  -4    0.63    0.58
 -10   1  -4   -0.19    0.59
  10  -1   4   -0.34    0.45
  10  -1   4   -0.04    0.52
  10   0   4    0.28    0.50
  10   0   4    0.30    0.60
   9 -10   4   -0.07    0.60
   9 -10   4    0.17    0.52
   9  -9   4    1.95    0.65
   9  -9   4    0.51    0.48
   9  -8   4    3.09    0.62
   9  -8   4    3.22    0.65
   9  -7   4    1.72    0.50
   9  -7   4    1.17    0.54
   9  -7   4    2.43    0.53
   9  -6   4    9.05    0.81
   9  -6   4    6.76    0.66
   9  -6   4    8.83    0.75
   9  -5   4    9.79    0.78
   9  -5   4   10.51    0.75
   9  -5   4   10.38    0.86
   9  -4   4   21.16    0.97
   9  -4   4   20.29    1.00
   9  -3   4    2.77    0.59
   9  -3   4    3.35    0.60
  -9   2  -4    9.93    0.80
   9  -2   4   10.73    0.80
   9  -2   4   12.07    0.90
  -9   1  -4   12.27    0.93
   9  -1   4   11.20    0.92
   9  -1   4    9.11    0.79
  -9   0  -4   -0.08    0.56
  -9   0  -4    0.72    0.59
   9   0   4    1.61    0.57
   9   0   4    1.61    0.60
  -9  -1  -4   31.40    1.43
  -9  -1  -4   33.00    1.36
   9   1   4   33.53    1.44
   9   1   4   31.35    1.33
   8 -11   4   -0.04    0.51
   8 -11   4    0.81    0.64
   8 -10   4   -0.51    0.47
   8 -10   4    0.69    0.58
   8  -9   4   10.89    0.82
   8  -9   4   11.37    0.95
   8  -8   4    0.05    0.45
   8  -8   4    0.61    0.54
   8  -8   4    0.42    0.50
   8  -7   4    7.25    0.62
   8  -7   4    8.30    0.79
   8  -7   4    7.50    0.69
   8  -7   4    7.25    0.74
   8  -6   4   53.83    1.41
   8  -6   4   50.65    1.47
   8  -6   4   50.98    1.55
   8  -5   4    9.90    0.74
   8  -5   4    8.31    0.73
   8  -5   4    8.55    0.67
   8  -4   4   21.44    0.98
   8  -4   4   21.91    0.97
   8  -4   4   20.56    0.91
   8  -3   4   22.01    0.95
   8  -3   4   19.76    0.95
  -8   2  -4    8.91    0.78
   8  -2   4    8.22    0.74
   8  -2   4    7.30    0.70
  -8   1  -4   69.14    1.89
   8  -1   4   64.86    1.82
   8  -1   4   64.04    1.73
  -8   0  -4    0.44    0.46
  -8   0  -4    0.24    0.53
   8   0   4    0.71    0.46
   8   0   4   -0.41    0.42
  -8  -1  -4    3.03    0.63
  -8  -1  -4    3.10    0.65
   8   1   4    2.69    0.61
   8   1   4    2.75    0.58
  -8  -2  -4   -0.81    0.52
  -8  -2  -4    0.77    0.58
   8   2   4    0.08    0.47
   8   2   4    0.48    0.48
  -8  -3  -4    0.45    0.58
  -8  -3  -4   -0.43    0.55
   8   3   4    0.38    0.54
   8   3   4    0.84    0.58
   7 -11   4    6.44    0.76
   7 -11   4    6.12    0.85
   7 -10   4    3.44    0.60
   7 -10   4    4.06    0.71
   7  -9   4   10.58    0.93
   7  -9   4   10.85    0.75
   7  -8   4   68.46    1.86
   7  -8   4   68.60    1.78
   7  -7   4   11.16    0.84
   7  -7   4   11.51    0.67
   7  -7   4    9.77    0.80
   7  -7   4   10.35    0.78
   7  -6   4   31.15    1.14
   7  -6   4   30.47    0.98
   7  -6   4   31.15    1.14
   7  -6   4   28.96    1.04
   7  -5   4    5.05    0.59
   7  -5   4    5.10    0.50
   7  -5   4    5.17    0.58
   7  -4   4   16.09    0.86
   7  -4   4   17.54    0.76
   7  -4   4   16.85    0.77
   7  -3   4   41.88    1.24
   7  -3   4   40.06    1.24
   7  -3   4   43.01    1.11
   7  -2   4    2.98    0.39
   7  -2   4    2.36    0.46
   7  -2   4    1.47    0.45
  -7   1  -4    1.36    0.46
   7  -1   4    1.62    0.44
   7  -1   4    0.34    0.42
  -7   0  -4    9.80    0.76
   7   0   4   11.00    0.76
   7   0   4   10.66    0.83
  -7  -1  -4    8.69    0.78
  -7  -1  -4    7.83    0.78
   7   1   4    7.34    0.73
   7   1   4    8.07    0.76
  -7  -2  -4    1.10    0.53
  -7  -2  -4    1.96    0.57
   7   2   4    1.16    0.48
   7   2   4    1.62    0.54
  -7  -3  -4   14.26    0.94
  -7  -3  -4   14.49    1.02
   7   3   4   12.98    0.99
   7   3   4   11.53    0.87
  -7  -4  -4   20.74    1.18
  -7  -4  -4   17.90    1.10
   7   4   4   15.91    1.05
   7   4   4   18.39    1.02
   6 -11   4    5.91    0.75
   6 -11   4    7.32    0.86
   6 -10   4   24.30    1.19
   6 -10   4   25.59    1.10
   6  -9   4    3.14    0.66
   6  -9   4    3.35    0.59
   6  -8   4    9.45    0.85
   6  -8   4    9.17    0.75
   6  -7   4    1.35    0.53
   6  -7   4    0.63    0.39
   6  -6   4   21.51    0.76
   6  -6   4   20.77    0.93
   6  -6   4   20.56    0.83
   6  -6   4   20.27    0.87
   6  -5   4    3.68    0.41
   6  -5   4    2.70    0.43
   6  -5   4    3.54    0.45
   6  -5   4    4.07    0.50
   6  -4   4   27.26    0.86
   6  -4   4   30.01    0.95
   6  -4   4   28.58    0.96
   6  -3   4   27.11    0.85
   6  -3   4   29.08    0.96
   6  -3   4   29.53    0.90
   6  -2   4   64.38    1.33
   6  -2   4   59.86    1.51
   6  -2   4   66.33    1.54
  -6   1  -4   46.18    1.30
   6  -1   4   46.34    1.29
   6  -1   4   47.13    1.00
   6  -1   4   45.22    1.25
  -6   0  -4   19.53    0.89
   6   0   4   20.28    0.88
   6   0   4   21.01    0.85
  -6  -1  -4   30.93    1.11
  -6  -1  -4   30.60    1.18
   6   1   4   30.16    1.13
   6   1   4   29.99    1.07
  -6  -2  -4   53.30    1.60
  -6  -2  -4   53.09    1.52
   6   2   4   55.36    1.64
   6   2   4   52.01    1.47
  -6  -3  -4    8.04    0.76
  -6  -3  -4    8.74    0.82
   6   3   4   10.24    0.89
   6   3   4    8.02    0.69
  -6  -4  -4   14.81    0.93
  -6  -4  -4   16.50    1.04
   6   4   4   14.65    0.89
   6   4   4   15.48    1.03
  -6  -5  -4    0.24    0.56
  -6  -5  -4    0.78    0.63
   6   5   4   -0.47    0.49
   6   5   4   -0.65    0.44
   5 -11   4    0.66    0.60
   5 -11   4    0.29    0.50
   5 -10   4    1.13    0.59
   5 -10   4    0.61    0.47
   5  -9   4   23.08    0.96
   5  -9   4   22.08    1.10
   5  -8   4   16.55    0.99
   5  -8   4   20.00    0.88
   5  -7   4    2.55    0.54
   5  -7   4    1.75    0.46
   5  -6   4   47.63    1.33
   5  -6   4   48.18    1.27
   5  -6   4   47.27    1.06
   5  -6   4   46.05    1.26
   5  -5   4   74.34    1.65
   5  -5   4   73.70    1.49
   5  -5   4   71.97    1.65
   5  -5   4   75.93    1.63
   5  -4   4  148.16    2.70
   5  -4   4  151.32    2.79
   5  -4   4  148.89    2.72
   5  -4   4  147.89    2.75
   5  -3   4   63.84    1.44
   5  -3   4   62.08    1.33
   5  -3   4   63.10    1.39
   5  -2   4   27.18    0.74
   5  -2   4   26.29    0.86
   5  -2   4   25.76    0.80
  -5   1  -4   33.10    1.03
   5  -1   4   32.63    0.99
   5  -1   4   32.11    0.76
   5  -1   4   31.51    0.93
  -5   0  -4   69.39    1.66
   5   0   4   69.62    1.59
   5   0   4   72.28    1.67
  -5  -1  -4    3.24    0.50
  -5  -1  -4    2.95    0.46
   5   1   4    3.21    0.47
   5   1   4    2.83    0.46
  -5  -2  -4    5.57    0.63
  -5  -2  -4    6.03    0.60
   5   2   4    3.83    0.55
   5   2   4    5.02    0.53
  -5  -3  -4   10.07    0.77
  -5  -3  -4    9.88    0.81
   5   3   4    9.38    0.82
   5   3   4    9.16    0.70
  -5  -4  -4   10.26    0.90
  -5  -4  -4    9.35    0.80
   5   4   4   10.62    0.91
   5   4   4   10.24    0.75
  -5  -5  -4    0.91    0.51
  -5  -5  -4    1.53    0.61
   5   5   4    0.08    0.41
   5   5   4    0.83    0.56
  -5  -6  -4    7.26    0.87
  -5  -6  -4    6.93    0.78
   5   6   4    7.75    0.88
  -4  11  -4   17.09    1.05
   4 -11   4   18.27    0.97
  -4  10  -4   15.77    0.95
   4 -10   4   16.11    0.92
   4  -9   4   11.75    0.91
   4  -9   4    9.98    0.79
   4  -8   4   20.70    1.05
   4  -8   4   21.56    0.95
   4  -7   4   44.86    1.24
   4  -7   4   44.24    1.33
   4  -6   4   61.38    1.54
   4  -6   4   63.67    1.18
   4  -6   4   63.51    1.46
   4  -5   4   34.28    1.02
   4  -5   4   33.35    0.99
   4  -5   4   33.10    0.96
   4  -5   4   32.82    0.77
   4  -4   4    0.42    0.24
   4  -4   4    0.42    0.21
   4  -4   4    0.67    0.30
   4  -4   4   -0.08    0.23
   4  -3   4   26.30    0.71
   4  -3   4   26.02    0.74
   4  -3   4   24.61    0.76
   4  -3   4   25.71    0.74
   4  -2   4   17.69    0.64
   4  -2   4   17.55    0.56
   4  -2   4   18.34    0.63
   4  -1   4    7.73    0.54
   4  -1   4    7.92    0.46
   4  -1   4    7.94    0.35
  -4   0  -4    0.08    0.30
   4   0   4    0.23    0.25
   4   0   4    0.28    0.25
  -4  -1  -4  149.77    2.90
  -4  -1  -4  149.53    2.73
   4   1   4  154.42    2.84
   4   1   4  150.54    2.87
  -4  -2  -4   27.77    0.91
  -4  -2  -4   27.74    1.00
   4   2   4   28.40    0.89
   4   2   4   30.16    1.06
  -4  -3  -4   16.76    0.78
  -4  -3  -4   16.32    0.85
   4   3   4   15.01    0.83
   4   3   4   16.92    0.77
  -4  -4  -4   22.17    1.10
  -4  -4  -4   23.79    1.01
   4   4   4   21.93    0.91
   4   4   4   24.01    1.06
  -4  -5  -4   22.37    1.00
  -4  -5  -4   23.61    1.15
   4   5   4   21.85    0.91
   4   5   4   19.58    1.09
  -4  -6  -4   24.37    1.11
  -4  -6  -4   25.37    1.16
   4   6   4   25.72    1.02
   4   6   4   24.71    1.22
  -4  -7  -4    7.40    0.79
  -4  -7  -4    7.89    0.89
   4   7   4    7.22    0.88
  -3  11  -4   -0.69    0.55
   3 -11   4    1.26    0.56
  -3  10  -4   12.62    0.98
   3 -10   4   12.17    0.87
  -3   9  -4    9.03    0.77
   3  -9   4    8.40    0.76
   3  -8   4    8.32    0.76
   3  -8   4    8.82    0.74
   3  -7   4   16.99    0.90
   3  -7   4   18.55    0.84
   3  -6   4   28.89    0.93
   3  -6   4   28.88    0.99
   3  -5   4   24.88    0.80
   3  -5   4   26.06    0.83
   3  -5   4   27.10    0.56
   3  -4   4    7.85    0.48
   3  -4   4    7.28    0.46
   3  -4   4    8.44    0.53
   3  -4   4    8.09    0.34
   3  -3   4   22.10    0.68
   3  -3   4   23.08    0.68
   3  -3   4   23.53    0.69
   3  -3   4   22.66    0.59
   3  -2   4    0.51    0.23
   3  -2   4    0.62    0.21
   3  -2   4    0.75    0.23
   3  -2   4    0.86    0.25
   3  -1   4  277.07    4.55
   3  -1   4  267.14    4.37
   3  -1   4  269.67    4.44
  -3   0  -4   22.42    0.73
   3   0   4   22.93    0.67
   3   0   4   23.09    0.76
  -3  -1  -4   27.68    0.88
   3   1   4   26.32    0.76
   3   1   4   26.24    0.83
  -3  -2  -4   63.16    1.54
  -3  -2  -4   64.61    1.38
   3   2   4   63.72    1.52
   3   2   4   66.04    1.42
  -3  -3  -4   27.93    1.00
  -3  -3  -4   30.10    0.92
   3   3   4   29.87    0.90
   3   3   4   29.21    1.00
  -3  -4  -4   44.49    1.20
  -3  -4  -4   41.92    1.36
   3   4   4   43.38    1.16
   3   4   4   42.90    1.30
  -3  -5  -4   21.55    1.09
  -3  -5  -4   20.36    0.90
   3   5   4   20.04    1.00
   3   5   4   20.34    0.83
  -3  -6  -4    3.30    0.67
  -3  -6  -4    3.49    0.59
   3   6   4    2.81    0.62
   3   6   4    2.73    0.46
  -3  -7  -4    3.62    0.67
  -3  -7  -4    4.39    0.65
   3   7   4    4.00    0.70
  -3  -8  -4   -0.29    0.61
   3   8   4    0.39    0.59
  -2  10  -4   -0.34    0.50
   2 -10   4    0.60    0.52
  -2   9  -4    2.58    0.57
   2  -9   4    2.23    0.55
  -2   8  -4   51.45    1.46
   2  -8   4   50.15    1.47
  -2   7  -4    5.24    0.58
   2  -7   4    5.35    0.56
   2  -6   4   25.82    0.87
   2  -5   4   63.33    1.45
   2  -5   4   62.79    1.40
   2  -4   4   18.04    0.61
   2  -4   4   17.80    0.63
   2  -3   4  273.94    4.29
   2  -3   4  258.30    4.30
   2  -3   4  259.86    4.41
   2  -3   4  268.36    4.29
   2  -2   4  171.81    2.91
   2  -2   4  168.81    2.84
   2  -2   4  174.18    2.87
   2  -2   4  174.75    2.85
   2  -1   4   23.83    0.62
   2  -1   4   22.86    0.56
   2  -1   4   23.19    0.58
  -2   0  -4  174.43    2.96
   2   0   4  171.39    2.90
   2   0   4  168.79    2.93
  -2  -1  -4    0.22    0.26
   2   1   4    0.37    0.21
   2   1   4    0.63    0.24
  -2  -2  -4   18.13    0.73
  -2  -2  -4   17.71    0.57
   2   2   4   17.73    0.60
   2   2   4   17.87    0.67
  -2  -3  -4   26.07    0.78
  -2  -3  -4   26.20    0.90
   2   3   4   25.49    0.88
   2   3   4   27.32    0.78
  -2  -4  -4   62.30    1.57
  -2  -4  -4   65.02    1.44
   2   4   4   65.24    1.44
   2   4   4   65.24    1.58
  -2  -5  -4    3.35    0.48
  -2  -5  -4    2.35    0.50
   2   5   4    2.50    0.39
   2   5   4    2.58    0.54
  -2  -6  -4    9.71    0.76
  -2  -6  -4    9.74    0.81
   2   6   4    9.44    0.81
   2   6   4    8.03    0.63
  -2  -7  -4   12.53    0.84
  -2  -7  -4   13.56    0.99
   2   7   4   12.70    0.97
  -2  -8  -4    0.09    0.46
  -2  -8  -4   -0.81    0.56
   2   8   4   -0.10    0.54
  -1  10  -4   33.92    1.32
   1 -10   4   32.04    1.28
  -1   9  -4    2.40    0.58
   1  -9   4    3.10    0.57
  -1   8  -4    7.38    0.73
   1  -8   4    7.82    0.75
  -1   7  -4   31.95    1.12
   1  -7   4   31.89    1.02
   1  -7   4   31.11    1.12
  -1   6  -4    3.83    0.46
   1  -6   4    3.43    0.48
   1  -5   4  149.84    2.76
   1  -4   4   24.65    0.74
   1  -3   4    0.61    0.25
   1  -2   4   23.45    0.57
   1  -2   4   22.54    0.49
   1  -2   4   22.71    0.59
   1  -1   4   13.03    0.37
   1  -1   4   13.39    0.38
   1  -1   4   13.23    0.38
  -1   0  -4   13.19    0.42
   1   0   4   13.30    0.33
   1   0   4   13.19    0.42
   1   0   4   13.20    0.43
  -1  -1  -4   22.04    0.66
   1   1   4   23.60    0.63
   1   1   4   23.16    0.65
  -1  -2  -4  264.36    4.51
  -1  -2  -4  270.78    4.26
   1   2   4  275.08    4.43
   1   2   4  265.69    4.49
  -1  -3  -4    7.91    0.51
  -1  -3  -4    7.94    0.42
  -1  -3  -4    7.83    0.36
   1   3   4    7.36    0.49
   1   3   4    7.53    0.41
  -1  -4  -4   33.90    1.02
  -1  -4  -4   32.62    0.88
  -1  -4  -4   33.32    0.79
   1   4   4   32.78    1.02
   1   4   4   35.01    0.90
  -1  -5  -4   47.89    1.33
  -1  -5  -4   49.14    1.12
  -1  -5  -4   48.95    1.20
   1   5   4   48.14    1.17
   1   5   4   47.76    1.35
  -1  -6  -4    1.38    0.51
  -1  -6  -4    1.09    0.43
   1   6   4    1.37    0.36
   1   6   4    1.31    0.45
  -1  -7  -4   66.78    1.82
  -1  -7  -4   72.32    1.70
   1   7   4   64.93    1.82
  -1  -8  -4   11.16    0.79
  -1  -8  -4   10.73    0.93
   1   8   4   12.41    1.00
  -1  -9  -4   -0.19    0.61
   1   9   4    0.17    0.59
   0  10  -4    0.82    0.60
   0 -10   4    0.77    0.57
   0   9  -4    1.50    0.56
   0   9  -4    1.96    0.53
   0  -9   4    1.11    0.50
   0   8  -4    0.32    0.46
   0  -8   4    0.43    0.45
   0  -8   4    0.34    0.48
   0   7  -4   12.31    0.84
   0  -7   4   10.51    0.70
   0  -7   4    9.66    0.71
   0   6  -4   22.75    0.91
   0  -6   4   21.41    0.78
   0  -6   4   21.22    0.90
   0   5  -4   74.58    1.58
   0   5  -4   73.45    1.28
   0  -5   4   71.48    1.48
   0  -5   4   73.16    1.64
   0   4  -4    0.13    0.14
   0   4  -4    0.17    0.23
   0  -4   4    0.37    0.22
   0  -4   4    0.92    0.31
   0   3  -4   24.14    0.52
   0   3  -4   21.97    0.62
   0  -3   4   23.69    0.58
   0  -3   4   22.29    0.70
   0   2  -4  171.41    2.88
   0   2  -4  170.54    2.80
   0  -2   4  170.53    2.85
   0   1  -4   12.66    0.43
   0   1  -4   13.31    0.38
   0  -1   4   13.53    0.41
   0   0  -4  692.93   11.07
   0   0   4  683.85   11.11
   0   0   4  711.27   10.81
   0  -1  -4   13.40    0.45
   0   1   4   13.89    0.41
   0   1   4   13.57    0.44
   0  -2  -4  170.35    2.68
   0  -2  -4  174.10    2.82
   0   2   4  170.69    2.84
   0   2   4  166.60    2.91
   0  -3  -4   22.62    0.61
   0  -3  -4   21.90    0.57
   0  -3  -4   22.63    0.72
   0   3   4   22.66    0.69
   0   3   4   23.63    0.65
   0  -4  -4    0.19    0.29
   0  -4  -4    0.23    0.24
   0  -4  -4    0.12    0.21
   0   4   4    0.17    0.25
   0   4   4    0.21    0.22
   0  -5  -4   72.42    1.48
   0  -5  -4   71.74    1.67
   0  -5  -4   75.27    1.49
   0   5   4   71.90    1.49
   0   5   4   71.43    1.66
   0  -6  -4   22.43    0.79
   0  -6  -4   20.58    0.78
   0  -6  -4   21.64    0.91
   0   6   4   20.94    0.91
   0   6   4   21.15    0.74
   0  -7  -4   11.19    0.71
   0  -7  -4   11.67    0.92
   0  -7  -4   10.38    0.75
   0   7   4   10.35    0.84
   0  -8  -4   -0.21    0.54
   0  -8  -4    0.90    0.42
   0   8   4    0.06    0.45
   0  -9  -4    1.39    0.60
   0   9   4    1.08    0.54
   0  10   4    0.83    0.61
   1   9  -4   -0.76    0.49
  -1  -9   4    0.34    0.55
   1   8  -4   10.28    0.86
  -1  -8   4   11.33    0.85
   1   7  -4   69.26    1.69
   1   7  -4   68.96    1.80
  -1  -7   4   68.49    1.83
  -1  -7   4   69.08    1.66
   1   6  -4    0.78    0.42
   1   6  -4    0.87    0.40
  -1  -6   4    1.35    0.51
  -1  -6   4    1.15    0.40
   1   5  -4   48.74    1.03
   1   5  -4   49.62    1.27
   1   5  -4   50.36    1.24
  -1  -5   4   49.01    1.33
  -1  -5   4   48.15    1.17
   1   4  -4   34.33    0.91
   1   4  -4   34.32    0.96
   1   4  -4   33.41    0.78
  -1  -4   4   33.52    0.97
  -1  -4   4   32.88    0.83
   1   3  -4    8.28    0.45
   1   3  -4    9.40    0.46
   1   3  -4    8.06    0.41
  -1  -3   4    7.70    0.52
  -1  -3   4    7.87    0.38
   1   2  -4  274.79    4.42
   1   2  -4  268.45    4.25
   1   2  -4  265.17    4.42
  -1  -2   4  262.85    4.37
  -1  -2   4  268.26    4.26
   1   1  -4   22.93    0.62
   1   1  -4   23.25    0.65
   1   1  -4   22.73    0.50
  -1  -1   4   23.15    0.63
  -1  -1   4   22.78    0.43
   1   0  -4   12.38    0.41
  -1   0   4   13.11    0.37
   1  -1  -4   13.07    0.44
   1  -1  -4   13.28    0.44
   1  -1  -4   13.48    0.38
   1  -2  -4   24.18    0.65
   1  -2  -4   22.84    0.47
   1  -2  -4   23.32    0.67
  -1   2   4   23.39    0.61
   1  -3  -4    0.24    0.23
   1  -3  -4    0.79    0.29
   1  -3  -4    0.59    0.17
   1  -3  -4    0.63    0.26
  -1   3   4    0.39    0.22
  -1   3   4    0.69    0.23
   1  -4  -4   25.65    0.80
   1  -4  -4   26.39    0.64
   1  -4  -4   26.87    0.78
   1  -4  -4   26.08    0.73
  -1   4   4   26.59    0.77
  -1   4   4   25.22    0.72
   1  -5  -4  150.46    2.61
   1  -5  -4  146.87    2.84
   1  -5  -4  156.23    2.76
   1  -5  -4  153.44    2.77
  -1   5   4  150.88    2.72
  -1   5   4  151.67    2.80
   1  -6  -4    3.85    0.40
   1  -6  -4    3.90    0.45
   1  -6  -4    3.85    0.39
   1  -6  -4    3.51    0.53
  -1   6   4    3.89    0.37
  -1   6   4    3.34    0.49
   1  -7  -4   29.87    1.11
   1  -7  -4   29.95    1.02
   1  -7  -4   31.20    0.96
  -1   7   4   30.27    1.11
  -1   7   4   31.18    0.91
   1  -8  -4    7.54    0.71
   1  -8  -4    8.04    0.62
   1  -8  -4    7.55    0.80
  -1   8   4    6.89    0.72
   1  -9  -4    3.45    0.54
   1  -9  -4    2.90    0.64
  -1   9   4    3.71    0.63
   1 -10  -4   33.22    1.37
  -1  10   4   34.77    1.47
   2   8  -4    0.31    0.50
  -2  -8   4    0.49    0.55
   2   7  -4   12.77    0.88
  -2  -7   4   11.06    0.85
   2   6  -4   10.29    0.77
   2   6  -4   10.03    0.72
  -2  -6   4    9.51    0.80
  -2  -6   4    8.97    0.67
   2   5  -4    3.93    0.47
   2   5  -4    2.63    0.46
   2   5  -4    2.63    0.37
  -2  -5   4    2.90    0.53
  -2  -5   4    3.20    0.44
   2   4  -4   63.36    1.42
   2   4  -4   65.87    1.48
   2   4  -4   66.81    1.37
  -2  -4   4   67.11    1.58
  -2  -4   4   65.16    1.38
   2   3  -4   25.42    0.78
   2   3  -4   27.67    0.81
   2   3  -4   26.23    0.75
  -2  -3   4   27.64    0.88
  -2  -3   4   27.48    0.72
   2   2  -4   18.95    0.59
   2   2  -4   17.85    0.60
   2   2  -4   16.85    0.60
  -2  -2   4   17.30    0.51
  -2  -2   4   18.55    0.67
   2   1  -4    0.29    0.26
   2   1  -4    0.36    0.25
   2   1  -4    0.45    0.18
  -2  -1   4    0.18    0.23
  -2  -1   4    0.44    0.18
   2   0  -4  170.88    2.96
   2   0  -4  170.17    2.69
   2   0  -4  172.11    2.91
  -2   0   4  168.90    2.82
   2  -1  -4   23.27    0.51
   2  -1  -4   21.43    0.66
   2  -1  -4   23.47    0.67
   2  -2  -4  174.26    2.98
   2  -2  -4  170.62    2.94
   2  -3  -4  260.32    4.15
   2  -3  -4  265.80    4.44
   2  -3  -4  262.16    4.37
   2  -3  -4  267.62    4.40
   2  -4  -4   17.73    0.51
   2  -4  -4   18.34    0.59
   2  -4  -4   17.18    0.65
   2  -4  -4   17.19    0.67
   2  -5  -4   63.79    1.43
   2  -5  -4   64.10    1.27
   2  -5  -4   64.12    1.48
   2  -5  -4   63.68    1.35
  -2   5   4   62.03    1.41
   2  -6  -4   30.15    1.03
   2  -6  -4   30.59    0.86
   2  -6  -4   27.75    0.95
   2  -6  -4   28.88    0.81
  -2   6   4   28.63    0.96
   2  -7  -4    5.05    0.60
   2  -7  -4    5.67    0.50
   2  -7  -4    6.04    0.63
  -2   7   4    5.07    0.59
   2  -8  -4   55.17    1.55
   2  -8  -4   55.77    1.63
   2  -8  -4   56.00    1.39
  -2   8   4   54.04    1.61
   2  -9  -4    2.06    0.45
   2  -9  -4    2.44    0.58
   2  -9  -4    2.12    0.63
  -2   9   4    1.17    0.51
   2 -10  -4    0.97    0.57
   2 -10  -4   -0.53    0.53
  -2  10   4    0.43    0.57
   3   8  -4    0.82    0.54
  -3  -8   4    0.05    0.57
   3   7  -4    3.65    0.63
  -3  -7   4    3.43    0.69
   3   6  -4    3.68    0.58
  -3  -6   4    3.17    0.62
   3   5  -4   20.01    0.78
   3   5  -4   19.77    0.86
   3   5  -4   20.39    0.95
  -3  -5   4   20.33    1.00
  -3  -5   4   19.21    0.84
   3   4  -4   46.40    1.21
   3   4  -4   43.91    1.15
   3   4  -4   43.22    1.22
  -3  -4   4   45.42    1.15
  -3  -4   4   43.78    1.29
   3   3  -4   31.68    0.94
   3   3  -4   30.95    0.94
   3   3  -4   30.09    0.90
  -3  -3   4   30.14    0.86
  -3  -3   4   30.17    1.00
   3   2  -4   61.31    1.37
   3   2  -4   64.97    1.41
   3   2  -4   64.12    1.36
  -3  -2   4   64.85    1.46
  -3  -2   4   63.94    1.32
   3   1  -4   26.02    0.70
   3   1  -4   25.87    0.75
   3   1  -4   27.65    0.83
  -3  -1   4   26.57    0.81
  -3  -1   4   25.99    0.69
   3   0  -4   22.66    0.78
   3   0  -4   22.50    0.58
   3   0  -4   22.39    0.70
  -3   0   4   21.45    0.70
   3  -1  -4  264.36    4.20
   3  -1  -4  264.62    4.41
   3  -1  -4  267.49    4.53
   3  -2  -4    0.41    0.27
   3  -2  -4    0.72    0.29
   3  -2  -4    0.75    0.19
   3  -3  -4   22.34    0.68
   3  -3  -4   23.17    0.76
   3  -4  -4    7.80    0.48
   3  -4  -4    7.39    0.38
   3  -4  -4    7.81    0.61
   3  -5  -4   27.16    0.73
   3  -5  -4   26.19    0.91
   3  -5  -4   27.15    0.87
   3  -5  -4   26.41    0.76
   3  -6  -4   28.29    0.99
   3  -6  -4   30.48    0.84
   3  -6  -4   30.45    0.99
   3  -6  -4   29.36    0.80
   3  -7  -4   16.86    0.66
   3  -7  -4   16.34    0.89
   3  -7  -4   17.42    0.90
   3  -7  -4   17.22    0.70
  -3   7   4   17.86    0.91
   3  -8  -4    9.00    0.63
   3  -8  -4   10.00    0.82
   3  -8  -4    7.80    0.76
  -3   8   4    8.45    0.73
   3  -9  -4    9.01    0.63
   3  -9  -4    8.43    0.80
   3  -9  -4    8.64    0.78
  -3   9   4    8.66    0.80
   3 -10  -4   14.77    1.03
   3 -10  -4   13.04    0.93
  -3  10   4   13.08    0.92
   3 -11  -4    0.97    0.61
  -3  11   4    1.22    0.59
   4   7  -4    6.83    0.79
  -4  -7   4    6.04    0.81
   4   6  -4   29.06    1.17
  -4  -6   4   23.81    1.17
   4   5  -4   22.89    1.02
   4   5  -4   22.94    0.90
  -4  -5   4   21.84    1.07
   4   4  -4   23.68    1.01
   4   4  -4   21.00    0.89
  -4  -4   4   22.25    0.99
  -4  -4   4   21.84    0.90
   4   3  -4   16.88    0.79
   4   3  -4   16.57    0.80
   4   3  -4   16.22    0.76
  -4  -3   4   16.31    0.86
  -4  -3   4   17.67    0.75
   4   2  -4   30.00    0.92
   4   2  -4   28.47    0.97
   4   2  -4   29.35    0.91
  -4  -2   4   27.73    0.98
  -4  -2   4   29.65    0.89
   4   1  -4  147.78    2.62
   4   1  -4  147.46    2.80
   4   1  -4  152.63    2.69
  -4  -1   4  147.72    2.67
  -4  -1   4  147.10    2.75
   4   0  -4    0.22    0.32
   4   0  -4    0.32    0.20
   4   0  -4    0.54    0.29
  -4   0   4    0.22    0.29
   4  -1  -4    7.94    0.51
   4  -1  -4    6.85    0.55
   4  -1  -4    7.64    0.42
   4  -2  -4   17.16    0.55
   4  -2  -4   16.33    0.68
   4  -2  -4   17.42    0.67
   4  -3  -4   25.44    0.84
   4  -3  -4   25.19    0.79
   4  -3  -4   25.22    0.72
   4  -4  -4    0.53    0.36
   4  -4  -4   -0.10    0.31
   4  -5  -4   32.90    1.07
   4  -5  -4   33.52    0.85
   4  -5  -4   33.33    0.93
   4  -6  -4   63.72    1.42
   4  -6  -4   65.07    1.38
   4  -6  -4   63.99    1.59
   4  -7  -4   45.56    1.14
   4  -7  -4   42.85    1.11
   4  -7  -4   44.76    1.36
   4  -8  -4   22.68    0.83
   4  -8  -4   20.97    1.08
   4  -9  -4   10.15    0.86
   4  -9  -4    8.79    0.63
  -4   9   4   11.13    0.87
   4 -10  -4   14.47    1.06
   4 -10  -4   17.08    0.84
  -4  10   4   12.86    0.90
   4 -11  -4   21.56    1.15
  -4  11   4   20.31    1.17
   5   6  -4    5.64    0.72
  -5  -6   4    5.17    0.75
   5   5  -4    0.87    0.49
  -5  -5   4    0.11    0.49
   5   4  -4    8.85    0.71
   5   4  -4    9.24    0.75
  -5  -4   4   11.12    0.88
   5   3  -4    9.11    0.71
   5   3  -4    9.52    0.73
  -5  -3   4    8.39    0.66
  -5  -3   4    8.53    0.78
   5   2  -4    6.08    0.64
   5   2  -4    5.78    0.54
   5   2  -4    5.51    0.54
  -5  -2   4    5.13    0.54
  -5  -2   4    5.60    0.60
   5   1  -4    3.72    0.40
   5   1  -4    3.91    0.51
   5   1  -4    3.60    0.43
  -5  -1   4    2.97    0.49
  -5  -1   4    2.87    0.41
   5   0  -4   72.06    1.68
   5   0  -4   71.84    1.53
   5   0  -4   73.93    1.52
  -5   0   4   72.60    1.55
  -5   0   4   71.51    1.61
   5  -1  -4   32.30    0.93
   5  -1  -4   33.15    1.09
   5  -1  -4   33.99    0.90
   5  -2  -4   26.25    0.92
   5  -2  -4   26.53    0.78
   5  -2  -4   26.21    0.85
   5  -3  -4   60.21    1.31
   5  -3  -4   61.23    1.46
   5  -3  -4   62.00    1.43
   5  -4  -4  154.15    2.91
   5  -4  -4  155.66    2.93
   5  -4  -4  153.11    2.77
   5  -5  -4   73.06    1.71
   5  -5  -4   72.29    1.61
   5  -6  -4   49.00    1.17
   5  -6  -4   46.20    1.25
   5  -6  -4   46.90    1.38
   5  -7  -4    3.25    0.63
   5  -7  -4    2.79    0.47
   5  -7  -4    2.52    0.41
   5  -8  -4   21.25    1.10
   5  -8  -4   21.83    0.89
   5  -9  -4   23.70    1.15
   5  -9  -4   21.93    0.88
   5 -10  -4    0.79    0.59
   5 -10  -4    1.12    0.45
  -5  10   4    1.24    0.54
   5 -11  -4   -0.44    0.57
  -5  11   4    0.65    0.61
  -6  -5   4   -0.44    0.50
   6   4  -4   15.22    0.89
   6   4  -4   15.31    0.91
  -6  -4   4   16.37    1.00
   6   3  -4    9.78    0.78
   6   3  -4    9.13    0.77
  -6  -3   4    9.18    0.80
   6   2  -4   50.71    1.41
   6   2  -4   54.18    1.51
  -6  -2   4   49.97    1.49
  -6  -2   4   54.60    1.47
   6   1  -4   32.30    1.02
   6   1  -4   29.46    0.98
   6   1  -4   29.62    1.13
  -6  -1   4   33.40    1.18
  -6  -1   4   32.30    1.08
   6   0  -4   20.56    0.88
   6   0  -4   20.39    0.78
   6   0  -4   21.20    1.02
  -6   0   4   20.09    0.81
  -6   0   4   20.59    0.88
   6  -1  -4   50.68    1.45
   6  -1  -4   47.37    1.19
   6  -1  -4   48.64    1.25
  -6   1   4   48.41    1.30
   6  -2  -4   63.59    1.41
   6  -2  -4   65.53    1.65
   6  -2  -4   62.05    1.47
   6  -3  -4   30.60    1.01
   6  -3  -4   30.46    1.06
   6  -3  -4   29.19    0.89
   6  -4  -4   28.39    1.04
   6  -4  -4   28.52    1.02
   6  -4  -4   29.55    0.92
   6  -5  -4    3.72    0.46
   6  -5  -4    3.51    0.50
   6  -5  -4    3.76    0.58
   6  -6  -4   20.60    0.91
   6  -6  -4   21.91    1.05
   6  -7  -4    0.76    0.47
   6  -7  -4    0.83    0.60
   6  -7  -4    1.16    0.40
   6  -8  -4    8.95    0.68
   6  -8  -4    8.09    0.84
   6  -9  -4    3.65    0.53
   6  -9  -4    3.03    0.69
   6 -10  -4   27.75    1.25
   6 -10  -4   26.30    1.01
   6 -11  -4    6.63    0.85
  -6  11   4    6.83    0.83
   7   4  -4   20.29    1.04
  -7  -4   4   17.43    1.10
   7   3  -4   13.24    0.85
   7   3  -4   13.31    0.93
  -7  -3   4   10.92    0.94
   7   2  -4    2.04    0.50
   7   2  -4    1.14    0.56
  -7  -2   4    2.82    0.62
   7   1  -4    8.24    0.67
   7   1  -4    6.75    0.78
  -7  -1   4    7.85    0.75
  -7  -1   4    9.13    0.74
   7   0  -4   11.37    0.73
   7   0  -4   11.68    0.88
   7   0  -4   10.68    0.70
  -7   0   4   10.81    0.73
  -7   0   4   10.52    0.83
   7  -1  -4    1.29    0.55
   7  -1  -4    0.74    0.35
   7  -1  -4    0.30    0.47
  -7   1   4    1.71    0.54
   7  -2  -4    2.94    0.52
   7  -2  -4    3.13    0.43
   7  -2  -4    3.34    0.60
   7  -3  -4   43.72    1.41
   7  -3  -4   42.49    1.31
   7  -3  -4   42.38    1.17
   7  -4  -4   15.07    0.76
   7  -4  -4   16.35    0.89
   7  -4  -4   18.01    0.94
   7  -5  -4    5.11    0.52
   7  -5  -4    6.62    0.73
   7  -5  -4    5.25    0.68
   7  -6  -4   28.80    1.13
   7  -6  -4   29.15    1.16
   7  -7  -4   10.43    0.91
   7  -7  -4   10.96    0.85
   7  -8  -4   65.70    1.68
   7  -8  -4   67.69    1.85
   7  -8  -4   68.36    1.65
   7  -9  -4   10.94    0.76
   7  -9  -4   10.29    0.95
   7 -10  -4    3.91    0.76
   7 -10  -4    3.15    0.55
   7 -11  -4    6.52    0.71
   7 -11  -4    5.66    0.85
   8   3  -4   -0.89    0.49
  -8  -3   4   -0.84    0.55
   8   2  -4   -0.71    0.39
   8   2  -4   -0.15    0.57
  -8  -2   4    0.59    0.59
   8   1  -4    2.24    0.60
   8   1  -4    2.63    0.49
  -8  -1   4    2.69    0.60
   8   0  -4    0.48    0.41
   8   0  -4    0.65    0.59
  -8   0   4    0.74    0.46
  -8   0   4    0.14    0.48
   8  -1  -4   67.60    1.67
   8  -1  -4   69.40    1.92
  -8   1   4   63.52    1.74
  -8   1   4   64.89    1.72
   8  -2  -4   10.50    0.78
   8  -2  -4    9.71    0.87
   8  -2  -4    9.04    0.69
   8  -3  -4   20.81    0.91
   8  -3  -4   19.53    1.06
   8  -3  -4   23.20    1.15
   8  -4  -4   21.28    0.93
   8  -4  -4   21.73    1.08
   8  -4  -4   22.08    1.16
   8  -5  -4    8.48    0.83
   8  -5  -4    9.33    0.72
   8  -5  -4    9.65    0.86
   8  -6  -4   52.47    1.62
   8  -6  -4   52.97    1.49
   8  -6  -4   52.52    1.59
   8  -7  -4    7.18    0.86
   8  -7  -4    7.44    0.76
   8  -8  -4    0.29    0.50
   8  -8  -4    0.00    0.61
   8  -9  -4   10.35    0.94
   8 -10  -4   -0.20    0.44
   8 -10  -4    0.20    0.62
   8 -11  -4   -0.69    0.60
   8 -11  -4    0.65    0.49
   9   1  -4   32.92    1.41
  -9  -1   4   34.71    1.41
   9   0  -4    0.89    0.48
   9   0  -4    0.00    0.63
  -9   0   4    0.23    0.58
   9  -1  -4    9.83    0.90
   9  -1  -4   10.96    0.83
  -9   1   4   11.55    0.83
  -9   1   4   10.75    0.91
   9  -2  -4    8.85    0.87
   9  -2  -4   13.02    0.79
  -9   2   4   11.13    0.91
   9  -3  -4    3.56    0.65
   9  -3  -4    2.38    0.65
   9  -3  -4    2.65    0.50
   9  -4  -4   22.10    1.14
   9  -4  -4   21.97    0.98
   9  -4  -4   23.91    1.19
   9  -5  -4    9.33    0.74
   9  -5  -4    9.21    0.85
   9  -5  -4   10.27    0.86
   9  -6  -4    8.22    0.80
   9  -6  -4    8.71    0.87
   9  -6  -4    8.99    0.76
   9  -7  -4    1.83    0.62
   9  -7  -4    1.39    0.65
   9  -8  -4    2.19    0.61
   9  -8  -4    2.54    0.70
   9  -9  -4    1.52    0.69
   9 -10  -4    0.32    0.63
  10   0  -4    0.45    0.60
  10  -1  -4   -1.02    0.54
  10  -1  -4    0.32    0.45
 -10   1   4    0.58    0.61
  10  -2  -4    0.30    0.43
  10  -2  -4   -0.90    0.60
 -10   2   4   -0.06    0.55
 -10   2   4   -0.25    0.47
  10  -3  -4    3.17    0.58
  10  -3  -4    1.95    0.66
  10  -4  -4   23.26    1.18
  10  -4  -4   24.98    1.07
  10  -4  -4   26.02    1.28
  10  -5  -4    1.27    0.64
  10  -5  -4    0.95    0.59
  10  -5  -4    0.55    0.45
  10  -6  -4   16.23    0.93
  10  -6  -4   14.11    1.05
  10  -6  -4   16.08    1.05
  10  -7  -4   11.38    0.91
  10  -7  -4   12.26    1.01
  10  -7  -4   11.35    0.87
  10  -8  -4    0.10    0.64
  10  -8  -4   -0.12    0.59
  10  -9  -4   31.14    1.41
  10 -10  -4    2.02    0.74
  11  -3  -4    0.19    0.63
  11  -3  -4    0.34    0.50
 -11   3   4   -0.26    0.60
 -11   3   4    0.35    0.55
  11  -4  -4    5.21    0.82
  11  -4  -4    5.70    0.72
  11  -5  -4    5.80    0.84
  11  -5  -4    6.63    0.76
  11  -5  -4    6.31    0.84
  11  -6  -4   -0.25    0.61
  11  -6  -4    0.14    0.49
  11  -6  -4   -0.89    0.62
  11  -7  -4   18.37    1.11
  11  -7  -4   20.99    1.22
  11  -7  -4   17.81    1.06
  11  -8  -4   -0.36    0.62
  11  -8  -4    0.57    0.72
  11  -8   5    2.19    0.61
  11  -8   5    0.33    0.59
  11  -7   5   -0.86    0.50
  11  -7   5   -0.42    0.51
  11  -6   5    5.28    0.72
  11  -6   5    4.08    0.75
  11  -5   5   10.71    1.00
  11  -5   5   12.41    0.95
 -11   4  -5   16.52    1.09
  11  -4   5   17.28    1.10
  11  -4   5   16.05    0.97
 -11   3  -5    5.73    0.80
  11  -3   5    3.62    0.68
  11  -3   5    5.02    0.79
  10  -9   5    0.58    0.58
  10  -9   5    1.27    0.68
  10  -8   5    9.85    0.90
  10  -8   5    9.23    0.90
  10  -7   5   24.47    1.07
  10  -7   5   23.00    1.13
  10  -7   5   26.07    1.20
  10  -6   5   27.39    1.13
  10  -6   5   22.06    1.06
  10  -6   5   24.70    1.20
  10  -5   5    4.12    0.64
  10  -5   5    6.80    0.77
  10  -4   5    0.66    0.51
  10  -4   5   -0.61    0.48
 -10   3  -5    3.46    0.65
  10  -3   5    3.10    0.65
  10  -3   5    2.63    0.59
 -10   2  -5    1.44    0.61
  10  -2   5    2.36    0.58
  10  -2   5    0.17    0.49
 -10   1  -5    2.47    0.69
 -10   1  -5    3.21    0.71
  10  -1   5    2.43    0.64
  10  -1   5    2.99    0.67
   9 -10   5    2.90    0.66
   9 -10   5    2.80    0.60
   9  -9   5   16.11    0.95
   9  -9   5   15.41    1.05
   9  -8   5   13.14    0.94
   9  -8   5   11.76    0.92
   9  -8   5   12.09    0.86
   9  -7   5    0.57    0.44
   9  -7   5   -0.82    0.38
   9  -7   5    0.07    0.49
   9  -6   5    1.21    0.49
   9  -6   5    0.85    0.51
   9  -6   5    2.43    0.56
   9  -5   5    4.17    0.61
   9  -5   5    4.49    0.63
   9  -5   5    5.63    0.63
   9  -4   5    0.64    0.47
   9  -4   5    0.32    0.44
  -9   3  -5    0.82    0.53
   9  -3   5    1.06    0.47
   9  -3   5    0.71    0.46
  -9   2  -5   38.40    1.40
   9  -2   5   35.89    1.27
   9  -2   5   36.26    1.34
  -9   1  -5   13.50    0.91
   9  -1   5   11.27    0.89
   9  -1   5   11.79    0.92
  -9   0  -5   13.66    0.96
  -9   0  -5   15.87    1.00
   9   0   5   13.52    0.91
   9   0   5   14.09    1.01
  -9  -1  -5    0.64    0.62
  -9  -1  -5    1.05    0.63
   9   1   5    0.54    0.52
   9   1   5    0.12    0.51
   8 -11   5    5.44    0.84
   8 -11   5    6.51    0.79
   8 -10   5    2.73    0.61
   8 -10   5    1.79    0.64
   8  -9   5   10.83    0.76
   8  -9   5   11.36    0.92
   8  -8   5    3.13    0.62
   8  -8   5    3.19    0.64
   8  -8   5    3.46    0.59
   8  -7   5   25.31    1.11
   8  -7   5   24.87    1.12
   8  -7   5   23.08    0.98
   8  -7   5   24.10    0.92
   8  -6   5    1.60    0.51
   8  -6   5    0.92    0.53
   8  -6   5    0.77    0.45
   8  -5   5    1.86    0.49
   8  -5   5    2.85    0.50
   8  -5   5    2.43    0.51
   8  -4   5   80.53    1.96
   8  -4   5   78.39    1.76
   8  -4   5   77.34    1.86
   8  -3   5   16.79    0.95
   8  -3   5   16.73    0.85
  -8   2  -5   33.36    1.24
   8  -2   5   34.94    1.19
   8  -2   5   35.36    1.26
  -8   1  -5    0.18    0.51
   8  -1   5   -0.34    0.45
   8  -1   5   -0.42    0.48
  -8   0  -5    3.76    0.67
  -8   0  -5    3.83    0.66
   8   0   5    3.14    0.57
   8   0   5    3.52    0.64
  -8  -1  -5   12.02    0.94
  -8  -1  -5   12.76    0.91
   8   1   5   12.13    0.92
   8   1   5   11.59    0.82
  -8  -2  -5    9.74    0.96
  -8  -2  -5    9.72    0.90
   8   2   5   11.10    0.90
   8   2   5    9.24    0.94
  -8  -3  -5    1.01    0.62
  -8  -3  -5    0.47    0.58
   8   3   5    1.79    0.61
   8   3   5    1.50    0.58
   7 -11   5   17.63    1.02
   7 -11   5   18.45    1.12
   7 -10   5    3.15    0.61
   7 -10   5    4.52    0.73
   7  -9   5   38.98    1.33
   7  -9   5   37.78    1.41
   7  -8   5   -0.08    0.45
   7  -8   5    0.06    0.48
   7  -7   5    5.02    0.63
   7  -7   5    6.33    0.63
   7  -7   5    5.66    0.67
   7  -6   5   64.88    1.66
   7  -6   5   63.11    1.70
   7  -6   5   66.65    1.66
   7  -6   5   66.48    1.52
   7  -5   5   25.55    0.93
   7  -5   5   24.85    1.05
   7  -5   5   27.41    1.02
   7  -4   5    5.31    0.52
   7  -4   5    5.11    0.56
   7  -4   5    4.93    0.54
   7  -3   5    0.29    0.39
   7  -3   5    0.21    0.34
   7  -3   5   -0.23    0.39
  -7   2  -5    3.27    0.52
   7  -2   5    4.87    0.60
   7  -2   5    4.02    0.56
  -7   1  -5    9.98    0.80
   7  -1   5    8.49    0.68
   7  -1   5    8.91    0.73
  -7   0  -5    6.55    0.73
   7   0   5    5.18    0.65
   7   0   5    5.25    0.64
  -7  -1  -5   24.22    1.01
  -7  -1  -5   21.83    1.08
   7   1   5   24.73    1.14
   7   1   5   23.73    1.01
  -7  -2  -5   -0.04    0.48
  -7  -2  -5   -0.14    0.46
   7   2   5   -0.83    0.44
   7   2   5   -0.28    0.45
  -7  -3  -5   25.51    1.25
  -7  -3  -5   24.35    1.12
   7   3   5   25.56    1.12
   7   3   5   21.21    1.18
  -7  -4  -5    1.11    0.64
  -7  -4  -5   -0.31    0.54
   7   4   5   -0.02    0.51
   7   4   5    0.34    0.53
   6 -11   5   14.71    0.95
   6 -11   5   12.75    1.07
   6 -10   5    0.69    0.50
   6 -10   5    0.05    0.52
   6  -9   5    0.18    0.42
   6  -9   5    1.01    0.58
   6  -8   5   36.15    1.28
   6  -8   5   38.78    1.27
   6  -7   5   10.21    0.69
   6  -7   5    9.87    0.76
   6  -6   5   -0.24    0.38
   6  -6   5    0.38    0.32
   6  -6   5    0.91    0.42
   6  -6   5    0.66    0.37
   6  -5   5    4.44    0.53
   6  -5   5    5.59    0.47
   6  -5   5    5.15    0.54
   6  -5   5    4.90    0.52
   6  -4   5   47.47    1.29
   6  -4   5   45.66    1.17
   6  -4   5   48.31    1.20
   6  -3   5    0.46    0.31
   6  -3   5    0.04    0.30
   6  -3   5    0.19    0.33
   6  -2   5   -0.06    0.31
   6  -2   5   -0.04    0.34
   6  -2   5   -0.10    0.27
  -6   1  -5  100.39    2.22
   6  -1   5  104.31    2.16
   6  -1   5  101.86    2.20
  -6   0  -5    0.64    0.40
   6   0   5    0.13    0.41
   6   0   5   -0.12    0.38
  -6  -1  -5   69.12    1.79
  -6  -1  -5   67.81    1.68
   6   1   5   66.60    1.67
   6   1   5   64.78    1.78
  -6  -2  -5    0.83    0.51
  -6  -2  -5    0.42    0.48
   6   2   5    0.31    0.48
   6   2   5    0.97    0.48
  -6  -3  -5    2.03    0.59
  -6  -3  -5    1.84    0.54
   6   3   5    0.89    0.43
   6   3   5    0.88    0.53
  -6  -4  -5   23.08    1.20
  -6  -4  -5   24.03    1.14
   6   4   5   25.21    1.03
   6   4   5   26.87    1.27
  -6  -5  -5    4.08    0.70
  -6  -5  -5    4.17    0.79
   6   5   5    4.83    0.80
   6   5   5    5.08    0.66
   5 -11   5    4.41    0.70
   5 -10   5    5.96    0.76
   5 -10   5    3.68    0.62
   5  -9   5    0.11    0.45
   5  -9   5    1.36    0.56
   5  -8   5   15.86    0.98
   5  -8   5   18.43    0.91
   5  -7   5    4.00    0.59
   5  -7   5    4.83    0.57
   5  -6   5  107.25    1.94
   5  -6   5  108.01    2.24
   5  -6   5  102.98    2.15
   5  -6   5  101.62    2.19
   5  -5   5    2.37    0.38
   5  -5   5    2.74    0.42
   5  -5   5    2.83    0.33
   5  -5   5    2.67    0.44
   5  -4   5    1.36    0.30
   5  -4   5    1.06    0.32
   5  -4   5    1.88    0.36
   5  -4   5    1.43    0.35
   5  -3   5  202.52    3.58
   5  -3   5  201.24    3.50
   5  -3   5  206.92    3.61
   5  -2   5    0.44    0.25
   5  -2   5    0.27    0.27
   5  -2   5    0.22    0.27
  -5   1  -5  118.77    2.40
   5  -1   5  119.39    2.07
   5  -1   5  120.08    2.38
   5  -1   5  120.37    2.35
  -5   0  -5    2.85    0.47
   5   0   5    2.82    0.43
   5   0   5    3.05    0.41
  -5  -1  -5    5.39    0.58
  -5  -1  -5    5.59    0.55
   5   1   5    4.73    0.55
   5   1   5    5.03    0.52
  -5  -2  -5   25.12    1.06
  -5  -2  -5   27.80    0.99
   5   2   5   27.19    0.99
   5   2   5   26.51    1.11
  -5  -3  -5    2.35    0.56
  -5  -3  -5    2.93    0.63
   5   3   5    1.82    0.57
   5   3   5    2.94    0.50
  -5  -4  -5    4.90    0.69
  -5  -4  -5    5.51    0.69
   5   4   5    5.43    0.68
   5   4   5    4.92    0.59
  -5  -5  -5    4.05    0.73
  -5  -5  -5    6.59    0.71
   5   5   5    5.44    0.76
   5   5   5    4.99    0.62
  -5  -6  -5   14.29    1.08
  -5  -6  -5   12.31    0.97
   5   6   5   12.78    1.08
  -4  11  -5    0.32    0.58
   4 -11   5    0.65    0.51
   4 -10   5   26.19    1.13
   4  -9   5    5.51    0.66
   4  -8   5   78.30    1.99
   4  -8   5   80.27    1.91
   4  -7   5    0.20    0.45
   4  -7   5    0.35    0.39
   4  -6   5   -0.14    0.38
   4  -6   5   -0.21    0.17
   4  -6   5    0.31    0.31
   4  -5   5  127.67    2.17
   4  -5   5  122.00    2.35
   4  -5   5  118.32    2.34
   4  -5   5  124.60    2.42
   4  -4   5    0.76    0.32
   4  -4   5    0.90    0.28
   4  -4   5    1.41    0.31
   4  -4   5    1.13    0.24
   4  -3   5   67.44    1.38
   4  -3   5   66.45    1.44
   4  -3   5   65.05    1.39
   4  -3   5   67.09    1.35
   4  -2   5   34.52    0.82
   4  -2   5   35.66    0.96
   4  -2   5   34.04    0.88
  -4   1  -5   72.42    1.55
   4  -1   5   68.61    1.47
   4  -1   5   70.67    1.29
  -4   0  -5    1.16    0.33
   4   0   5    0.94    0.32
   4   0   5    1.51    0.30
  -4  -1  -5    1.90    0.41
   4   1   5    1.43    0.35
   4   1   5    1.57    0.40
  -4  -2  -5   44.49    1.31
  -4  -2  -5   47.14    1.19
   4   2   5   44.97    1.18
   4   2   5   44.37    1.29
  -4  -3  -5    5.96    0.66
  -4  -3  -5    5.87    0.56
   4   3   5    5.74    0.64
   4   3   5    5.24    0.54
  -4  -4  -5   77.65    2.00
  -4  -4  -5   82.01    1.86
   4   4   5   80.25    1.83
   4   4   5   73.03    1.96
  -4  -5  -5    0.71    0.51
  -4  -5  -5    0.48    0.55
   4   5   5   -0.15    0.39
   4   5   5    0.36    0.50
  -4  -6  -5   -0.01    0.50
  -4  -6  -5    0.27    0.53
   4   6   5   -0.08    0.39
   4   6   5    1.17    0.55
  -4  -7  -5   18.79    1.18
   4   7   5   17.41    1.09
  -3  11  -5    0.55    0.59
   3 -11   5    0.85    0.57
  -3  10  -5   27.97    1.25
   3 -10   5   24.47    1.15
  -3   9  -5    0.92    0.52
   3  -9   5    1.03    0.50
   3  -8   5    1.99    0.48
   3  -7   5    5.41    0.62
   3  -7   5    5.30    0.58
   3  -6   5   -0.18    0.32
   3  -6   5    0.39    0.34
   3  -5   5    0.54    0.30
   3  -5   5    0.57    0.31
   3  -5   5    0.44    0.14
   3  -4   5   72.57    1.29
   3  -4   5   68.78    1.44
   3  -4   5   71.49    1.47
   3  -4   5   68.61    1.47
   3  -3   5  206.92    3.46
   3  -3   5  203.38    3.44
   3  -3   5  207.74    3.52
   3  -3   5  205.11    3.45
   3  -2   5   18.96    0.56
   3  -2   5   18.56    0.60
   3  -2   5   18.18    0.56
   3  -2   5   18.10    0.61
   3  -1   5   19.07    0.59
   3  -1   5   18.55    0.51
   3  -1   5   18.61    0.67
  -3   0  -5  204.83    3.56
   3   0   5  201.97    3.52
   3   0   5  201.64    3.48
  -3  -1  -5   65.17    1.50
   3   1   5   67.01    1.48
   3   1   5   67.39    1.41
  -3  -2  -5  209.66    3.56
  -3  -2  -5  208.63    3.82
   3   2   5  207.23    3.72
   3   2   5  212.14    3.76
  -3  -3  -5    0.07    0.30
  -3  -3  -5    0.14    0.36
   3   3   5   -0.12    0.29
   3   3   5    0.49    0.34
  -3  -4  -5    0.67    0.38
  -3  -4  -5    0.06    0.43
   3   4   5    0.56    0.43
   3   4   5   -0.50    0.32
  -3  -5  -5   19.30    0.90
  -3  -5  -5   17.75    1.06
   3   5   5   18.19    0.81
   3   5   5   17.53    0.97
  -3  -6  -5    1.58    0.51
  -3  -6  -5    0.44    0.58
   3   6   5    1.34    0.56
   3   6   5    0.69    0.40
  -3  -7  -5    3.30    0.58
  -3  -7  -5    3.70    0.74
   3   7   5    4.22    0.73
  -3  -8  -5    5.31    0.80
   3   8   5    5.41    0.84
  -2  10  -5    9.94    0.90
   2 -10   5    9.98    0.89
  -2   9  -5    0.77    0.43
   2  -9   5   -0.07    0.41
  -2   8  -5    1.62    0.51
   2  -8   5    0.46    0.48
   2  -7   5   27.17    1.03
   2  -6   5   47.30    1.27
   2  -5   5  205.32    3.60
   2  -4   5   33.52    0.62
   2  -4   5   32.78    0.89
   2  -3   5   19.38    0.62
   2  -3   5   18.80    0.46
   2  -3   5   18.93    0.59
   2  -2   5   71.74    1.31
   2  -2   5   71.46    1.35
   2  -2   5   71.28    1.35
   2  -1   5   51.80    1.08
   2  -1   5   52.62    1.04
   2  -1   5   51.54    1.01
   2   0   5   71.25    1.42
   2   0   5   71.53    1.38
  -2  -1  -5   17.38    0.66
   2   1   5   17.87    0.58
   2   1   5   19.75    0.66
  -2  -2  -5   34.00    0.82
   2   2   5   35.90    0.91
  -2  -3  -5   -0.18    0.34
  -2  -3  -5   -0.15    0.26
   2   3   5    0.02    0.25
   2   3   5   -0.23    0.27
  -2  -4  -5    0.59    0.39
  -2  -4  -5   -0.05    0.29
   2   4   5    0.75    0.36
   2   4   5    0.31    0.29
  -2  -5  -5    4.77    0.64
  -2  -5  -5    4.75    0.52
   2   5   5    3.82    0.46
   2   5   5    4.34    0.60
  -2  -6  -5   35.84    1.30
  -2  -6  -5   38.14    1.15
   2   6   5   38.87    1.12
   2   6   5   38.53    1.40
  -2  -7  -5   43.64    1.31
  -2  -7  -5   35.84    1.38
   2   7   5   37.10    1.39
  -2  -8  -5    2.34    0.69
   2   8   5    1.18    0.61
  -1  10  -5    0.64    0.55
   1 -10   5    1.12    0.58
  -1   9  -5   14.88    0.95
   1  -9   5   13.09    0.90
  -1   8  -5   23.57    1.02
   1  -8   5   23.34    1.06
  -1   7  -5   66.80    1.64
   1  -7   5   63.98    1.68
  -1   6  -5    5.68    0.51
   1  -6   5    5.50    0.56
   1  -5   5    0.59    0.34
   1  -4   5   64.44    1.40
  -1   3  -5   18.80    0.43
   1  -3   5   18.21    0.63
   1  -2   5   52.45    0.98
   1  -2   5   51.41    1.04
   1  -2   5   52.73    1.00
  -1   1  -5   43.43    0.88
   1  -1   5   43.68    0.87
   1  -1   5   43.22    0.85
   1  -1   5   44.42    0.85
  -1   0  -5   44.04    0.94
   1   0   5   43.46    0.79
   1   1   5   50.82    1.08
   1   1   5   53.74    1.11
  -1  -2  -5   18.66    0.50
  -1  -2  -5   18.91    0.71
   1   2   5   19.19    0.66
   1   2   5   18.79    0.61
  -1  -3  -5   73.26    1.30
  -1  -3  -5   71.40    1.58
  -1  -3  -5   72.07    1.36
   1   3   5   70.97    1.46
   1   3   5   69.42    1.51
  -1  -4  -5  124.91    2.13
  -1  -4  -5  122.71    2.19
  -1  -4  -5  118.91    2.43
   1   4   5  116.52    2.27
   1   4   5  122.72    2.39
  -1  -5  -5  108.93    2.34
  -1  -5  -5  109.11    2.08
  -1  -5  -5  107.67    2.01
   1   5   5  107.85    2.14
   1   5   5  109.35    2.30
  -1  -6  -5   10.39    0.67
  -1  -6  -5    9.69    0.80
   1   6   5    9.45    0.63
   1   6   5   11.14    0.77
  -1  -7  -5    0.46    0.40
  -1  -7  -5    0.59    0.57
   1   7   5    0.88    0.48
  -1  -8  -5   13.08    0.92
   1   8   5   11.15    0.87
  -1  -9  -5    4.33    0.81
   1   9   5    2.69    0.70
   0   9  -5   17.43    0.97
   0   9  -5   15.25    1.02
   0  -9   5   14.05    0.95
   0   8  -5    3.66    0.59
   0  -8   5    3.88    0.60
   0   7  -5    5.82    0.62
   0  -7   5    5.62    0.66
   0  -7   5    5.68    0.56
   0   6  -5    0.60    0.37
   0  -6   5    1.11    0.44
   0  -6   5    0.27    0.34
   0   5  -5    3.14    0.39
   0   5  -5    2.59    0.20
   0  -5   5    2.87    0.35
   0  -5   5    3.08    0.45
   0   4  -5    1.12    0.18
   0   4  -5    1.19    0.27
   0  -4   5    1.22    0.33
   0  -4   5    0.75    0.24
   0   3  -5  206.45    3.52
   0   3  -5  205.97    3.37
   0   3  -5  208.65    3.39
   0  -3   5  206.37    3.51
   0   2  -5   74.31    1.42
   0   2  -5   72.64    1.31
   0  -2   5   71.83    1.39
   0   1  -5   43.94    0.92
   0   1  -5   45.28    0.90
   0  -1   5   43.42    0.89
   0   0  -5   -0.27    0.18
   0   0  -5   -0.09    0.15
   0   0   5   -0.04    0.13
   0   0   5   -0.47    0.17
   0   0   5   -0.35    0.12
   0  -1  -5   43.82    0.88
   0  -1  -5   44.66    0.94
   0   1   5   45.07    0.90
   0   1   5   44.69    0.97
   0  -2  -5   71.42    1.17
   0  -2  -5   72.19    1.45
   0  -2  -5   72.86    1.32
   0   2   5   71.87    1.36
   0   2   5   68.86    1.40
   0  -3  -5  203.32    3.57
   0  -3  -5  209.09    3.28
   0  -3  -5  207.76    3.42
   0   3   5  207.21    3.49
   0   3   5  200.72    3.54
   0  -4  -5    1.48    0.30
   0  -4  -5    0.83    0.32
   0  -4  -5    1.34    0.23
   0   4   5    1.11    0.28
   0   4   5    1.42    0.34
   0  -5  -5    3.18    0.34
   0  -5  -5    2.66    0.36
   0  -5  -5    2.15    0.43
   0   5   5    2.20    0.42
   0   5   5    3.00    0.36
   0  -6  -5    0.53    0.38
   0  -6  -5    0.18    0.31
   0  -6  -5    0.31    0.43
   0   6   5   -0.12    0.40
   0   6   5    0.23    0.32
   0  -7  -5    7.29    0.61
   0  -7  -5    6.60    0.57
   0  -7  -5    5.67    0.73
   0   7   5    6.30    0.71
   0   7   5    5.33    0.52
   0  -8  -5    3.44    0.68
   0  -8  -5    3.78    0.53
   0   8   5    3.71    0.62
   0  -9  -5   16.89    1.03
   0   9   5   14.86    0.97
   1   9  -5    3.76    0.69
  -1  -9   5    3.02    0.67
   1   8  -5   14.46    0.88
   1   8  -5   13.56    0.91
  -1  -8   5   11.32    0.92
   1   7  -5    0.23    0.47
   1   7  -5    1.20    0.46
  -1  -7   5    0.40    0.51
   1   6  -5   10.23    0.71
   1   6  -5    8.83    0.67
  -1  -6   5    8.87    0.76
  -1  -6   5   10.28    0.65
   1   5  -5  106.04    1.91
   1   5  -5  105.35    2.11
   1   5  -5  105.05    2.12
  -1  -5   5  105.86    2.01
  -1  -5   5  107.91    2.24
   1   4  -5  125.72    2.27
   1   4  -5  124.09    2.32
   1   4  -5  123.91    2.18
  -1  -4   5  123.00    2.39
  -1  -4   5  119.92    2.17
   1   3  -5   72.73    1.39
   1   3  -5   71.70    1.46
   1   3  -5   71.91    1.36
  -1  -3   5   71.35    1.30
  -1  -3   5   69.18    1.49
   1   2  -5   18.48    0.59
   1   2  -5   18.50    0.52
   1   2  -5   18.27    0.61
  -1  -2   5   18.62    0.42
  -1  -2   5   18.82    0.61
   1   1  -5   54.23    1.13
   1   1  -5   52.17    1.08
  -1  -1   5   52.26    1.08
   1   0  -5   42.97    0.95
   1   0  -5   43.70    0.76
   1   0  -5   43.90    0.95
  -1   0   5   44.86    0.86
   1  -1  -5   42.51    0.91
   1  -1  -5   45.83    0.88
   1  -1  -5   43.71    0.98
  -1   1   5   43.96    0.80
  -1   1   5   43.93    0.78
   1  -2  -5   53.02    1.09
   1  -2  -5   51.91    0.88
   1  -2  -5   53.30    1.13
   1  -2  -5   52.65    1.10
  -1   2   5   52.48    1.01
   1  -3  -5   18.34    0.43
   1  -3  -5   18.63    0.61
   1  -3  -5   18.65    0.64
   1  -3  -5   19.70    0.68
  -1   3   5   18.32    0.62
  -1   3   5   17.17    0.57
   1  -4  -5   64.16    1.21
   1  -4  -5   64.84    1.45
   1  -4  -5   66.48    1.38
   1  -4  -5   68.16    1.42
  -1   4   5   67.00    1.38
   1  -5  -5    1.02    0.36
   1  -5  -5    1.10    0.25
   1  -5  -5    1.78    0.33
   1  -5  -5    1.76    0.39
  -1   5   5    2.24    0.38
  -1   5   5    0.96    0.29
   1  -6  -5    5.37    0.43
   1  -6  -5    5.12    0.47
   1  -6  -5    5.71    0.52
   1  -6  -5    5.25    0.58
  -1   6   5    5.22    0.53
  -1   6   5    4.87    0.44
   1  -7  -5   69.47    1.51
   1  -7  -5   67.41    1.78
   1  -7  -5   67.04    1.60
  -1   7   5   67.76    1.52
  -1   7   5   65.01    1.74
   1  -8  -5   22.75    1.08
   1  -8  -5   24.78    0.91
   1  -8  -5   26.37    1.03
  -1   8   5   24.08    1.14
   1  -9  -5   12.37    0.92
  -1   9   5   12.88    0.90
   1 -10  -5    0.88    0.62
  -1  10   5    0.64    0.56
   2   8  -5    1.28    0.53
  -2  -8   5    1.41    0.59
   2   7  -5   40.42    1.34
  -2  -7   5   37.30    1.34
   2   6  -5   39.58    1.27
   2   6  -5   39.17    1.21
  -2  -6   5   40.20    1.35
   2   5  -5    3.68    0.51
   2   5  -5    4.42    0.42
   2   5  -5    3.78    0.50
  -2  -5   5    3.90    0.58
  -2  -5   5    4.48    0.45
   2   4  -5    0.13    0.29
   2   4  -5    0.21    0.28
   2   4  -5   -0.01    0.32
  -2  -4   5   -0.16    0.26
  -2  -4   5    0.68    0.39
   2   3  -5    0.29    0.28
   2   3  -5    0.75    0.25
   2   3  -5    0.45    0.30
  -2  -3   5    0.36    0.33
  -2  -3   5    0.61    0.23
   2   2  -5   33.72    0.89
   2   2  -5   34.47    0.81
   2   2  -5   34.91    0.89
  -2  -2   5   34.92    0.94
  -2  -2   5   36.27    0.75
   2   1  -5   18.34    0.64
   2   1  -5   18.42    0.66
   2   1  -5   18.01    0.47
  -2  -1   5   18.72    0.45
  -2  -1   5   17.49    0.59
   2   0  -5   71.95    1.42
   2   0  -5   70.43    1.41
   2   0  -5   71.55    1.18
  -2   0   5   69.37    1.34
   2  -1  -5   53.03    1.13
   2  -1  -5   51.45    1.16
   2  -2  -5   71.66    1.36
   2  -2  -5   72.29    1.44
   2  -2  -5   73.44    1.47
   2  -3  -5   17.98    0.46
   2  -3  -5   18.38    0.68
   2  -3  -5   17.74    0.61
   2  -3  -5   18.38    0.60
   2  -4  -5   34.66    0.89
   2  -4  -5   34.07    0.73
   2  -4  -5   32.94    0.93
   2  -4  -5   36.42    0.96
  -2   4   5   34.22    0.90
   2  -5  -5  213.28    3.69
   2  -5  -5  210.79    3.44
   2  -5  -5  206.51    3.68
   2  -5  -5  207.56    3.73
  -2   5   5  208.69    3.64
   2  -6  -5   48.37    1.09
   2  -6  -5   49.01    1.18
   2  -6  -5   47.56    1.34
   2  -6  -5   49.53    1.29
  -2   6   5   46.73    1.25
   2  -7  -5   26.39    0.87
   2  -7  -5   28.21    0.85
   2  -7  -5   25.58    1.03
   2  -7  -5   25.98    0.99
  -2   7   5   26.66    1.02
   2  -8  -5    1.41    0.41
   2  -8  -5    1.56    0.56
   2  -8  -5    0.76    0.52
  -2   8   5    1.35    0.49
   2  -9  -5   -0.06    0.48
   2  -9  -5   -0.27    0.37
   2  -9  -5   -0.28    0.48
  -2   9   5    0.81    0.51
   2 -10  -5   10.47    0.94
  -2  10   5    8.98    0.89
   3   8  -5    4.70    0.73
  -3  -8   5    6.42    0.85
   3   7  -5    4.96    0.66
  -3  -7   5    4.88    0.74
   3   6  -5    1.31    0.47
  -3  -6   5    1.52    0.52
   3   5  -5   16.49    0.87
   3   5  -5   17.79    0.76
   3   5  -5   17.74    0.88
  -3  -5   5   16.92    0.90
   3   4  -5   -0.12    0.37
   3   4  -5    0.15    0.36
   3   4  -5    0.68    0.34
  -3  -4   5    0.00    0.43
  -3  -4   5   -0.01    0.31
   3   3  -5   -0.61    0.31
   3   3  -5   -0.09    0.27
   3   3  -5    0.39    0.36
  -3  -3   5    0.00    0.25
  -3  -3   5    0.59    0.35
   3   2  -5  210.08    3.52
   3   2  -5  209.93    3.70
   3   2  -5  207.13    3.65
  -3  -2   5  209.18    3.66
  -3  -2   5  208.96    3.52
   3   1  -5   67.19    1.47
   3   1  -5   65.62    1.28
   3   1  -5   65.89    1.41
  -3  -1   5   66.08    1.28
  -3  -1   5   69.36    1.44
   3   0  -5  202.65    3.58
   3   0  -5  205.31    3.27
   3   0  -5  204.90    3.50
  -3   0   5  201.25    3.42
   3  -1  -5   18.77    0.50
   3  -1  -5   18.54    0.66
   3  -1  -5   18.88    0.68
   3  -2  -5   19.13    0.53
   3  -2  -5   18.74    0.69
   3  -2  -5   18.85    0.70
   3  -3  -5  209.58    3.61
   3  -3  -5  202.90    3.56
   3  -4  -5   71.55    1.49
   3  -4  -5   70.59    1.33
   3  -4  -5   72.73    1.55
   3  -5  -5    0.33    0.32
   3  -5  -5    0.33    0.37
   3  -5  -5    0.14    0.29
   3  -5  -5    0.32    0.22
   3  -6  -5    0.09    0.30
   3  -6  -5   -0.01    0.37
   3  -6  -5    0.21    0.24
   3  -6  -5    0.41    0.43
  -3   6   5    0.23    0.33
   3  -7  -5    6.59    0.67
   3  -7  -5    5.58    0.45
   3  -7  -5    5.76    0.49
   3  -7  -5    5.81    0.65
  -3   7   5    4.56    0.54
   3  -8  -5    3.14    0.61
   3  -8  -5    2.28    0.59
   3  -8  -5    2.99    0.44
  -3   8   5    3.17    0.55
   3  -9  -5    1.22    0.41
   3  -9  -5    2.67    0.62
   3  -9  -5    1.01    0.58
  -3   9   5    1.09    0.54
   3 -10  -5   23.70    1.15
   3 -10  -5   27.53    1.23
  -3  10   5   22.60    1.11
   3 -11  -5    0.74    0.63
   3 -11  -5    1.48    0.59
  -3  11   5    1.63    0.62
  -4  -7   5   17.49    1.09
   4   6  -5    0.26    0.43
  -4  -6   5    0.61    0.55
   4   5  -5    0.80    0.43
  -4  -5   5    0.44    0.53
   4   4  -5   81.40    1.88
   4   4  -5   79.32    1.83
   4   4  -5   80.05    1.81
  -4  -4   5   77.32    1.94
   4   3  -5    5.37    0.57
   4   3  -5    5.59    0.53
   4   3  -5    5.96    0.55
  -4  -3   5    4.54    0.60
  -4  -3   5    5.88    0.50
   4   2  -5   48.62    1.17
   4   2  -5   49.38    1.23
   4   2  -5   48.54    1.28
  -4  -2   5   46.89    1.27
  -4  -2   5   48.80    1.17
   4   1  -5    1.59    0.40
   4   1  -5    1.48    0.28
   4   1  -5    1.40    0.35
  -4  -1   5    1.31    0.36
  -4  -1   5    1.30    0.30
   4   0  -5    0.61    0.30
   4   0  -5    1.07    0.40
   4   0  -5    1.27    0.23
  -4   0   5    1.29    0.35
   4  -1  -5   68.88    1.32
   4  -1  -5   71.95    1.48
   4  -1  -5   69.45    1.58
   4  -2  -5   32.88    0.95
   4  -2  -5   33.67    0.79
   4  -2  -5   33.09    0.93
   4  -3  -5   68.52    1.53
   4  -3  -5   69.32    1.37
   4  -3  -5   66.99    1.49
   4  -4  -5    1.06    0.36
   4  -4  -5    0.69    0.32
   4  -5  -5  122.87    2.35
   4  -5  -5  121.68    2.20
   4  -5  -5  122.99    2.44
   4  -6  -5    0.04    0.46
   4  -6  -5   -0.13    0.32
   4  -6  -5    0.80    0.29
   4  -7  -5    0.22    0.36
   4  -7  -5    0.06    0.30
   4  -7  -5   -0.25    0.51
   4  -8  -5   82.19    1.72
   4  -8  -5   80.52    1.98
  -4   8   5   74.54    1.88
   4  -9  -5    4.95    0.74
   4  -9  -5    5.24    0.54
  -4   9   5    7.21    0.76
   4 -10  -5   25.12    1.22
  -4  10   5   24.77    1.19
   4 -11  -5    0.30    0.62
  -4  11   5    1.11    0.58
  -5  -6   5   13.16    1.06
   5   5  -5    5.32    0.66
  -5  -5   5    4.97    0.74
   5   4  -5    5.59    0.64
   5   4  -5    5.78    0.63
  -5  -4   5    4.66    0.69
   5   3  -5    3.00    0.56
   5   3  -5    2.30    0.49
  -5  -3   5    2.10    0.53
   5   2  -5   26.97    0.99
   5   2  -5   26.61    1.00
   5   2  -5   26.59    0.90
  -5  -2   5   28.35    1.07
  -5  -2   5   25.04    0.91
   5   1  -5    4.72    0.55
   5   1  -5    4.90    0.50
   5   1  -5    4.73    0.44
  -5  -1   5    5.16    0.54
  -5  -1   5    5.43    0.48
   5   0  -5    2.26    0.48
   5   0  -5    2.92    0.41
   5   0  -5    2.53    0.33
  -5   0   5    2.98    0.39
  -5   0   5    2.60    0.46
   5  -1  -5  123.61    2.22
   5  -1  -5  121.58    2.48
   5  -1  -5  119.47    2.32
  -5   1   5  124.90    2.37
   5  -2  -5    0.06    0.34
   5  -2  -5    0.37    0.24
   5  -2  -5    0.67    0.42
   5  -3  -5  205.71    3.62
   5  -3  -5  201.11    3.43
   5  -3  -5  200.10    3.70
   5  -4  -5    1.73    0.46
   5  -4  -5    1.28    0.44
   5  -5  -5    2.74    0.49
   5  -5  -5    2.41    0.46
   5  -6  -5  106.83    2.19
   5  -6  -5  103.34    2.30
   5  -6  -5  107.45    2.04
   5  -7  -5    4.89    0.48
   5  -7  -5    2.99    0.64
   5  -7  -5    4.11    0.52
   5  -8  -5   16.57    0.75
   5  -8  -5   17.20    1.06
   5  -9  -5    0.36    0.37
   5  -9  -5    0.52    0.59
   5 -10  -5    5.85    0.77
   5 -10  -5    5.69    0.58
  -5  10   5    5.30    0.71
   5 -11  -5    4.90    0.78
  -5  11   5    4.17    0.73
  -6  -5   5    5.33    0.81
   6   4  -5   25.40    1.08
  -6  -4   5   26.44    1.20
   6   3  -5    1.55    0.47
   6   3  -5    2.02    0.57
  -6  -3   5    0.77    0.53
   6   2  -5    0.62    0.40
   6   2  -5    0.57    0.57
  -6  -2   5    0.42    0.53
   6   1  -5   68.39    1.81
   6   1  -5   70.11    1.64
   6   1  -5   68.03    1.60
  -6  -1   5   70.09    1.77
  -6  -1   5   70.21    1.65
   6   0  -5    0.01    0.28
   6   0  -5    0.17    0.52
   6   0  -5    0.71    0.44
  -6   0   5    0.51    0.36
  -6   0   5    0.20    0.44
   6  -1  -5  105.14    2.14
   6  -1  -5  106.33    2.06
   6  -1  -5  108.26    2.37
  -6   1   5  106.11    2.22
   6  -2  -5    0.17    0.44
   6  -2  -5   -0.33    0.39
   6  -2  -5    0.57    0.27
   6  -3  -5    0.63    0.28
   6  -3  -5    0.19    0.43
   6  -3  -5    0.44    0.43
   6  -4  -5   47.26    1.35
   6  -4  -5   48.15    1.39
   6  -4  -5   49.90    1.22
   6  -5  -5    4.87    0.64
   6  -5  -5    3.79    0.56
   6  -6  -5    0.76    0.50
   6  -6  -5    0.72    0.49
   6  -7  -5    9.06    0.71
   6  -7  -5    9.93    0.86
   6  -7  -5    9.51    0.63
   6  -8  -5   39.99    1.18
   6  -8  -5   40.34    1.46
   6  -8  -5   37.68    1.24
   6  -9  -5    0.70    0.40
   6  -9  -5    0.14    0.57
   6 -10  -5    1.68    0.64
   6 -10  -5    0.75    0.42
   6 -11  -5   13.86    1.10
  -6  11   5   12.90    1.04
   7   4  -5    0.39    0.57
  -7  -4   5   -0.62    0.55
   7   3  -5   24.94    1.15
  -7  -3   5   26.83    1.22
   7   2  -5    0.20    0.53
   7   2  -5   -0.30    0.34
  -7  -2   5    0.15    0.51
   7   1  -5   26.84    1.03
   7   1  -5   27.76    1.21
  -7  -1   5   23.76    1.11
   7   0  -5    4.14    0.68
   7   0  -5    6.11    0.64
   7   0  -5    5.52    0.55
  -7   0   5    6.20    0.63
  -7   0   5    5.10    0.68
   7  -1  -5    9.18    0.79
   7  -1  -5    8.77    0.66
   7  -1  -5   10.18    0.73
  -7   1   5    9.63    0.73
   7  -2  -5    3.77    0.59
   7  -2  -5    4.77    0.71
   7  -2  -5    3.84    0.46
   7  -3  -5    0.03    0.49
   7  -3  -5   -0.14    0.50
   7  -3  -5   -0.38    0.29
   7  -4  -5    5.92    0.72
   7  -4  -5    5.48    0.53
   7  -4  -5    5.81    0.67
   7  -5  -5   27.44    0.98
   7  -5  -5   25.64    1.06
   7  -5  -5   23.38    1.13
   7  -6  -5   64.21    1.71
   7  -6  -5   62.54    1.70
   7  -7  -5    5.78    0.69
   7  -7  -5    5.44    0.79
   7  -8  -5    0.25    0.54
   7  -8  -5   -1.03    0.60
   7  -9  -5   39.25    1.47
   7  -9  -5   39.49    1.21
   7 -10  -5    4.59    0.58
   7 -10  -5    3.64    0.76
   7 -11  -5   20.95    1.20
   8   3  -5   -0.11    0.58
  -8  -3   5    0.31    0.63
   8   2  -5    9.95    0.90
  -8  -2   5    8.89    0.90
   8   1  -5   12.08    0.90
   8   1  -5   13.83    0.81
  -8  -1   5   12.66    0.92
   8   0  -5    2.99    0.65
   8   0  -5    3.47    0.51
  -8   0   5    3.34    0.65
   8  -1  -5    0.36    0.40
   8  -1  -5    0.56    0.59
   8  -1  -5   -0.28    0.52
  -8   1   5    1.44    0.53
  -8   1   5    0.84    0.46
   8  -2  -5   36.57    1.36
   8  -2  -5   36.72    1.28
   8  -2  -5   39.58    1.18
  -8   2   5   36.65    1.27
   8  -3  -5   16.69    1.11
   8  -3  -5   18.23    1.00
   8  -3  -5   18.23    0.84
   8  -4  -5   78.24    1.80
   8  -4  -5   81.52    2.07
   8  -4  -5   73.81    1.90
   8  -5  -5    2.29    0.69
   8  -5  -5    3.20    0.64
   8  -5  -5    2.59    0.49
   8  -6  -5    0.29    0.44
   8  -6  -5   -0.37    0.54
   8  -6  -5    0.52    0.64
   8  -7  -5   24.52    1.14
   8  -7  -5   23.07    1.12
   8  -8  -5    3.33    0.63
   8  -8  -5    2.32    0.69
   8  -9  -5   11.07    0.96
   8 -10  -5    2.54    0.54
   8 -10  -5    0.55    0.63
   8 -11  -5    5.53    0.85
   9   1  -5   -0.24    0.64
  -9  -1   5    0.31    0.56
   9   0  -5   14.54    1.09
  -9   0   5   16.14    0.96
   9  -1  -5   12.91    0.96
   9  -1  -5   12.39    0.79
  -9   1   5   11.97    0.92
   9  -2  -5   36.88    1.42
   9  -2  -5   39.67    1.25
  -9   2   5   40.99    1.42
   9  -3  -5    0.51    0.40
   9  -3  -5    1.28    0.60
   9  -3  -5    0.28    0.63
   9  -4  -5    0.44    0.41
   9  -4  -5    0.50    0.62
   9  -4  -5    0.21    0.56
   9  -5  -5    5.47    0.75
   9  -5  -5    4.98    0.74
   9  -5  -5    6.28    0.63
   9  -6  -5    1.32    0.65
   9  -6  -5    0.84    0.62
   9  -6  -5    0.85    0.45
   9  -7  -5    0.43    0.60
   9  -7  -5   -0.09    0.56
   9  -8  -5   12.28    0.93
   9  -8  -5   12.93    1.04
   9  -9  -5   16.40    1.13
   9 -10  -5    4.55    0.82
  10  -1  -5    2.12    0.76
 -10   1   5    2.60    0.71
  10  -2  -5    1.25    0.63
  10  -2  -5    1.46    0.49
 -10   2   5    1.05    0.57
  10  -3  -5    3.81    0.73
  10  -3  -5    4.28    0.60
 -10   3   5    3.06    0.65
  10  -4  -5   -0.38    0.64
  10  -4  -5    0.07    0.56
  10  -4  -5    0.35    0.43
  10  -5  -5    4.96    0.76
  10  -5  -5    5.30    0.76
  10  -5  -5    5.61    0.66
  10  -6  -5   24.45    1.22
  10  -6  -5   24.99    1.24
  10  -6  -5   23.58    1.08
  10  -7  -5   26.51    1.28
  10  -7  -5   26.08    1.28
  10  -7  -5   22.99    1.10
  10  -8  -5    9.70    0.93
  10  -8  -5    8.95    0.97
  10  -9  -5    0.92    0.72
  11  -3  -5    5.18    0.89
 -11   3   5    4.77    0.76
  11  -4  -5   18.63    1.01
  11  -4  -5   19.34    1.25
  11  -5  -5   10.77    1.03
  11  -5  -5   11.13    0.95
  11  -5  -5   11.79    0.88
  11  -6  -5    3.45    0.64
  11  -6  -5    5.46    0.83
  11  -6  -5    4.68    0.85
  11  -7  -5   -0.22    0.64
  11  -7  -5   -0.10    0.65
  11  -7  -5   -0.27    0.48
  11  -8  -5    1.29    0.71
  11  -8  -5    0.32    0.64
  11  -8   6    0.82    0.56
  11  -8   6    0.45    0.53
  11  -7   6   13.45    1.04
  11  -7   6   13.57    0.91
  11  -6   6    0.11    0.52
  11  -6   6   -0.55    0.54
  11  -5   6    7.89    0.91
  11  -5   6    6.93    0.77
 -11   4  -6    7.57    0.88
  11  -4   6    7.22    0.82
  11  -4   6    6.39    0.82
  11  -3   6    0.94    0.63
  11  -3   6    0.46    0.58
  10  -9   6   30.17    1.34
  10  -9   6   32.47    1.36
  10  -8   6   -0.35    0.53
  10  -8   6    0.40    0.57
  10  -7   6   11.33    0.89
  10  -7   6    9.97    0.80
  10  -7   6   11.43    0.96
  10  -6   6    9.66    0.78
  10  -6   6    8.99    0.86
  10  -6   6    9.02    0.78
  10  -5   6   -0.16    0.47
  10  -5   6    0.49    0.47
  10  -4   6   29.25    1.19
  10  -4   6   26.59    1.20
 -10   3  -6    3.96    0.68
  10  -3   6    2.32    0.60
  10  -3   6    3.07    0.64
 -10   2  -6    0.06    0.54
  10  -2   6    0.64    0.55
  10  -2   6    0.48    0.50
 -10   1  -6    1.72    0.66
 -10   1  -6    0.37    0.53
  10  -1   6    0.65    0.58
  10  -1   6   -0.03    0.48
   9 -10   6   -0.10    0.49
   9 -10   6    0.77    0.60
   9  -9   6    1.22    0.60
   9  -9   6    2.02    0.58
   9  -8   6    4.51    0.73
   9  -8   6    3.80    0.63
   9  -8   6    2.81    0.58
   9  -7   6    3.27    0.62
   9  -7   6    3.15    0.64
   9  -7   6    3.08    0.50
   9  -6   6    4.78    0.58
   9  -6   6    5.06    0.66
   9  -6   6    6.52    0.66
   9  -5   6   11.12    0.90
   9  -5   6   11.73    0.74
   9  -5   6   11.07    0.78
   9  -4   6   18.48    0.93
   9  -4   6   16.64    0.94
  -9   3  -6    2.71    0.59
   9  -3   6    2.74    0.61
   9  -3   6    3.83    0.61
  -9   2  -6   12.86    0.94
   9  -2   6   11.09    0.84
   9  -2   6   10.24    0.79
  -9   1  -6    8.87    0.85
   9  -1   6    6.95    0.77
   9  -1   6    8.70    0.83
  -9   0  -6    0.90    0.60
  -9   0  -6    1.32    0.62
   9   0   6    1.78    0.57
   9   0   6    1.51    0.57
  -9  -1  -6   30.29    1.43
  -9  -1  -6   31.39    1.34
   9   1   6   32.17    1.42
   9   1   6   29.28    1.25
   8 -11   6    0.08    0.60
   8 -11   6    0.19    0.48
   8 -10   6    0.81    0.59
   8 -10   6    0.36    0.46
   8  -9   6    7.79    0.83
   8  -9   6    8.18    0.78
   8  -8   6    0.80    0.49
   8  -8   6   -0.26    0.45
   8  -8   6    0.09    0.52
   8  -7   6    4.64    0.53
   8  -7   6    5.44    0.70
   8  -7   6    7.31    0.75
   8  -7   6    5.44    0.67
   8  -6   6   61.08    1.64
   8  -6   6   59.42    1.71
   8  -6   6   58.79    1.50
   8  -5   6    6.69    0.60
   8  -5   6    6.65    0.74
   8  -5   6    8.04    0.66
   8  -4   6   12.75    0.89
   8  -4   6   12.97    0.77
   8  -4   6   13.85    0.83
   8  -3   6   24.69    0.98
   8  -3   6   24.74    1.07
  -8   2  -6    4.21    0.64
   8  -2   6    4.95    0.65
   8  -2   6    5.73    0.71
  -8   1  -6   57.68    1.72
   8  -1   6   58.22    1.62
   8  -1   6   55.85    1.68
  -8   0  -6   -0.21    0.46
  -8   0  -6   -0.32    0.48
   8   0   6    0.02    0.43
   8   0   6   -0.46    0.45
  -8  -1  -6    4.41    0.70
  -8  -1  -6    4.25    0.69
   8   1   6    4.77    0.67
   8   1   6    4.62    0.67
  -8  -2  -6    0.93    0.61
  -8  -2  -6    0.18    0.59
   8   2   6   -0.18    0.45
   8   2   6    0.19    0.55
  -8  -3  -6    0.34    0.61
   8   3   6    0.69    0.55
   8   3   6   -0.23    0.52
   7 -11   6    7.56    0.80
   7 -11   6    8.01    0.92
   7 -10   6    4.07    0.65
   7 -10   6    3.07    0.63
   7  -9   6   10.97    0.76
   7  -9   6   11.41    0.84
   7  -8   6   55.87    1.57
   7  -8   6   60.23    1.71
   7  -7   6    7.83    0.72
   7  -7   6    6.05    0.70
   7  -7   6    6.40    0.70
   7  -6   6   27.42    0.91
   7  -6   6   27.11    1.11
   7  -6   6   26.73    1.08
   7  -6   6   26.79    1.07
   7  -5   6    5.28    0.62
   7  -5   6    6.16    0.62
   7  -5   6    6.35    0.55
   7  -4   6   11.01    0.69
   7  -4   6   10.23    0.69
   7  -4   6   10.64    0.79
   7  -3   6   34.50    0.97
   7  -3   6   35.01    1.18
   7  -3   6   36.80    1.13
  -7   2  -6    1.64    0.48
   7  -2   6    2.88    0.49
   7  -2   6    1.75    0.45
  -7   1  -6    1.76    0.50
   7  -1   6    2.18    0.48
   7  -1   6    2.34    0.52
  -7   0  -6    8.81    0.83
   7   0   6    8.15    0.73
   7   0   6    7.37    0.75
  -7  -1  -6    6.78    0.78
  -7  -1  -6    7.19    0.72
   7   1   6    5.02    0.62
   7   1   6    4.66    0.69
  -7  -2  -6    3.05    0.67
  -7  -2  -6    3.17    0.62
   7   2   6    3.23    0.64
   7   2   6    2.85    0.56
  -7  -3  -6   11.67    0.93
  -7  -3  -6   11.08    0.90
   7   3   6   10.23    0.86
   7   3   6   13.13    1.01
  -7  -4  -6   17.90    1.03
  -7  -4  -6   15.20    1.10
   7   4   6   14.27    1.03
   7   4   6   14.99    0.95
   6 -11   6    7.96    0.83
   6 -10   6   28.70    1.19
   6 -10   6   31.66    1.33
   6  -9   6    2.48    0.55
   6  -9   6    2.65    0.63
   6  -8   6    5.53    0.63
   6  -8   6    6.08    0.74
   6  -7   6    1.49    0.49
   6  -7   6    1.38    0.48
   6  -7   6    1.51    0.48
   6  -6   6   16.02    0.86
   6  -6   6   16.57    0.86
   6  -6   6   15.30    0.67
   6  -6   6   16.66    0.84
   6  -5   6    3.80    0.48
   6  -5   6    3.41    0.46
   6  -5   6    3.77    0.41
   6  -5   6    3.25    0.48
   6  -4   6   26.70    0.96
   6  -4   6   27.95    0.92
   6  -4   6   26.88    0.92
   6  -4   6   27.85    0.88
   6  -3   6   21.98    0.78
   6  -3   6   21.07    0.90
   6  -3   6   20.73    0.76
   6  -2   6   65.03    1.61
   6  -2   6   65.82    1.34
   6  -2   6   65.78    1.54
  -6   1  -6   44.70    1.34
   6  -1   6   47.69    1.29
   6  -1   6   50.78    1.38
  -6   0  -6   17.11    0.90
   6   0   6   15.43    0.83
   6   0   6   14.63    0.76
  -6  -1  -6   28.51    1.06
  -6  -1  -6   26.97    1.16
   6   1   6   27.98    1.18
   6   1   6   28.81    1.08
  -6  -2  -6   59.22    1.59
  -6  -2  -6   61.41    1.80
   6   2   6   60.96    1.78
   6   2   6   57.86    1.58
  -6  -3  -6    5.30    0.75
  -6  -3  -6    5.35    0.66
   6   3   6    4.41    0.70
   6   3   6    4.36    0.58
  -6  -4  -6   10.68    0.97
  -6  -4  -6    9.67    0.83
   6   4   6    9.36    0.80
   6   4   6    9.86    0.95
  -6  -5  -6   -0.33    0.50
  -6  -5  -6    0.26    0.56
   6   5   6    0.06    0.57
   6   5   6    0.05    0.48
   5 -11   6   -0.37    0.48
   5 -10   6    0.89    0.51
   5  -9   6   20.42    1.01
   5  -9   6   18.98    0.96
   5  -8   6   25.40    1.05
   5  -8   6   25.52    1.07
   5  -7   6    2.54    0.48
   5  -7   6    2.50    0.55
   5  -6   6   49.60    1.32
   5  -6   6   43.97    1.32
   5  -6   6   48.97    1.06
   5  -6   6   49.18    1.31
   5  -5   6   68.16    1.56
   5  -5   6   70.24    1.41
   5  -5   6   65.29    1.56
   5  -5   6   65.86    1.56
   5  -4   6  148.69    2.72
   5  -4   6  144.25    2.71
   5  -4   6  145.70    2.77
   5  -4   6  148.44    2.67
   5  -3   6   61.90    1.35
   5  -3   6   61.32    1.32
   5  -3   6   59.42    1.35
   5  -3   6   59.43    1.45
   5  -2   6   10.75    0.62
   5  -2   6   11.92    0.58
   5  -2   6   11.54    0.51
  -5   1  -6   51.22    1.34
   5  -1   6   52.61    1.28
   5  -1   6   52.50    1.05
  -5   0  -6   64.68    1.62
   5   0   6   64.68    1.59
   5   0   6   66.51    1.55
  -5  -1  -6    3.40    0.48
  -5  -1  -6    3.62    0.52
   5   1   6    3.73    0.47
   5   1   6    3.05    0.49
  -5  -2  -6    7.13    0.71
  -5  -2  -6    5.86    0.60
   5   2   6    5.59    0.66
   5   2   6    5.38    0.58
  -5  -3  -6    7.08    0.70
  -5  -3  -6    8.08    0.82
   5   3   6    8.07    0.78
   5   3   6    7.87    0.69
  -5  -4  -6   10.36    0.78
  -5  -4  -6   10.82    0.85
   5   4   6   11.48    0.92
   5   4   6   10.74    0.75
  -5  -5  -6    0.84    0.59
  -5  -5  -6    0.72    0.53
   5   5   6    0.20    0.52
   5   5   6   -0.13    0.42
  -5  -6  -6    7.30    0.92
   5   6   6    7.60    0.93
   5   6   6    8.18    0.74
  -4  11  -6   14.66    1.07
   4 -11   6   14.31    0.96
   4 -10   6    8.99    0.81
   4  -9   6    9.91    0.78
   4  -8   6   12.72    0.82
   4  -8   6   14.21    0.86
   4  -7   6   36.02    1.22
   4  -7   6   36.32    1.16
   4  -6   6   65.79    1.55
   4  -6   6   64.70    1.60
   4  -5   6   49.70    1.26
   4  -5   6   55.18    1.29
   4  -5   6   52.26    1.32
   4  -5   6   53.45    1.08
   4  -4   6    0.06    0.25
   4  -4   6    0.06    0.27
   4  -4   6   -0.24    0.27
   4  -4   6    0.12    0.21
   4  -3   6   26.39    0.76
   4  -3   6   26.96    0.85
   4  -3   6   26.32    0.74
   4  -3   6   26.61    0.80
   4  -2   6   16.64    0.63
   4  -2   6   16.42    0.56
   4  -2   6   16.06    0.58
   4  -2   6   17.03    0.69
  -4   1  -6    4.08    0.42
   4  -1   6    5.51    0.43
   4  -1   6    4.74    0.34
   4  -1   6    3.95    0.41
  -4   0  -6   -0.14    0.28
   4   0   6    0.25    0.26
   4   0   6   -0.28    0.27
  -4  -1  -6  139.37    2.80
   4   1   6  142.60    2.71
   4   1   6  145.32    2.78
  -4  -2  -6   27.69    1.04
  -4  -2  -6   28.65    0.93
   4   2   6   28.07    0.92
   4   2   6   27.30    1.02
  -4  -3  -6   11.65    0.87
  -4  -3  -6   11.62    0.69
   4   3   6   11.16    0.70
   4   3   6   12.16    0.86
  -4  -4  -6   12.42    0.89
  -4  -4  -6   13.52    0.78
   4   4   6   14.91    0.91
   4   4   6   13.68    0.74
  -4  -5  -6   20.02    0.97
  -4  -5  -6   20.80    1.12
   4   5   6   18.20    1.06
   4   5   6   19.12    0.88
  -4  -6  -6   29.42    1.34
  -4  -6  -6   31.05    1.20
   4   6   6   29.87    1.34
   4   6   6   30.10    1.10
  -4  -7  -6    7.39    0.92
   4   7   6    6.94    0.86
  -3  11  -6    0.93    0.59
   3 -11   6    1.07    0.58
  -3  10  -6   11.46    0.93
   3 -10   6   12.28    0.90
  -3   9  -6    6.89    0.72
   3  -9   6    5.64    0.66
   3  -8   6    6.86    0.70
   3  -7   6    8.84    0.65
   3  -6   6   19.58    0.81
   3  -5   6   11.54    0.59
   3  -5   6   11.85    0.36
   3  -5   6   10.88    0.57
   3  -4   6    5.09    0.43
   3  -4   6    5.36    0.45
   3  -4   6    4.65    0.31
   3  -4   6    4.84    0.41
   3  -3   6   10.06    0.41
   3  -3   6   10.52    0.48
   3  -3   6   10.04    0.48
   3  -3   6   10.05    0.52
   3  -2   6    0.63    0.22
   3  -2   6    0.35    0.23
   3  -2   6    0.39    0.22
  -3   1  -6  285.76    4.86
   3  -1   6  294.23    4.88
  -3   0  -6   10.27    0.54
   3   0   6   10.46    0.49
   3   0   6    9.55    0.53
  -3  -1  -6   26.22    0.87
   3   1   6   25.86    0.78
   3   1   6   26.73    0.86
  -3  -2  -6   61.75    1.54
  -3  -2  -6   60.56    1.31
   3   2   6   60.23    1.51
   3   2   6   59.91    1.37
  -3  -3  -6   21.70    0.77
  -3  -3  -6   20.75    0.95
   3   3   6   22.31    0.95
   3   3   6   20.73    0.80
  -3  -4  -6   35.87    1.24
  -3  -4  -6   37.12    1.08
   3   4   6   36.94    1.27
   3   4   6   35.89    1.08
  -3  -5  -6   25.86    1.00
  -3  -5  -6   23.89    1.13
   3   5   6   26.43    1.18
   3   5   6   26.22    0.96
  -3  -6  -6    2.91    0.54
  -3  -6  -6    3.61    0.70
   3   6   6    3.28    0.63
   3   6   6    3.33    0.51
  -3  -7  -6    3.60    0.75
   3   7   6    4.38    0.74
  -3  -8  -6   -0.72    0.56
   3   8   6    0.43    0.62
  -2  10  -6   -0.56    0.51
   2 -10   6    0.53    0.53
  -2   9  -6    1.62    0.53
   2  -9   6    2.39    0.56
  -2   8  -6   61.94    1.63
   2  -8   6   57.34    1.61
   2  -7   6    5.15    0.61
   2  -6   6   26.41    0.91
   2  -5   6   58.00    1.36
   2  -4   6   14.84    0.60
   2  -4   6   15.96    0.40
   2  -3   6  283.02    4.64
   2  -3   6  283.78    4.65
   2  -3   6  287.61    4.59
   2  -2   6   78.93    1.47
   2  -2   6   79.86    1.48
   2  -2   6   80.18    1.46
  -2   1  -6    5.62    0.38
   2  -1   6    5.30    0.34
   2  -1   6    5.22    0.36
   2  -1   6    5.63    0.38
  -2   0  -6   81.12    1.59
   2   0   6   80.29    1.57
   2   0   6   79.43    1.55
  -2  -1  -6    0.08    0.26
   2   1   6    0.04    0.25
   2   1   6    0.14    0.21
  -2  -2  -6   16.21    0.55
  -2  -2  -6   15.54    0.69
   2   2   6   17.36    0.63
   2   2   6   16.58    0.68
  -2  -3  -6   11.10    0.73
  -2  -3  -6   11.39    0.53
   2   3   6   12.87    0.59
   2   3   6   13.01    0.73
  -2  -4  -6   68.13    1.44
  -2  -4  -6   67.03    1.70
   2   4   6   64.17    1.49
   2   4   6   65.81    1.64
  -2  -5  -6    2.39    0.57
  -2  -5  -6    2.50    0.44
   2   5   6    2.16    0.41
   2   5   6    1.94    0.48
  -2  -6  -6    5.06    0.74
  -2  -6  -6    4.74    0.57
   2   6   6    4.76    0.54
   2   6   6    4.75    0.65
  -2  -7  -6   12.68    0.92
   2   7   6   12.23    0.98
  -2  -8  -6   -0.40    0.60
   2   8   6    0.10    0.51
  -1  10  -6   34.78    1.38
   1 -10   6   33.09    1.37
  -1   9  -6    3.55    0.61
   1  -9   6    3.80    0.66
  -1   8  -6    5.85    0.67
   1  -8   6    6.00    0.71
  -1   7  -6   29.13    1.08
   1  -7   6   28.63    1.11
  -1   6  -6    4.10    0.47
   1  -6   6    2.75    0.49
   1  -5   6  145.35    2.74
  -1   4  -6   26.24    0.51
   1  -4   6   23.94    0.80
  -1   3  -6    0.41    0.16
   1  -3   6    0.17    0.25
   1  -2   6    5.55    0.32
   1  -2   6    5.10    0.33
   1  -2   6    5.64    0.37
  -1   1  -6    1.47    0.22
  -1   1  -6    1.17    0.24
   1  -1   6    1.40    0.21
   1  -1   6    1.05    0.23
   1  -1   6    1.54    0.20
  -1   0  -6    1.32    0.23
  -1   0  -6    1.50    0.25
   1   0   6    0.96    0.17
   1   0   6    1.30    0.23
   1   0   6    0.87    0.24
  -1  -1  -6    6.13    0.44
   1   1   6    5.24    0.43
   1   1   6    5.27    0.37
  -1  -2  -6  285.67    4.80
  -1  -2  -6  279.77    4.44
   1   2   6  291.81    4.69
   1   2   6  278.22    4.78
  -1  -3  -6    4.77    0.46
  -1  -3  -6    4.87    0.35
  -1  -3  -6    4.95    0.34
   1   3   6    4.76    0.38
   1   3   6    5.33    0.47
  -1  -4  -6   53.86    1.15
  -1  -4  -6   53.62    1.09
  -1  -4  -6   52.85    1.37
   1   4   6   52.31    1.34
   1   4   6   52.43    1.24
  -1  -5  -6   48.26    1.39
  -1  -5  -6   49.42    1.16
  -1  -5  -6   47.68    1.10
   1   5   6   48.05    1.22
   1   5   6   50.72    1.42
  -1  -6  -6    2.53    0.43
  -1  -6  -6    1.56    0.54
   1   6   6    1.18    0.51
   1   6   6    1.43    0.41
  -1  -7  -6   60.14    1.74
  -1  -7  -6   59.47    1.49
   1   7   6   61.06    1.78
   1   7   6   61.07    1.53
  -1  -8  -6    8.13    0.87
   1   8   6    9.37    0.90
  -1  -9  -6   -0.62    0.54
   1   9   6    0.12    0.57
   0   9  -6    2.18    0.57
   0   9  -6    2.02    0.57
   0  -9   6    1.53    0.60
   0   8  -6   -0.31    0.44
   0   8  -6   -0.03    0.43
   0  -8   6    0.25    0.50
   0   7  -6    8.26    0.67
   0   7  -6    7.38    0.68
   0  -7   6    7.61    0.60
   0  -7   6    8.02    0.74
   0   6  -6   15.72    0.79
   0  -6   6   17.19    0.86
   0  -6   6   16.89    0.70
   0   5  -6   68.28    1.48
   0   5  -6   69.73    1.23
   0  -5   6   67.67    1.61
   0  -5   6   70.45    1.40
   0   4  -6   -0.02    0.27
   0   4  -6    0.02    0.22
   0   4  -6    0.05    0.19
   0  -4   6   -0.13    0.27
   0   3  -6   10.65    0.40
   0   3  -6   10.75    0.53
   0  -3   6   10.49    0.55
   0   2  -6   79.67    1.57
   0   2  -6   83.38    1.49
   0  -2   6   81.89    1.55
   0   1  -6    1.11    0.15
   0   1  -6    0.94    0.24
   0   1  -6    1.45    0.28
   0  -1   6    1.31    0.14
   0  -1   6    1.40    0.24
   0   0  -6  573.29    8.90
   0   0  -6  562.97    9.02
   0   0   6  561.70    8.71
   0   0   6  565.74    9.16
   0   0   6  568.85    8.68
   0  -1  -6    1.07    0.27
   0  -1  -6    1.68    0.26
   0   1   6    1.02    0.23
   0   1   6    1.21    0.26
   0  -2  -6   78.46    1.57
   0  -2  -6   78.77    1.26
   0  -2  -6   80.22    1.45
   0   2   6   79.26    1.57
   0   2   6   79.80    1.50
   0  -3  -6   10.36    0.34
   0  -3  -6   10.21    0.47
   0  -3  -6   10.30    0.60
   0   3   6   10.69    0.57
   0   3   6   11.08    0.52
   0  -4  -6   -0.05    0.19
   0  -4  -6   -0.22    0.30
   0  -4  -6    0.25    0.29
   0   4   6    0.04    0.25
   0   4   6   -0.30    0.28
   0  -5  -6   67.73    1.43
   0  -5  -6   66.10    1.63
   0  -5  -6   68.48    1.36
   0   5   6   69.89    1.52
   0   5   6   67.77    1.60
   0  -6  -6   16.23    0.65
   0  -6  -6   15.77    0.70
   0  -6  -6   15.09    0.85
   0   6   6   14.89    0.88
   0   6   6   14.99    0.69
   0  -7  -6    7.90    0.81
   0  -7  -6    8.26    0.61
   0  -7  -6    8.83    0.65
   0   7   6    7.73    0.74
   0   7   6    7.90    0.62
   0  -8  -6   -0.36    0.51
   0   8   6    0.26    0.47
   0  -9  -6    1.43    0.67
   0   9   6    1.90    0.61
   1   9  -6   -0.22    0.48
  -1  -9   6   -1.06    0.50
   1   8  -6    9.29    0.79
   1   8  -6   10.05    0.83
  -1  -8   6    8.98    0.85
   1   7  -6   59.43    1.62
   1   7  -6   60.43    1.60
  -1  -7   6   58.43    1.69
   1   6  -6    1.39    0.44
   1   6  -6    1.92    0.46
  -1  -6   6    1.49    0.38
  -1  -6   6    1.13    0.51
   1   5  -6   47.34    1.24
   1   5  -6   47.87    1.02
   1   5  -6   48.39    1.22
  -1  -5   6   47.98    1.32
  -1  -5   6   48.43    1.10
   1   4  -6   54.46    1.28
   1   4  -6   53.54    1.13
   1   4  -6   56.26    1.23
  -1  -4   6   54.03    1.34
  -1  -4   6   52.44    1.10
   1   3  -6    4.81    0.33
   1   3  -6    5.40    0.43
   1   3  -6    4.72    0.41
  -1  -3   6    5.09    0.46
  -1  -3   6    4.51    0.31
   1   2  -6  284.65    4.57
   1   2  -6  289.26    4.86
   1   2  -6  295.72    4.84
  -1  -2   6  300.40    4.57
  -1  -2   6  288.72    4.76
   1   1  -6    6.11    0.48
   1   1  -6    5.30    0.43
  -1  -1   6    5.99    0.40
   1   0  -6    1.10    0.15
   1   0  -6    1.33    0.30
   1   0  -6    0.76    0.26
  -1   0   6    1.03    0.22
   1  -1  -6    0.73    0.22
   1  -1  -6    1.09    0.28
   1  -1  -6    1.88    0.31
  -1   1   6    1.02    0.18
  -1   1   6    1.10    0.16
   1  -2  -6    5.16    0.38
   1  -2  -6    6.28    0.46
   1  -2  -6    5.42    0.42
  -1   2   6    4.96    0.36
   1  -3  -6    0.18    0.29
   1  -3  -6    0.15    0.26
   1  -3  -6    0.17    0.25
   1  -3  -6    0.46    0.13
  -1   3   6    0.44    0.23
  -1   3   6    0.36    0.23
   1  -4  -6   26.29    0.61
   1  -4  -6   26.12    0.77
   1  -4  -6   26.99    0.84
   1  -4  -6   25.98    0.81
  -1   4   6   26.21    0.80
  -1   4   6   28.30    0.80
   1  -5  -6  146.30    2.86
   1  -5  -6  150.10    2.80
   1  -5  -6  146.37    2.51
   1  -5  -6  148.63    2.70
  -1   5   6  148.34    2.77
  -1   5   6  147.86    2.74
   1  -6  -6    4.38    0.50
   1  -6  -6    3.47    0.37
   1  -6  -6    3.96    0.54
   1  -6  -6    3.50    0.45
  -1   6   6    3.27    0.48
  -1   6   6    3.99    0.43
   1  -7  -6   29.82    0.89
   1  -7  -6   27.48    0.99
   1  -7  -6   29.23    1.20
   1  -7  -6   28.70    1.03
  -1   7   6   28.55    0.96
  -1   7   6   30.10    1.16
   1  -8  -6    6.44    0.67
   1  -8  -6    6.90    0.77
   1  -8  -6    6.14    0.55
  -1   8   6    6.05    0.72
   1  -9  -6    2.98    0.66
  -1   9   6    3.30    0.68
   1 -10  -6   32.25    1.44
  -1  10   6   32.24    1.37
   2   8  -6   -0.60    0.44
  -2  -8   6    0.15    0.50
   2   7  -6   12.73    0.84
   2   7  -6   11.96    0.84
  -2  -7   6   10.94    0.82
   2   6  -6    4.41    0.58
   2   6  -6    5.27    0.60
  -2  -6   6    5.08    0.69
   2   5  -6    2.78    0.48
   2   5  -6    2.79    0.45
   2   5  -6    2.75    0.39
  -2  -5   6    2.26    0.50
   2   4  -6   65.10    1.50
   2   4  -6   67.64    1.40
   2   4  -6   60.85    1.42
  -2  -4   6   67.74    1.61
  -2  -4   6   64.94    1.32
   2   3  -6   12.14    0.60
   2   3  -6   12.02    0.54
   2   3  -6   10.90    0.60
  -2  -3   6   12.75    0.62
  -2  -3   6   11.06    0.44
   2   2  -6   15.93    0.65
   2   2  -6   15.70    0.67
   2   2  -6   16.15    0.52
  -2  -2   6   16.64    0.44
  -2  -2   6   16.71    0.63
   2   1  -6    0.44    0.27
   2   1  -6    0.18    0.28
   2   1  -6    0.11    0.14
  -2  -1   6    0.07    0.25
  -2  -1   6    0.50    0.14
   2   0  -6   80.19    1.58
   2   0  -6   80.76    1.59
  -2   0   6   79.79    1.48
   2  -1  -6    6.12    0.43
   2  -1  -6    6.35    0.45
  -2   1   6    5.62    0.32
   2  -2  -6   78.46    1.58
   2  -2  -6   83.27    1.63
   2  -2  -6   80.06    1.51
   2  -3  -6  286.86    4.78
   2  -3  -6  284.41    4.75
   2  -3  -6  289.26    4.88
   2  -4  -6   17.28    0.65
   2  -4  -6   16.62    0.69
   2  -4  -6   15.87    0.65
   2  -4  -6   15.96    0.46
  -2   4   6   16.55    0.60
   2  -5  -6   57.32    1.43
   2  -5  -6   63.73    1.40
   2  -5  -6   60.47    1.40
   2  -5  -6   60.15    1.18
  -2   5   6   61.99    1.42
   2  -6  -6   28.20    0.97
   2  -6  -6   29.15    0.92
   2  -6  -6   26.89    0.99
   2  -6  -6   28.02    0.75
  -2   6   6   27.76    0.96
   2  -7  -6    6.58    0.56
   2  -7  -6    6.18    0.64
   2  -7  -6    7.37    0.53
   2  -7  -6    6.53    0.67
  -2   7   6    5.36    0.60
   2  -8  -6   61.25    1.41
   2  -8  -6   59.51    1.73
   2  -8  -6   58.28    1.56
  -2   8   6   59.94    1.67
   2  -9  -6    3.93    0.68
   2  -9  -6    3.66    0.62
  -2   9   6    2.59    0.62
   2 -10  -6    0.44    0.59
  -2  10   6   -0.06    0.53
  -3  -8   6    0.31    0.60
   3   7  -6    4.39    0.63
  -3  -7   6    4.42    0.73
   3   6  -6    3.06    0.57
  -3  -6   6    3.60    0.65
   3   5  -6   28.40    1.08
   3   5  -6   28.83    1.08
  -3  -5   6   26.99    1.14
   3   4  -6   37.78    1.15
   3   4  -6   37.78    1.07
   3   4  -6   35.08    1.09
  -3  -4   6   34.40    1.19
   3   3  -6   20.94    0.80
   3   3  -6   21.96    0.83
   3   3  -6   20.39    0.74
  -3  -3   6   20.72    0.83
  -3  -3   6   20.47    0.66
   3   2  -6   59.39    1.25
   3   2  -6   62.21    1.41
   3   2  -6   60.54    1.39
  -3  -2   6   60.08    1.40
  -3  -2   6   61.89    1.21
   3   1  -6   26.04    0.65
   3   1  -6   25.99    0.82
   3   1  -6   26.38    0.81
  -3  -1   6   25.41    0.81
  -3  -1   6   25.54    0.64
   3   0  -6   10.54    0.56
   3   0  -6   10.09    0.35
   3   0  -6   10.52    0.56
  -3   0   6   10.67    0.52
   3  -1  -6  290.05    4.82
   3  -1  -6  286.62    4.51
   3  -1  -6  284.99    4.91
  -3   1   6  287.91    4.63
   3  -2  -6    0.14    0.28
   3  -2  -6    0.25    0.31
   3  -3  -6   10.33    0.58
   3  -3  -6   10.77    0.63
   3  -4  -6    5.09    0.49
   3  -4  -6    4.78    0.36
   3  -4  -6    4.52    0.42
   3  -4  -6    4.97    0.43
   3  -5  -6   11.79    0.65
   3  -5  -6   11.81    0.47
   3  -5  -6   12.28    0.65
   3  -5  -6   12.79    0.61
   3  -6  -6   21.62    0.92
   3  -6  -6   21.60    0.66
   3  -6  -6   21.76    0.81
   3  -6  -6   21.12    0.92
  -3   6   6   20.67    0.86
   3  -7  -6   10.90    0.83
   3  -7  -6   11.03    0.78
   3  -7  -6   11.66    0.57
   3  -7  -6   10.96    0.67
  -3   7   6   11.30    0.81
   3  -8  -6    6.92    0.54
   3  -8  -6    8.00    0.75
   3  -8  -6    7.29    0.78
  -3   8   6    7.25    0.70
   3  -9  -6    6.73    0.72
   3  -9  -6    5.72    0.77
  -3   9   6    6.23    0.71
   3 -10  -6   10.87    0.95
   3 -10  -6   14.74    1.02
  -3  10   6   12.47    0.97
   3 -11  -6   -0.43    0.60
  -3  11   6    0.11    0.55
  -4  -7   6    7.85    0.88
  -4  -6   6   29.78    1.27
   4   5  -6   20.08    0.92
  -4  -5   6   18.07    0.95
   4   4  -6   14.84    0.78
   4   4  -6   16.26    0.88
   4   4  -6   12.73    0.78
  -4  -4   6   15.11    0.92
   4   3  -6   10.25    0.66
   4   3  -6   10.16    0.74
   4   3  -6    9.91    0.74
  -4  -3   6   11.39    0.78
   4   2  -6   26.97    0.82
   4   2  -6   28.48    0.96
   4   2  -6   28.73    1.00
  -4  -2   6   27.17    0.99
  -4  -2   6   27.76    0.81
   4   1  -6  144.59    2.80
   4   1  -6  146.25    2.54
   4   1  -6  145.59    2.71
  -4  -1   6  145.75    2.58
  -4  -1   6  145.61    2.74
   4   0  -6    0.44    0.32
   4   0  -6   -0.12    0.38
   4   0  -6    0.01    0.18
  -4   0   6    0.25    0.29
   4  -1  -6    4.94    0.48
   4  -1  -6    5.45    0.46
   4  -1  -6    4.76    0.34
  -4   1   6    5.41    0.44
   4  -2  -6   15.58    0.69
   4  -2  -6   15.72    0.51
   4  -2  -6   16.83    0.71
   4  -3  -6   25.38    0.88
   4  -3  -6   24.86    0.87
   4  -4  -6    0.03    0.38
   4  -4  -6    0.35    0.33
   4  -5  -6   53.30    1.41
   4  -5  -6   54.30    1.15
   4  -5  -6   51.54    1.29
   4  -6  -6   64.88    1.63
   4  -6  -6   65.30    1.51
   4  -6  -6   65.96    1.36
   4  -7  -6   39.69    1.13
   4  -7  -6   35.76    1.29
   4  -7  -6   38.33    1.01
   4  -8  -6   12.32    0.99
   4  -8  -6   14.54    0.69
  -4   8   6   13.78    0.87
   4  -9  -6   11.08    0.67
   4  -9  -6   12.45    0.93
  -4   9   6   10.99    0.87
   4 -10  -6    9.99    0.91
  -4  10   6    8.89    0.84
   4 -11  -6   17.24    1.07
  -4  11   6   15.26    1.02
  -5  -6   6    8.59    0.91
  -5  -5   6    0.21    0.54
   5   4  -6   10.65    0.78
   5   4  -6   11.40    0.79
  -5  -4   6   11.68    0.87
   5   3  -6    8.49    0.74
   5   3  -6    9.32    0.73
   5   3  -6    8.93    0.67
  -5  -3   6    8.66    0.80
   5   2  -6    6.42    0.60
   5   2  -6    7.54    0.70
   5   2  -6    6.96    0.55
  -5  -2   6    6.26    0.53
  -5  -2   6    6.52    0.66
   5   1  -6    3.02    0.48
   5   1  -6    3.70    0.58
   5   1  -6    3.60    0.39
  -5  -1   6    3.66    0.42
  -5  -1   6    3.87    0.53
   5   0  -6   69.10    1.64
   5   0  -6   66.05    1.38
   5   0  -6   65.15    1.52
  -5   0   6   68.79    1.58
  -5   0   6   67.29    1.44
   5  -1  -6   53.59    1.45
   5  -1  -6   54.23    1.32
   5  -1  -6   52.47    1.15
  -5   1   6   54.67    1.30
   5  -2  -6   11.67    0.69
   5  -2  -6   12.55    0.72
   5  -2  -6   11.07    0.53
   5  -3  -6   59.46    1.46
   5  -3  -6   61.80    1.50
   5  -3  -6   60.47    1.29
   5  -4  -6  141.29    2.76
   5  -4  -6  142.19    2.76
   5  -5  -6   65.55    1.59
   5  -5  -6   66.93    1.66
   5  -6  -6   47.68    1.43
   5  -6  -6   47.95    1.30
   5  -7  -6    1.59    0.47
   5  -7  -6    3.05    0.40
   5  -7  -6    2.20    0.62
   5  -8  -6   27.42    1.24
   5  -8  -6   28.95    0.96
   5  -9  -6   20.15    1.09
   5  -9  -6   20.49    0.86
  -5   9   6   19.43    0.97
   5 -10  -6    0.22    0.58
  -5  10   6    0.73    0.58
   5 -11  -6    0.74    0.65
  -5  11   6   -0.83    0.56
  -6  -5   6    0.33    0.54
   6   4  -6    9.19    0.80
  -6  -4   6    9.06    0.86
   6   3  -6    6.72    0.61
   6   3  -6    5.58    0.69
  -6  -3   6    6.42    0.75
   6   2  -6   60.66    1.51
   6   2  -6   62.88    1.71
  -6  -2   6   57.82    1.64
   6   1  -6   29.59    1.15
   6   1  -6   29.32    0.97
   6   1  -6   30.26    1.07
  -6  -1   6   29.97    1.00
  -6  -1   6   28.58    1.13
   6   0  -6   17.21    0.71
   6   0  -6   14.64    0.90
   6   0  -6   16.15    0.87
  -6   0   6   16.11    0.87
  -6   0   6   16.34    0.73
   6  -1  -6   49.71    1.18
   6  -1  -6   49.08    1.30
   6  -1  -6   46.96    1.46
  -6   1   6   47.51    1.33
   6  -2  -6   66.62    1.60
   6  -2  -6   67.05    1.70
   6  -2  -6   65.40    1.43
   6  -3  -6   20.62    0.92
   6  -3  -6   20.82    0.93
   6  -3  -6   20.42    0.72
   6  -4  -6   28.60    1.10
   6  -4  -6   26.93    1.07
   6  -4  -6   27.93    0.89
   6  -5  -6    3.54    0.58
   6  -5  -6    3.65    0.62
   6  -6  -6   16.80    0.92
   6  -6  -6   16.06    0.99
   6  -7  -6    1.26    0.64
   6  -7  -6    1.79    0.54
   6  -8  -6    6.07    0.58
   6  -8  -6    4.50    0.77
   6  -8  -6    5.07    0.66
   6  -9  -6    3.68    0.51
   6  -9  -6    2.76    0.68
   6 -10  -6   29.46    1.32
   6 -11  -6    7.28    0.89
  -6  11   6    7.26    0.88
  -7  -4   6   13.90    1.02
   7   3  -6   10.39    0.83
  -7  -3   6   10.01    0.89
   7   2  -6    2.96    0.60
  -7  -2   6    1.78    0.55
   7   1  -6    5.28    0.76
   7   1  -6    6.14    0.56
  -7  -1   6    5.61    0.72
   7   0  -6    8.16    0.62
   7   0  -6    9.02    0.73
   7   0  -6    6.91    0.76
  -7   0   6    5.95    0.69
  -7   0   6    9.15    0.66
   7  -1  -6    2.76    0.67
   7  -1  -6    1.20    0.54
   7  -1  -6    1.32    0.37
  -7   1   6    1.93    0.54
   7  -2  -6    1.60    0.37
   7  -2  -6    1.98    0.59
   7  -2  -6    2.71    0.59
   7  -3  -6   36.87    1.36
   7  -3  -6   38.10    1.24
   7  -3  -6   34.43    1.04
   7  -4  -6   11.17    0.83
   7  -4  -6   11.30    0.86
   7  -4  -6   10.62    0.66
   7  -5  -6    6.29    0.57
   7  -5  -6    6.30    0.74
   7  -5  -6    5.55    0.72
   7  -6  -6   30.15    1.21
   7  -6  -6   27.98    1.24
   7  -7  -6    6.94    0.78
   7  -7  -6    7.28    0.75
   7  -8  -6   58.96    1.64
   7  -8  -6   56.12    1.77
   7  -9  -6   11.31    0.73
   7  -9  -6   11.45    0.98
   7 -10  -6    4.41    0.58
   7 -10  -6    3.55    0.75
   7 -11  -6    7.12    0.90
   8   3  -6    0.26    0.59
  -8  -3   6    0.44    0.60
   8   2  -6   -0.52    0.56
  -8  -2   6    0.43    0.54
   8   1  -6    4.12    0.74
  -8  -1   6    4.67    0.68
   8   0  -6   -0.21    0.58
   8   0  -6    0.54    0.39
  -8   0   6    0.47    0.54
   8  -1  -6   56.68    1.72
   8  -1  -6   57.68    1.47
   8  -1  -6   59.30    1.59
  -8   1   6   57.76    1.56
  -8   1   6   56.25    1.67
   8  -2  -6    4.89    0.71
   8  -2  -6    4.58    0.79
   8  -2  -6    4.72    0.54
  -8   2   6    5.09    0.71
   8  -3  -6   24.43    1.13
   8  -3  -6   26.66    0.95
   8  -3  -6   23.79    1.24
   8  -4  -6   13.76    0.82
   8  -4  -6   14.64    1.07
   8  -4  -6   15.02    1.02
   8  -5  -6    7.37    0.83
   8  -5  -6    7.62    0.81
   8  -5  -6    7.65    0.67
   8  -6  -6   58.21    1.73
   8  -6  -6   55.57    1.66
   8  -7  -6    5.28    0.80
   8  -7  -6    5.23    0.69
   8  -8  -6    0.75    0.55
   8  -8  -6    0.22    0.61
   8  -9  -6    8.30    0.92
   8 -10  -6    0.81    0.65
   8 -11  -6    0.00    0.67
   9   1  -6   29.66    1.32
  -9  -1   6   28.56    1.33
   9   0  -6    0.89    0.68
  -9   0   6    1.00    0.62
   9  -1  -6    6.69    0.83
  -9   1   6    8.75    0.84
   9  -2  -6   11.38    0.88
   9  -2  -6   11.37    0.74
   9  -2  -6   10.36    0.96
  -9   2   6   11.92    0.90
   9  -3  -6    2.36    0.65
   9  -3  -6    3.34    0.69
   9  -3  -6    2.51    0.49
   9  -4  -6   19.41    0.89
   9  -4  -6   17.68    1.05
   9  -4  -6   20.42    1.17
   9  -5  -6   11.84    0.95
   9  -5  -6   10.30    0.80
   9  -5  -6   11.23    0.97
   9  -6  -6    6.48    0.81
   9  -6  -6    4.98    0.62
   9  -6  -6    5.88    0.79
   9  -7  -6    2.75    0.67
   9  -7  -6    3.04    0.71
   9  -8  -6    4.61    0.72
   9  -8  -6    3.55    0.76
   9  -9  -6    1.60    0.71
   9 -10  -6    0.97    0.66
  10  -1  -6   -1.18    0.62
 -10   1   6   -0.90    0.56
  10  -2  -6   -0.78    0.58
 -10   2   6    0.69    0.59
  10  -3  -6    2.68    0.70
  10  -3  -6    3.31    0.55
 -10   3   6    3.05    0.64
  10  -4  -6   28.37    1.36
  10  -4  -6   28.52    1.31
  10  -4  -6   29.48    1.16
  10  -5  -6   -0.26    0.40
  10  -5  -6    0.48    0.67
  10  -5  -6   -0.15    0.57
  10  -6  -6    9.70    0.81
  10  -6  -6   10.06    0.94
  10  -6  -6    8.55    0.90
  10  -7  -6   12.88    1.05
  10  -7  -6   10.45    0.94
  10  -8  -6    0.80    0.64
  10  -8  -6    0.50    0.70
  10  -9  -6   30.43    1.44
  11  -3  -6   -0.06    0.64
 -11   3   6    0.21    0.62
  11  -4  -6    7.22    0.91
  11  -5  -6    7.75    0.99
  11  -5  -6    8.25    0.92
  11  -5  -6    7.43    0.78
  11  -6  -6    0.85    0.50
  11  -6  -6    0.44    0.66
  11  -6  -6    0.42    0.69
  11  -7  -6   15.89    1.14
  11  -7  -6   14.25    0.96
  11  -7  -6   14.97    1.13
  11  -8  -6    1.12    0.72
  11  -8  -6    0.48    0.66
  11  -7   7    0.86    0.60
  11  -7   7   -0.12    0.50
  11  -6   7    5.47    0.77
  11  -6   7    5.90    0.74
  11  -5   7   11.95    0.88
  11  -5   7   13.48    1.05
 -11   4  -7   13.12    1.03
  11  -4   7   13.59    0.94
  11  -4   7   15.57    1.03
  10  -9   7    0.32    0.61
  10  -9   7    1.06    0.62
  10  -8   7    6.28    0.83
  10  -8   7   10.22    0.90
  10  -7   7   19.50    1.02
  10  -7   7   18.44    0.95
  10  -7   7   18.52    1.06
  10  -6   7   22.23    1.17
  10  -6   7   23.66    1.06
  10  -5   7    4.81    0.64
  10  -5   7    7.38    0.83
 -10   4  -7    0.21    0.52
  10  -4   7    0.28    0.49
  10  -4   7   -0.33    0.44
 -10   3  -7    2.41    0.64
  10  -3   7    2.80    0.65
  10  -3   7    2.69    0.62
 -10   2  -7    1.80    0.64
  10  -2   7    0.68    0.51
  10  -2   7    1.37    0.59
 -10   1  -7    2.28    0.67
  10  -1   7    1.89    0.66
  10  -1   7    0.91    0.53
   9 -10   7    2.28    0.67
   9 -10   7    1.16    0.58
   9  -9   7   14.51    0.90
   9  -9   7   17.59    1.07
   9  -8   7   10.28    0.89
   9  -8   7   10.90    0.94
   9  -8   7   11.06    0.89
   9  -7   7    1.05    0.50
   9  -7   7    1.38    0.53
   9  -7   7    0.37    0.41
   9  -6   7    1.06    0.47
   9  -6   7    0.88    0.49
   9  -6   7    0.24    0.49
   9  -5   7    1.44    0.49
   9  -5   7    0.83    0.43
   9  -5   7    1.39    0.46
   9  -4   7    0.00    0.41
   9  -4   7   -0.45    0.43
  -9   3  -7    1.75    0.53
   9  -3   7    2.17    0.59
   9  -3   7    1.39    0.48
  -9   2  -7   28.73    1.28
   9  -2   7   30.50    1.18
   9  -2   7   31.42    1.31
  -9   1  -7    8.33    0.87
   9  -1   7   11.37    0.96
   9  -1   7    9.97    0.84
  -9   0  -7   15.24    1.00
  -9   0  -7   17.27    1.10
   9   0   7   17.70    1.10
   9   0   7   14.23    0.91
  -9  -1  -7    1.44    0.64
  -9  -1  -7    1.41    0.66
   9   1   7   -0.81    0.50
   9   1   7    0.28    0.56
   8 -10   7    1.30    0.55
   8 -10   7    1.24    0.61
   8  -9   7   10.67    0.92
   8  -9   7    9.49    0.80
   8  -8   7    4.06    0.63
   8  -8   7    4.35    0.67
   8  -8   7    4.84    0.62
   8  -7   7   29.02    1.15
   8  -7   7   27.82    1.15
   8  -7   7   27.72    1.13
   8  -6   7    0.62    0.48
   8  -6   7   -0.11    0.41
   8  -6   7   -0.12    0.49
   8  -5   7    1.51    0.49
   8  -5   7    0.52    0.46
   8  -5   7    0.87    0.41
   8  -4   7   76.38    1.95
   8  -4   7   75.49    1.72
   8  -4   7   76.74    1.83
  -8   3  -7   20.08    1.00
   8  -3   7   21.49    1.02
   8  -3   7   20.00    0.92
  -8   2  -7   28.17    1.15
   8  -2   7   24.42    1.11
   8  -2   7   28.43    1.07
  -8   1  -7    0.87    0.51
   8  -1   7    1.35    0.52
   8  -1   7   -0.04    0.43
  -8   0  -7    4.57    0.69
   8   0   7    4.59    0.71
   8   0   7    5.44    0.64
  -8  -1  -7   11.65    0.91
  -8  -1  -7   11.83    1.00
   8   1   7   11.75    0.86
   8   1   7   10.28    0.92
  -8  -2  -7    9.36    0.89
  -8  -2  -7   11.34    1.04
   8   2   7    9.05    0.92
   8   2   7    8.60    0.84
   7 -11   7   14.36    1.03
   7 -11   7   11.91    0.86
   7 -10   7    3.18    0.62
   7 -10   7    2.83    0.70
   7  -9   7   30.41    1.19
   7  -9   7   27.40    1.17
   7  -8   7    1.26    0.56
   7  -8   7    0.63    0.47
   7  -7   7    9.54    0.81
   7  -7   7    9.21    0.78
   7  -7   7    8.22    0.73
   7  -6   7   67.33    1.55
   7  -6   7   67.59    1.74
   7  -6   7   70.01    1.80
   7  -6   7   66.47    1.71
   7  -5   7   19.32    0.86
   7  -5   7   19.87    0.91
   7  -5   7   19.93    0.83
   7  -5   7   19.89    0.92
   7  -4   7    4.41    0.50
   7  -4   7    5.24    0.52
   7  -4   7    4.62    0.57
   7  -3   7    0.02    0.34
   7  -3   7    0.65    0.42
   7  -3   7    0.23    0.41
  -7   2  -7    5.41    0.61
   7  -2   7    5.39    0.60
   7  -2   7    5.65    0.65
  -7   1  -7   11.19    0.88
   7  -1   7   11.03    0.73
   7  -1   7   10.62    0.84
  -7   0  -7   10.53    0.88
   7   0   7    7.01    0.67
   7   0   7    9.54    0.81
  -7  -1  -7   27.13    1.20
  -7  -1  -7   30.12    1.18
   7   1   7   29.56    1.25
   7   1   7   27.72    1.09
  -7  -2  -7    0.80    0.53
  -7  -2  -7    0.90    0.58
   7   2   7    1.36    0.56
   7   2   7    0.33    0.44
  -7  -3  -7   18.90    1.16
  -7  -3  -7   19.53    1.07
   7   3   7   20.67    1.04
   7   3   7   17.81    1.12
  -7  -4  -7    1.13    0.61
  -7  -4  -7    0.00    0.54
   7   4   7    1.32    0.55
   7   4   7    0.47    0.59
   6 -11   7   14.00    0.96
   6 -10   7    0.37    0.50
   6 -10   7    0.88    0.50
   6  -9   7    1.70    0.60
   6  -9   7    1.88    0.54
   6  -8   7   27.78    1.12
   6  -8   7   26.55    1.10
   6  -7   7   10.37    0.76
   6  -7   7    9.97    0.78
   6  -7   7   12.64    0.86
   6  -6   7   -0.45    0.30
   6  -6   7    0.16    0.37
   6  -6   7    0.69    0.42
   6  -6   7   -0.33    0.42
   6  -5   7    4.35    0.44
   6  -5   7    3.04    0.46
   6  -5   7    2.80    0.47
   6  -5   7    3.15    0.49
   6  -4   7   44.23    1.17
   6  -4   7   46.29    1.20
   6  -4   7   44.33    1.23
   6  -4   7   45.31    1.28
   6  -3   7   -0.81    0.28
   6  -3   7    0.38    0.32
   6  -3   7    0.27    0.32
  -6   2  -7    1.21    0.42
   6  -2   7    1.56    0.41
   6  -2   7    1.10    0.30
   6  -2   7    1.29    0.39
  -6   1  -7   84.21    1.99
   6  -1   7   85.22    2.00
   6  -1   7   83.56    1.88
  -6   0  -7   -0.01    0.38
   6   0   7    0.51    0.37
   6   0   7    0.09    0.37
  -6  -1  -7   66.91    1.83
  -6  -1  -7   68.72    1.69
   6   1   7   68.59    1.73
   6   1   7   67.91    1.85
  -6  -2  -7    0.11    0.49
  -6  -2  -7    0.74    0.49
   6   2   7    0.45    0.50
   6   2   7    0.94    0.49
  -6  -3  -7    1.57    0.51
  -6  -3  -7    0.65    0.57
   6   3   7    0.86    0.46
   6   3   7    0.81    0.50
  -6  -4  -7   22.38    1.16
  -6  -4  -7   25.75    1.13
   6   4   7   22.10    1.22
   6   4   7   24.07    1.08
  -6  -5  -7    5.46    0.86
   6   5   7    6.17    0.84
   6   5   7    4.96    0.69
   5 -11   7    6.05    0.76
   5 -10   7    5.71    0.72
   5  -9   7    0.21    0.45
   5  -8   7   22.16    1.01
   5  -8   7   21.11    1.08
   5  -7   7    6.56    0.69
   5  -7   7    5.19    0.60
   5  -6   7   84.54    1.91
   5  -6   7   84.31    1.64
   5  -6   7   86.00    1.91
   5  -6   7   84.23    1.93
   5  -5   7    3.86    0.49
   5  -5   7    4.13    0.48
   5  -5   7    3.89    0.37
   5  -5   7    4.50    0.49
   5  -4   7    2.76    0.41
   5  -4   7    3.71    0.45
   5  -4   7    3.16    0.41
   5  -4   7    3.30    0.37
   5  -3   7  172.71    3.10
   5  -3   7  171.04    3.03
   5  -3   7  168.40    3.13
   5  -3   7  169.36    3.05
   5  -2   7    0.47    0.25
   5  -2   7    0.26    0.27
   5  -2   7    0.04    0.28
  -5   1  -7  110.51    2.32
   5  -1   7  113.78    2.25
   5  -1   7  110.80    2.30
  -5   0  -7    3.62    0.50
   5   0   7    4.34    0.53
   5   0   7    4.30    0.49
  -5  -1  -7    3.45    0.53
   5   1   7    3.10    0.54
   5   1   7    2.96    0.47
  -5  -2  -7   19.92    0.86
  -5  -2  -7   20.31    0.99
   5   2   7   20.93    0.99
   5   2   7   19.44    0.85
  -5  -3  -7    1.16    0.51
  -5  -3  -7    0.51    0.56
   5   3   7    0.77    0.46
   5   3   7    0.78    0.48
  -5  -4  -7    0.96    0.51
  -5  -4  -7    0.55    0.56
   5   4   7    1.68    0.58
   5   4   7    0.53    0.45
  -5  -5  -7    5.69    0.70
  -5  -5  -7    6.94    0.83
   5   5   7    5.94    0.64
   5   5   7    6.11    0.79
  -5  -6  -7   16.87    1.16
   5   6   7   12.37    1.07
   5   6   7   15.13    0.90
  -4  11  -7    1.26    0.63
   4 -11   7    0.83    0.55
   4 -10   7   24.08    1.12
   4  -9   7    1.72    0.49
   4  -8   7   76.03    1.89
   4  -7   7    0.58    0.43
   4  -6   7    1.52    0.42
   4  -6   7    1.80    0.46
   4  -5   7  108.97    2.24
   4  -5   7  112.22    2.01
   4  -5   7  112.17    2.23
   4  -5   7  115.56    2.23
   4  -4   7    0.99    0.31
   4  -4   7    0.54    0.32
   4  -4   7    0.62    0.31
   4  -4   7    0.69    0.24
   4  -3   7   54.85    1.28
   4  -3   7   53.12    1.18
   4  -3   7   53.63    1.24
   4  -3   7   54.05    1.21
   4  -2   7   26.24    0.78
   4  -2   7   27.18    0.78
   4  -2   7   26.54    0.86
  -4   1  -7   62.29    1.46
   4  -1   7   61.31    1.43
   4  -1   7   64.15    1.38
  -4   0  -7    1.22    0.34
   4   0   7    0.81    0.29
   4   0   7    0.93    0.33
  -4  -1  -7    3.12    0.47
   4   1   7    2.82    0.45
   4   1   7    3.79    0.42
  -4  -2  -7   45.99    1.38
  -4  -2  -7   45.25    1.18
   4   2   7   44.15    1.33
   4   2   7   46.79    1.25
  -4  -3  -7    4.26    0.54
  -4  -3  -7    4.27    0.62
   4   3   7    4.94    0.55
   4   3   7    5.62    0.65
  -4  -4  -7   76.82    2.03
  -4  -4  -7   78.92    1.80
   4   4   7   76.69    1.82
   4   4   7   73.81    1.99
  -4  -5  -7    0.17    0.46
  -4  -5  -7    1.13    0.56
   4   5   7    0.28    0.41
   4   5   7    0.86    0.52
  -4  -6  -7    1.02    0.57
   4   6   7    0.33    0.54
   4   6   7    0.84    0.46
  -4  -7  -7   15.14    1.06
   4   7   7   13.01    1.00
  -3  10  -7   20.35    1.12
   3 -10   7   20.23    1.08
  -3   9  -7   -0.05    0.48
   3  -9   7    1.94    0.53
   3  -8   7    1.41    0.49
   3  -7   7    3.82    0.57
   3  -6   7    0.20    0.33
   3  -5   7    0.56    0.17
   3  -5   7    0.36    0.29
   3  -4   7   60.99    1.18
   3  -4   7   61.76    1.32
   3  -4   7   60.15    1.34
   3  -3   7  228.99    3.85
   3  -3   7  229.05    3.85
   3  -3   7  230.93    3.87
   3  -2   7    7.38    0.40
   3  -2   7    9.13    0.52
   3  -2   7    8.98    0.44
  -3   1  -7   26.26    0.80
   3  -1   7   25.73    0.72
  -3   0  -7  227.48    3.96
   3   0   7  224.26    3.88
  -3  -1  -7   55.71    1.36
   3   1   7   54.75    1.33
   3   1   7   52.19    1.24
  -3  -2  -7  170.47    2.94
  -3  -2  -7  170.54    3.25
   3   2   7  169.06    3.17
   3   2   7  168.53    3.13
  -3  -3  -7    0.39    0.32
  -3  -3  -7   -0.33    0.35
   3   3   7    0.17    0.35
   3   3   7    0.07    0.31
  -3  -4  -7    0.30    0.37
  -3  -4  -7    0.30    0.45
   3   4   7    0.56    0.40
   3   4   7    0.45    0.37
  -3  -5  -7   21.55    0.90
  -3  -5  -7   20.18    1.14
   3   5   7   20.07    0.89
   3   5   7   21.07    1.03
  -3  -6  -7    1.71    0.60
   3   6   7    1.55    0.54
   3   6   7    2.26    0.49
  -3  -7  -7    4.70    0.79
   3   7   7    3.28    0.67
  -2  10  -7    9.62    0.89
   2 -10   7    7.70    0.84
  -2   9  -7    1.21    0.51
   2  -9   7    0.70    0.50
  -2   8  -7    1.35    0.51
   2  -8   7    0.87    0.46
   2  -7   7   19.12    0.93
   2  -6   7   44.22    1.23
   2  -5   7  170.24    3.11
   2  -4   7   26.55    0.83
   2  -4   7   26.96    0.60
   2  -3   7   27.29    0.72
   2  -3   7   25.62    0.73
   2  -3   7   26.86    0.63
   2  -2   7   80.34    1.51
   2  -2   7   79.57    1.50
   2  -2   7   81.26    1.51
  -2   1  -7   32.11    0.82
  -2   1  -7   32.14    0.73
   2  -1   7   31.68    0.73
   2  -1   7   32.43    0.80
   2  -1   7   32.43    0.81
  -2   0  -7   84.38    1.47
  -2   0  -7   83.86    1.67
   2   0   7   81.13    1.62
   2   0   7   82.00    1.62
  -2  -1  -7    8.26    0.57
   2   1   7    8.95    0.56
   2   1   7    8.56    0.49
  -2  -2  -7   26.50    0.68
  -2  -2  -7   24.98    0.87
   2   2   7   27.10    0.81
   2   2   7   25.75    0.88
  -2  -3  -7    0.19    0.27
  -2  -3  -7    0.57    0.39
   2   3   7   -0.11    0.32
   2   3   7    0.74    0.30
  -2  -4  -7    1.40    0.46
  -2  -4  -7    2.03    0.37
   2   4   7    1.69    0.43
   2   4   7    1.57    0.37
  -2  -5  -7    6.57    0.54
  -2  -5  -7    4.66    0.65
   2   5   7    5.80    0.64
   2   5   7    5.26    0.53
  -2  -6  -7   30.25    1.03
  -2  -6  -7   26.47    1.18
   2   6   7   27.17    1.16
   2   6   7   27.99    1.01
  -2  -7  -7   32.05    1.31
   2   7   7   29.80    1.25
  -2  -8  -7    1.59    0.69
   2   8   7    0.62    0.60
  -1  10  -7   -0.37    0.51
  -1  10  -7    0.86    0.53
   1 -10   7    1.03    0.57
  -1   9  -7   12.12    0.89
   1  -9   7   10.55    0.81
  -1   8  -7   30.25    1.17
   1  -8   7   29.79    1.19
  -1   7  -7   69.68    1.69
   1  -7   7   70.35    1.76
  -1   6  -7    3.68    0.45
   1  -6   7    2.69    0.47
   1  -5   7    2.94    0.44
  -1   4  -7   54.36    0.99
   1  -4   7   53.32    1.27
  -1   3  -7    8.14    0.35
   1  -3   7    8.74    0.46
  -1   2  -7   34.00    0.83
   1  -2   7   31.42    0.75
   1  -2   7   31.84    0.79
   1  -2   7   32.83    0.71
  -1   1  -7   58.42    1.11
  -1   1  -7   55.57    1.14
   1  -1   7   57.09    1.16
   1  -1   7   58.37    1.08
   1  -1   7   54.48    1.07
  -1   0  -7   58.22    1.13
  -1   0  -7   55.85    1.17
   1   0   7   57.14    1.18
   1   0   7   56.39    1.13
   1   0   7   56.68    1.01
  -1  -1  -7   32.81    0.71
  -1  -1  -7   33.14    0.89
   1   1   7   32.90    0.84
   1   1   7   30.77    0.81
  -1  -2  -7   26.07    0.83
  -1  -2  -7   26.46    0.59
  -1  -2  -7   26.81    0.63
   1   2   7   26.03    0.82
   1   2   7   27.07    0.78
  -1  -3  -7   62.46    1.17
  -1  -3  -7   59.16    1.15
  -1  -3  -7   61.14    1.45
   1   3   7   62.67    1.37
   1   3   7   61.77    1.41
  -1  -4  -7  115.64    2.03
  -1  -4  -7  112.02    2.37
  -1  -4  -7  114.94    2.03
   1   4   7  112.46    2.30
   1   4   7  114.63    2.25
  -1  -5  -7   84.39    1.99
  -1  -5  -7   86.72    1.67
   1   5   7   84.23    1.82
   1   5   7   79.68    1.91
  -1  -6  -7   10.02    0.65
  -1  -6  -7   12.46    0.93
   1   6   7   10.19    0.68
   1   6   7   11.22    0.87
  -1  -7  -7    0.96    0.59
   1   7   7    0.97    0.44
   1   7   7    0.19    0.52
  -1  -8  -7   11.23    0.95
   1   8   7   10.51    0.96
  -1  -9  -7    1.05    0.73
   1   9   7    2.10    0.64
   0   9  -7   15.24    0.95
   0   9  -7   17.66    1.02
   0  -9   7   17.93    1.05
   0   8  -7    5.43    0.65
   0   8  -7    5.29    0.63
   0  -8   7    5.16    0.66
   0   7  -7    9.15    0.74
   0   7  -7    9.98    0.76
   0  -7   7    9.56    0.80
   0   6  -7    0.00    0.34
   0   6  -7    0.30    0.38
   0  -6   7    0.30    0.43
   0   5  -7    3.69    0.26
   0   5  -7    4.08    0.41
   0   5  -7    3.81    0.46
   0  -5   7    3.90    0.51
   0   4  -7    0.91    0.32
   0   4  -7    1.00    0.25
   0   4  -7    0.45    0.22
   0  -4   7    1.38    0.36
   0   3  -7  227.43    3.92
   0   3  -7  227.35    3.78
   0  -3   7  229.23    3.87
   0   2  -7   82.63    1.52
   0   2  -7   80.05    1.58
   0  -2   7   80.36    1.54
   0   1  -7   56.49    1.00
   0   1  -7   56.42    1.18
   0   1  -7   56.04    1.17
   0  -1   7   57.51    0.96
   0  -1   7   54.19    1.09
   0   0  -7   -0.41    0.26
   0   0  -7   -0.52    0.21
   0   0  -7   -0.18    0.26
   0   0   7    0.09    0.25
   0   0   7    0.09    0.17
   0   0   7   -0.27    0.17
   0  -1  -7   57.55    1.14
   0  -1  -7   53.77    1.14
   0   1   7   56.69    1.11
   0   1   7   54.84    1.21
   0  -2  -7   82.99    1.53
   0  -2  -7   82.48    1.67
   0   2   7   81.37    1.66
   0   2   7   84.86    1.58
   0  -3  -7  225.95    3.53
   0  -3  -7  228.07    3.94
   0  -3  -7  229.04    3.76
   0   3   7  223.82    3.82
   0   3   7  222.59    3.93
   0  -4  -7    0.94    0.37
   0  -4  -7    0.85    0.31
   0  -4  -7    0.89    0.20
   0   4   7    0.69    0.32
   0   4   7    0.61    0.29
   0  -5  -7    4.92    0.36
   0  -5  -7    3.51    0.51
   0  -5  -7    3.20    0.40
   0   5   7    4.52    0.50
   0   5   7    3.86    0.44
   0  -6  -7    0.29    0.30
   0  -6  -7   -0.43    0.38
   0  -6  -7    0.88    0.50
   0   6   7   -0.05    0.34
   0   6   7    0.61    0.41
   0  -7  -7    9.31    0.61
   0  -7  -7    8.41    0.81
   0   7   7   11.80    0.90
   0   7   7    9.06    0.73
   0  -8  -7    6.19    0.80
   0   8   7    5.82    0.70
   0  -9  -7   15.30    1.04
   0   9   7   16.06    1.07
   1   9  -7    2.05    0.58
  -1  -9   7    2.14    0.65
   1   8  -7   10.39    0.84
   1   8  -7   10.71    0.85
  -1  -8   7   10.59    0.88
   1   7  -7    0.01    0.41
   1   7  -7    1.22    0.48
  -1  -7   7    1.29    0.54
   1   6  -7   10.83    0.73
   1   6  -7   11.65    0.81
  -1  -6   7   10.59    0.84
   1   5  -7   83.55    1.78
   1   5  -7   86.89    1.64
   1   5  -7   88.80    1.89
  -1  -5   7   89.47    2.00
  -1  -5   7   84.54    1.66
   1   4  -7  112.84    2.24
   1   4  -7  112.45    2.10
   1   4  -7  114.07    2.07
  -1  -4   7  116.04    2.00
  -1  -4   7  114.91    2.30
   1   3  -7   61.02    1.27
   1   3  -7   60.99    1.38
   1   3  -7   61.90    1.21
  -1  -3   7   60.35    1.38
  -1  -3   7   63.79    1.11
   1   2  -7   27.18    0.81
   1   2  -7   26.95    0.59
   1   2  -7   26.70    0.73
  -1  -2   7   27.40    0.79
   1   1  -7   32.05    0.80
   1   1  -7   32.66    0.87
  -1  -1   7   31.97    0.78
   1   0  -7   54.76    0.99
   1   0  -7   55.57    1.19
   1   0  -7   56.92    1.20
  -1   0   7   57.69    1.06
   1  -1  -7   55.65    1.16
   1  -1  -7   56.13    1.10
  -1   1   7   55.05    0.97
  -1   1   7   56.98    1.01
   1  -2  -7   31.31    0.80
   1  -2  -7   31.15    0.87
   1  -2  -7   31.58    0.78
  -1   2   7   31.18    0.73
   1  -3  -7    8.34    0.50
   1  -3  -7    7.98    0.49
   1  -3  -7    8.75    0.26
   1  -3  -7    7.81    0.49
  -1   3   7    8.49    0.44
  -1   3   7    8.62    0.52
   1  -4  -7   53.32    1.21
   1  -4  -7   52.78    1.26
   1  -4  -7   52.41    0.97
   1  -4  -7   53.86    1.31
  -1   4   7   51.65    1.23
  -1   4   7   51.59    1.21
   1  -5  -7    3.06    0.29
   1  -5  -7    3.09    0.42
   1  -5  -7    3.96    0.51
   1  -5  -7    3.43    0.45
  -1   5   7    4.21    0.47
  -1   5   7    3.76    0.43
   1  -6  -7    3.26    0.46
   1  -6  -7    3.84    0.36
   1  -6  -7    3.96    0.50
   1  -6  -7    3.87    0.55
  -1   6   7    2.96    0.50
  -1   6   7    3.03    0.44
   1  -7  -7   72.65    1.91
   1  -7  -7   72.49    1.74
   1  -7  -7   70.72    1.52
   1  -7  -7   70.83    1.67
  -1   7   7   70.58    1.81
  -1   7   7   73.26    1.68
   1  -8  -7   30.82    1.30
   1  -8  -7   30.35    1.09
  -1   8   7   29.55    1.19
   1  -9  -7   12.95    1.05
  -1   9   7   12.29    1.00
   1 -10  -7    0.98    0.69
  -1  10   7    1.21    0.60
  -2  -8   7    0.50    0.58
   2   7  -7   30.37    1.19
   2   7  -7   32.04    1.19
  -2  -7   7   31.78    1.26
   2   6  -7   28.69    1.09
   2   6  -7   26.98    1.04
  -2  -6   7   25.55    1.08
   2   5  -7    6.03    0.54
   2   5  -7    5.42    0.57
  -2  -5   7    6.33    0.67
   2   4  -7    0.97    0.36
   2   4  -7    1.31    0.33
   2   4  -7    1.17    0.39
  -2  -4   7    1.64    0.45
  -2  -4   7    1.35    0.27
   2   3  -7    0.67    0.33
   2   3  -7    0.41    0.33
   2   3  -7   -0.02    0.23
  -2  -3   7    0.69    0.19
  -2  -3   7    0.73    0.33
   2   2  -7   26.93    0.85
   2   2  -7   28.12    0.66
   2   2  -7   27.27    0.81
  -2  -2   7   26.04    0.81
  -2  -2   7   27.08    0.55
   2   1  -7    9.27    0.53
   2   1  -7    8.23    0.54
   2   1  -7    8.68    0.29
  -2  -1   7    8.28    0.48
   2   0  -7   83.87    1.64
   2   0  -7   82.71    1.63
  -2   0   7   79.84    1.51
   2  -1  -7   31.41    0.86
   2  -1  -7   31.74    0.86
  -2   1   7   32.31    0.71
   2  -2  -7   81.89    1.63
   2  -2  -7   84.01    1.68
   2  -2  -7   81.00    1.54
   2  -3  -7   26.16    0.81
   2  -3  -7   26.82    0.76
   2  -3  -7   26.26    0.80
  -2   3   7   26.81    0.71
   2  -4  -7   27.16    0.87
   2  -4  -7   25.64    0.60
   2  -4  -7   27.29    0.83
   2  -4  -7   27.63    0.87
  -2   4   7   27.87    0.79
   2  -5  -7  172.00    3.17
   2  -5  -7  169.33    2.81
   2  -5  -7  172.24    3.12
   2  -5  -7  169.52    3.16
  -2   5   7  168.77    3.06
   2  -6  -7   45.29    1.01
   2  -6  -7   45.55    1.25
   2  -6  -7   48.95    1.37
   2  -6  -7   45.34    1.22
  -2   6   7   45.97    1.26
   2  -7  -7   20.24    0.98
   2  -7  -7   19.93    0.69
   2  -7  -7   22.12    0.99
   2  -7  -7   20.80    0.87
  -2   7   7   22.62    1.03
   2  -8  -7    0.84    0.53
   2  -8  -7    0.26    0.54
  -2   8   7    1.35    0.50
   2  -9  -7    0.30    0.50
   2  -9  -7    1.79    0.62
  -2   9   7    1.32    0.52
   2 -10  -7    9.71    0.97
  -2  10   7    8.16    0.90
  -3  -7   7    2.67    0.67
   3   6  -7    1.84    0.55
   3   6  -7    2.37    0.49
  -3  -6   7    2.44    0.59
   3   5  -7   21.93    0.95
   3   5  -7   20.64    0.95
  -3  -5   7   21.28    1.05
   3   4  -7    0.34    0.42
   3   4  -7    0.70    0.44
   3   4  -7    0.27    0.33
  -3  -4   7    1.00    0.48
   3   3  -7    0.33    0.37
   3   3  -7   -0.05    0.25
   3   3  -7   -0.44    0.37
  -3  -3   7    0.37    0.40
  -3  -3   7    0.27    0.24
   3   2  -7  165.84    3.10
   3   2  -7  168.68    2.86
   3   2  -7  170.59    3.12
  -3  -2   7  173.27    2.83
  -3  -2   7  166.63    3.08
   3   1  -7   52.93    1.02
   3   1  -7   53.08    1.27
   3   1  -7   53.08    1.29
  -3  -1   7   54.21    1.03
  -3  -1   7   52.69    1.24
   3   0  -7  223.12    3.86
   3   0  -7  222.67    3.91
   3   0  -7  222.83    3.50
  -3   0   7  220.36    3.72
   3  -1  -7   26.91    0.59
   3  -1  -7   26.63    0.83
   3  -1  -7   27.30    0.84
  -3   1   7   26.46    0.74
   3  -2  -7    9.24    0.60
   3  -2  -7    9.71    0.54
   3  -3  -7  225.06    3.89
   3  -3  -7  223.57    3.95
   3  -4  -7   61.04    1.41
   3  -4  -7   61.30    1.37
   3  -4  -7   61.71    1.44
   3  -5  -7    0.54    0.42
   3  -5  -7   -0.10    0.31
   3  -5  -7    0.49    0.21
   3  -5  -7    0.63    0.34
  -3   5   7    0.33    0.32
   3  -6  -7    0.74    0.36
   3  -6  -7    0.32    0.38
   3  -6  -7    0.35    0.44
   3  -6  -7   -0.22    0.21
  -3   6   7    0.19    0.36
   3  -7  -7    5.66    0.66
   3  -7  -7    4.87    0.65
   3  -7  -7    4.84    0.54
   3  -7  -7    4.53    0.41
  -3   7   7    3.19    0.54
   3  -8  -7    0.85    0.37
   3  -8  -7    0.57    0.58
   3  -8  -7    2.28    0.60
  -3   8   7    0.84    0.47
   3  -9  -7   -0.25    0.52
   3  -9  -7    0.35    0.57
  -3   9   7    0.57    0.52
   3 -10  -7   21.87    1.14
   3 -10  -7   18.49    1.09
  -3  10   7   20.32    1.08
  -4  -7   7   13.49    1.01
  -4  -6   7    0.83    0.57
  -4  -5   7   -0.30    0.49
   4   4  -7   81.17    1.91
   4   4  -7   81.09    1.86
   4   4  -7   80.21    1.81
  -4  -4   7   77.90    2.00
   4   3  -7    4.59    0.57
   4   3  -7    5.48    0.60
   4   3  -7    5.14    0.49
  -4  -3   7    4.25    0.56
   4   2  -7   47.38    1.24
   4   2  -7   44.63    1.08
   4   2  -7   44.54    1.28
  -4  -2   7   44.04    1.03
  -4  -2   7   45.38    1.27
   4   1  -7    3.04    0.31
   4   1  -7    3.92    0.47
   4   1  -7    3.54    0.52
  -4  -1   7    2.52    0.44
  -4  -1   7    3.52    0.33
   4   0  -7    0.47    0.19
   4   0  -7    0.37    0.41
   4   0  -7    0.76    0.35
  -4   0   7    1.19    0.35
   4  -1  -7   60.31    1.45
   4  -1  -7   60.70    1.16
   4  -1  -7   61.27    1.40
  -4   1   7   60.75    1.32
   4  -2  -7   24.83    0.83
   4  -2  -7   26.54    0.89
   4  -2  -7   26.75    0.68
   4  -3  -7   52.69    1.29
   4  -3  -7   53.90    1.30
   4  -4  -7    0.81    0.42
   4  -4  -7    0.86    0.37
   4  -5  -7  114.05    2.30
   4  -5  -7  116.17    2.37
   4  -6  -7    0.65    0.30
   4  -6  -7    0.70    0.51
   4  -6  -7    0.70    0.40
   4  -7  -7   -0.08    0.55
   4  -7  -7    0.30    0.39
   4  -7  -7    0.97    0.32
  -4   7   7    0.69    0.41
   4  -8  -7   82.40    2.04
   4  -8  -7   77.10    1.98
   4  -8  -7   79.91    1.67
  -4   8   7   78.55    1.96
   4  -9  -7    1.51    0.61
  -4   9   7    2.51    0.59
   4 -10  -7   27.02    1.26
  -4  10   7   22.98    1.19
   4 -11  -7    1.00    0.65
  -4  11   7    1.13    0.64
  -5  -6   7   13.62    0.96
  -5  -5   7    6.65    0.78
   5   4  -7    1.15    0.53
  -5  -4   7    1.47    0.57
   5   3  -7    1.23    0.55
   5   3  -7    0.77    0.37
   5   3  -7    1.78    0.53
  -5  -3   7    0.73    0.49
   5   2  -7   20.74    0.99
   5   2  -7   22.07    0.96
   5   2  -7   19.81    0.79
  -5  -2   7   20.00    0.97
   5   1  -7    2.91    0.35
   5   1  -7    3.71    0.52
   5   1  -7    3.40    0.59
  -5  -1   7    3.57    0.40
  -5  -1   7    2.37    0.50
   5   0  -7    4.46    0.50
   5   0  -7    3.54    0.55
   5   0  -7    4.14    0.36
  -5   0   7    3.64    0.50
   5  -1  -7  113.69    2.36
   5  -1  -7  114.41    2.26
   5  -1  -7  109.55    2.01
  -5   1   7  111.01    2.20
   5  -2  -7    1.07    0.45
   5  -2  -7    0.03    0.21
   5  -2  -7    0.67    0.40
   5  -3  -7  170.18    3.27
   5  -3  -7  175.62    2.98
   5  -3  -7  169.32    3.19
   5  -4  -7    3.28    0.50
   5  -4  -7    3.09    0.49
   5  -5  -7    3.63    0.53
   5  -5  -7    4.22    0.55
   5  -6  -7   84.93    2.00
   5  -6  -7   81.21    1.84
   5  -7  -7    6.50    0.51
   5  -7  -7    3.79    0.57
   5  -7  -7    5.71    0.75
   5  -8  -7   20.37    0.81
   5  -8  -7   20.49    1.06
   5  -8  -7   20.91    0.94
   5  -9  -7    0.42    0.57
  -5   9   7    0.14    0.50
   5 -10  -7    5.94    0.81
  -5  10   7    7.07    0.82
   5 -11  -7    7.40    0.87
  -5  11   7    5.22    0.77
  -6  -5   7    5.09    0.80
   6   4  -7   24.78    1.08
  -6  -4   7   21.22    1.09
   6   3  -7    1.37    0.56
  -6  -3   7    0.94    0.54
   6   2  -7    0.29    0.59
   6   2  -7    0.30    0.51
  -6  -2   7    0.27    0.48
   6   1  -7   68.47    1.84
   6   1  -7   71.01    1.56
   6   1  -7   69.73    1.71
  -6  -1   7   68.03    1.75
   6   0  -7   -0.24    0.56
   6   0  -7    0.41    0.28
   6   0  -7   -0.02    0.44
  -6   0   7    0.52    0.35
  -6   0   7   -0.16    0.40
   6  -1  -7   83.36    1.67
   6  -1  -7   81.18    1.86
   6  -1  -7   84.73    2.01
  -6   1   7   82.59    1.84
   6  -2  -7    1.45    0.31
   6  -2  -7    1.72    0.50
   6  -2  -7    1.45    0.52
   6  -3  -7    0.20    0.46
   6  -3  -7   -0.20    0.26
   6  -3  -7    0.10    0.45
   6  -4  -7   44.28    1.35
   6  -4  -7   42.59    1.32
   6  -4  -7   45.72    1.15
   6  -5  -7    3.63    0.57
   6  -5  -7    3.86    0.65
   6  -6  -7    0.62    0.58
   6  -6  -7    0.15    0.50
   6  -7  -7   10.00    0.81
   6  -7  -7   10.40    0.90
   6  -8  -7   30.43    1.00
   6  -8  -7   28.78    1.31
   6  -8  -7   26.88    1.09
   6  -9  -7    1.52    0.44
   6  -9  -7    1.92    0.62
   6 -10  -7    0.49    0.62
  -6  10   7    0.41    0.57
   6 -11  -7   15.95    1.12
  -6  11   7   13.37    0.98
  -7  -4   7    1.41    0.59
   7   3  -7   19.20    1.07
  -7  -3   7   17.87    1.02
   7   2  -7    1.07    0.59
  -7  -2   7    1.23    0.57
   7   1  -7   29.01    1.20
  -7  -1   7   28.26    1.19
   7   0  -7   10.36    0.80
   7   0  -7    7.99    0.81
   7   0  -7    9.00    0.65
  -7   0   7    8.33    0.78
   7  -1  -7   10.56    0.65
   7  -1  -7   10.76    0.85
   7  -1  -7   10.68    0.89
  -7   1   7   10.89    0.83
   7  -2  -7    5.85    0.51
   7  -2  -7    4.50    0.64
   7  -2  -7    4.12    0.66
  -7   2   7    3.93    0.56
   7  -3  -7    0.70    0.32
   7  -3  -7    0.64    0.61
   7  -3  -7    0.70    0.54
   7  -4  -7    5.36    0.71
   7  -4  -7    4.04    0.66
   7  -4  -7    4.86    0.50
   7  -5  -7   19.07    1.10
   7  -5  -7   21.25    1.02
   7  -6  -7   68.27    1.84
   7  -6  -7   70.49    1.90
   7  -7  -7    9.32    0.83
   7  -7  -7    7.51    0.87
   7  -8  -7    0.82    0.66
   7  -8  -7    0.05    0.53
   7  -9  -7   29.49    1.33
   7 -10  -7    3.80    0.76
   7 -11  -7   15.35    1.13
  -7  11   7   14.60    1.12
   8   2  -7    7.04    0.86
  -8  -2   7    8.29    0.86
   8   1  -7   11.69    0.97
  -8  -1   7   12.05    0.96
   8   0  -7    5.99    0.80
  -8   0   7    5.23    0.71
   8  -1  -7    0.49    0.60
   8  -1  -7    0.84    0.39
   8  -1  -7    1.04    0.59
  -8   1   7    0.64    0.56
   8  -2  -7   29.20    1.00
   8  -2  -7   27.62    1.25
   8  -2  -7   26.48    1.21
  -8   2   7   26.90    1.14
   8  -3  -7   22.44    0.91
   8  -3  -7   20.17    1.09
   8  -3  -7   20.31    1.11
   8  -4  -7   79.10    1.78
   8  -4  -7   74.57    2.02
   8  -4  -7   73.75    1.95
   8  -5  -7    1.49    0.66
   8  -5  -7    1.71    0.70
   8  -5  -7    1.63    0.47
   8  -6  -7    0.14    0.64
   8  -6  -7    0.67    0.64
   8  -7  -7   28.75    1.23
   8  -7  -7   27.37    1.30
   8  -8  -7    5.40    0.81
   8  -8  -7    4.89    0.71
   8  -9  -7    9.15    0.94
   8 -10  -7    1.41    0.67
   9   1  -7   -0.05    0.68
  -9  -1   7    1.42    0.63
   9   0  -7   14.39    1.03
  -9   0   7   16.15    0.96
   9  -1  -7   10.32    0.94
  -9   1   7    8.64    0.86
   9  -2  -7   30.26    1.26
   9  -2  -7   30.10    1.35
  -9   2   7   27.53    1.15
   9  -3  -7    2.17    0.68
   9  -3  -7    1.94    0.47
   9  -3  -7    1.82    0.64
  -9   3   7    1.81    0.59
   9  -4  -7   -0.92    0.60
   9  -4  -7   -0.45    0.61
   9  -4  -7    0.26    0.38
   9  -5  -7    0.55    0.64
   9  -5  -7    1.91    0.68
   9  -5  -7    0.76    0.41
   9  -6  -7    0.87    0.45
   9  -6  -7    1.68    0.67
   9  -6  -7    0.50    0.62
   9  -7  -7    0.73    0.61
   9  -7  -7    1.34    0.66
   9  -8  -7   10.38    0.91
   9  -8  -7   10.94    0.99
   9  -9  -7   16.95    1.15
   9 -10  -7    1.65    0.71
  10  -1  -7    1.77    0.70
 -10   1   7    1.62    0.63
  10  -2  -7   -0.02    0.67
 -10   2   7    0.74    0.62
  10  -3  -7    3.35    0.74
  10  -3  -7    2.41    0.69
 -10   3   7    2.08    0.62
  10  -4  -7    0.36    0.41
  10  -4  -7   -0.30    0.65
  10  -4  -7   -0.53    0.60
  10  -5  -7    7.01    0.89
  10  -5  -7    4.96    0.80
  10  -5  -7    5.41    0.64
  10  -6  -7   25.56    1.09
  10  -6  -7   23.58    1.22
  10  -6  -7   23.23    1.25
  10  -7  -7   19.11    1.12
  10  -7  -7   21.19    1.23
  10  -8  -7   10.02    1.00
  10  -8  -7    7.87    0.86
  10  -9  -7    0.09    0.62
  10  -9  -7   -0.54    0.70
  11  -4  -7   16.57    1.23
 -11   4   7   14.61    1.06
  11  -5  -7   14.12    1.09
  11  -5  -7   12.79    1.05
  11  -6  -7    6.54    0.89
  11  -6  -7    7.01    0.77
  11  -6  -7    5.50    0.85
  11  -7  -7    0.73    0.72
  11  -7  -7   -1.06    0.59
  11  -7   8   13.72    0.99
  11  -7   8   11.12    0.87
  11  -6   8    0.08    0.52
  11  -6   8   -0.09    0.46
 -11   5  -8    5.00    0.82
  11  -5   8    7.56    0.80
  11  -5   8    6.69    0.88
 -11   4  -8    5.56    0.79
  11  -4   8    5.32    0.76
  11  -4   8    4.61    0.76
  10  -9   8   28.54    1.32
  10  -9   8   25.18    1.16
  10  -9   8   23.90    1.29
  10  -8   8    0.28    0.55
  10  -8   8   -0.46    0.48
  10  -7   8   11.11    0.98
  10  -7   8   11.25    0.82
  10  -7   8   13.34    0.91
  10  -6   8   11.65    0.79
  10  -6   8   10.91    0.98
  10  -5   8    0.23    0.53
  10  -5   8    0.19    0.49
 -10   4  -8   20.37    1.09
  10  -4   8   20.64    1.01
  10  -4   8   21.04    1.11
 -10   3  -8    2.74    0.67
  10  -3   8    3.96    0.71
  10  -3   8    3.59    0.66
 -10   2  -8    0.23    0.58
  10  -2   8   -0.14    0.48
  10  -2   8   -0.29    0.50
 -10   1  -8    0.42    0.58
  10  -1   8   -0.68    0.49
  10  -1   8    0.24    0.54
   9 -10   8    0.25    0.49
   9 -10   8    0.92    0.62
   9  -9   8    2.03    0.64
   9  -9   8    2.07    0.59
   9  -9   8    1.95    0.62
   9  -8   8    1.73    0.53
   9  -8   8    1.06    0.55
   9  -8   8    1.39    0.54
   9  -7   8    3.27    0.61
   9  -7   8    3.20    0.65
   9  -6   8   11.18    0.92
   9  -6   8   10.76    0.83
   9  -6   8   10.49    0.75
   9  -5   8    8.13    0.79
   9  -5   8    8.04    0.68
   9  -4   8   24.79    1.11
   9  -4   8   22.18    0.97
  -9   3  -8    0.85    0.53
   9  -3   8    0.46    0.47
   9  -3   8    0.32    0.46
  -9   2  -8    8.66    0.85
   9  -2   8    9.65    0.90
   9  -2   8    8.27    0.75
  -9   1  -8   10.80    0.96
   9  -1   8   11.16    0.96
   9  -1   8    9.25    0.81
  -9   0  -8    2.09    0.64
  -9   0  -8    3.12    0.70
   9   0   8    2.49    0.63
   9   0   8    1.93    0.65
  -9  -1  -8   26.45    1.37
  -9  -1  -8   28.18    1.27
   9   1   8   24.76    1.22
   9   1   8   25.96    1.29
   8 -10   8   -0.05    0.51
   8 -10   8    0.30    0.60
   8  -9   8    9.61    0.90
   8  -9   8   10.25    0.77
   8  -8   8    0.65    0.50
   8  -8   8    0.46    0.52
   8  -8   8    0.85    0.49
   8  -7   8    8.74    0.78
   8  -7   8    9.16    0.77
   8  -7   8    7.33    0.77
   8  -6   8   41.13    1.29
   8  -6   8   42.52    1.22
   8  -6   8   40.96    1.32
   8  -6   8   40.26    1.43
   8  -5   8    6.18    0.73
   8  -5   8    7.83    0.66
   8  -5   8    7.71    0.67
   8  -4   8   16.61    0.89
   8  -4   8   19.27    0.98
  -8   3  -8   19.06    0.97
   8  -3   8   18.97    0.89
   8  -3   8   19.42    0.99
  -8   2  -8    4.45    0.67
   8  -2   8    3.54    0.55
   8  -2   8    2.96    0.57
  -8   1  -8   62.30    1.85
   8  -1   8   64.78    1.84
   8  -1   8   65.79    1.76
  -8   0  -8    0.57    0.53
   8   0   8    0.18    0.45
   8   0   8    0.20    0.42
  -8  -1  -8    1.62    0.60
  -8  -1  -8    1.15    0.60
   8   1   8    1.80    0.55
   8   1   8    0.84    0.49
  -8  -2  -8    1.46    0.67
  -8  -2  -8    0.47    0.55
   8   2   8    0.12    0.53
   8   2   8    0.37    0.56
   7 -11   8    4.84    0.73
   7 -10   8    3.15    0.63
   7 -10   8    3.36    0.65
   7  -9   8    9.28    0.81
   7  -9   8    9.32    0.89
   7  -8   8   65.19    1.80
   7  -8   8   63.32    1.74
   7  -7   8    8.31    0.75
   7  -7   8    8.26    0.77
   7  -7   8   10.37    0.80
   7  -6   8   13.84    0.85
   7  -6   8   12.73    0.73
   7  -6   8   13.06    0.84
   7  -6   8   14.36    0.80
   7  -5   8    5.54    0.59
   7  -5   8    4.75    0.63
   7  -5   8    5.99    0.55
   7  -5   8    7.07    0.64
   7  -4   8    4.73    0.52
   7  -4   8    3.64    0.50
   7  -4   8    4.29    0.59
   7  -3   8   20.43    0.90
   7  -3   8   21.94    1.02
   7  -3   8   20.27    0.78
  -7   2  -8    1.23    0.45
   7  -2   8    0.33    0.38
   7  -2   8    1.34    0.48
  -7   1  -8    1.08    0.48
   7  -1   8    0.29    0.44
   7  -1   8   -0.09    0.39
  -7   0  -8    9.04    0.85
   7   0   8    8.96    0.75
   7   0   8    8.41    0.78
  -7  -1  -8    9.12    0.78
  -7  -1  -8    8.54    0.86
   7   1   8    7.07    0.78
   7   1   8    7.75    0.72
  -7  -2  -8    2.97    0.61
  -7  -2  -8    3.97    0.71
   7   2   8    3.00    0.62
   7   2   8    2.09    0.52
  -7  -3  -8   12.66    0.88
  -7  -3  -8   12.29    1.05
   7   3   8   11.27    1.00
   7   3   8   10.07    0.78
  -7  -4  -8   16.49    1.14
   7   4   8   15.14    1.13
   7   4   8   15.11    0.98
   6 -11   8    6.83    0.81
   6 -10   8   21.91    1.09
   6  -9   8    1.20    0.50
   6  -8   8    3.53    0.66
   6  -8   8    5.67    0.67
   6  -7   8   -0.30    0.43
   6  -7   8    1.14    0.45
   6  -7   8    0.36    0.49
   6  -6   8   16.39    0.83
   6  -6   8   15.28    0.86
   6  -6   8   14.70    0.84
   6  -6   8   14.94    0.66
   6  -5   8    0.26    0.37
   6  -5   8    0.69    0.43
   6  -5   8    0.65    0.32
   6  -5   8    0.21    0.36
   6  -4   8   22.27    0.94
   6  -4   8   20.40    0.82
   6  -4   8   19.47    0.77
   6  -4   8   19.86    0.86
   6  -3   8   29.21    1.07
   6  -3   8   31.98    0.93
   6  -3   8   30.90    0.95
  -6   2  -8   58.90    1.56
   6  -2   8   62.20    1.29
   6  -2   8   59.76    1.56
   6  -2   8   59.75    1.49
  -6   1  -8   32.23    1.16
   6  -1   8   30.73    1.12
   6  -1   8   31.76    1.08
  -6   0  -8   14.27    0.84
   6   0   8   14.57    0.83
   6   0   8   15.77    0.78
  -6  -1  -8   13.40    0.88
  -6  -1  -8   14.30    0.87
   6   1   8   10.81    0.75
   6   1   8   12.81    0.85
  -6  -2  -8   38.88    1.43
  -6  -2  -8   40.26    1.32
   6   2   8   42.14    1.45
   6   2   8   41.54    1.33
  -6  -3  -8   11.93    0.79
  -6  -3  -8   12.08    0.90
   6   3   8    9.62    0.78
   6   3   8   12.20    1.00
  -6  -4  -8   12.58    1.06
  -6  -4  -8   11.72    0.84
   6   4   8   11.46    0.80
   6   4   8   12.21    0.94
  -6  -5  -8    0.36    0.62
   6   5   8   -0.11    0.60
   6   5   8   -0.42    0.46
   5 -11   8    0.28    0.53
   5 -10   8   -0.23    0.42
   5  -9   8   25.51    1.05
   5  -8   8   19.67    0.97
   5  -7   8    1.68    0.48
   5  -7   8    1.40    0.52
   5  -6   8   32.65    1.11
   5  -6   8   29.97    1.05
   5  -6   8   35.34    1.12
   5  -5   8   78.17    1.55
   5  -5   8   71.96    1.66
   5  -5   8   74.71    1.72
   5  -5   8   72.36    1.70
   5  -4   8  100.59    2.05
   5  -4   8  102.46    2.13
   5  -4   8  101.55    2.08
   5  -4   8  104.75    2.00
   5  -3   8   58.92    1.43
   5  -3   8   54.63    1.31
   5  -3   8   55.40    1.28
   5  -3   8   57.40    1.32
  -5   2  -8   17.51    0.76
   5  -2   8   16.43    0.76
   5  -2   8   18.69    0.70
  -5   1  -8   52.03    1.38
   5  -1   8   50.40    1.27
  -5   0  -8   74.91    1.82
   5   0   8   73.64    1.69
   5   0   8   72.34    1.79
  -5  -1  -8    1.13    0.48
   5   1   8    1.48    0.42
   5   1   8    0.88    0.41
  -5  -2  -8    5.46    0.60
  -5  -2  -8    5.63    0.72
   5   2   8    6.03    0.61
   5   2   8    6.03    0.67
  -5  -3  -8    7.78    0.82
  -5  -3  -8    7.90    0.70
   5   3   8    8.77    0.72
   5   3   8    7.51    0.81
  -5  -4  -8    9.22    0.90
  -5  -4  -8    8.45    0.72
   5   4   8    8.49    0.88
   5   4   8    8.29    0.70
  -5  -5  -8    0.90    0.58
   5   5   8   -0.20    0.42
   5   5   8    0.17    0.50
  -5  -6  -8    9.01    0.96
   5   6   8    6.52    0.72
   5   6   8    5.72    0.84
  -4  11  -8   15.65    1.11
   4 -11   8   16.69    1.04
   4 -10   8   11.03    0.82
   4  -9   8    8.66    0.78
   4  -8   8   19.42    0.97
   4  -7   8   18.84    0.90
   4  -6   8   63.27    1.56
   4  -5   8   53.48    1.33
   4  -5   8   51.09    1.09
   4  -5   8   51.38    1.28
   4  -4   8    2.19    0.37
   4  -4   8    1.81    0.34
   4  -4   8    2.07    0.29
   4  -3   8   25.40    0.74
   4  -3   8   23.78    0.83
   4  -3   8   25.38    0.80
   4  -2   8   23.66    0.73
   4  -2   8   23.17    0.83
   4  -2   8   23.28    0.75
  -4   1  -8    5.33    0.48
   4  -1   8    5.52    0.44
   4  -1   8    5.68    0.51
  -4   0  -8    2.21    0.42
   4   0   8    1.85    0.37
   4   0   8    2.54    0.38
  -4  -1  -8   99.97    2.21
   4   1   8  100.53    2.09
   4   1   8  103.70    2.20
  -4  -2  -8   21.33    0.81
  -4  -2  -8   20.31    0.93
   4   2   8   20.25    0.86
   4   2   8   21.65    0.95
  -4  -3  -8    4.15    0.61
  -4  -3  -8    4.33    0.52
   4   3   8    3.46    0.49
   4   3   8    4.28    0.62
  -4  -4  -8   19.03    1.11
  -4  -4  -8   19.69    0.85
   4   4   8   17.82    0.85
   4   4   8   20.67    1.05
  -4  -5  -8   26.40    1.20
   4   5   8   25.87    1.03
   4   5   8   25.83    1.23
  -4  -6  -8   24.09    1.26
   4   6   8   23.79    1.04
   4   6   8   25.02    1.26
  -4  -7  -8    6.49    0.91
   4   7   8    4.30    0.77
  -3  10  -8   11.16    0.93
   3 -10   8   13.08    0.93
   3  -9   8   10.83    0.83
   3  -8   8    7.90    0.75
   3  -7   8    3.93    0.54
   3  -6   8   30.67    1.04
   3  -5   8   17.44    0.50
   3  -5   8   17.74    0.76
   3  -4   8    5.81    0.43
   3  -4   8    5.29    0.36
   3  -4   8    6.46    0.46
   3  -3   8   20.12    0.69
   3  -3   8   19.54    0.65
   3  -3   8   19.50    0.59
   3  -2   8    0.48    0.23
   3  -2   8    0.47    0.23
   3  -2   8    0.53    0.23
  -3   1  -8  304.56    4.90
  -3   1  -8  304.86    5.09
   3  -1   8  301.89    5.10
   3  -1   8  295.05    4.84
   3  -1   8  300.01    4.99
  -3   0  -8   20.28    0.51
  -3   0  -8   18.22    0.72
   3   0   8   19.71    0.73
   3   0   8   20.07    0.68
  -3  -1  -8   24.86    0.92
   3   1   8   24.16    0.79
   3   1   8   23.49    0.86
  -3  -2  -8   56.37    1.49
  -3  -2  -8   55.54    1.23
   3   2   8   60.05    1.51
   3   2   8   56.77    1.38
  -3  -3  -8   28.98    0.88
  -3  -3  -8   29.88    1.14
   3   3   8   29.69    0.95
   3   3   8   30.71    1.13
  -3  -4  -8   21.32    0.81
  -3  -4  -8   22.19    1.04
   3   4   8   21.27    0.89
   3   4   8   21.79    0.99
  -3  -5  -8   19.51    0.85
  -3  -5  -8   19.75    1.07
   3   5   8   19.97    1.07
   3   5   8   18.52    0.88
  -3  -6  -8    1.23    0.63
   3   6   8    1.10    0.56
   3   6   8    0.51    0.41
  -3  -7  -8    4.46    0.75
   3   7   8    3.35    0.67
  -2  10  -8    0.19    0.53
   2 -10   8    0.11    0.53
  -2   9  -8    3.38    0.59
   2  -9   8    2.78    0.60
  -2   8  -8   42.17    1.33
   2  -8   8   39.70    1.32
   2  -7   8    7.16    0.69
   2  -6   8   20.92    0.89
   2  -5   8   54.62    1.34
   2  -4   8   23.26    0.58
   2  -4   8   22.84    0.79
   2  -3   8  301.23    4.96
   2  -3   8  309.13    4.91
   2  -3   8  301.10    5.02
   2  -2   8   85.64    1.57
   2  -2   8   82.29    1.58
   2  -2   8   81.88    1.57
  -2   1  -8    5.08    0.39
  -2   1  -8    4.70    0.38
   2  -1   8    4.64    0.35
   2  -1   8    4.61    0.32
   2  -1   8    4.83    0.36
  -2   0  -8   82.55    1.50
  -2   0  -8   83.61    1.67
   2   0   8   82.42    1.64
  -2  -1  -8    0.45    0.29
  -2  -1  -8    0.58    0.18
   2   1   8    0.54    0.28
   2   1   8    0.41    0.23
  -2  -2  -8   22.43    0.63
  -2  -2  -8   23.78    0.87
   2   2   8   23.70    0.86
   2   2   8   24.80    0.78
  -2  -3  -8   18.18    0.83
  -2  -3  -8   17.96    0.61
   2   3   8   17.58    0.79
   2   3   8   17.56    0.73
  -2  -4  -8   63.14    1.34
  -2  -4  -8   58.90    1.61
   2   4   8   61.56    1.60
   2   4   8   61.19    1.49
  -2  -5  -8    1.13    0.39
  -2  -5  -8    0.90    0.55
   2   5   8    0.33    0.44
   2   5   8    0.73    0.40
  -2  -6  -8    3.22    0.66
   2   6   8    3.91    0.54
   2   6   8    3.36    0.61
  -2  -7  -8    9.13    0.90
   2   7   8    9.26    0.87
   2   7   8    9.66    0.72
  -2  -8  -8   -1.01    0.59
   2   8   8    0.89    0.56
  -1  10  -8   27.60    1.19
  -1  10  -8   27.11    1.24
   1 -10   8   26.32    1.22
  -1   9  -8    1.23    0.55
  -1   9  -8    1.54    0.53
   1  -9   8    1.05    0.56
  -1   8  -8    9.17    0.76
   1  -8   8    7.99    0.75
  -1   7  -8   14.34    0.84
   1  -7   8   13.62    0.87
  -1   6  -8    0.93    0.36
   1  -6   8    1.19    0.45
   1  -5   8  100.64    2.08
  -1   4  -8   25.11    0.60
   1  -4   8   25.31    0.81
  -1   3  -8    0.39    0.20
  -1   3  -8    0.32    0.24
   1  -3   8    0.46    0.24
  -1   2  -8    4.80    0.37
   1  -2   8    4.67    0.33
   1  -2   8    5.02    0.33
   1  -2   8    4.76    0.35
  -1   1  -8    1.15    0.26
  -1   1  -8    1.39    0.24
   1  -1   8    1.13    0.20
   1  -1   8    1.09    0.23
   1  -1   8    1.38    0.22
  -1   0  -8    0.91    0.26
  -1   0  -8    1.19    0.25
   1   0   8    1.27    0.27
   1   0   8    1.00    0.17
   1   0   8    1.06    0.23
  -1  -1  -8    5.30    0.43
  -1  -1  -8    4.78    0.38
   1   1   8    4.64    0.36
   1   1   8    4.43    0.37
  -1  -2  -8  300.58    5.07
  -1  -2  -8  297.14    4.62
  -1  -2  -8  297.90    4.80
   1   2   8  293.96    4.92
   1   2   8  298.84    5.08
  -1  -3  -8    6.01    0.35
  -1  -3  -8    6.33    0.53
  -1  -3  -8    5.43    0.36
   1   3   8    5.45    0.48
   1   3   8    5.69    0.47
  -1  -4  -8   52.53    1.08
  -1  -4  -8   52.28    1.40
   1   4   8   51.01    1.26
   1   4   8   50.27    1.34
  -1  -5  -8   32.83    1.19
  -1  -5  -8   34.05    0.90
   1   5   8   33.55    1.19
   1   5   8   34.09    1.05
  -1  -6  -8    0.27    0.55
  -1  -6  -8    0.13    0.34
   1   6   8    0.17    0.39
   1   6   8    0.53    0.44
  -1  -7  -8   67.46    1.93
   1   7   8   61.53    1.84
   1   7   8   67.48    1.67
  -1  -8  -8   10.27    0.94
   1   8   8   10.38    0.96
  -1  -9  -8    0.32    0.70
   1   9   8    0.83    0.63
   0   9  -8    2.14    0.61
   0   9  -8    1.93    0.56
   0  -9   8    2.72    0.65
   0   8  -8    0.04    0.47
   0   8  -8    1.25    0.46
   0  -8   8    0.04    0.48
   0   7  -8    9.63    0.76
   0   7  -8    8.55    0.70
   0  -7   8    8.98    0.80
   0   6  -8   16.30    0.78
   0   6  -8   15.99    0.82
   0  -6   8   14.43    0.85
   0   5  -8   74.06    1.57
   0   5  -8   75.33    1.38
   0   5  -8   73.61    1.69
   0  -5   8   76.92    1.74
   0   4  -8    2.07    0.31
   0   4  -8    2.44    0.36
   0   4  -8    2.33    0.28
   0  -4   8    2.36    0.38
   0   3  -8   21.26    0.60
   0   3  -8   19.59    0.72
   0  -3   8   20.43    0.72
   0   2  -8   83.58    1.66
   0   2  -8   81.58    1.57
   0  -2   8   83.27    1.60
   0   1  -8    1.35    0.18
   0   1  -8    0.80    0.28
   0   1  -8    1.29    0.28
   0  -1   8    1.07    0.14
   0  -1   8    1.08    0.24
   0   0  -8  377.20    5.97
   0   0  -8  374.10    6.23
   0   0  -8  368.68    6.08
   0   0   8  375.60    5.78
   0   0   8  371.81    6.18
   0   0   8  369.39    5.80
   0  -1  -8    0.86    0.26
   0  -1  -8    0.78    0.26
   0   1   8    1.05    0.22
   0   1   8    0.85    0.10
   0   1   8    1.04    0.29
   0  -2  -8   84.42    1.58
   0  -2  -8   82.92    1.69
   0   2   8   83.41    1.70
   0   2   8   87.05    1.63
   0  -3  -8   19.06    0.74
   0  -3  -8   19.56    0.66
   0  -3  -8   19.46    0.42
   0   3   8   20.87    0.74
   0   3   8   20.66    0.69
   0  -4  -8    2.46    0.23
   0  -4  -8    2.02    0.36
   0  -4  -8    1.54    0.38
   0   4   8    1.81    0.38
   0   4   8    2.25    0.38
   0  -5  -8   75.24    1.41
   0  -5  -8   75.30    1.83
   0  -5  -8   71.19    1.53
   0   5   8   75.30    1.76
   0   5   8   75.60    1.69
   0  -6  -8   16.97    0.98
   0  -6  -8   16.01    0.75
   0  -6  -8   15.28    0.61
   0   6   8   14.97    0.82
   0   6   8   13.93    0.82
   0  -7  -8    8.53    0.82
   0   7   8    9.50    0.71
   0   7   8    7.94    0.75
   0  -8  -8    0.53    0.59
   0   8   8    1.02    0.54
   0  -9  -8    4.07    0.79
   0   9   8    2.54    0.68
  -1  -9   8   -0.33    0.55
   1   8  -8   11.36    0.87
   1   8  -8   11.65    0.89
  -1  -8   8   10.67    0.92
   1   7  -8   71.81    1.76
   1   7  -8   69.01    1.78
  -1  -7   8   65.77    1.86
   1   6  -8   -0.23    0.42
   1   6  -8   -0.26    0.35
  -1  -6   8    0.20    0.48
   1   5  -8   34.46    1.01
   1   5  -8   33.60    1.09
  -1  -5   8   32.48    1.10
   1   4  -8   53.11    1.33
   1   4  -8   50.91    1.13
   1   4  -8   50.88    1.14
  -1  -4   8   51.18    1.34
   1   3  -8    5.60    0.40
   1   3  -8    5.12    0.38
   1   3  -8    4.99    0.47
  -1  -3   8    4.29    0.43
   1   2  -8  294.17    5.00
   1   2  -8  294.47    4.60
   1   2  -8  300.82    4.95
  -1  -2   8  292.80    4.85
   1   1  -8    5.21    0.43
   1   1  -8    4.61    0.40
  -1  -1   8    5.22    0.40
   1   0  -8    1.19    0.17
   1   0  -8    1.27    0.31
   1   0  -8    0.85    0.29
  -1   0   8    0.93    0.21
   1  -1  -8    0.56    0.28
   1  -1  -8    1.13    0.23
   1  -1  -8    0.62    0.28
  -1   1   8    0.87    0.16
  -1   1   8    0.99    0.17
   1  -2  -8    4.59    0.40
   1  -2  -8    5.07    0.39
   1  -2  -8    4.96    0.42
  -1   2   8    4.72    0.32
   1  -3  -8    0.31    0.27
   1  -3  -8    0.35    0.29
   1  -3  -8    0.30    0.30
  -1   3   8    0.76    0.27
  -1   3   8    1.05    0.26
   1  -4  -8   24.14    0.83
   1  -4  -8   24.71    0.53
   1  -4  -8   25.58    0.83
   1  -4  -8   25.74    0.91
  -1   4   8   23.42    0.79
  -1   4   8   24.76    0.79
   1  -5  -8  101.58    2.13
   1  -5  -8   99.18    2.13
   1  -5  -8   99.82    1.75
   1  -5  -8  101.00    2.00
  -1   5   8  101.20    2.09
  -1   5   8  101.71    2.07
   1  -6  -8    0.72    0.39
   1  -6  -8    1.07    0.47
   1  -6  -8    0.76    0.44
   1  -6  -8    0.76    0.26
  -1   6   8    1.40    0.44
  -1   6   8    0.82    0.41
   1  -7  -8   13.12    0.91
   1  -7  -8   13.37    0.78
   1  -7  -8   12.99    0.83
  -1   7   8   13.28    0.77
  -1   7   8   14.47    0.87
   1  -8  -8    8.71    0.84
  -1   8   8    7.62    0.80
   1  -9  -8    1.84    0.65
  -1   9   8    1.80    0.63
   1 -10  -8   29.00    1.42
  -1  10   8   27.81    1.29
  -2  -8   8   -0.12    0.55
   2   7  -8    9.27    0.80
  -2  -7   8    9.63    0.85
   2   6  -8    3.84    0.59
   2   6  -8    3.48    0.53
  -2  -6   8    4.04    0.65
   2   5  -8    1.29    0.45
   2   5  -8    0.69    0.36
  -2  -5   8    0.62    0.48
   2   4  -8   62.64    1.38
   2   4  -8   62.25    1.38
   2   4  -8   59.73    1.51
  -2  -4   8   62.75    1.55
   2   3  -8   19.27    0.79
   2   3  -8   18.80    0.62
   2   3  -8   19.27    0.75
  -2  -3   8   17.69    0.47
  -2  -3   8   18.74    0.76
   2   2  -8   23.86    0.77
   2   2  -8   23.17    0.56
   2   2  -8   22.92    0.82
  -2  -2   8   21.32    0.74
   2   1  -8    0.67    0.30
   2   1  -8    0.32    0.29
  -2  -1   8    0.40    0.26
   2   0  -8   82.84    1.66
   2   0  -8   81.81    1.67
  -2   0   8   81.28    1.53
   2  -1  -8    6.17    0.45
   2  -1  -8    4.50    0.41
   2  -1  -8    4.48    0.35
  -2   1   8    4.60    0.25
  -2   1   8    4.45    0.33
   2  -2  -8   83.29    1.67
   2  -2  -8   83.89    1.57
   2  -2  -8   83.36    1.73
  -2   2   8   81.69    1.42
  -2   2   8   81.97    1.46
   2  -3  -8  288.26    5.07
   2  -3  -8  292.65    4.93
   2  -3  -8  298.51    4.91
  -2   3   8  296.54    4.74
   2  -4  -8   23.96    0.53
   2  -4  -8   22.41    0.82
   2  -4  -8   21.90    0.82
   2  -4  -8   22.04    0.79
  -2   4   8   23.23    0.75
   2  -5  -8   55.87    1.08
   2  -5  -8   57.47    1.41
   2  -5  -8   54.65    1.41
   2  -5  -8   57.26    1.41
  -2   5   8   56.76    1.37
   2  -6  -8   20.39    0.84
   2  -6  -8   21.15    0.98
   2  -6  -8   20.82    0.62
   2  -6  -8   19.37    0.88
  -2   6   8   19.32    0.84
   2  -7  -8    6.18    0.69
   2  -7  -8    5.43    0.59
   2  -7  -8    6.06    0.67
   2  -7  -8    6.13    0.46
  -2   7   8    5.79    0.62
   2  -8  -8   43.20    1.35
   2  -8  -8   42.71    1.44
  -2   8   8   39.50    1.40
   2  -9  -8    3.42    0.62
   2  -9  -8    3.16    0.66
  -2   9   8    3.00    0.65
   2 -10  -8   -0.25    0.57
  -2  10   8   -0.84    0.54
  -3  -7   8    4.12    0.73
   3   6  -8    0.36    0.52
  -3  -6   8    0.35    0.51
   3   5  -8   20.39    0.97
   3   5  -8   21.48    0.91
  -3  -5   8   20.64    1.04
   3   4  -8   20.10    0.87
   3   4  -8   20.51    0.78
   3   4  -8   21.62    0.92
  -3  -4   8   18.88    0.89
   3   3  -8   29.67    1.01
   3   3  -8   29.62    0.97
   3   3  -8   28.89    0.82
  -3  -3   8   29.91    1.05
   3   2  -8   55.60    1.13
   3   2  -8   57.21    1.41
   3   2  -8   54.31    1.36
  -3  -2   8   57.00    1.05
  -3  -2   8   53.17    1.36
   3   1  -8   24.24    0.56
   3   1  -8   23.83    0.85
   3   1  -8   24.67    0.88
  -3  -1   8   24.67    0.57
  -3  -1   8   24.13    0.78
   3   0  -8   19.40    0.79
   3   0  -8   20.77    0.78
   3   0  -8   19.83    0.45
  -3   0   8   19.31    0.67
   3  -1  -8  289.02    4.97
   3  -1  -8  296.24    5.07
  -3   1   8  297.66    4.76
   3  -2  -8    0.45    0.29
   3  -2  -8    0.45    0.33
   3  -3  -8   19.29    0.73
   3  -3  -8   20.22    0.66
   3  -3  -8   19.22    0.73
   3  -4  -8    5.49    0.50
   3  -4  -8    5.26    0.46
   3  -4  -8    5.70    0.48
   3  -5  -8   20.12    0.88
   3  -5  -8   17.72    0.77
   3  -5  -8   19.11    0.80
   3  -5  -8   17.72    0.55
  -3   5   8   19.13    0.77
   3  -6  -8   29.30    1.00
   3  -6  -8   30.68    1.09
   3  -6  -8   31.28    1.10
   3  -6  -8   30.94    0.77
  -3   6   8   29.19    1.03
   3  -7  -8    4.35    0.53
   3  -7  -8    4.10    0.67
   3  -7  -8    5.03    0.41
   3  -7  -8    4.42    0.63
  -3   7   8    3.83    0.53
   3  -8  -8    7.22    0.75
   3  -8  -8    7.10    0.80
  -3   8   8    6.89    0.74
   3  -9  -8   12.12    0.98
   3  -9  -8   13.66    0.96
  -3   9   8   12.67    0.95
   3 -10  -8   12.27    1.07
   3 -10  -8   14.13    1.02
  -3  10   8   13.02    1.00
  -4  -7   8    4.86    0.77
  -4  -6   8   21.56    1.09
   4   5  -8   23.27    1.08
  -4  -5   8   25.89    1.16
   4   4  -8   18.38    0.96
   4   4  -8   20.46    1.01
  -4  -4   8   19.27    1.00
   4   3  -8    3.70    0.55
   4   3  -8    4.47    0.44
   4   3  -8    4.02    0.57
  -4  -3   8    3.43    0.55
   4   2  -8   20.63    0.86
   4   2  -8   21.01    0.93
   4   2  -8   19.40    0.67
  -4  -2   8   20.29    0.84
   4   1  -8  101.43    2.11
   4   1  -8  101.07    2.16
   4   1  -8  101.08    1.80
  -4  -1   8  101.21    2.08
  -4  -1   8  100.59    1.84
   4   0  -8    2.32    0.43
   4   0  -8    1.79    0.43
   4   0  -8    2.97    0.25
  -4   0   8    1.94    0.39
   4  -1  -8    4.76    0.51
   4  -1  -8    5.06    0.50
   4  -1  -8    5.55    0.34
  -4   1   8    5.51    0.45
   4  -2  -8   23.48    0.87
   4  -2  -8   22.27    0.84
   4  -3  -8   23.51    0.86
   4  -3  -8   23.48    0.84
   4  -4  -8    2.10    0.43
   4  -4  -8    1.76    0.39
   4  -5  -8   50.79    1.37
   4  -5  -8   54.31    1.37
   4  -6  -8   59.20    1.55
   4  -6  -8   58.87    1.49
   4  -6  -8   63.27    1.27
   4  -7  -8   20.94    0.70
   4  -7  -8   19.15    1.05
   4  -7  -8   20.35    0.96
   4  -7  -8   20.24    0.88
  -4   7   8   19.32    0.95
   4  -8  -8   19.00    1.10
   4  -8  -8   19.56    0.92
   4  -8  -8   18.32    1.00
  -4   8   8   20.35    1.06
   4  -9  -8    8.29    0.85
   4  -9  -8    9.55    0.84
  -4   9   8    8.67    0.81
   4 -10  -8    9.60    0.92
   4 -10  -8   12.12    0.96
  -4  10   8   13.15    0.99
   4 -11  -8   16.52    1.12
  -4  11   8   13.93    1.05
  -5  -6   8    7.71    0.90
  -5  -5   8    0.69    0.58
   5   4  -8    8.44    0.72
  -5  -4   8    8.20    0.82
   5   3  -8    7.42    0.72
   5   3  -8    7.05    0.72
  -5  -3   8    6.45    0.74
   5   2  -8    6.14    0.66
   5   2  -8    6.59    0.49
   5   2  -8    5.40    0.68
  -5  -2   8    5.68    0.66
   5   1  -8    0.95    0.48
   5   1  -8    1.14    0.28
   5   1  -8    0.93    0.46
  -5  -1   8    0.43    0.39
   5   0  -8   72.99    1.44
   5   0  -8   74.37    1.71
   5   0  -8   76.18    1.84
  -5   0   8   73.29    1.70
   5  -1  -8   50.68    1.10
   5  -1  -8   54.89    1.38
   5  -1  -8   51.74    1.46
  -5   1   8   51.80    1.30
   5  -2  -8   16.97    0.84
   5  -2  -8   17.32    0.58
   5  -2  -8   19.42    0.86
  -5   2   8   16.36    0.72
   5  -3  -8   55.07    1.43
   5  -4  -8   97.68    2.11
   5  -4  -8  101.35    2.15
   5  -5  -8   71.69    1.69
   5  -5  -8   71.64    1.73
   5  -6  -8   32.27    1.25
   5  -6  -8   30.61    1.09
   5  -7  -8    0.93    0.36
   5  -7  -8    1.08    0.50
   5  -7  -8    1.19    0.56
   5  -8  -8   20.12    1.17
   5  -8  -8   20.62    0.93
   5  -8  -8   21.04    0.83
  -5   8   8   19.31    1.03
   5  -9  -8   24.87    1.18
  -5   9   8   25.55    1.15
   5 -10  -8    0.67    0.60
  -5  10   8   -0.06    0.56
   5 -11  -8    1.03    0.64
  -5  11   8   -0.33    0.60
  -6  -5   8   -0.09    0.58
   6   4  -8   11.96    0.89
  -6  -4   8   10.90    0.93
   6   3  -8   10.23    0.83
  -6  -3   8    9.89    0.84
   6   2  -8   42.22    1.36
   6   2  -8   40.27    1.41
  -6  -2   8   41.59    1.40
   6   1  -8   12.35    1.00
   6   1  -8   14.07    0.87
  -6  -1   8   13.70    0.87
   6   0  -8   13.92    0.86
   6   0  -8   16.21    1.02
   6   0  -8   15.02    0.66
  -6   0   8   14.40    0.80
   6  -1  -8   32.14    0.89
   6  -1  -8   31.12    1.19
   6  -1  -8   30.88    1.18
  -6   1   8   30.84    1.09
   6  -2  -8   61.07    1.70
   6  -2  -8   61.79    1.59
   6  -2  -8   60.07    1.33
  -6   2   8   65.24    1.54
   6  -3  -8   31.05    1.14
   6  -3  -8   29.41    0.86
   6  -3  -8   31.12    1.15
   6  -4  -8   21.63    1.04
   6  -4  -8   19.81    0.95
   6  -5  -8    0.99    0.50
   6  -5  -8    0.54    0.51
   6  -6  -8   16.45    0.96
   6  -6  -8   16.98    1.07
   6  -7  -8    0.19    0.52
   6  -7  -8    0.67    0.58
   6  -8  -8    4.07    0.64
   6  -8  -8    4.01    0.76
   6  -9  -8    0.75    0.63
   6 -10  -8   22.86    1.21
  -6  10   8   21.07    1.14
   6 -11  -8    7.63    0.91
  -6  11   8    5.78    0.85
  -7  -4   8   17.01    1.10
   7   3  -8   10.96    0.94
  -7  -3   8   11.45    0.98
   7   2  -8    3.01    0.68
  -7  -2   8    2.09    0.59
   7   1  -8    7.75    0.83
   7   1  -8    7.80    0.75
  -7  -1   8    8.13    0.78
   7   0  -8    8.19    0.77
   7   0  -8    8.61    0.89
  -7   0   8    8.42    0.79
   7  -1  -8    0.43    0.57
   7  -1  -8   -0.03    0.57
   7  -1  -8    0.06    0.31
  -7   1   8    0.26    0.50
   7  -2  -8    1.03    0.64
   7  -2  -8    0.78    0.33
   7  -2  -8    0.67    0.57
  -7   2   8    0.28    0.49
   7  -3  -8   23.40    0.84
   7  -3  -8   21.29    1.08
   7  -3  -8   20.31    1.07
   7  -4  -8    3.74    0.63
   7  -4  -8    4.21    0.50
   7  -4  -8    3.82    0.66
   7  -5  -8    6.26    0.78
   7  -5  -8    5.61    0.77
   7  -6  -8   13.42    1.08
   7  -6  -8   13.07    0.92
   7  -7  -8    8.64    0.89
   7  -7  -8    7.96    0.80
   7  -8  -8   61.86    1.72
   7  -8  -8   65.78    1.89
   7  -9  -8    7.91    0.90
   7 -10  -8    4.86    0.81
   7 -11  -8    5.17    0.85
  -7  11   8    3.91    0.77
   8   2  -8    0.30    0.63
  -8  -2   8   -0.30    0.58
   8   1  -8    0.71    0.65
  -8  -1   8    0.68    0.57
   8   0  -8    0.46    0.63
  -8   0   8    0.22    0.52
   8  -1  -8   64.36    1.85
   8  -1  -8   62.55    1.68
  -8   1   8   60.08    1.70
   8  -2  -8    3.67    0.71
   8  -2  -8    4.15    0.74
   8  -2  -8    3.94    0.49
  -8   2   8    3.78    0.61
   8  -3  -8   19.99    0.82
   8  -3  -8   19.62    1.09
   8  -3  -8   20.19    1.11
   8  -4  -8   18.85    0.84
   8  -4  -8   20.91    1.16
   8  -4  -8   17.44    1.18
   8  -5  -8    7.81    0.66
   8  -5  -8    7.17    0.82
   8  -5  -8    5.88    0.80
   8  -6  -8   40.96    1.41
   8  -6  -8   37.69    1.40
   8  -7  -8    7.32    0.84
   8  -7  -8    8.04    0.83
   8  -8  -8   -0.77    0.59
   8  -8  -8    0.69    0.58
   8  -9  -8   10.03    0.99
   8 -10  -8    0.45    0.66
   9   1  -8   27.41    1.36
  -9  -1   8   25.33    1.20
   9   0  -8    1.76    0.68
  -9   0   8    2.94    0.69
   9  -1  -8    9.76    0.93
  -9   1   8    8.86    0.87
   9  -2  -8    8.01    0.84
   9  -2  -8    7.02    0.84
  -9   2   8    9.00    0.85
   9  -3  -8    0.89    0.61
   9  -3  -8    0.27    0.64
  -9   3   8    0.43    0.48
   9  -4  -8   24.46    1.26
   9  -4  -8   24.10    1.21
   9  -4  -8   23.94    0.95
   9  -5  -8    8.18    0.89
   9  -5  -8    8.09    0.87
   9  -5  -8    9.21    0.71
   9  -6  -8    8.78    0.88
   9  -6  -8   13.83    1.06
   9  -7  -8    2.32    0.72
   9  -7  -8    2.75    0.68
   9  -8  -8    0.92    0.68
   9  -8  -8    2.25    0.68
   9  -9  -8    1.62    0.68
   9  -9  -8    2.15    0.69
   9 -10  -8    1.26    0.72
  10  -1  -8   -0.74    0.60
 -10   1   8   -0.19    0.58
  10  -2  -8   -0.09    0.62
 -10   2   8    0.83    0.62
  10  -3  -8    4.73    0.81
  10  -3  -8    4.67    0.82
 -10   3   8    3.99    0.72
  10  -4  -8   22.79    1.28
  10  -4  -8   22.40    1.23
  10  -5  -8   -0.37    0.66
  10  -5  -8   -0.40    0.39
  10  -5  -8    0.85    0.68
  10  -6  -8   12.01    1.02
  10  -6  -8   11.11    0.82
  10  -6  -8   10.65    1.01
  10  -7  -8   11.75    1.05
  10  -7  -8   11.23    1.02
  10  -8  -8   -0.22    0.67
  10  -8  -8   -0.23    0.60
  10  -9  -8   24.53    1.35
  11  -4  -8    3.83    0.81
  11  -4  -8    4.16    0.82
 -11   4   8    4.27    0.79
  11  -5  -8    6.88    0.91
  11  -5  -8    6.50    0.95
  11  -6  -8    0.04    0.69
  11  -6  -8   -0.30    0.70
  11  -7  -8   18.19    1.29
  11  -7  -8   16.58    1.23
  11  -6   9    3.44    0.70
  11  -6   9    3.87    0.63
  11  -5   9   10.35    1.03
  11  -5   9    8.33    0.83
  10  -9   9    0.78    0.64
  10  -9   9   -0.10    0.50
  10  -9   9   -0.23    0.52
  10  -8   9    8.36    0.82
  10  -8   9    6.51    0.83
  10  -7   9   21.14    1.00
  10  -7   9   22.21    1.06
  10  -7   9   20.30    1.18
  10  -6   9   18.62    1.13
  10  -6   9   19.33    0.98
  10  -5   9    3.19    0.60
  10  -5   9    4.62    0.76
 -10   4  -9    0.63    0.54
  10  -4   9   -0.50    0.43
  10  -4   9   -0.21    0.52
 -10   3  -9    2.41    0.61
  10  -3   9    2.21    0.65
  10  -3   9    1.56    0.52
 -10   2  -9    0.80    0.61
  10  -2   9    0.96    0.61
  10  -2   9    0.59    0.50
  10  -1   9    2.08    0.57
  10  -1   9    2.53    0.71
   9 -10   9    2.13    0.59
   9 -10   9    3.56    0.74
   9  -9   9   12.13    0.93
   9  -9   9   10.44    0.96
   9  -9   9   11.64    0.95
   9  -8   9    7.73    0.80
   9  -8   9    5.87    0.76
   9  -8   9    5.92    0.74
   9  -7   9    1.16    0.56
   9  -7   9    1.23    0.52
   9  -6   9    1.66    0.48
   9  -6   9    0.97    0.49
   9  -6   9    1.35    0.47
   9  -5   9    5.71    0.71
   9  -5   9    4.81    0.57
  -9   4  -9    0.82    0.49
   9  -4   9    1.16    0.47
   9  -4   9    0.77    0.49
  -9   3  -9    1.06    0.50
   9  -3   9   -0.02    0.45
   9  -3   9    0.22    0.46
  -9   2  -9   30.48    1.30
   9  -2   9   30.53    1.29
   9  -2   9   31.62    1.23
  -9   1  -9    9.88    0.94
   9  -1   9    9.87    0.95
   9  -1   9    7.70    0.76
  -9   0  -9   11.48    0.96
  -9   0  -9   11.02    1.02
   9   0   9   10.66    0.99
   9   0   9   11.12    0.85
  -9  -1  -9    0.06    0.58
   9   1   9   -0.06    0.52
   9   1   9    0.11    0.53
   8 -10   9    1.05    0.61
   8 -10   9    1.10    0.55
   8  -9   9    8.05    0.79
   8  -9   9    8.48    0.88
   8  -8   9    2.00    0.60
   8  -8   9    2.73    0.59
   8  -8   9    1.98    0.59
   8  -7   9   18.19    0.98
   8  -7   9   18.21    0.98
   8  -7   9   19.66    0.98
   8  -6   9    0.30    0.48
   8  -6   9    0.11    0.40
   8  -6   9    0.39    0.50
   8  -6   9    1.16    0.48
   8  -5   9    5.52    0.59
   8  -5   9    4.11    0.65
   8  -5   9    4.67    0.56
   8  -4   9   53.49    1.49
   8  -4   9   54.13    1.61
  -8   3  -9   15.47    0.91
   8  -3   9   13.40    0.95
   8  -3   9   16.13    0.83
  -8   2  -9   32.07    1.27
   8  -2   9   36.31    1.23
   8  -2   9   32.34    1.27
  -8   1  -9    0.99    0.53
   8  -1   9    0.46    0.49
   8  -1   9    0.20    0.45
  -8   0  -9    2.18    0.62
   8   0   9    2.40    0.56
   8   0   9    2.35    0.58
  -8  -1  -9    7.42    0.86
  -8  -1  -9    8.54    0.83
   8   1   9    8.15    0.80
   8   1   9    8.48    0.87
  -8  -2  -9    8.87    0.97
  -8  -2  -9    7.11    0.81
   8   2   9    7.19    0.79
   8   2   9   10.65    1.01
   7 -10   9    1.62    0.58
   7  -9   9   30.46    1.22
   7  -9   9   31.26    1.29
   7  -8   9    0.55    0.49
   7  -8   9   -0.32    0.41
   7  -8   9    0.21    0.53
   7  -7   9    1.31    0.48
   7  -7   9    1.50    0.55
   7  -7   9    2.09    0.55
   7  -6   9   53.68    1.35
   7  -6   9   54.19    1.51
   7  -6   9   56.48    1.62
   7  -6   9   53.77    1.52
   7  -5   9   25.70    1.02
   7  -5   9   25.46    1.06
   7  -5   9   26.59    1.06
   7  -5   9   26.94    0.94
   7  -4   9    3.74    0.51
   7  -4   9    3.08    0.57
   7  -4   9    3.91    0.50
  -7   3  -9    0.08    0.40
   7  -3   9    0.49    0.40
   7  -3   9   -0.46    0.34
  -7   2  -9    0.42    0.45
   7  -2   9    0.12    0.39
   7  -2   9   -0.18    0.39
  -7   1  -9    5.25    0.70
   7  -1   9    5.37    0.66
   7  -1   9    5.88    0.60
  -7   0  -9    2.11    0.61
   7   0   9    1.36    0.50
   7   0   9    2.02    0.53
  -7  -1  -9   18.24    0.93
  -7  -1  -9   19.22    1.05
   7   1   9   18.83    1.07
   7   1   9   20.74    0.95
  -7  -2  -9    0.02    0.48
  -7  -2  -9    0.40    0.49
   7   2   9    0.43    0.46
   7   2   9    0.29    0.47
  -7  -3  -9   22.91    1.11
  -7  -3  -9   19.58    1.16
   7   3   9   21.04    1.22
   7   3   9   20.24    1.06
   6 -11   9    7.60    0.82
   6 -10   9    0.05    0.49
   6  -9   9    0.53    0.44
   6  -8   9   34.11    1.24
   6  -7   9    4.16    0.62
   6  -7   9    5.42    0.64
   6  -7   9    5.69    0.63
   6  -6   9    2.63    0.39
   6  -6   9    2.95    0.53
   6  -6   9    2.88    0.53
   6  -6   9    2.46    0.53
   6  -5   9    1.19    0.35
   6  -5   9    0.89    0.42
   6  -5   9    1.40    0.42
   6  -5   9    1.71    0.45
   6  -4   9   47.28    1.37
   6  -4   9   46.11    1.21
   6  -4   9   46.35    1.24
   6  -4   9   48.21    1.31
   6  -3   9   -0.48    0.33
   6  -3   9    0.11    0.34
  -6   2  -9    0.84    0.39
   6  -2   9    0.12    0.40
   6  -2   9    0.21    0.37
  -6   1  -9   65.27    1.73
   6  -1   9   63.25    1.68
   6  -1   9   61.93    1.57
  -6   0  -9    2.92    0.58
   6   0   9    2.94    0.49
   6   0   9    2.40    0.52
  -6  -1  -9   53.00    1.63
  -6  -1  -9   55.72    1.47
   6   1   9   52.49    1.51
   6   1   9   50.65    1.59
  -6  -2  -9    1.22    0.54
  -6  -2  -9    0.32    0.50
   6   2   9    0.33    0.49
   6   2   9    0.87    0.47
  -6  -3  -9    1.87    0.53
  -6  -3  -9    1.27    0.57
   6   3   9    1.09    0.55
   6   3   9    1.67    0.49
  -6  -4  -9   18.65    1.16
   6   4   9   20.34    1.18
   6   4   9   18.31    0.99
   6   5   9    4.45    0.80
   6   5   9    4.28    0.66
   5 -11   9    3.39    0.69
   5 -10   9    4.23    0.68
   5  -9   9    1.19    0.51
   5  -8   9   14.03    0.87
   5  -7   9    0.40    0.42
   5  -6   9   65.40    1.59
   5  -6   9   62.72    1.60
   5  -5   9    9.91    0.65
   5  -5   9    8.16    0.48
   5  -5   9    9.34    0.67
   5  -4   9    7.20    0.51
   5  -4   9    6.74    0.59
   5  -4   9    7.52    0.59
   5  -3   9  171.12    3.10
   5  -3   9  162.06    3.11
   5  -3   9  168.19    3.03
  -5   2  -9    0.05    0.33
   5  -2   9    0.16    0.29
   5  -2   9    0.28    0.33
  -5   1  -9   78.97    1.85
   5  -1   9   81.00    1.76
   5  -1   9   75.98    1.81
  -5   0  -9    8.73    0.70
   5   0   9    8.90    0.68
   5   0   9    9.25    0.62
  -5  -1  -9    1.18    0.45
   5   1   9    1.24    0.42
   5   1   9    0.70    0.45
  -5  -2  -9   25.59    1.12
  -5  -2  -9   29.04    1.03
   5   2   9   27.18    1.19
   5   2   9   27.23    1.01
  -5  -3  -9    4.88    0.61
  -5  -3  -9    5.12    0.74
   5   3   9    5.26    0.63
   5   3   9    4.03    0.69
  -5  -4  -9    4.69    0.72
   5   4   9    6.50    0.80
   5   4   9    3.94    0.61
  -5  -5  -9    4.16    0.78
   5   5   9    5.01    0.76
   5   5   9    4.29    0.63
   5   6   9    8.59    0.95
   5   6   9   10.08    0.83
   4 -10   9   17.74    1.03
   4  -9   9    4.97    0.63
   4  -8   9   54.43    1.54
   4  -7   9    0.59    0.44
   4  -6   9    0.34    0.36
   4  -5   9   80.08    1.77
   4  -5   9   81.75    1.74
   4  -5   9   79.19    1.56
   4  -4   9    0.18    0.29
   4  -4   9    0.38    0.23
   4  -4   9   -0.02    0.31
   4  -3   9   46.70    1.11
   4  -3   9   44.88    1.16
   4  -3   9   47.91    1.15
  -4   2  -9   14.37    0.69
   4  -2   9   14.25    0.70
   4  -2   9   14.08    0.62
   4  -2   9   12.11    0.59
  -4   1  -9   65.66    1.27
   4  -1   9   65.87    1.55
   4  -1   9   66.84    1.48
  -4   0  -9    0.03    0.17
  -4   0  -9   -0.03    0.33
   4   0   9    0.00    0.33
   4   0   9    0.10    0.30
  -4  -1  -9    6.29    0.60
   4   1   9    6.76    0.63
   4   1   9    6.53    0.56
  -4  -2  -9   44.14    1.38
  -4  -2  -9   45.25    1.16
   4   2   9   47.06    1.39
   4   2   9   44.34    1.25
  -4  -3  -9    3.51    0.63
  -4  -3  -9    4.19    0.53
   4   3   9    2.93    0.57
   4   3   9    2.94    0.49
  -4  -4  -9   57.24    1.74
   4   4   9   59.54    1.77
   4   4   9   56.01    1.56
  -4  -5  -9    2.37    0.63
   4   5   9    0.87    0.43
   4   5   9    0.88    0.51
  -4  -6  -9    0.84    0.63
   4   6   9    0.37    0.47
   4   6   9    0.41    0.51
  -3  10  -9   21.87    1.14
   3 -10   9   21.20    1.12
   3  -9   9    2.07    0.56
   3  -8   9    5.06    0.66
   3  -7   9    2.96    0.52
   3  -6   9    0.25    0.39
   3  -5   9    0.34    0.20
   3  -5   9    0.57    0.33
   3  -4   9   65.97    1.42
   3  -4   9   63.52    1.30
   3  -4   9   65.77    1.46
   3  -3   9  200.66    3.47
   3  -3   9  205.31    3.51
   3  -3   9  202.32    3.48
   3  -2   9    1.90    0.30
   3  -2   9    2.20    0.34
   3  -2   9    1.99    0.28
  -3   1  -9    4.23    0.42
  -3   1  -9    4.34    0.35
   3  -1   9    4.19    0.41
   3  -1   9    4.75    0.40
   3  -1   9    4.71    0.36
  -3   0  -9  202.26    3.62
   3   0   9  199.10    3.53
   3   0   9  199.96    3.59
  -3  -1  -9   45.86    1.25
   3   1   9   44.53    1.15
   3   1   9   45.69    1.26
  -3  -2  -9  164.36    2.90
  -3  -2  -9  168.95    3.29
   3   2   9  170.50    3.18
   3   2   9  170.57    3.23
  -3  -3  -9   -0.04    0.38
  -3  -3  -9   -0.01    0.31
   3   3   9    0.21    0.41
   3   3   9    0.34    0.35
  -3  -4  -9    0.62    0.37
  -3  -4  -9    0.48    0.48
   3   4   9   -0.05    0.39
   3   4   9    0.39    0.47
  -3  -5  -9   13.80    0.97
   3   5   9   13.30    0.91
   3   5   9   15.65    0.83
  -3  -6  -9    0.38    0.53
   3   6   9    1.07    0.50
   3   6   9    0.34    0.41
  -3  -7  -9    2.10    0.72
   3   7   9    2.38    0.67
  -2  10  -9    8.65    0.85
   2 -10   9    8.54    0.89
  -2   9  -9    0.18    0.45
   2  -9   9   -0.19    0.43
  -2   8  -9    1.66    0.49
   2  -8   9    0.72    0.50
   2  -7   9   25.28    1.05
   2  -6   9   47.76    1.35
  -2   5  -9  170.71    2.81
   2  -5   9  163.18    3.08
   2  -4   9   13.65    0.49
   2  -4   9   13.28    0.65
   2  -3   9    4.03    0.32
   2  -3   9    4.31    0.40
   2  -3   9    4.53    0.36
  -2   2  -9  100.45    1.89
   2  -2   9  102.10    1.84
   2  -2   9   99.78    1.84
   2  -2   9   99.33    1.89
  -2   1  -9    8.69    0.46
  -2   1  -9    8.40    0.49
   2  -1   9    8.99    0.42
   2  -1   9    8.82    0.49
   2  -1   9    9.20    0.48
  -2   0  -9   99.11    1.79
  -2   0  -9   99.50    1.95
   2   0   9  100.40    1.91
   2   0   9   97.16    1.92
  -2  -1  -9    1.51    0.37
  -2  -1  -9    1.28    0.23
   2   1   9    2.01    0.33
   2   1   9    1.73    0.36
  -2  -2  -9   13.56    0.48
  -2  -2  -9   14.84    0.72
   2   2   9   13.26    0.67
   2   2   9   14.20    0.63
  -2  -3  -9    0.14    0.25
  -2  -3  -9    0.65    0.22
  -2  -3  -9    0.07    0.39
   2   3   9    0.28    0.32
   2   3   9    0.69    0.37
  -2  -4  -9    0.58    0.31
  -2  -4  -9    0.65    0.46
   2   4   9    1.09    0.39
   2   4   9    0.19    0.42
  -2  -5  -9    0.49    0.50
   2   5   9    0.77    0.45
   2   5   9    0.06    0.36
  -2  -6  -9   36.57    1.43
   2   6   9   34.65    1.18
   2   6   9   33.95    1.35
  -2  -7  -9   32.54    1.41
   2   7   9   32.30    1.16
   2   7   9   34.78    1.40
  -2  -8  -9    2.02    0.71
   2   8   9    0.76    0.61
  -1  10  -9   -0.70    0.56
   1 -10   9    1.38    0.62
  -1   9  -9    8.58    0.80
  -1   9  -9    8.13    0.77
   1  -9   9    8.23    0.84
  -1   8  -9   18.64    0.95
  -1   8  -9   21.46    0.97
   1  -8   9   18.44    0.99
  -1   7  -9   53.77    1.45
  -1   7  -9   55.91    1.52
   1  -7   9   54.77    1.55
  -1   6  -9    1.42    0.39
  -1   6  -9    0.87    0.42
   1  -6   9    1.58    0.48
  -1   5  -9    5.82    0.38
  -1   5  -9    7.62    0.60
   1  -5   9    6.41    0.56
  -1   4  -9   48.31    0.98
  -1   4  -9   44.28    1.18
   1  -4   9   47.72    1.19
  -1   3  -9    1.45    0.33
  -1   3  -9    1.93    0.28
   1  -3   9    1.62    0.31
  -1   2  -9    8.77    0.47
   1  -2   9    9.32    0.46
   1  -2   9    8.40    0.38
   1  -2   9    9.88    0.45
  -1   1  -9   90.24    1.74
  -1   1  -9   92.23    1.67
   1  -1   9   91.43    1.62
   1  -1   9   89.31    1.76
   1  -1   9   90.84    1.62
  -1   0  -9   92.08    1.74
  -1   0  -9   90.28    1.69
   1   0   9   89.59    1.53
   1   0   9   89.68    1.66
   1   0   9   89.17    1.77
  -1  -1  -9    8.84    0.46
  -1  -1  -9    8.91    0.56
   1   1   9    9.31    0.54
   1   1   9    9.44    0.52
  -1  -2  -9    4.42    0.32
  -1  -2  -9    4.04    0.25
  -1  -2  -9    4.73    0.47
   1   2   9    4.04    0.40
   1   2   9    4.01    0.42
  -1  -3  -9   63.88    1.17
  -1  -3  -9   66.08    1.27
  -1  -3  -9   65.45    1.56
   1   3   9   63.97    1.47
   1   3   9   65.14    1.52
  -1  -4  -9   79.70    1.53
  -1  -4  -9   79.38    1.89
  -1  -4  -9   80.76    1.47
   1   4   9   79.78    1.82
   1   4   9   77.59    1.74
  -1  -5  -9   66.66    1.80
  -1  -5  -9   69.42    1.39
   1   5   9   67.08    1.71
   1   5   9   65.97    1.63
  -1  -6  -9    4.67    0.70
   1   6   9    5.80    0.71
   1   6   9    5.36    0.58
  -1  -7  -9    1.16    0.56
   1   7   9    0.68    0.42
   1   7   9    0.17    0.45
  -1  -8  -9    8.50    0.90
   1   8   9    7.76    0.85
  -1  -9  -9    3.11    0.82
   1   9   9    3.22    0.74
   0   9  -9   10.62    0.92
   0  -9   9   11.79    0.99
   0   8  -9    2.10    0.55
   0   8  -9    3.03    0.53
   0  -8   9    1.69    0.57
   0   7  -9    1.22    0.46
   0   7  -9    1.92    0.53
   0  -7   9    1.59    0.54
   0   6  -9    3.52    0.53
   0   6  -9    3.01    0.47
   0  -6   9    2.85    0.55
   0   5  -9   10.41    0.69
   0   5  -9    8.44    0.59
   0  -5   9    9.17    0.68
   0   4  -9   -0.16    0.25
   0   4  -9    0.03    0.28
   0   4  -9   -0.09    0.23
   0  -4   9   -0.16    0.28
   0   3  -9  197.51    3.40
   0   3  -9  199.08    3.54
   0  -3   9  201.58    3.47
   0   2  -9  102.71    1.90
   0   2  -9  100.08    1.68
   0   2  -9   98.84    1.96
   0  -2   9  101.23    1.88
   0   1  -9   92.74    1.59
   0   1  -9   89.09    1.79
   0   1  -9   92.25    1.80
   0  -1   9   91.20    1.52
   0  -1   9   92.50    1.66
   0   0  -9   -0.37    0.27
   0   0  -9   -0.10    0.27
   0   0  -9   -0.17    0.20
   0   0   9   -0.18    0.25
   0   0   9   -0.02    0.17
   0   0   9   -0.16    0.17
   0  -1  -9   89.20    1.71
   0  -1  -9   87.48    1.69
   0   1   9   88.43    1.78
   0   1   9   89.33    1.43
   0   1   9   91.72    1.64
   0  -2  -9  100.02    1.86
   0  -2  -9  101.20    1.99
   0   2   9  103.43    1.90
   0   2   9   99.30    2.01
   0  -3  -9  202.34    3.41
   0  -3  -9  197.49    3.60
   0   3   9  200.99    3.48
   0   3   9  200.75    3.62
   0  -4  -9   -0.34    0.36
   0  -4  -9   -0.04    0.15
   0  -4  -9    0.25    0.33
   0   4   9   -0.14    0.27
   0   4   9    0.62    0.31
   0  -5  -9    9.36    0.65
   0  -5  -9    8.89    0.42
   0  -5  -9   10.30    0.80
   0   5   9    9.02    0.67
   0   5   9    9.93    0.74
   0  -6  -9    3.96    0.65
   0  -6  -9    3.02    0.48
   0   6   9    2.37    0.51
   0   6   9    3.32    0.51
   0  -7  -9    1.73    0.59
   0   7   9    2.65    0.60
   0   7   9    2.51    0.51
   0  -8  -9    2.03    0.64
   0   8   9    2.77    0.63
   0  -9  -9   11.03    1.07
   0   9   9   11.97    1.04
   1   9  -9    2.89    0.67
  -1  -9   9    1.65    0.65
   1   8  -9    9.02    0.83
  -1  -8   9    8.66    0.85
   1   7  -9    0.28    0.49
   1   7  -9    0.52    0.44
  -1  -7   9    1.11    0.52
   1   6  -9    4.91    0.60
   1   6  -9    5.42    0.54
  -1  -6   9    5.26    0.65
   1   5  -9   66.07    1.65
   1   5  -9   65.96    1.47
  -1  -5   9   66.33    1.70
   1   4  -9   78.08    1.57
   1   4  -9   77.48    1.74
   1   4  -9   78.70    1.54
  -1  -4   9   77.71    1.77
   1   3  -9   65.76    1.36
   1   3  -9   64.87    1.22
   1   3  -9   62.26    1.47
  -1  -3   9   63.09    1.46
   1   2  -9    4.88    0.38
   1   2  -9    4.80    0.45
   1   2  -9    3.98    0.26
  -1  -2   9    4.09    0.41
   1   1  -9    8.54    0.57
   1   1  -9    8.55    0.51
  -1  -1   9    9.47    0.46
   1   0  -9   89.79    1.77
   1   0  -9   90.03    1.54
  -1   0   9   89.84    1.59
   1  -1  -9   88.38    1.65
   1  -1  -9   89.79    1.77
   1  -1  -9   90.48    1.84
  -1   1   9   91.32    1.56
  -1   1   9   92.41    1.52
   1  -2  -9    8.76    0.51
   1  -2  -9    8.56    0.57
   1  -2  -9    9.19    0.55
  -1   2   9    9.15    0.43
   1  -3  -9    1.55    0.37
   1  -3  -9    1.78    0.35
   1  -3  -9    1.68    0.36
  -1   3   9    1.60    0.29
  -1   3   9    1.72    0.37
   1  -4  -9   45.64    1.15
   1  -4  -9   46.37    0.82
   1  -4  -9   47.01    1.23
  -1   4   9   46.97    1.17
  -1   4   9   45.37    1.18
   1  -5  -9    8.21    0.66
   1  -5  -9    6.54    0.34
   1  -5  -9    6.77    0.56
   1  -5  -9    6.97    0.59
  -1   5   9    6.68    0.55
  -1   5   9    5.75    0.55
   1  -6  -9    1.38    0.51
   1  -6  -9    1.01    0.47
   1  -6  -9    1.37    0.43
  -1   6   9    1.93    0.48
  -1   6   9    1.64    0.43
   1  -7  -9   54.89    1.50
   1  -7  -9   53.34    1.42
   1  -7  -9   51.66    1.59
  -1   7   9   52.69    1.55
  -1   7   9   53.63    1.44
   1  -8  -9   17.78    1.09
  -1   8   9   20.56    1.09
   1  -9  -9    8.30    0.89
  -1   9   9    8.02    0.85
   1 -10  -9    0.68    0.65
  -1  10   9    0.49    0.56
  -2  -8   9    1.64    0.64
   2   7  -9   32.14    1.22
  -2  -7   9   33.78    1.35
   2   6  -9   35.13    1.26
  -2  -6   9   34.54    1.26
   2   5  -9    0.35    0.36
   2   5  -9   -0.24    0.46
  -2  -5   9   -0.19    0.44
   2   4  -9    0.52    0.41
   2   4  -9    0.67    0.30
   2   4  -9    0.21    0.39
  -2  -4   9    1.33    0.46
   2   3  -9   -0.30    0.33
   2   3  -9    0.55    0.22
   2   3  -9    0.15    0.34
  -2  -3   9    0.37    0.33
   2   2  -9   14.04    0.71
   2   2  -9   12.77    0.64
   2   2  -9   13.53    0.41
  -2  -2   9   13.11    0.65
   2   1  -9    3.04    0.37
   2   1  -9    1.54    0.34
  -2  -1   9    1.88    0.34
   2   0  -9   96.24    1.95
   2   0  -9   96.66    1.93
  -2   0   9   98.54    1.78
   2  -1  -9    9.22    0.53
   2  -1  -9    9.11    0.41
   2  -1  -9    8.44    0.53
  -2   1   9    9.04    0.39
  -2   1   9    8.68    0.30
   2  -2  -9  100.52    1.85
   2  -2  -9  100.98    1.95
  -2   2   9  100.06    1.73
  -2   2   9   97.56    1.67
   2  -3  -9    4.38    0.44
   2  -3  -9    4.61    0.42
   2  -3  -9    4.29    0.44
  -2   3   9    4.28    0.35
   2  -4  -9   14.34    0.68
   2  -4  -9   13.94    0.78
   2  -4  -9   14.62    0.72
  -2   4   9   15.03    0.64
   2  -5  -9  165.38    2.72
   2  -5  -9  170.91    3.12
   2  -5  -9  163.63    3.16
   2  -5  -9  168.67    3.22
  -2   5   9  169.86    3.06
   2  -6  -9   47.59    1.32
   2  -6  -9   46.30    1.40
   2  -6  -9   43.35    1.27
  -2   6   9   44.17    1.26
   2  -7  -9   26.60    1.03
   2  -7  -9   27.80    1.13
   2  -7  -9   28.20    1.13
  -2   7   9   25.57    1.10
   2  -8  -9    0.71    0.52
   2  -8  -9    0.95    0.61
  -2   8   9    0.63    0.52
   2  -9  -9    0.78    0.61
  -2   9   9    0.21    0.53
   2 -10  -9    8.90    1.00
  -2  10   9    8.96    0.91
  -3  -7   9    2.31    0.60
   3   6  -9    0.63    0.53
  -3  -6   9    1.35    0.55
   3   5  -9   13.92    0.89
  -3  -5   9   14.77    0.93
   3   4  -9    0.33    0.45
   3   4  -9    0.13    0.45
   3   4  -9    0.49    0.32
  -3  -4   9    0.56    0.48
   3   3  -9    0.03    0.40
   3   3  -9    0.17    0.25
   3   3  -9    0.75    0.44
  -3  -3   9    0.48    0.42
   3   2  -9  166.72    3.12
   3   2  -9  163.75    3.09
   3   2  -9  164.59    2.74
  -3  -2   9  165.28    3.05
   3   1  -9   46.45    0.86
   3   1  -9   47.86    1.24
   3   1  -9   45.64    1.23
  -3  -1   9   46.73    1.16
  -3  -1   9   47.20    0.86
   3   0  -9  198.53    3.10
   3   0  -9  198.06    3.58
   3   0  -9  203.31    3.61
  -3   0   9  196.54    3.39
   3  -1  -9    3.66    0.43
   3  -1  -9    3.83    0.45
  -3   1   9    3.98    0.36
   3  -2  -9    2.05    0.40
   3  -2  -9    2.28    0.37
  -3   2   9    1.58    0.26
   3  -3  -9  197.30    3.42
   3  -3  -9  197.44    3.52
   3  -3  -9  195.44    3.60
   3  -4  -9   64.83    1.52
   3  -4  -9   64.29    1.46
   3  -4  -9   64.04    1.52
  -3   4   9   65.25    1.37
   3  -5  -9    0.22    0.33
   3  -5  -9    0.52    0.34
   3  -5  -9    0.41    0.43
  -3   5   9    0.29    0.32
   3  -6  -9    0.36    0.25
   3  -6  -9   -0.02    0.39
   3  -6  -9   -0.17    0.38
   3  -6  -9   -0.10    0.48
  -3   6   9    0.34    0.34
   3  -7  -9    3.24    0.53
   3  -7  -9    3.47    0.66
   3  -7  -9    3.13    0.63
  -3   7   9    3.06    0.52
   3  -8  -9    5.17    0.71
   3  -8  -9    6.39    0.73
  -3   8   9    5.04    0.66
   3  -9  -9    0.93    0.56
   3  -9  -9    1.59    0.58
  -3   9   9    0.72    0.55
   3 -10  -9   22.01    1.18
   3 -10  -9   21.93    1.10
  -3  10   9   22.74    1.14
  -4  -6   9    0.83    0.58
   4   5  -9    0.22    0.52
  -4  -5   9    0.02    0.52
   4   4  -9   58.66    1.65
   4   4  -9   62.12    1.60
   4   3  -9    4.12    0.62
   4   3  -9    3.42    0.62
  -4  -3   9    4.01    0.62
   4   2  -9   47.06    1.36
   4   2  -9   46.14    1.35
  -4  -2   9   46.32    1.33
   4   1  -9    7.75    0.40
   4   1  -9    7.52    0.67
   4   1  -9    7.11    0.62
  -4  -1   9    6.75    0.56
   4   0  -9    0.29    0.38
   4   0  -9    0.11    0.41
   4   0  -9   -0.12    0.15
  -4   0   9    0.23    0.33
   4  -1  -9   63.34    1.58
   4  -1  -9   64.88    1.19
   4  -1  -9   65.07    1.54
  -4   1   9   64.46    1.40
   4  -2  -9   12.59    0.69
   4  -2  -9   13.68    0.72
  -4   2   9   14.74    0.61
   4  -3  -9   44.65    1.25
   4  -3  -9   44.46    1.26
   4  -4  -9    0.52    0.43
   4  -4  -9   -0.16    0.34
   4  -5  -9   79.14    1.78
   4  -5  -9   78.21    1.84
   4  -6  -9    0.80    0.47
   4  -6  -9    0.61    0.43
   4  -6  -9    0.98    0.54
  -4   6   9    0.59    0.41
   4  -7  -9    0.59    0.58
   4  -7  -9    0.35    0.30
   4  -7  -9    0.81    0.50
   4  -7  -9    0.06    0.43
  -4   7   9    1.28    0.48
   4  -8  -9   58.97    1.70
   4  -8  -9   57.92    1.57
   4  -8  -9   55.74    1.69
   4  -9  -9    4.62    0.70
   4  -9  -9    4.16    0.69
  -4   9   9    5.70    0.72
   4 -10  -9   19.16    1.15
   4 -10  -9   20.47    1.11
  -4  10   9   19.32    1.06
  -5  -6   9    9.86    0.94
  -5  -5   9    4.18    0.75
   5   4  -9    5.08    0.64
   5   4  -9    5.06    0.69
  -5  -4   9    3.83    0.67
   5   3  -9    5.02    0.66
   5   3  -9    4.37    0.64
  -5  -3   9    3.43    0.64
   5   2  -9   26.82    1.14
   5   2  -9   27.81    1.13
  -5  -2   9   23.90    0.99
   5   1  -9    1.03    0.49
   5   1  -9    1.52    0.59
  -5  -1   9    2.06    0.49
   5   0  -9    8.67    0.74
   5   0  -9    9.32    0.46
   5   0  -9    9.43    0.75
  -5   0   9    8.92    0.67
   5  -1  -9   80.86    1.83
   5  -1  -9   77.81    1.50
   5  -1  -9   80.59    1.93
  -5   1   9   80.33    1.74
   5  -2  -9    0.60    0.44
   5  -2  -9   -0.06    0.22
   5  -2  -9    0.41    0.42
  -5   2   9    0.57    0.34
   5  -3  -9  163.36    3.11
   5  -3  -9  159.81    3.16
   5  -4  -9    6.71    0.66
   5  -4  -9    6.98    0.64
   5  -5  -9   10.18    0.79
   5  -5  -9    9.15    0.78
   5  -6  -9   60.36    1.65
   5  -6  -9   63.46    1.63
   5  -7  -9    0.50    0.50
   5  -7  -9    0.27    0.62
   5  -8  -9   15.13    0.89
   5  -8  -9   14.22    1.06
  -5   8   9   16.39    0.95
   5  -9  -9    1.40    0.66
  -5   9   9    0.95    0.51
   5 -10  -9    4.70    0.75
  -5  10   9    3.64    0.71
   5 -11  -9    5.26    0.83
  -5  11   9    4.91    0.80
  -6  -5   9    5.28    0.76
  -6  -4   9   17.31    1.01
   6   3  -9    1.00    0.58
  -6  -3   9    1.85    0.58
   6   2  -9    0.65    0.54
   6   2  -9    0.01    0.58
  -6  -2   9    0.96    0.54
   6   1  -9   52.31    1.58
   6   1  -9   57.04    1.53
  -6  -1   9   53.47    1.55
   6   0  -9    2.97    0.62
   6   0  -9    2.36    0.67
  -6   0   9    3.71    0.55
   6  -1  -9   67.51    1.70
   6  -1  -9   66.45    1.83
  -6   1   9   64.30    1.60
   6  -2  -9    0.78    0.51
   6  -2  -9    0.07    0.52
   6  -2  -9    0.66    0.29
  -6   2   9    0.68    0.39
   6  -3  -9    0.50    0.29
   6  -3  -9   -0.13    0.54
   6  -3  -9    0.62    0.52
   6  -4  -9   45.88    1.42
   6  -4  -9   44.77    1.44
   6  -5  -9    1.69    0.60
   6  -5  -9    1.56    0.56
   6  -6  -9    3.04    0.70
   6  -6  -9    4.03    0.63
   6  -7  -9    5.07    0.68
   6  -7  -9    4.72    0.77
   6  -8  -9   34.98    1.25
   6  -8  -9   34.88    1.41
   6  -9  -9    0.08    0.60
  -6   9   9    0.30    0.48
   6 -10  -9    0.94    0.64
  -6  10   9   -0.15    0.50
   6 -11  -9    9.39    0.98
  -6  11   9    8.10    0.92
   7   3  -9   22.06    1.16
  -7  -3   9   22.07    1.16
   7   2  -9    0.40    0.59
  -7  -2   9    0.60    0.55
   7   1  -9   21.75    1.09
   7   1  -9   20.40    1.12
  -7  -1   9   18.76    1.00
   7   0  -9    1.95    0.64
   7   0  -9    1.67    0.69
  -7   0   9    1.49    0.53
   7  -1  -9    5.53    0.74
   7  -1  -9    4.61    0.74
  -7   1   9    4.78    0.66
   7  -2  -9    0.61    0.56
   7  -2  -9    0.42    0.33
   7  -2  -9    0.15    0.65
  -7   2   9    0.44    0.47
   7  -3  -9    0.05    0.32
   7  -3  -9    0.11    0.55
   7  -3  -9    0.79    0.63
   7  -4  -9    3.72    0.46
   7  -4  -9    3.44    0.69
   7  -4  -9    3.46    0.67
   7  -5  -9   28.13    1.28
   7  -5  -9   26.05    1.24
   7  -6  -9   52.37    1.58
   7  -6  -9   51.61    1.60
   7  -7  -9    1.50    0.63
   7  -7  -9    1.83    0.71
   7  -8  -9    0.49    0.56
   7  -8  -9    0.58    0.58
   7  -9  -9   31.30    1.39
   7 -10  -9    2.39    0.72
   8   2  -9    8.91    0.93
  -8  -2   9    7.98    0.88
   8   1  -9    8.18    0.91
  -8  -1   9    9.14    0.87
   8   0  -9    3.24    0.74
   8   0  -9    2.35    0.61
  -8   0   9    2.40    0.63
   8  -1  -9    0.94    0.61
   8  -1  -9    0.02    0.59
  -8   1   9    0.71    0.54
   8  -2  -9   35.48    1.38
   8  -2  -9   34.09    1.30
  -8   2   9   33.94    1.22
   8  -3  -9   15.56    1.06
   8  -3  -9   15.35    0.77
   8  -3  -9   14.17    1.03
  -8   3   9   14.90    0.85
   8  -4  -9   60.09    1.49
   8  -4  -9   59.54    1.76
   8  -4  -9   55.67    1.82
   8  -5  -9    5.55    0.77
   8  -5  -9    3.75    0.77
   8  -6  -9    0.19    0.68
   8  -6  -9    0.66    0.59
   8  -7  -9   20.61    1.13
   8  -7  -9   20.36    1.20
   8  -8  -9    2.78    0.68
   8  -8  -9    3.02    0.75
   8  -9  -9    8.67    0.86
   8  -9  -9    8.51    0.93
   8 -10  -9    1.72    0.72
   9   1  -9   -0.01    0.69
  -9  -1   9    0.14    0.61
   9   0  -9   11.19    1.04
  -9   0   9   11.98    1.01
   9  -1  -9    8.19    0.94
  -9   1   9    7.85    0.84
   9  -2  -9   34.78    1.39
   9  -2  -9   30.77    1.37
  -9   2   9   30.92    1.29
   9  -3  -9    0.15    0.67
   9  -3  -9    0.29    0.62
  -9   3   9    0.17    0.54
   9  -4  -9    1.25    0.69
   9  -4  -9    0.68    0.64
   9  -5  -9    4.37    0.57
   9  -5  -9    5.35    0.81
   9  -5  -9    5.45    0.82
   9  -6  -9    0.90    0.66
   9  -6  -9    1.47    0.69
   9  -7  -9    0.29    0.60
   9  -7  -9    1.02    0.68
   9  -8  -9    7.83    0.92
   9  -8  -9    7.62    0.84
   9  -9  -9   11.35    1.06
   9  -9  -9   10.59    0.95
   9 -10  -9    3.10    0.79
  10  -1  -9    3.53    0.84
 -10   1   9    0.41    0.64
  10  -2  -9    0.30    0.72
 -10   2   9    0.73    0.63
  10  -3  -9    1.67    0.69
  10  -3  -9    2.07    0.72
 -10   3   9    1.46    0.64
  10  -4  -9   -0.43    0.68
  10  -4  -9    0.04    0.66
 -10   4   9    0.98    0.61
  10  -5  -9    4.68    0.81
  10  -5  -9    4.19    0.79
  10  -6  -9   20.75    1.23
  10  -6  -9   16.24    1.18
  10  -7  -9   20.47    1.26
  10  -7  -9   19.28    1.24
  10  -8  -9    6.31    0.90
  10  -8  -9    7.96    1.00
  10  -9  -9   -0.09    0.67
  10  -9  -9    0.83    0.74
  11  -5  -9    8.43    0.97
  11  -5  -9    7.29    0.93
  11  -6  -9    4.41    0.89
  11  -6  -9    2.04    0.80
  10  -8  10    0.15    0.56
  10  -8  10    1.25    0.57
  10  -7  10   11.02    1.01
  10  -7  10   12.15    0.89
  10  -6  10    6.57    0.83
  10  -6  10    5.57    0.67
  10  -5  10    0.04    0.46
  10  -5  10    0.22    0.51
 -10   4 -10   17.32    1.08
  10  -4  10   17.95    1.13
  10  -4  10   18.99    0.96
 -10   3 -10    3.39    0.71
  10  -3  10    4.00    0.74
  10  -3  10    4.07    0.64
 -10   2 -10    0.69    0.59
  10  -2  10    0.33    0.53
  10  -2  10    0.67    0.51
   9  -9  10    0.06    0.54
   9  -9  10    0.50    0.54
   9  -9  10    0.30    0.59
   9  -8  10    7.40    0.80
   9  -8  10    6.84    0.78
   9  -8  10    4.78    0.71
   9  -7  10    1.69    0.54
   9  -7  10    0.99    0.57
   9  -6  10    2.94    0.63
   9  -6  10    2.43    0.50
   9  -6  10    3.54    0.59
   9  -5  10    1.10    0.43
   9  -5  10    0.40    0.48
  -9   4 -10    8.88    0.82
   9  -4  10    6.97    0.69
   9  -4  10    7.80    0.84
  -9   3 -10    3.52    0.62
   9  -3  10    3.79    0.58
   9  -3  10    3.67    0.69
  -9   2 -10   10.85    0.95
   9  -2  10    8.08    0.75
   9  -2  10    8.34    0.85
  -9   1 -10    7.89    0.89
   9  -1  10    8.09    0.89
   9  -1  10    7.41    0.79
  -9   0 -10    0.92    0.61
  -9   0 -10    0.38    0.58
   9   0  10    0.30    0.51
   9   0  10    0.13    0.52
   8 -10  10   -0.36    0.45
   8  -9  10    7.96    0.79
   8  -8  10   -0.16    0.48
   8  -8  10    1.65    0.55
   8  -8  10    0.15    0.51
   8  -7  10    7.03    0.72
   8  -7  10    6.53    0.73
   8  -7  10    7.74    0.76
   8  -6  10   58.55    1.60
   8  -6  10   57.87    1.48
   8  -6  10   58.17    1.63
   8  -6  10   54.25    1.70
   8  -5  10    5.18    0.58
   8  -5  10    5.70    0.61
   8  -5  10    6.74    0.77
   8  -4  10   14.54    0.79
   8  -4  10   15.93    0.99
  -8   3 -10   19.80    0.99
   8  -3  10   19.70    1.02
   8  -3  10   18.14    0.87
  -8   2 -10    2.89    0.60
   8  -2  10    2.70    0.51
   8  -2  10    3.83    0.67
  -8   1 -10   31.65    1.30
   8  -1  10   34.35    1.22
   8  -1  10   36.33    1.40
  -8   0 -10    0.60    0.53
   8   0  10    1.40    0.54
   8   0  10   -0.05    0.44
  -8  -1 -10    5.78    0.84
  -8  -1 -10    6.06    0.74
   8   1  10    4.25    0.64
   8   1  10    5.38    0.76
  -8  -2 -10    2.02    0.70
   8   2  10    0.04    0.57
   8   2  10    0.97    0.51
   7 -10  10    3.51    0.66
   7  -9  10    8.02    0.79
   7  -8  10   36.91    1.35
   7  -8  10   35.04    1.29
   7  -7  10    8.33    0.78
   7  -7  10    6.92    0.69
   7  -6  10   23.21    1.07
   7  -6  10   22.37    0.86
   7  -6  10   22.38    1.03
   7  -6  10   23.69    1.00
   7  -5  10    4.39    0.52
   7  -5  10    4.26    0.58
   7  -5  10    5.12    0.63
   7  -4  10   11.81    0.80
   7  -4  10   11.34    0.72
  -7   3 -10   45.57    1.43
   7  -3  10   48.07    1.35
   7  -3  10   47.38    1.46
  -7   2 -10    7.11    0.74
   7  -2  10    6.94    0.71
   7  -2  10    6.91    0.64
  -7   1 -10    1.99    0.53
   7  -1  10    3.06    0.55
   7  -1  10    2.63    0.57
  -7   0 -10    7.10    0.77
   7   0  10    7.98    0.78
   7   0  10    6.36    0.65
  -7  -1 -10    7.51    0.84
  -7  -1 -10    6.57    0.70
   7   1  10    5.69    0.64
   7   1  10    7.24    0.79
  -7  -2 -10    1.21    0.55
  -7  -2 -10    1.92    0.62
   7   2  10    2.03    0.61
   7   2  10    1.58    0.50
  -7  -3 -10   11.47    1.04
   7   3  10   11.83    1.03
   7   3  10   11.84    0.90
   6 -10  10   19.17    1.04
   6  -9  10    5.21    0.68
   6  -8  10    3.53    0.58
   6  -7  10    3.78    0.61
   6  -7  10    2.47    0.54
   6  -6  10   12.36    0.79
   6  -6  10   12.85    0.83
   6  -6  10   13.50    0.65
   6  -5  10    1.63    0.47
   6  -5  10    1.07    0.45
   6  -5  10    0.75    0.34
   6  -4  10   13.73    0.67
   6  -4  10   13.84    0.83
   6  -4  10   14.97    0.80
   6  -3  10   27.82    1.05
   6  -3  10   28.37    0.97
  -6   2 -10   23.54    1.00
   6  -2  10   23.02    0.89
   6  -2  10   23.95    0.99
  -6   1 -10   34.20    1.24
   6  -1  10   34.33    1.11
   6  -1  10   33.15    1.20
  -6   0 -10   12.01    0.82
   6   0  10   11.93    0.73
   6   0  10   12.47    0.83
  -6  -1 -10   24.71    0.98
  -6  -1 -10   23.50    1.16
   6   1  10   22.14    1.01
   6   1  10   24.15    1.16
  -6  -2 -10   57.17    1.56
  -6  -2 -10   59.67    1.83
   6   2  10   60.32    1.82
   6   2  10   56.29    1.61
  -6  -3 -10    3.57    0.68
   6   3  10    2.90    0.63
   6   3  10    2.29    0.55
  -6  -4 -10    6.48    0.88
   6   4  10    7.66    0.90
   6   4  10    7.26    0.77
   5 -10  10    1.50    0.57
   5  -9  10    6.81    0.70
   5  -8  10   15.70    0.90
   5  -7  10    7.22    0.69
   5  -6  10   34.35    1.16
   5  -6  10   34.77    1.16
   5  -5  10   52.76    1.43
   5  -5  10   58.58    1.28
   5  -5  10   53.32    1.42
   5  -4  10  102.08    2.17
   5  -4  10   98.74    2.08
   5  -4  10  105.46    2.05
   5  -3  10   38.20    1.09
   5  -3  10   37.15    1.15
   5  -3  10   38.31    1.06
  -5   2 -10   18.19    0.79
   5  -2  10   18.15    0.76
   5  -2  10   18.02    0.82
  -5   1 -10    6.28    0.61
  -5   1 -10    5.97    0.40
   5  -1  10    5.66    0.58
   5  -1  10    5.57    0.51
  -5   0 -10   54.09    1.52
   5   0  10   54.04    1.41
   5   0  10   56.64    1.55
  -5  -1 -10    0.93    0.47
   5   1  10    1.06    0.44
   5   1  10    0.98    0.41
  -5  -2 -10    4.21    0.68
  -5  -2 -10    5.03    0.58
   5   2  10    3.26    0.60
   5   2  10    3.83    0.56
  -5  -3 -10    5.46    0.61
  -5  -3 -10    4.99    0.73
   5   3  10    7.05    0.81
   5   3  10    6.98    0.67
  -5  -4 -10    1.18    0.59
   5   4  10    1.69    0.60
   5   4  10    1.15    0.44
  -5  -5 -10   -0.30    0.59
   5   5  10    0.51    0.47
   5   5  10    0.09    0.50
   4 -10  10    7.64    0.83
   4  -9  10    1.21    0.49
   4  -8  10   15.93    0.90
   4  -7  10   45.92    1.35
   4  -6  10   22.86    0.95
   4  -5  10    5.68    0.41
   4  -5  10    5.14    0.54
   4  -5  10    6.26    0.54
   4  -4  10    5.30    0.41
   4  -4  10    5.08    0.50
   4  -4  10    6.94    0.54
   4  -3  10   27.91    0.92
   4  -3  10   29.47    0.84
   4  -3  10   27.60    0.87
  -4   2 -10    0.33    0.29
   4  -2  10    0.87    0.30
   4  -2  10    0.67    0.30
   4  -2  10    1.08    0.31
  -4   1 -10    0.41    0.22
  -4   1 -10    0.62    0.35
   4  -1  10    0.82    0.33
   4  -1  10    0.14    0.30
  -4   0 -10    5.87    0.56
  -4   0 -10    5.57    0.35
   4   0  10    4.61    0.46
   4   0  10    5.53    0.54
  -4  -1 -10  100.80    2.28
   4   1  10  102.44    2.26
   4   1  10  101.87    2.17
  -4  -2 -10   15.14    0.72
  -4  -2 -10   14.17    0.84
   4   2  10   12.81    0.72
   4   2  10   13.46    0.89
  -4  -3 -10   11.20    0.68
  -4  -3 -10   12.10    0.95
   4   3  10   11.38    0.89
   4   3  10   12.10    0.73
  -4  -4 -10   16.52    1.06
   4   4  10   15.42    0.94
   4   4  10   16.40    0.88
  -4  -5 -10    7.77    0.85
   4   5  10    7.45    0.83
   4   5  10    7.29    0.67
  -4  -6 -10   19.77    1.20
   4   6  10   19.01    0.98
   4   6  10   18.71    1.10
  -3  10 -10   11.91    0.93
   3 -10  10    9.21    0.89
   3  -9  10    3.17    0.61
   3  -8  10    5.51    0.69
   3  -7  10   10.72    0.75
   3  -6  10   25.55    0.99
   3  -5  10   18.15    0.73
   3  -5  10   18.17    0.58
   3  -5  10   16.58    0.73
   3  -4  10    0.22    0.30
   3  -4  10    0.16    0.23
   3  -4  10   -0.20    0.26
   3  -3  10   29.68    0.87
   3  -3  10   30.92    0.84
   3  -3  10   29.36    0.86
  -3   2 -10   59.01    1.26
  -3   2 -10   57.97    1.31
   3  -2  10   56.46    1.27
   3  -2  10   58.90    1.26
   3  -2  10   57.61    1.30
  -3   1 -10  244.93    4.12
  -3   1 -10  247.82    4.31
   3  -1  10  248.76    4.22
   3  -1  10  247.65    4.30
   3  -1  10  245.52    4.05
  -3   0 -10   30.36    0.74
  -3   0 -10   31.00    0.99
   3   0  10   31.50    0.94
   3   0  10   29.53    0.93
  -3  -1 -10   29.47    1.02
   3   1  10   26.59    0.94
   3   1  10   28.98    0.90
  -3  -2 -10   37.83    1.19
  -3  -2 -10   35.84    0.91
   3   2  10   35.32    1.06
   3   2  10   35.15    1.14
  -3  -3 -10   27.40    0.83
  -3  -3 -10   24.04    1.05
   3   3  10   27.80    1.00
   3   3  10   27.30    1.11
  -3  -4 -10   48.63    1.20
  -3  -4 -10   44.11    1.49
   3   4  10   47.55    1.52
   3   4  10   49.24    1.36
  -3  -5 -10   21.40    1.16
   3   5  10   18.38    0.92
   3   5  10   18.16    1.00
  -3  -6 -10    4.07    0.72
   3   6  10    4.79    0.71
   3   6  10    5.26    0.62
  -3  -7 -10    4.65    0.79
   3   7  10    2.91    0.65
   3   7  10    4.05    0.63
  -2  10 -10    0.56    0.56
  -2  10 -10    0.86    0.56
   2 -10  10    0.07    0.56
  -2   9 -10    2.08    0.55
   2  -9  10    1.74    0.58
  -2   8 -10   58.82    1.57
   2  -8  10   58.01    1.68
   2  -7  10    3.76    0.59
   2  -6  10   13.20    0.74
  -2   5 -10   38.84    0.86
   2  -5  10   37.53    1.14
  -2   4 -10    0.75    0.24
   2  -4  10    1.02    0.31
   2  -4  10    0.80    0.26
   2  -4  10    0.81    0.24
  -2   3 -10  247.22    4.22
   2  -3  10  242.00    4.03
   2  -3  10  243.36    4.16
   2  -3  10  247.13    4.12
  -2   2 -10  200.08    3.48
  -2   2 -10  204.51    3.45
   2  -2  10  200.12    3.38
   2  -2  10  201.77    3.37
   2  -2  10  198.38    3.51
  -2   1 -10    4.05    0.39
  -2   1 -10    4.84    0.36
   2  -1  10    3.95    0.36
   2  -1  10    4.84    0.40
   2  -1  10    4.36    0.33
  -2   0 -10  203.82    3.39
  -2   0 -10  203.13    3.55
   2   0  10  190.10    3.23
   2   0  10  203.12    3.45
   2   0  10  199.31    3.57
  -2  -1 -10   57.98    1.15
   2   1  10   57.36    1.36
  -2  -2 -10    0.98    0.38
  -2  -2 -10    0.97    0.24
  -2  -2 -10    0.73    0.23
   2   2  10    0.72    0.35
   2   2  10    1.10    0.33
  -2  -3 -10   18.32    0.60
  -2  -3 -10   18.29    0.86
   2   3  10   17.68    0.82
   2   3  10   18.87    0.81
  -2  -4 -10   21.69    1.00
   2   4  10   23.99    0.94
   2   4  10   24.00    1.00
  -2  -5 -10    7.50    0.78
   2   5  10    7.24    0.76
   2   5  10    6.32    0.61
  -2  -6 -10    3.54    0.73
   2   6  10    3.30    0.53
   2   6  10    2.90    0.64
  -2  -7 -10    8.42    0.90
   2   7  10   10.16    0.94
   2   7  10    7.49    0.72
  -2  -8 -10    0.99    0.64
   2   8  10    0.79    0.56
  -1   9 -10    5.78    0.75
   1  -9  10    5.15    0.74
  -1   8 -10    7.40    0.70
  -1   8 -10    7.32    0.75
   1  -8  10    6.61    0.75
  -1   7 -10   23.38    0.96
  -1   7 -10   22.55    1.02
   1  -7  10   21.88    0.99
  -1   6 -10    1.11    0.45
   1  -6  10    0.76    0.46
  -1   5 -10  100.59    2.14
   1  -5  10  102.90    2.14
  -1   4 -10   29.52    0.75
  -1   4 -10   29.51    0.94
   1  -4  10   28.47    0.93
  -1   3 -10   58.92    1.35
  -1   3 -10   56.86    1.24
   1  -3  10   58.21    1.31
  -1   2 -10    3.62    0.36
  -1   2 -10    4.77    0.34
   1  -2  10    3.79    0.35
   1  -2  10    3.70    0.37
   1  -2  10    4.09    0.29
  -1   1 -10    1.60    0.30
  -1   1 -10    1.49    0.26
   1  -1  10    1.61    0.22
   1  -1  10    1.64    0.25
   1  -1  10    1.86    0.31
  -1   0 -10    1.30    0.28
  -1   0 -10    1.39    0.29
   1   0  10    1.60    0.20
   1   0  10    1.21    0.24
   1   0  10    1.47    0.29
  -1  -1 -10    4.20    0.35
  -1  -1 -10    3.82    0.42
   1   1  10    3.98    0.39
   1   1  10    4.13    0.41
  -1  -2 -10  246.72    4.28
  -1  -2 -10  243.49    4.02
  -1  -2 -10  242.20    3.76
   1   2  10  242.97    4.14
   1   2  10  236.79    4.28
  -1  -3 -10    0.21    0.17
  -1  -3 -10    0.53    0.29
  -1  -3 -10   -0.21    0.31
   1   3  10    0.16    0.29
   1   3  10    0.04    0.31
  -1  -4 -10    5.77    0.36
  -1  -4 -10    5.27    0.42
  -1  -4 -10    4.96    0.60
   1   4  10    5.38    0.56
   1   4  10    5.13    0.51
  -1  -5 -10   36.01    1.31
   1   5  10   33.85    1.20
   1   5  10   35.54    1.15
  -1  -6 -10    2.67    0.67
   1   6  10    3.42    0.54
   1   6  10    2.92    0.57
  -1  -7 -10   35.07    1.40
   1   7  10   39.82    1.29
   1   7  10   35.79    1.36
  -1  -8 -10    7.43    0.93
   1   8  10    9.26    0.93
   0   9 -10    0.30    0.52
   0  -9  10   -0.20    0.53
   0   8 -10    0.09    0.47
   0  -8  10    0.45    0.49
   0   7 -10    8.35    0.68
   0   7 -10    6.76    0.70
   0  -7  10    7.46    0.76
   0   6 -10   12.94    0.83
   0   6 -10   13.57    0.76
   0  -6  10   13.75    0.85
   0   5 -10   52.68    1.41
   0   5 -10   53.52    1.23
   0  -5  10   51.25    1.39
   0   4 -10    5.68    0.39
   0   4 -10    6.04    0.53
   0   4 -10    5.91    0.39
   0  -4  10    6.51    0.55
   0   3 -10   29.24    0.94
   0   3 -10   30.45    0.80
   0  -3  10   29.51    0.90
   0   2 -10  202.05    3.22
   0   2 -10  195.35    3.53
   0   2 -10  202.35    3.51
   0  -2  10  200.66    3.40
   0   1 -10    1.48    0.31
   0   1 -10    1.80    0.21
   0   1 -10    1.31    0.32
   0  -1  10    1.63    0.17
   0  -1  10    1.85    0.25
   0   0 -10  388.74    6.42
   0   0 -10  388.26    6.28
   0   0 -10  395.23    6.60
   0   0  10  390.92    6.54
   0   0  10  386.96    6.10
   0   0  10  391.07    6.08
   0  -1 -10    1.33    0.32
   0  -1 -10    1.54    0.29
   0   1  10    1.73    0.15
   0   1  10    1.54    0.30
   0   1  10    1.91    0.26
   0  -2 -10  198.11    3.40
   0  -2 -10  194.72    3.50
   0   2  10  200.08    3.59
   0   2  10  200.84    3.38
   0  -3 -10   28.85    0.84
   0  -3 -10   29.65    0.98
   0   3  10   29.82    0.94
   0   3  10   32.19    0.93
   0  -4 -10    5.06    0.44
   0  -4 -10    5.16    0.25
   0  -4 -10    4.96    0.54
   0   4  10    5.15    0.48
   0   4  10    4.58    0.48
   0  -5 -10   53.45    1.28
   0  -5 -10   54.12    1.51
   0   5  10   51.80    1.39
   0   5  10   54.59    1.43
   0  -6 -10   12.61    0.96
   0   6  10   12.08    0.82
   0   6  10   14.07    0.82
   0  -7 -10    8.06    0.83
   0   7  10    8.17    0.70
   0   7  10    7.16    0.75
   0  -8 -10    1.76    0.67
   0   8  10   -0.18    0.47
   0  -9 -10   -0.05    0.65
   0   9  10   -0.21    0.58
   1   8 -10    8.42    0.83
  -1  -8  10    7.58    0.82
   1   7 -10   36.49    1.26
  -1  -7  10   33.17    1.30
   1   6 -10    3.03    0.56
   1   6 -10    3.11    0.48
  -1  -6  10    2.55    0.59
   1   5 -10   37.06    1.18
   1   5 -10   34.82    1.00
  -1  -5  10   36.29    1.23
   1   4 -10    5.94    0.57
   1   4 -10    5.41    0.47
   1   4 -10    6.36    0.46
  -1  -4  10    4.82    0.53
   1   3 -10    0.13    0.34
   1   3 -10    0.28    0.18
   1   3 -10   -0.11    0.29
  -1  -3  10   -0.05    0.32
   1   2 -10  239.07    4.16
   1   2 -10  237.31    4.09
  -1  -2  10  233.73    4.00
   1   1 -10    4.22    0.38
   1   1 -10    3.19    0.39
  -1  -1  10    4.00    0.36
   1   0 -10    2.00    0.33
   1   0 -10    0.99    0.32
   1   0 -10    1.71    0.21
  -1   0  10    2.16    0.25
   1  -1 -10    1.83    0.36
   1  -1 -10    1.93    0.26
   1  -1 -10    1.05    0.31
  -1   1  10    1.58    0.21
  -1   1  10    1.59    0.19
   1  -2 -10    4.44    0.46
   1  -2 -10    4.33    0.38
   1  -2 -10    4.09    0.40
  -1   2  10    3.98    0.32
   1  -3 -10   54.05    1.27
   1  -3 -10   57.27    1.42
  -1   3  10   58.89    1.40
  -1   3  10   57.42    1.25
   1  -4 -10   30.16    0.97
   1  -4 -10   29.05    0.89
   1  -4 -10   28.55    0.96
  -1   4  10   27.75    0.91
  -1   4  10   28.78    0.97
   1  -5 -10   97.68    2.17
   1  -5 -10  100.53    2.19
   1  -5 -10  100.87    2.04
  -1   5  10  101.00    2.14
  -1   5  10   98.19    2.08
   1  -6 -10    0.97    0.45
   1  -6 -10    1.21    0.50
   1  -6 -10    0.24    0.46
  -1   6  10    1.04    0.44
  -1   6  10    0.90    0.45
   1  -7 -10   24.21    1.19
   1  -7 -10   24.20    1.04
   1  -7 -10   22.61    1.00
  -1   7  10   23.56    0.99
  -1   7  10   23.25    1.05
   1  -8 -10    7.29    0.84
  -1   8  10    7.06    0.76
   1  -9 -10    5.37    0.84
  -1   9  10    6.65    0.83
   2   8 -10    0.22    0.56
  -2  -8  10    0.89    0.57
   2   7 -10   10.17    0.85
  -2  -7  10    9.17    0.88
   2   6 -10    2.54    0.57
  -2  -6  10    4.49    0.67
   2   5 -10    7.03    0.69
  -2  -5  10    6.38    0.69
   2   4 -10   24.17    0.92
   2   4 -10   24.12    0.99
  -2  -4  10   24.75    1.00
   2   3 -10   18.08    0.79
   2   3 -10   19.13    0.85
  -2  -3  10   17.91    0.77
   2   2 -10    0.90    0.16
   2   2 -10    0.78    0.38
   2   2 -10    0.59    0.36
  -2  -2  10    0.99    0.34
   2   1 -10   57.85    1.39
   2   1 -10   55.63    1.32
  -2  -1  10   56.23    1.26
   2   0 -10  198.67    3.49
   2   0 -10  186.98    3.46
  -2   0  10  193.18    3.23
   2  -1 -10    3.20    0.43
   2  -1 -10    4.50    0.43
   2  -1 -10    4.28    0.33
  -2   1  10    3.90    0.26
  -2   1  10    4.21    0.33
   2  -2 -10  192.40    3.43
   2  -2 -10  195.07    3.31
  -2   2  10  195.09    3.15
  -2   2  10  192.28    3.09
   2  -3 -10  240.61    4.31
   2  -3 -10  242.48    4.11
   2  -3 -10  234.89    4.15
  -2   3  10  240.88    3.95
  -2   3  10  239.69    3.73
   2  -4 -10    0.47    0.37
   2  -4 -10    1.05    0.37
   2  -4 -10    0.92    0.40
  -2   4  10    0.47    0.28
   2  -5 -10   36.55    1.16
   2  -5 -10   33.98    1.13
   2  -5 -10   36.04    1.13
  -2   5  10   38.67    1.09
   2  -6 -10   13.73    0.92
   2  -6 -10   15.63    0.86
   2  -6 -10   13.70    0.80
  -2   6  10   15.18    0.83
   2  -7 -10    4.77    0.67
   2  -7 -10    4.92    0.63
   2  -7 -10    4.93    0.67
  -2   7  10    3.93    0.57
   2  -8 -10   57.21    1.75
   2  -8 -10   58.21    1.59
  -2   8  10   55.61    1.64
   2  -9 -10    2.07    0.64
  -2   9  10    2.28    0.61
   2 -10 -10    1.44    0.72
  -2  10  10    0.73    0.64
  -3  -7  10    3.05    0.69
   3   6 -10    4.32    0.69
  -3  -6  10    4.68    0.71
   3   5 -10   18.18    0.99
  -3  -5  10   19.39    1.02
   3   4 -10   46.70    1.43
   3   4 -10   49.33    1.32
  -3  -4  10   49.31    1.46
   3   3 -10   27.63    1.00
   3   3 -10   27.46    1.05
  -3  -3  10   25.80    1.01
   3   2 -10   37.21    1.11
   3   2 -10   35.72    1.13
  -3  -2  10   35.36    1.09
   3   1 -10   27.49    0.97
   3   1 -10   27.54    0.54
   3   1 -10   26.54    0.92
  -3  -1  10   28.65    0.89
   3   0 -10   29.41    1.00
   3   0 -10   30.28    0.98
  -3   0  10   29.90    0.86
   3  -1 -10  238.52    4.24
  -3   1  10  242.42    3.97
   3  -2 -10   55.04    1.37
   3  -2 -10   57.43    1.40
  -3   2  10   56.43    1.13
   3  -3 -10   31.54    1.02
   3  -3 -10   31.22    0.89
   3  -3 -10   30.44    1.02
  -3   3  10   30.94    0.79
   3  -4 -10    0.27    0.36
   3  -4 -10    0.42    0.34
   3  -4 -10    0.13    0.37
  -3   4  10    0.25    0.27
   3  -5 -10   17.70    0.90
   3  -5 -10   18.06    0.80
   3  -5 -10   19.05    0.88
  -3   5  10   18.16    0.77
   3  -6 -10   27.57    1.04
   3  -6 -10   27.03    1.17
   3  -6 -10   29.19    1.12
   3  -6 -10   28.20    0.72
  -3   6  10   26.54    1.00
   3  -7 -10   12.72    0.87
   3  -7 -10   11.99    0.87
   3  -7 -10   11.77    0.80
  -3   7  10   12.69    0.79
   3  -8 -10    6.01    0.66
   3  -8 -10    5.54    0.72
   3  -8 -10    6.49    0.80
  -3   8  10    6.65    0.73
   3  -9 -10    3.25    0.69
   3  -9 -10    3.40    0.64
  -3   9  10    2.52    0.62
   3 -10 -10   12.89    1.09
  -3  10  10   11.17    0.99
  -4  -6  10   19.15    1.10
   4   5 -10    8.22    0.80
  -4  -5  10    7.73    0.82
   4   4 -10   15.94    1.00
   4   4 -10   16.37    0.94
  -4  -4  10   14.92    0.93
   4   3 -10   10.31    0.84
   4   3 -10   12.57    0.86
  -4  -3  10   11.07    0.81
   4   2 -10   15.00    0.86
   4   2 -10   14.08    0.89
  -4  -2  10   14.44    0.76
   4   1 -10  101.31    2.16
   4   1 -10   99.36    2.17
  -4  -1  10   97.54    2.07
   4   0 -10    4.78    0.55
   4   0 -10    5.59    0.58
   4   0 -10    5.08    0.30
  -4   0  10    5.63    0.50
   4  -1 -10   -0.23    0.39
   4  -1 -10    0.14    0.38
  -4   1  10    0.34    0.33
   4  -2 -10   -0.04    0.35
   4  -2 -10    0.45    0.37
  -4   2  10    0.94    0.31
   4  -3 -10   28.33    0.96
   4  -3 -10   26.21    0.95
   4  -4 -10    4.80    0.55
   4  -4 -10    6.09    0.59
   4  -5 -10    5.57    0.56
   4  -5 -10    6.00    0.67
   4  -6 -10   23.07    1.01
   4  -6 -10   23.94    1.12
   4  -6 -10   23.74    1.00
  -4   6  10   23.28    0.89
   4  -7 -10   48.33    1.46
   4  -7 -10   49.91    1.60
   4  -7 -10   48.65    1.41
  -4   7  10   47.40    1.37
   4  -8 -10   14.35    1.04
   4  -8 -10   14.55    0.86
   4  -8 -10   15.35    1.01
  -4   8  10   16.34    0.97
   4  -9 -10    1.05    0.60
   4  -9 -10    1.58    0.62
  -4   9  10    1.37    0.53
   4 -10 -10    4.94    0.79
   4 -10 -10    6.99    0.86
  -4  10  10    5.90    0.78
  -5  -5  10   -0.15    0.56
   5   4 -10    1.59    0.55
  -5  -4  10    1.14    0.52
   5   3 -10    6.77    0.75
   5   3 -10    6.48    0.73
  -5  -3  10    4.62    0.65
   5   2 -10    3.91    0.68
   5   2 -10    5.10    0.67
  -5  -2  10    4.16    0.59
   5   1 -10    0.15    0.49
   5   1 -10    1.00    0.60
  -5  -1  10    1.06    0.49
   5   0 -10   54.57    1.47
   5   0 -10   53.64    1.50
  -5   0  10   51.57    1.39
   5  -1 -10    5.96    0.63
   5  -1 -10    4.99    0.63
   5  -1 -10    5.57    0.40
  -5   1  10    6.13    0.56
   5  -2 -10   15.74    0.85
   5  -2 -10   19.44    0.95
  -5   2  10   19.39    0.74
   5  -3 -10   37.72    1.23
   5  -3 -10   36.90    1.20
   5  -4 -10   93.73    2.12
   5  -4 -10   98.46    2.14
   5  -5 -10   52.70    1.45
   5  -5 -10   50.22    1.52
   5  -6 -10   34.05    1.22
   5  -6 -10   36.01    1.28
   5  -7 -10    7.81    0.85
   5  -7 -10    6.64    0.71
  -5   7  10    7.79    0.71
   5  -8 -10   18.84    1.12
   5  -8 -10   19.95    0.98
  -5   8  10   16.61    0.98
   5  -9 -10    7.52    0.85
  -5   9  10    8.26    0.81
   5 -10 -10    0.61    0.61
  -5  10  10   -0.06    0.56
  -6  -4  10    5.96    0.80
   6   3 -10    2.96    0.65
  -6  -3  10    2.58    0.58
   6   2 -10   55.77    1.67
   6   2 -10   57.39    1.62
  -6  -2  10   58.05    1.66
   6   1 -10   21.95    1.18
   6   1 -10   24.39    1.15
  -6  -1  10   21.66    0.98
   6   0 -10   12.74    1.02
   6   0 -10   13.37    0.93
  -6   0  10   13.35    0.84
   6  -1 -10   34.49    1.25
   6  -1 -10   33.44    1.27
  -6   1  10   35.50    1.16
   6  -2 -10   21.87    1.07
   6  -2 -10   23.82    1.16
   6  -2 -10   21.99    0.73
  -6   2  10   24.80    0.92
   6  -3 -10   27.03    1.16
   6  -3 -10   26.66    1.18
   6  -4 -10   13.16    0.98
   6  -4 -10   15.38    0.99
   6  -5 -10    0.27    0.60
   6  -5 -10    1.40    0.59
   6  -6 -10   13.42    0.96
   6  -6 -10   13.21    0.95
   6  -7 -10    3.06    0.64
   6  -7 -10    2.49    0.74
   6  -8 -10    3.50    0.75
   6  -8 -10    4.22    0.64
   6  -9 -10    4.83    0.78
  -6   9  10    3.56    0.66
   6 -10 -10   20.53    1.20
  -6  10  10   19.99    1.15
   7   3 -10    9.58    0.91
  -7  -3  10   10.62    0.95
   7   2 -10    1.19    0.66
  -7  -2  10    1.27    0.58
   7   1 -10    7.10    0.80
   7   1 -10    7.41    0.85
  -7  -1  10    6.65    0.75
   7   0 -10    7.06    0.85
   7   0 -10    7.74    0.80
  -7   0  10    8.27    0.79
   7  -1 -10    2.58    0.70
   7  -1 -10    2.40    0.66
  -7   1  10    3.05    0.60
   7  -2 -10    7.23    0.86
   7  -2 -10    5.33    0.75
  -7   2  10    7.59    0.72
   7  -3 -10   47.24    1.53
   7  -3 -10   49.66    1.22
   7  -3 -10   49.51    1.63
  -7   3  10   48.21    1.39
   7  -4 -10   12.94    0.95
   7  -4 -10   11.21    0.92
   7  -5 -10    3.25    0.74
   7  -5 -10    4.24    0.77
   7  -6 -10   22.58    1.11
   7  -6 -10   24.08    1.27
   7  -7 -10    8.20    0.90
   7  -7 -10    8.56    0.81
   7  -8 -10   32.46    1.40
   7  -8 -10   34.53    1.30
   7  -9 -10    8.02    0.94
   7 -10 -10    3.80    0.79
  -7  10  10    3.73    0.73
   8   2 -10    0.26    0.66
  -8  -2  10    1.35    0.65
   8   1 -10    5.52    0.84
  -8  -1  10    5.73    0.78
   8   0 -10    0.31    0.59
   8   0 -10    0.00    0.61
  -8   0  10    0.76    0.56
   8  -1 -10   34.46    1.32
   8  -1 -10   33.99    1.37
  -8   1  10   35.60    1.26
   8  -2 -10    3.61    0.73
   8  -2 -10    3.64    0.71
  -8   2  10    2.97    0.62
   8  -3 -10   21.71    1.16
   8  -3 -10   19.32    1.13
  -8   3  10   19.75    0.99
   8  -4 -10   15.99    1.12
   8  -4 -10   13.48    1.02
   8  -4 -10   15.73    0.79
   8  -5 -10    6.06    0.84
   8  -5 -10    6.73    0.86
   8  -6 -10   55.48    1.75
   8  -6 -10   52.40    1.67
   8  -7 -10    6.79    0.80
   8  -7 -10    6.48    0.86
   8  -8 -10   -0.07    0.63
   8  -8 -10    1.04    0.64
   8  -9 -10    6.71    0.83
   8  -9 -10    7.47    0.92
   8 -10 -10    0.09    0.67
   9   0 -10    0.81    0.72
  -9   0  10    0.37    0.60
   9  -1 -10    8.71    0.97
   9  -1 -10    6.48    0.85
  -9   1  10    7.03    0.82
   9  -2 -10    7.49    0.89
   9  -2 -10    7.99    0.90
  -9   2  10    7.95    0.80
   9  -3 -10    4.51    0.78
   9  -3 -10    4.86    0.79
  -9   3  10    3.52    0.67
   9  -4 -10    8.02    0.90
   9  -4 -10    9.23    0.94
  -9   4  10    8.15    0.80
   9  -5 -10    1.21    0.66
   9  -5 -10    1.03    0.67
   9  -6 -10    2.21    0.73
   9  -6 -10    2.30    0.68
   9  -7 -10    1.43    0.70
   9  -7 -10    0.64    0.69
   9  -8 -10    5.77    0.88
   9  -8 -10    6.99    0.87
   9  -9 -10    0.32    0.69
   9  -9 -10   -0.81    0.63
  10  -2 -10    0.51    0.72
 -10   2  10    0.24    0.61
  10  -3 -10    3.74    0.79
  10  -3 -10    2.67    0.78
 -10   3  10    2.60    0.69
  10  -4 -10   20.07    1.28
  10  -4 -10   19.00    1.22
 -10   4  10   20.02    1.09
  10  -5 -10    0.83    0.72
  10  -5 -10   -0.23    0.68
  10  -6 -10    6.30    0.93
  10  -6 -10    5.62    0.91
  10  -7 -10   11.45    1.04
  10  -7 -10   10.35    1.05
  10  -8 -10    1.25    0.73
  10  -8 -10    0.34    0.74
  10  -8  11    5.61    0.83
  10  -8  11    7.10    0.78
  10  -7  11   18.91    1.11
  10  -6  11   18.31    0.96
  10  -6  11   17.67    1.08
 -10   5 -11    4.07    0.68
  10  -5  11    4.11    0.76
  10  -5  11    3.10    0.60
 -10   4 -11    0.91    0.53
  10  -4  11    0.25    0.56
  10  -4  11    0.28    0.45
 -10   3 -11    0.10    0.51
  10  -3  11    0.11    0.50
  10  -3  11    0.97    0.57
 -10   2 -11    2.82    0.69
  10  -2  11    1.88    0.56
  10  -2  11    1.92    0.69
   9  -9  11    9.28    0.85
   9  -9  11    8.57    0.91
   9  -8  11    5.71    0.77
   9  -8  11    4.22    0.66
   9  -7  11    0.44    0.54
   9  -6  11    0.84    0.45
   9  -6  11    1.08    0.57
   9  -5  11    1.57    0.49
   9  -5  11    1.78    0.60
  -9   4 -11    1.16    0.52
   9  -4  11    0.41    0.49
   9  -4  11    0.74    0.43
  -9   3 -11    0.70    0.53
   9  -3  11    0.20    0.42
   9  -3  11   -0.46    0.49
  -9   2 -11   27.68    1.27
   9  -2  11   26.82    1.30
   9  -2  11   26.76    1.14
  -9   1 -11    9.22    0.95
   9  -1  11    9.41    0.95
   9  -1  11    8.52    0.80
  -9   0 -11    9.70    0.91
  -9   0 -11    9.90    0.97
   9   0  11    8.42    0.82
   9   0  11    8.88    0.97
   8 -10  11    1.48    0.60
   8  -9  11    7.04    0.80
   8  -8  11    3.59    0.63
   8  -8  11    3.08    0.65
   8  -7  11   13.14    0.90
   8  -7  11   15.02    0.92
   8  -6  11    0.54    0.51
   8  -6  11    1.09    0.51
   8  -6  11    0.35    0.40
   8  -5  11    6.58    0.62
   8  -5  11    7.02    0.76
  -8   4 -11   45.34    1.51
   8  -4  11   42.22    1.30
   8  -4  11   42.13    1.44
  -8   3 -11   12.00    0.88
   8  -3  11   10.07    0.77
   8  -3  11   12.09    0.96
  -8   2 -11   23.42    1.12
   8  -2  11   27.37    1.23
   8  -2  11   24.75    1.07
  -8   1 -11   -0.18    0.45
   8  -1  11    0.19    0.51
   8  -1  11   -0.16    0.40
  -8   0 -11    1.94    0.59
   8   0  11    2.36    0.52
   8   0  11    3.45    0.66
  -8  -1 -11    5.55    0.72
  -8  -1 -11    4.25    0.74
   8   1  11    5.31    0.70
   8   1  11    6.41    0.83
  -8  -2 -11    5.92    0.88
   8   2  11    6.56    0.75
   8   2  11    5.54    0.82
   7 -10  11    0.52    0.53
   7  -9  11   28.45    1.22
   7  -8  11    0.41    0.51
   7  -8  11    0.89    0.49
   7  -7  11    0.74    0.49
   7  -7  11    0.78    0.51
   7  -6  11   54.76    1.62
   7  -6  11   53.41    1.55
   7  -6  11   53.73    1.36
   7  -5  11   20.06    0.93
   7  -5  11   21.79    0.88
   7  -5  11   21.45    1.02
   7  -4  11    6.61    0.69
   7  -4  11    7.22    0.63
  -7   3 -11    1.39    0.51
   7  -3  11    0.47    0.44
   7  -3  11    0.00    0.38
  -7   2 -11    0.61    0.45
   7  -2  11   -0.25    0.47
   7  -2  11    0.18    0.40
  -7   1 -11    2.69    0.58
   7  -1  11    3.48    0.54
   7  -1  11    2.45    0.56
  -7   0 -11    1.55    0.52
   7   0  11    1.35    0.55
   7   0  11    1.57    0.46
  -7  -1 -11   15.92    0.88
  -7  -1 -11   15.96    1.05
   7   1  11   17.06    1.06
   7   1  11   14.72    0.85
  -7  -2 -11    0.95    0.59
   7   2  11    1.04    0.55
   7   2  11   -0.07    0.45
  -7  -3 -11   17.94    1.14
   7   3  11   17.22    1.15
   7   3  11   18.05    1.03
   6 -10  11    0.65    0.49
   6  -9  11   -0.13    0.45
   6  -8  11   25.87    1.11
   6  -7  11    3.08    0.54
   6  -7  11    3.96    0.59
   6  -6  11    2.73    0.54
   6  -6  11    2.65    0.55
   6  -5  11    1.88    0.49
   6  -5  11    2.09    0.40
   6  -5  11    1.68    0.48
   6  -4  11   52.81    1.34
   6  -4  11   53.01    1.50
   6  -4  11   51.72    1.42
  -6   3 -11    1.87    0.46
   6  -3  11    2.38    0.44
   6  -3  11    3.16    0.55
  -6   2 -11    1.19    0.43
   6  -2  11    0.11    0.39
   6  -2  11    0.06    0.37
  -6   1 -11   53.77    1.59
   6  -1  11   52.25    1.58
   6  -1  11   54.78    1.45
  -6   0 -11    3.39    0.61
   6   0  11    2.67    0.57
   6   0  11    1.81    0.50
  -6  -1 -11   52.66    1.69
   6   1  11   50.35    1.49
   6   1  11   54.55    1.69
  -6  -2 -11    0.71    0.54
  -6  -2 -11    1.23    0.47
   6   2  11    1.32    0.53
   6   2  11    0.17    0.41
  -6  -3 -11    1.48    0.58
   6   3  11    1.90    0.50
   6   3  11    1.69    0.57
  -6  -4 -11   16.72    1.10
   6   4  11   20.03    1.19
   6   4  11   19.17    1.03
   5 -10  11    3.16    0.61
   5  -9  11    0.96    0.51
   5  -8  11   10.74    0.75
   5  -7  11    0.23    0.41
   5  -6  11   53.20    1.46
   5  -6  11   55.07    1.46
   5  -5  11   12.28    0.71
   5  -5  11   13.86    0.80
   5  -5  11   14.00    0.64
   5  -4  11    5.18    0.57
   5  -4  11    5.59    0.54
   5  -4  11    4.99    0.46
   5  -3  11  135.23    2.63
   5  -3  11  136.17    2.71
   5  -3  11  137.38    2.59
  -5   2 -11    2.42    0.44
   5  -2  11    2.48    0.43
   5  -2  11    2.68    0.44
  -5   1 -11   62.75    1.64
   5  -1  11   66.57    1.59
   5  -1  11   62.17    1.63
  -5   0 -11   13.54    0.80
   5   0  11   13.13    0.73
   5   0  11   13.33    0.80
  -5  -1 -11    0.77    0.47
   5   1  11    1.96    0.50
   5   1  11    2.01    0.45
  -5  -2 -11   21.16    0.89
  -5  -2 -11   19.81    1.05
   5   2  11   22.96    1.08
   5   2  11   22.82    1.01
  -5  -3 -11    7.73    0.83
   5   3  11    7.83    0.83
   5   3  11    6.75    0.66
  -5  -4 -11    1.87    0.66
   5   4  11    1.84    0.62
   5   4  11    1.35    0.47
  -5  -5 -11    3.30    0.73
   5   5  11    3.34    0.71
   5   5  11    3.39    0.59
   4 -10  11   20.39    1.11
   4  -9  11    2.17    0.54
   4  -8  11   45.19    1.45
   4  -7  11    0.11    0.40
   4  -6  11    0.49    0.43
   4  -5  11   63.24    1.35
   4  -5  11   63.41    1.55
   4  -5  11   64.94    1.52
   4  -4  11    1.50    0.31
   4  -4  11    1.57    0.39
   4  -4  11    1.08    0.35
   4  -3  11   16.93    0.67
   4  -3  11   17.36    0.75
   4  -3  11   17.19    0.71
  -4   2 -11    2.51    0.34
  -4   2 -11    1.98    0.37
   4  -2  11    2.30    0.36
   4  -2  11    2.52    0.35
   4  -2  11    2.57    0.40
  -4   1 -11   31.55    0.79
  -4   1 -11   30.49    1.03
   4  -1  11   28.88    0.95
   4  -1  11   30.25    0.99
  -4   0 -11    1.31    0.39
  -4   0 -11    1.11    0.24
   4   0  11    0.93    0.37
   4   0  11    1.59    0.38
  -4  -1 -11    5.68    0.61
   4   1  11    5.35    0.52
   4   1  11    5.99    0.63
  -4  -2 -11   50.51    1.23
  -4  -2 -11   51.64    1.56
   4   2  11   49.70    1.49
   4   2  11   49.71    1.38
  -4  -3 -11    7.47    0.80
  -4  -3 -11    8.29    0.61
   4   3  11    7.79    0.77
   4   3  11    6.62    0.64
  -4  -4 -11   42.04    1.50
   4   4  11   40.73    1.51
   4   4  11   43.99    1.37
  -4  -5 -11    0.88    0.63
   4   5  11    0.37    0.41
   4   5  11    0.84    0.56
  -4  -6 -11    1.19    0.68
   4   6  11    0.35    0.46
   4   6  11    0.09    0.56
  -3  10 -11   19.62    1.10
   3 -10  11   19.58    1.11
   3  -9  11    0.94    0.49
   3  -8  11    6.43    0.69
   3  -7  11    7.76    0.73
   3  -6  11    2.52    0.52
   3  -5  11    3.11    0.33
   3  -5  11    2.66    0.43
   3  -5  11    2.06    0.39
   3  -4  11   28.89    0.93
   3  -4  11   29.79    0.83
   3  -4  11   30.35    0.89
  -3   3 -11  163.77    2.99
   3  -3  11  164.54    2.94
   3  -3  11  167.58    2.99
   3  -3  11  166.69    2.95
  -3   2 -11    4.69    0.43
  -3   2 -11    3.61    0.37
   3  -2  11    3.52    0.39
   3  -2  11    4.42    0.39
   3  -2  11    4.17    0.41
  -3   1 -11    1.78    0.29
  -3   1 -11    2.63    0.39
   3  -1  11    1.72    0.35
   3  -1  11    1.42    0.29
   3  -1  11    1.38    0.31
  -3   0 -11  161.88    3.08
  -3   0 -11  164.83    2.81
   3   0  11  163.16    3.05
   3   0  11  162.03    3.01
  -3  -1 -11   17.67    0.81
   3   1  11   18.46    0.75
   3   1  11   17.44    0.83
  -3  -2 -11  135.07    2.38
   3   2  11  130.24    2.71
   3   2  11  138.03    2.72
  -3  -3 -11    2.12    0.38
  -3  -3 -11    1.32    0.49
   3   3  11    1.95    0.46
   3   3  11    2.16    0.52
  -3  -4 -11    0.01    0.54
   3   4  11    1.05    0.45
   3   4  11    0.85    0.50
  -3  -5 -11   11.69    1.02
   3   5  11   14.33    0.80
   3   5  11   12.45    0.94
  -3  -6 -11    0.94    0.58
   3   6  11    0.33    0.54
   3   6  11    0.18    0.44
  -3  -7 -11    0.39    0.63
   3   7  11    0.92    0.50
   3   7  11    1.16    0.62
  -2  10 -11    6.55    0.79
   2 -10  11    7.94    0.84
  -2   9 -11    0.72    0.51
  -2   9 -11   -0.55    0.50
   2  -9  11   -0.08    0.50
  -2   8 -11    1.10    0.49
  -2   8 -11    0.27    0.44
   2  -8  11    0.34    0.48
   2  -7  11   21.04    0.96
   2  -6  11   51.68    1.45
  -2   5 -11  136.28    2.70
  -2   5 -11  138.53    2.44
   2  -5  11  137.96    2.70
  -2   4 -11    2.89    0.42
  -2   4 -11    2.79    0.33
   2  -4  11    2.62    0.34
   2  -4  11    1.72    0.29
   2  -4  11    2.10    0.39
  -2   3 -11    2.04    0.37
   2  -3  11    1.43    0.33
   2  -3  11    1.39    0.29
   2  -3  11    1.82    0.30
  -2   2 -11  128.45    2.44
  -2   2 -11  134.41    2.41
   2  -2  11  136.37    2.37
   2  -2  11  131.92    2.36
   2  -2  11  130.35    2.46
  -2   1 -11    2.01    0.32
  -2   1 -11    1.11    0.30
   2  -1  11    1.40    0.32
   2  -1  11    1.60    0.28
   2  -1  11    1.72    0.27
  -2   0 -11  132.26    2.51
  -2   0 -11  135.38    2.37
   2   0  11  130.55    2.53
   2   0  11  129.87    2.43
   2   0  11  131.80    2.23
  -2  -1 -11    3.48    0.33
  -2  -1 -11    3.56    0.47
   2   1  11    3.05    0.40
   2   1  11    4.02    0.45
  -2  -2 -11    1.79    0.28
  -2  -2 -11    2.08    0.42
  -2  -2 -11    2.91    0.27
   2   2  11    2.31    0.38
   2   2  11    2.09    0.42
  -2  -3 -11    2.78    0.50
  -2  -3 -11    2.97    0.31
   2   3  11    3.05    0.50
   2   3  11    3.35    0.45
  -2  -4 -11    0.40    0.46
   2   4  11   -0.10    0.36
   2   4  11   -0.03    0.43
  -2  -5 -11   -0.37    0.53
   2   5  11    0.85    0.51
   2   5  11    0.10    0.43
  -2  -6 -11   24.23    1.16
   2   6  11   24.64    1.04
   2   6  11   23.03    1.11
  -2  -7 -11   28.03    1.37
   2   7  11   30.04    1.15
   2   7  11   27.32    1.30
  -2  -8 -11    1.32    0.73
   2   8  11    1.66    0.62
  -1   9 -11    5.92    0.74
   1  -9  11    6.07    0.75
  -1   8 -11   14.98    0.85
  -1   8 -11   15.35    0.93
   1  -8  11   15.51    0.90
  -1   7 -11   56.39    1.48
  -1   7 -11   53.78    1.56
   1  -7  11   53.89    1.60
  -1   6 -11    1.50    0.45
   1  -6  11    1.63    0.51
  -1   5 -11    6.16    0.59
   1  -5  11    5.67    0.58
  -1   4 -11   17.02    0.60
  -1   4 -11   16.64    0.78
   1  -4  11   18.14    0.76
  -1   3 -11    4.78    0.44
  -1   3 -11    3.94    0.38
   1  -3  11    3.36    0.40
   1  -3  11    3.56    0.31
  -1   2 -11    1.71    0.26
  -1   2 -11    1.86    0.33
  -1   2 -11    1.44    0.34
   1  -2  11    1.77    0.30
   1  -2  11    1.29    0.22
   1  -2  11    1.92    0.32
  -1   1 -11  140.89    2.60
  -1   1 -11  143.45    2.51
   1  -1  11  142.76    2.65
   1  -1  11  141.48    2.42
   1  -1  11  142.65    2.44
  -1   0 -11  146.01    2.62
  -1   0 -11  146.96    2.62
   1   0  11  145.10    2.53
   1   0  11  145.86    2.73
   1   0  11  140.80    2.38
  -1  -1 -11    1.57    0.32
  -1  -1 -11    1.84    0.32
   1   1  11    2.20    0.33
   1   1  11    2.17    0.35
  -1  -2 -11    1.55    0.39
  -1  -2 -11    1.72    0.31
  -1  -2 -11    1.40    0.16
   1   2  11    1.96    0.37
   1   2  11    1.12    0.33
  -1  -3 -11   30.50    1.03
  -1  -3 -11   28.15    0.80
   1   3  11   29.52    0.99
   1   3  11   29.00    0.99
  -1  -4 -11   63.65    1.67
  -1  -4 -11   65.29    1.37
   1   4  11   61.74    1.59
   1   4  11   66.83    1.63
  -1  -5 -11   53.29    1.59
   1   5  11   54.77    1.57
   1   5  11   53.19    1.45
  -1  -6 -11    3.45    0.66
   1   6  11    2.73    0.54
   1   6  11    3.04    0.61
  -1  -7 -11    0.31    0.53
   1   7  11    0.38    0.45
   1   7  11    0.30    0.52
  -1  -8 -11    8.72    0.95
   1   8  11    9.03    0.93
   0   9 -11    8.72    0.87
   0  -9  11    8.40    0.89
   0   8 -11    4.05    0.66
   0  -8  11    2.66    0.61
   0   7 -11    1.25    0.52
   0  -7  11    1.02    0.52
   0   6 -11    2.71    0.55
   0   6 -11    1.23    0.40
   0  -6  11    2.42    0.51
   0   5 -11   12.95    0.80
   0  -5  11   15.14    0.82
   0   4 -11    1.16    0.31
   0   4 -11    1.10    0.26
   0   4 -11    1.03    0.36
   0  -4  11    1.41    0.41
   0   3 -11  161.49    3.03
   0   3 -11  164.43    2.91
   0  -3  11  160.83    2.94
   0   2 -11  135.39    2.49
   0   2 -11  133.56    2.54
   0   2 -11  132.45    2.20
   0  -2  11  128.87    2.39
   0   1 -11  141.32    2.66
   0   1 -11  143.43    2.43
   0   1 -11  148.13    2.71
   0  -1  11  142.50    2.33
   0  -1  11  143.20    2.48
   0   0 -11    0.28    0.31
   0   0 -11   -0.16    0.25
   0   0 -11    0.41    0.31
   0   0  11   -0.15    0.21
   0   0  11    0.01    0.20
   0   0  11    0.47    0.31
   0  -1 -11  140.08    2.61
   0  -1 -11  145.62    2.61
   0   1  11  145.00    2.73
   0   1  11  147.87    2.51
   0   1  11  142.68    2.29
   0  -2 -11  131.90    2.43
   0  -2 -11  131.69    2.53
   0   2  11  134.35    2.42
   0   2  11  135.66    2.62
   0  -3 -11  163.53    3.07
   0  -3 -11  162.09    2.87
   0   3  11  162.01    3.09
   0   3  11  159.97    2.94
   0  -4 -11    1.42    0.40
   0  -4 -11    1.92    0.45
   0   4  11    1.32    0.36
   0   4  11    0.93    0.40
   0  -5 -11   13.71    0.76
   0  -5 -11   12.10    0.89
   0   5  11   11.89    0.81
   0   5  11   13.42    0.82
   0  -6 -11    1.11    0.55
   0   6  11    2.02    0.51
   0   6  11    3.37    0.56
   0  -7 -11    1.36    0.62
   0   7  11    0.80    0.48
   0   7  11    0.60    0.51
   0  -8 -11    4.70    0.79
   0   8  11    3.01    0.66
   0  -9 -11    7.16    0.92
   0   9  11    9.24    0.95
   1   8 -11    9.74    0.87
  -1  -8  11    7.71    0.84
   1   7 -11   -0.04    0.47
  -1  -7  11    0.54    0.46
   1   6 -11    3.25    0.57
  -1  -6  11    3.00    0.56
   1   5 -11   55.12    1.52
  -1  -5  11   56.93    1.57
   1   4 -11   64.36    1.44
   1   4 -11   64.66    1.61
  -1  -4  11   63.61    1.60
   1   3 -11   30.84    0.88
   1   3 -11   29.84    1.01
  -1  -3  11   27.31    0.94
   1   2 -11    1.63    0.37
   1   2 -11    1.73    0.34
  -1  -2  11    1.41    0.34
   1   1 -11    1.54    0.35
   1   1 -11    1.85    0.15
   1   1 -11    1.60    0.37
  -1  -1  11    2.08    0.30
   1   0 -11  139.34    2.64
   1   0 -11  138.41    2.36
   1   0 -11  143.04    2.68
  -1   0  11  140.41    2.24
  -1   0  11  141.28    2.38
   1  -1 -11  141.73    2.76
   1  -1 -11  141.16    2.65
   1  -1 -11  141.70    2.50
  -1   1  11  145.42    2.39
  -1   1  11  144.55    2.33
   1  -2 -11    1.82    0.37
   1  -2 -11    1.60    0.32
   1  -2 -11    1.38    0.36
  -1   2  11    1.87    0.28
   1  -3 -11    3.60    0.47
   1  -3 -11    4.29    0.45
   1  -3 -11    4.39    0.47
  -1   3  11    3.42    0.36
  -1   3  11    4.05    0.47
   1  -4 -11   15.85    0.75
   1  -4 -11   16.67    0.81
   1  -4 -11   16.54    0.80
  -1   4  11   17.30    0.74
  -1   4  11   18.05    0.83
   1  -5 -11    5.50    0.64
   1  -5 -11    4.95    0.58
   1  -5 -11    5.99    0.59
  -1   5  11    5.34    0.58
  -1   5  11    5.15    0.52
   1  -6 -11    2.10    0.51
   1  -6 -11    1.81    0.55
   1  -6 -11    2.24    0.52
  -1   6  11    2.04    0.47
  -1   6  11    1.93    0.52
   1  -7 -11   54.23    1.47
   1  -7 -11   54.58    1.57
   1  -7 -11   51.17    1.63
  -1   7  11   53.28    1.60
  -1   7  11   52.73    1.51
   1  -8 -11   15.18    0.99
  -1   8  11   15.10    0.93
  -1   8  11   15.57    0.91
   1  -9 -11    5.13    0.80
  -1   9  11    5.85    0.77
   2   8 -11    1.46    0.64
  -2  -8  11    1.33    0.57
   2   7 -11   28.62    1.21
  -2  -7  11   30.00    1.25
   2   6 -11   24.37    1.09
  -2  -6  11   23.27    1.10
   2   5 -11    0.07    0.47
  -2  -5  11   -0.32    0.46
   2   4 -11    0.32    0.44
   2   4 -11    0.73    0.47
  -2  -4  11   -0.03    0.42
   2   3 -11    2.40    0.49
   2   3 -11    3.07    0.48
  -2  -3  11    2.44    0.43
   2   2 -11    2.03    0.41
   2   2 -11    2.07    0.44
  -2  -2  11    2.73    0.42
   2   1 -11    3.91    0.45
   2   1 -11    3.61    0.48
  -2  -1  11    3.55    0.40
   2   0 -11  124.89    2.51
   2   0 -11  130.85    2.52
  -2   0  11  132.25    2.30
   2  -1 -11    1.40    0.26
   2  -1 -11    1.30    0.38
   2  -1 -11    1.64    0.39
  -2   1  11    2.17    0.19
  -2   1  11    1.36    0.24
   2  -2 -11  134.57    2.40
   2  -2 -11  131.32    2.63
   2  -2 -11  133.80    2.54
  -2   2  11  132.92    2.19
  -2   2  11  132.07    2.25
   2  -3 -11    1.43    0.41
   2  -3 -11    1.32    0.38
   2  -3 -11    2.04    0.35
  -2   3  11    1.62    0.17
  -2   3  11    1.48    0.28
   2  -4 -11    2.30    0.46
   2  -4 -11    2.16    0.41
   2  -4 -11    2.10    0.42
  -2   4  11    2.83    0.36
   2  -5 -11  130.40    2.76
   2  -5 -11  134.63    2.70
   2  -5 -11  133.62    2.65
  -2   5  11  137.69    2.59
   2  -6 -11   50.12    1.45
   2  -6 -11   51.36    1.49
   2  -6 -11   51.64    1.48
  -2   6  11   51.57    1.42
   2  -7 -11   21.55    1.01
   2  -7 -11   22.75    1.08
   2  -7 -11   20.28    1.05
  -2   7  11   22.33    1.06
   2  -8 -11    0.66    0.55
   2  -8 -11    0.65    0.53
  -2   8  11    0.94    0.49
   2  -9 -11    0.56    0.60
  -2   9  11    0.22    0.56
   2 -10 -11    7.96    0.96
  -2  10  11    6.80    0.85
   3   7 -11    0.84    0.57
  -3  -7  11    0.81    0.56
   3   6 -11    0.36    0.54
  -3  -6  11    0.09    0.51
   3   5 -11   11.35    0.86
  -3  -5  11   10.78    0.85
   3   4 -11    0.62    0.49
   3   4 -11    0.98    0.52
  -3  -4  11    0.62    0.49
   3   3 -11    1.74    0.52
   3   3 -11    3.12    0.59
  -3  -3  11    3.01    0.54
   3   2 -11  136.56    2.70
   3   2 -11  135.35    2.74
  -3  -2  11  136.10    2.66
   3   1 -11   17.96    0.78
   3   1 -11   15.51    0.81
  -3  -1  11   16.52    0.71
   3   0 -11  157.49    3.02
   3   0 -11  157.42    3.03
  -3   0  11  161.58    2.82
   3  -1 -11    1.48    0.39
   3  -1 -11    2.00    0.43
  -3   1  11    1.41    0.16
  -3   1  11    1.64    0.30
   3  -2 -11    3.52    0.45
   3  -2 -11    4.19    0.51
  -3   2  11    3.69    0.33
  -3   2  11    3.85    0.28
   3  -3 -11  161.09    2.91
   3  -3 -11  159.89    3.11
   3  -3 -11  161.08    3.04
  -3   3  11  157.22    2.65
  -3   3  11  166.08    2.74
   3  -4 -11   28.59    0.91
   3  -4 -11   27.33    0.99
   3  -4 -11   29.58    1.04
  -3   4  11   29.24    0.85
   3  -5 -11    2.24    0.45
   3  -5 -11    2.45    0.56
   3  -5 -11    2.65    0.50
  -3   5  11    2.09    0.40
   3  -6 -11    2.42    0.61
   3  -6 -11    2.11    0.51
   3  -6 -11    1.95    0.52
  -3   6  11    2.25    0.48
   3  -7 -11    8.17    0.74
   3  -7 -11    7.55    0.80
   3  -7 -11    8.62    0.83
  -3   7  11    7.13    0.67
   3  -8 -11    7.51    0.78
   3  -8 -11    7.37    0.80
   3  -8 -11    8.53    0.75
  -3   8  11    8.03    0.78
   3  -9 -11    1.76    0.60
   3  -9 -11    1.14    0.63
  -3   9  11    0.84    0.56
   3 -10 -11   19.61    1.21
  -3  10  11   19.63    1.17
  -4  -6  11    0.23    0.52
   4   5 -11    0.41    0.53
  -4  -5  11    1.42    0.56
   4   4 -11   43.44    1.32
   4   4 -11   43.27    1.45
  -4  -4  11   43.02    1.43
   4   3 -11    6.33    0.72
   4   3 -11    7.55    0.71
  -4  -3  11    8.25    0.75
   4   2 -11   50.48    1.45
   4   2 -11   49.84    1.46
  -4  -2  11   49.73    1.40
   4   1 -11    5.53    0.63
   4   1 -11    5.26    0.65
  -4  -1  11    5.94    0.58
   4   0 -11    1.32    0.46
   4   0 -11    0.76    0.48
  -4   0  11    1.16    0.38
   4  -1 -11   28.91    1.04
   4  -1 -11   27.60    1.04
  -4   1  11   28.50    0.86
   4  -2 -11    2.59    0.50
   4  -2 -11    2.60    0.47
  -4   2  11    2.10    0.35
   4  -3 -11   18.35    0.89
   4  -3 -11   16.62    0.88
  -4   3  11   16.83    0.60
   4  -4 -11    1.10    0.51
   4  -4 -11    0.30    0.43
   4  -5 -11   66.22    1.70
   4  -5 -11   61.25    1.65
   4  -5 -11   64.61    1.59
  -4   5  11   65.52    1.47
   4  -6 -11    0.29    0.58
   4  -6 -11   -0.02    0.48
   4  -6 -11    0.57    0.44
  -4   6  11    0.91    0.42
   4  -7 -11   -0.05    0.63
   4  -7 -11    1.62    0.57
   4  -7 -11    1.48    0.53
  -4   7  11    0.73    0.48
   4  -8 -11   44.84    1.39
   4  -8 -11   42.01    1.47
   4  -8 -11   44.62    1.47
  -4   8  11   44.90    1.45
   4  -9 -11    2.28    0.63
   4  -9 -11    3.87    0.72
  -4   9  11    2.87    0.63
   4 -10 -11   18.33    1.16
   4 -10 -11   19.76    1.19
  -4  10  11   18.58    1.06
  -5  -5  11    3.54    0.71
   5   4 -11    2.02    0.62
  -5  -4  11    2.48    0.62
   5   3 -11    8.10    0.78
   5   3 -11    7.42    0.77
  -5  -3  11    6.52    0.74
   5   2 -11   23.32    1.10
   5   2 -11   20.51    1.05
  -5  -2  11   19.87    0.99
   5   1 -11    2.47    0.60
   5   1 -11    1.64    0.58
  -5  -1  11    2.51    0.54
   5   0 -11   12.15    0.95
   5   0 -11   13.72    0.91
  -5   0  11   12.91    0.75
   5  -1 -11   66.73    1.71
   5  -1 -11   64.99    1.74
  -5   1  11   65.88    1.55
   5  -2 -11    3.54    0.57
   5  -2 -11    1.74    0.54
  -5   2  11    2.65    0.44
   5  -3 -11  134.91    2.76
   5  -3 -11  131.87    2.79
  -5   3  11  136.29    2.49
   5  -4 -11    5.20    0.68
   5  -4 -11    5.06    0.64
   5  -5 -11   12.67    0.91
   5  -5 -11   14.25    0.85
   5  -6 -11   52.19    1.61
   5  -6 -11   50.82    1.48
   5  -7 -11   -0.05    0.63
   5  -7 -11   -0.04    0.53
  -5   7  11    0.15    0.47
   5  -8 -11   13.43    1.04
   5  -8 -11   12.00    0.88
  -5   8  11   13.96    0.94
   5  -9 -11    0.46    0.61
  -5   9  11    0.29    0.47
   5 -10 -11    3.29    0.73
  -5  10  11    2.38    0.67
  -6  -4  11   19.74    1.12
   6   3 -11    0.85    0.60
   6   3 -11    1.69    0.63
  -6  -3  11    0.87    0.57
   6   2 -11    0.57    0.60
   6   2 -11    0.72    0.56
  -6  -2  11   -0.13    0.50
   6   1 -11   55.58    1.66
   6   1 -11   52.77    1.65
  -6  -1  11   51.18    1.55
   6   0 -11    2.31    0.66
   6   0 -11    1.98    0.61
  -6   0  11    2.45    0.55
   6  -1 -11   53.73    1.57
  -6   1  11   50.79    1.42
   6  -2 -11    0.62    0.56
   6  -2 -11    0.13    0.56
  -6   2  11    0.44    0.43
   6  -3 -11    0.75    0.59
   6  -3 -11    1.43    0.56
  -6   3  11    2.11    0.49
   6  -4 -11   51.16    1.56
   6  -4 -11   53.73    1.61
   6  -5 -11    2.34    0.64
   6  -5 -11    2.08    0.68
   6  -6 -11    2.02    0.59
   6  -6 -11    1.93    0.71
   6  -7 -11    3.06    0.65
   6  -7 -11    1.40    0.65
   6  -8 -11   26.01    1.13
   6  -8 -11   24.57    1.25
  -6   8  11   25.91    1.11
   6  -9 -11    0.24    0.61
  -6   9  11   -0.06    0.51
   6 -10 -11    0.05    0.67
  -6  10  11    0.78    0.61
   7   3 -11   21.05    1.16
  -7  -3  11   19.87    1.13
   7   2 -11   -0.14    0.62
  -7  -2  11    0.69    0.52
   7   1 -11   16.74    1.09
   7   1 -11   14.77    1.07
  -7  -1  11   13.29    0.92
   7   0 -11    0.63    0.65
   7   0 -11    0.45    0.58
  -7   0  11    1.23    0.53
   7  -1 -11    2.54    0.68
   7  -1 -11    2.76    0.71
  -7   1  11    3.23    0.61
   7  -2 -11    0.89    0.68
   7  -2 -11    0.63    0.62
  -7   2  11   -0.18    0.48
   7  -3 -11    1.64    0.65
   7  -3 -11    0.55    0.56
  -7   3  11    0.67    0.48
   7  -4 -11    8.09    0.86
   7  -4 -11    6.68    0.87
   7  -5 -11   23.08    1.14
   7  -5 -11   21.78    1.14
   7  -6 -11   53.45    1.73
   7  -6 -11   53.16    1.69
   7  -7 -11    0.86    0.63
   7  -7 -11    0.58    0.68
   7  -8 -11    0.35    0.59
   7  -8 -11    0.65    0.68
   7  -9 -11   30.60    1.32
   7  -9 -11   28.09    1.37
   7 -10 -11    1.27    0.71
  -7  10  11   -0.21    0.59
   8   2 -11    5.23    0.84
  -8  -2  11    6.35    0.83
   8   1 -11    5.10    0.84
  -8  -1  11    6.73    0.82
   8   0 -11    2.83    0.77
   8   0 -11    3.18    0.74
  -8   0  11    2.05    0.62
   8  -1 -11   -0.44    0.62
   8  -1 -11   -0.49    0.63
  -8   1  11    0.92    0.55
   8  -2 -11   23.48    1.19
   8  -2 -11   26.45    1.32
  -8   2  11   24.23    1.09
   8  -3 -11   12.69    1.02
   8  -3 -11   12.66    1.06
  -8   3  11   12.54    0.85
   8  -4 -11   42.13    1.53
   8  -4 -11   44.00    1.60
  -8   4  11   43.21    1.36
   8  -5 -11    7.53    0.89
   8  -5 -11    7.78    0.86
   8  -6 -11    0.63    0.65
   8  -6 -11    0.82    0.61
   8  -7 -11   16.46    1.10
   8  -7 -11   16.27    1.14
   8  -8 -11    2.54    0.71
   8  -8 -11    2.50    0.74
   8  -9 -11    7.80    0.94
   8  -9 -11    8.48    0.91
   8 -10 -11    1.94    0.75
   9   0 -11    9.51    1.01
  -9   0  11    7.42    0.86
   9  -1 -11    7.91    0.89
   9  -1 -11    8.74    0.96
  -9   1  11    8.72    0.89
   9  -2 -11   28.96    1.38
   9  -2 -11   26.00    1.38
  -9   2  11   28.94    1.24
   9  -3 -11   -0.58    0.58
   9  -3 -11   -0.27    0.63
  -9   3  11   -0.19    0.52
   9  -4 -11   -0.64    0.60
   9  -4 -11    1.31    0.70
  -9   4  11    0.53    0.56
   9  -5 -11    2.29    0.74
   9  -5 -11    1.68    0.68
   9  -6 -11    1.35    0.71
   9  -6 -11    0.36    0.69
   9  -7 -11    1.20    0.69
   9  -7 -11    0.26    0.70
   9  -8 -11    5.89    0.82
   9  -8 -11    5.27    0.83
   9  -9 -11    8.85    1.00
   9  -9 -11    9.50    0.96
  10  -2 -11    1.31    0.77
  10  -2 -11    2.18    0.76
 -10   2  11    1.47    0.67
  10  -3 -11    0.01    0.69
  10  -3 -11    1.26    0.73
 -10   3  11   -0.96    0.55
  10  -4 -11   -0.83    0.69
  10  -4 -11   -0.76    0.69
 -10   4  11    0.48    0.59
  10  -5 -11    3.35    0.84
  10  -5 -11    3.11    0.87
 -10   5  11    2.75    0.66
  10  -6 -11   18.52    1.27
  10  -6 -11   18.31    1.25
  10  -7 -11   19.24    1.21
  10  -7 -11   18.94    1.28
  10  -8 -11    6.21    0.93
  10  -8 -11    5.05    0.90
  10  -7  12    4.68    0.81
  10  -6  12    7.53    0.92
  10  -6  12    7.64    0.75
 -10   5 -12    0.01    0.49
  10  -5  12    0.40    0.53
  10  -5  12    0.02    0.49
 -10   4 -12   17.96    1.04
  10  -4  12   14.85    0.90
  10  -4  12   15.18    1.05
 -10   3 -12    4.27    0.73
  10  -3  12    3.80    0.67
  10  -3  12    3.23    0.71
   9  -9  12    2.82    0.72
   9  -9  12    2.73    0.65
   9  -8  12    1.25    0.61
   9  -8  12    0.54    0.56
   9  -7  12    3.48    0.67
   9  -7  12    4.28    0.71
   9  -6  12   10.21    0.76
   9  -6  12   11.92    0.89
   9  -5  12    3.05    0.57
   9  -5  12    4.07    0.68
  -9   4 -12   16.60    1.01
   9  -4  12   13.45    1.01
   9  -4  12   12.09    0.84
  -9   3 -12    1.33    0.56
   9  -3  12    2.09    0.50
   9  -3  12    1.88    0.58
  -9   2 -12    7.85    0.88
   9  -2  12    8.95    0.94
   9  -2  12    6.95    0.73
  -9   1 -12    3.09    0.68
   9  -1  12    4.50    0.78
   9  -1  12    3.75    0.66
  -9   0 -12    3.33    0.72
  -9   0 -12    3.99    0.75
   9   0  12    2.05    0.56
   9   0  12    1.19    0.64
   8  -9  12    4.58    0.71
   8  -8  12   -0.23    0.45
   8  -8  12   -0.39    0.50
   8  -7  12    5.51    0.74
   8  -7  12    5.14    0.65
   8  -6  12   25.22    1.12
   8  -6  12   26.40    1.16
   8  -6  12   26.88    1.01
   8  -5  12    6.66    0.62
   8  -5  12    6.41    0.76
  -8   4 -12   21.24    1.04
   8  -4  12   21.83    0.92
   8  -4  12   21.99    1.13
  -8   3 -12   12.27    0.89
   8  -3  12   11.02    0.78
   8  -3  12   11.05    0.93
  -8   2 -12    5.90    0.74
   8  -2  12    4.54    0.61
   8  -2  12    4.88    0.72
  -8   1 -12   46.28    1.63
   8  -1  12   46.79    1.46
   8  -1  12   48.79    1.66
  -8   0 -12   -0.16    0.48
   8   0  12    0.46    0.57
   8   0  12    0.50    0.44
  -8  -1 -12    1.21    0.59
   8   1  12    1.07    0.56
   8   1  12    0.59    0.53
   7 -10  12    4.24    0.70
   7  -9  12    7.88    0.80
   7  -8  12   47.65    1.57
   7  -8  12   47.77    1.53
   7  -7  12    6.70    0.72
   7  -7  12    7.39    0.77
   7  -6  12    4.91    0.55
   7  -6  12    5.72    0.70
   7  -6  12    6.33    0.69
   7  -5  12    8.57    0.72
   7  -5  12    8.95    0.66
   7  -5  12    8.29    0.80
   7  -4  12    1.46    0.44
   7  -4  12    1.89    0.54
  -7   3 -12   14.27    0.85
   7  -3  12   13.03    0.93
   7  -3  12   13.41    0.74
  -7   2 -12    0.64    0.47
   7  -2  12    0.36    0.44
   7  -2  12    1.28    0.54
  -7   1 -12    1.01    0.52
   7  -1  12   -0.90    0.42
   7  -1  12   -0.61    0.40
  -7   0 -12    5.93    0.74
   7   0  12    6.56    0.66
   7   0  12    6.30    0.74
  -7  -1 -12    5.48    0.67
  -7  -1 -12    6.34    0.78
   7   1  12    6.88    0.72
   7   1  12    5.89    0.76
  -7  -2 -12    5.04    0.77
   7   2  12    3.74    0.63
   7   2  12    3.84    0.71
  -7  -3 -12    7.56    0.92
   7   3  12    8.23    0.96
   7   3  12    7.84    0.82
   6 -10  12   14.95    0.99
   6  -9  12    1.68    0.57
   6  -8  12    4.46    0.64
   6  -7  12    0.32    0.46
   6  -7  12   -0.87    0.37
   6  -6  12   13.23    0.86
   6  -6  12   12.37    0.80
   6  -5  12    0.69    0.41
   6  -5  12   -0.18    0.35
   6  -5  12   -0.26    0.42
   6  -4  12   13.08    0.72
   6  -4  12   13.70    0.80
   6  -4  12   14.27    0.82
  -6   3 -12   24.51    1.00
   6  -3  12   25.88    0.97
   6  -3  12   26.27    1.09
  -6   2 -12   27.75    1.08
   6  -2  12   29.04    1.01
   6  -2  12   25.76    1.07
  -6   1 -12   17.27    0.96
   6  -1  12   16.11    0.83
   6  -1  12   16.32    0.99
  -6   0 -12   14.16    0.88
   6   0  12   13.74    0.95
   6   0  12   15.58    0.82
  -6  -1 -12    7.18    0.80
   6   1  12    6.30    0.64
   6   1  12    6.56    0.74
  -6  -2 -12   26.66    1.26
   6   2  12   24.21    1.08
   6   2  12   26.77    1.20
  -6  -3 -12   11.21    1.01
   6   3  12   12.21    0.94
   6   3  12   10.72    0.78
  -6  -4 -12    7.85    0.92
   6   4  12    7.34    0.79
   6   4  12    6.50    0.87
   5 -10  12   -0.40    0.45
   5  -9  12   15.36    0.94
   5  -8  12    9.57    0.74
   5  -7  12    0.78    0.49
   5  -6  12   17.94    0.85
   5  -6  12   16.55    0.89
   5  -5  12   51.43    1.39
   5  -5  12   47.68    1.38
   5  -5  12   50.87    1.24
   5  -4  12   76.97    1.69
   5  -4  12   77.87    1.82
   5  -4  12   76.89    1.73
  -5   3 -12   53.54    1.45
   5  -3  12   52.39    1.34
   5  -3  12   55.11    1.36
   5  -3  12   55.75    1.46
  -5   2 -12   14.52    0.65
  -5   2 -12   15.19    0.82
   5  -2  12   14.35    0.78
   5  -2  12   14.62    0.71
  -5   1 -12   23.64    1.02
   5  -1  12   23.09    1.03
   5  -1  12   25.48    0.96
  -5   0 -12   49.23    1.49
   5   0  12   47.48    1.44
   5   0  12   49.44    1.36
  -5  -1 -12    0.04    0.45
   5   1  12   -0.48    0.36
   5   1  12    0.62    0.44
  -5  -2 -12    7.75    0.83
  -5  -2 -12    9.35    0.73
   5   2  12    8.78    0.82
   5   2  12    8.85    0.70
  -5  -3 -12    5.96    0.75
   5   3  12    6.86    0.69
   5   3  12    6.21    0.75
  -5  -4 -12    3.76    0.72
   5   4  12    3.62    0.58
   5   4  12    3.46    0.67
  -5  -5 -12    1.13    0.66
   5   5  12   -0.15    0.57
   5   5  12    0.30    0.48
   4 -10  12    7.76    0.84
   4  -9  12    2.88    0.62
   4  -8  12   21.46    0.99
   4  -7  12   15.21    0.83
   4  -6  12   29.73    1.04
   4  -6  12   28.11    1.07
   4  -5  12   23.27    0.89
   4  -5  12   23.53    0.90
   4  -5  12   24.21    0.79
   4  -4  12    1.44    0.39
   4  -4  12    1.08    0.37
   4  -4  12    0.63    0.31
  -4   3 -12   42.07    1.09
  -4   3 -12   41.84    1.15
   4  -3  12   40.98    1.10
   4  -3  12   41.82    1.12
   4  -3  12   44.06    1.18
  -4   2 -12   15.45    0.65
  -4   2 -12   15.61    0.71
   4  -2  12   14.71    0.75
   4  -2  12   15.50    0.68
   4  -2  12   14.71    0.65
  -4   1 -12    2.49    0.45
  -4   1 -12    3.92    0.36
   4  -1  12    3.73    0.49
   4  -1  12    2.88    0.43
  -4   0 -12    1.30    0.41
  -4   0 -12    1.68    0.28
   4   0  12    1.44    0.40
   4   0  12    1.00    0.38
  -4  -1 -12   73.72    1.89
   4   1  12   78.06    1.88
   4   1  12   77.73    1.83
  -4  -2 -12   14.64    0.89
  -4  -2 -12   13.83    0.69
   4   2  12   14.46    0.94
   4   2  12   14.31    0.79
  -4  -3 -12    2.15    0.57
   4   3  12    2.41    0.52
   4   3  12    1.61    0.55
  -4  -4 -12   19.14    1.08
   4   4  12   21.43    1.09
   4   4  12   23.74    1.03
  -4  -5 -12   14.00    1.00
   4   5  12   16.54    1.06
   4   5  12   13.87    0.88
  -4  -6 -12   16.08    1.14
   4   6  12   15.62    0.97
   4   6  12   15.51    1.04
  -3  10 -12    8.37    0.86
   3 -10  12    9.23    0.91
   3  -9  12   10.36    0.89
   3  -8  12    6.05    0.72
   3  -7  12    1.42    0.48
   3  -6  12   22.76    0.94
   3  -5  12   13.10    0.59
   3  -5  12   14.04    0.69
   3  -5  12   13.44    0.75
  -3   4 -12    3.23    0.45
   3  -4  12    3.40    0.37
   3  -4  12    3.37    0.40
   3  -4  12    3.57    0.44
  -3   3 -12   38.14    1.06
   3  -3  12   39.93    1.04
   3  -3  12   37.84    1.03
   3  -3  12   39.88    1.04
  -3   2 -12   10.59    0.59
  -3   2 -12   10.10    0.54
   3  -2  12    9.71    0.52
   3  -2  12    8.87    0.52
   3  -2  12    8.58    0.56
  -3   1 -12  155.10    2.69
  -3   1 -12  148.97    2.83
   3  -1  12  148.66    2.78
   3  -1  12  147.04    2.83
   3  -1  12  147.21    2.60
  -3   0 -12   38.33    1.15
  -3   0 -12   37.03    0.92
   3   0  12   36.78    1.11
  -3  -1 -12   42.82    1.30
   3   1  12   40.86    1.25
   3   1  12   44.88    1.24
  -3  -2 -12   53.62    1.54
  -3  -2 -12   52.11    1.15
   3   2  12   51.95    1.46
   3   2  12   54.32    1.45
  -3  -3 -12   20.51    1.08
   3   3  12   24.39    0.96
   3   3  12   25.09    1.09
  -3  -4 -12   14.88    0.95
   3   4  12   13.85    0.96
   3   4  12   16.18    0.90
  -3  -5 -12   12.32    1.01
   3   5  12   12.49    0.95
   3   5  12   12.39    0.77
  -3  -6 -12    2.34    0.64
   3   6  12    2.21    0.54
   3   6  12    1.96    0.62
  -3  -7 -12    2.84    0.75
   3   7  12    2.33    0.70
   3   7  12    2.35    0.59
  -2   9 -12    4.06    0.68
   2  -9  12    3.18    0.67
  -2   8 -12   23.78    1.03
  -2   8 -12   26.18    1.08
   2  -8  12   23.70    1.05
  -2   7 -12    7.69    0.73
   2  -7  12    8.16    0.76
  -2   6 -12   13.89    0.84
   2  -6  12   14.98    0.85
  -2   5 -12   54.38    1.18
  -2   5 -12   53.39    1.42
   2  -5  12   52.52    1.39
  -2   4 -12   14.85    0.63
  -2   4 -12   16.40    0.77
   2  -4  12   16.02    0.73
   2  -4  12   15.03    0.60
   2  -4  12   15.67    0.63
  -2   3 -12  148.83    2.82
   2  -3  12  149.37    2.73
   2  -3  12  151.03    2.65
   2  -3  12  154.63    2.78
  -2   2 -12   26.53    0.79
  -2   2 -12   25.65    0.86
   2  -2  12   26.38    0.83
   2  -2  12   25.68    0.78
   2  -2  12   26.96    0.78
  -2   1 -12   14.34    0.61
  -2   1 -12   13.67    0.62
   2  -1  12   16.07    0.68
   2  -1  12   13.79    0.59
   2  -1  12   13.84    0.52
  -2   0 -12   26.08    0.79
  -2   0 -12   27.13    0.88
   2   0  12   26.24    0.88
   2   0  12   24.02    0.66
   2   0  12   24.64    0.82
  -2  -1 -12    9.62    0.61
  -2  -1 -12    9.76    0.52
   2   1  12    9.21    0.62
   2   1  12    8.52    0.58
  -2  -2 -12   14.95    0.49
  -2  -2 -12   15.54    0.78
   2   2  12   13.99    0.71
   2   2  12   15.48    0.77
  -2  -3 -12   14.57    0.84
   2   3  12   14.10    0.78
   2   3  12   14.15    0.80
  -2  -4 -12   28.91    1.23
   2   4  12   25.75    1.07
   2   4  12   30.60    1.10
  -2  -5 -12    0.65    0.57
   2   5  12    1.49    0.52
   2   5  12    0.65    0.47
  -2  -6 -12    4.05    0.75
   2   6  12    4.88    0.69
   2   6  12    5.12    0.63
  -2  -7 -12    9.97    1.00
   2   7  12    8.30    0.79
   2   7  12    8.17    0.91
  -1   9 -12    0.53    0.54
   1  -9  12    1.36    0.60
  -1   8 -12    5.92    0.71
   1  -8  12    4.48    0.66
  -1   7 -12    6.79    0.61
  -1   7 -12    6.15    0.65
   1  -7  12    6.42    0.69
  -1   6 -12    0.21    0.44
   1  -6  12    0.04    0.44
  -1   5 -12   77.14    1.82
   1  -5  12   76.59    1.81
  -1   4 -12   40.23    1.18
  -1   4 -12   40.90    1.01
   1  -4  12   41.81    1.17
  -1   3 -12    9.64    0.52
  -1   3 -12    9.28    0.63
   1  -3  12    9.06    0.46
   1  -3  12    9.95    0.58
  -1   2 -12   14.51    0.52
  -1   2 -12   13.63    0.64
  -1   2 -12   14.37    0.68
   1  -2  12   14.05    0.50
   1  -2  12   13.09    0.59
   1  -2  12   14.76    0.64
  -1   1 -12   10.55    0.51
  -1   1 -12   10.10    0.59
   1  -1  12    9.19    0.45
   1  -1  12    9.71    0.47
   1  -1  12    9.80    0.55
  -1   0 -12    9.45    0.55
  -1   0 -12    9.58    0.54
   1   0  12    9.98    0.51
   1   0  12    9.22    0.62
   1   0  12    9.21    0.39
  -1  -1 -12   12.38    0.62
  -1  -1 -12   13.24    0.61
   1   1  12   13.82    0.65
   1   1  12   14.76    0.66
  -1  -2 -12  146.57    2.83
  -1  -2 -12  145.79    2.61
   1   2  12  146.80    2.73
   1   2  12  147.41    2.85
  -1  -3 -12    3.65    0.40
  -1  -3 -12    3.50    0.50
   1   3  12    2.81    0.44
   1   3  12    3.70    0.49
  -1  -4 -12   23.30    1.02
   1   4  12   23.75    1.01
   1   4  12   22.98    0.92
  -1  -5 -12   18.10    1.06
   1   5  12   17.78    0.92
   1   5  12   19.27    1.01
  -1  -6 -12    0.35    0.52
   1   6  12    0.17    0.44
   1   6  12    0.73    0.47
  -1  -7 -12   50.74    1.73
   1   7  12   47.04    1.62
   1   7  12   50.65    1.56
  -1  -8 -12    5.79    0.87
   1   8  12    4.18    0.77
   0   9 -12    3.05    0.66
   0  -9  12    2.67    0.67
   0   8 -12    0.43    0.51
   0  -8  12    0.88    0.55
   0   7 -12    5.93    0.70
   0  -7  12    4.96    0.68
   0   6 -12   13.99    0.89
   0  -6  12   17.28    0.92
   0   5 -12   51.43    1.43
   0  -5  12   48.71    1.40
   0   4 -12    1.18    0.34
   0   4 -12    1.72    0.45
   0  -4  12    1.43    0.42
   0   3 -12   36.25    0.72
   0   3 -12   37.77    0.99
   0   3 -12   36.39    1.11
   0  -3  12   37.12    1.04
   0   2 -12   24.42    0.59
   0   2 -12   26.66    0.86
   0   2 -12   25.16    0.89
   0  -2  12   26.23    0.79
   0   1 -12    9.25    0.41
   0   1 -12    8.80    0.59
   0   1 -12    8.81    0.62
   0  -1  12   10.05    0.47
   0  -1  12    9.44    0.37
   0   0 -12  561.03    9.31
   0   0 -12  571.36    9.54
   0   0 -12  579.97    9.14
   0   0  12  569.38    8.85
   0   0  12  581.65    8.89
   0   0  12  571.65    9.48
   0  -1 -12    9.14    0.63
   0  -1 -12    9.58    0.58
   0  -1 -12    9.82    0.53
   0   1  12    8.59    0.64
   0   1  12    9.82    0.32
   0   1  12   10.22    0.50
   0  -2 -12   23.80    0.82
   0  -2 -12   24.59    0.83
   0   2  12   23.78    0.77
   0   2  12   25.80    0.89
   0  -3 -12   37.55    1.15
   0  -3 -12   38.95    1.03
   0   3  12   37.47    1.07
   0   3  12   37.80    1.13
   0  -4 -12    1.40    0.43
   0  -4 -12    1.25    0.46
   0   4  12    1.72    0.42
   0   4  12    1.03    0.37
   0  -5 -12   50.65    1.29
   0  -5 -12   48.31    1.48
   0   5  12   52.67    1.47
   0   5  12   47.37    1.38
   0  -6 -12   15.86    0.97
   0   6  12   15.95    0.88
   0   6  12   16.40    0.93
   0  -7 -12    5.87    0.77
   0   7  12    6.82    0.69
   0   7  12    6.95    0.78
   0  -8 -12    0.70    0.59
   0   8  12    0.04    0.53
   0  -9 -12    3.41    0.76
   0   9  12    2.31    0.66
   1   8 -12    4.20    0.69
  -1  -8  12    3.67    0.66
   1   7 -12   48.50    1.51
  -1  -7  12   47.44    1.57
   1   6 -12   -0.12    0.46
  -1  -6  12    0.05    0.48
   1   5 -12   18.11    0.94
  -1  -5  12   18.63    0.94
   1   4 -12   24.28    0.85
   1   4 -12   24.06    1.00
  -1  -4  12   21.92    0.95
   1   3 -12    3.67    0.26
   1   3 -12    3.13    0.49
   1   3 -12    3.42    0.43
  -1  -3  12    3.08    0.45
   1   2 -12  148.54    2.78
   1   2 -12  147.85    2.85
  -1  -2  12  149.05    2.72
   1   1 -12   11.99    0.66
   1   1 -12   13.49    0.71
   1   1 -12   12.35    0.35
  -1  -1  12   13.29    0.57
   1   0 -12    9.35    0.63
   1   0 -12    9.43    0.41
   1   0 -12   10.56    0.65
  -1   0  12    9.42    0.31
  -1   0  12    9.73    0.44
   1  -1 -12    9.64    0.60
   1  -1 -12   10.56    0.64
   1  -1 -12    9.60    0.50
  -1   1  12    8.85    0.36
  -1   1  12    9.65    0.43
   1  -2 -12   13.96    0.62
   1  -2 -12   12.19    0.68
   1  -2 -12   14.16    0.74
  -1   2  12   13.68    0.55
   1  -3 -12   10.28    0.70
   1  -3 -12    8.61    0.63
   1  -3 -12    8.93    0.62
  -1   3  12    9.91    0.54
  -1   3  12   10.02    0.64
   1  -4 -12   40.25    1.26
   1  -4 -12   42.45    1.24
   1  -4 -12   41.70    1.17
  -1   4  12   40.10    1.19
  -1   4  12   39.86    1.12
   1  -5 -12   77.48    1.90
   1  -5 -12   74.73    1.71
   1  -5 -12   71.40    1.82
  -1   5  12   75.99    1.77
  -1   5  12   78.00    1.85
   1  -6 -12    0.54    0.50
   1  -6 -12    0.55    0.53
   1  -6 -12   -0.60    0.42
  -1   6  12    0.11    0.46
  -1   6  12    0.23    0.45
   1  -7 -12    6.55    0.69
   1  -7 -12    6.28    0.78
  -1   7  12    6.75    0.69
  -1   7  12    6.42    0.72
   1  -8 -12    4.70    0.75
  -1   8  12    5.15    0.68
  -1   8  12    5.32    0.71
   1  -9 -12    1.23    0.65
  -1   9  12    1.94    0.64
   2   7 -12    8.33    0.85
  -2  -7  12    7.52    0.83
   2   6 -12    5.55    0.69
  -2  -6  12    5.87    0.71
   2   5 -12    2.07    0.56
  -2  -5  12    1.01    0.53
   2   4 -12   28.25    1.11
   2   4 -12   26.85    1.02
  -2  -4  12   26.82    1.06
   2   3 -12   14.33    0.75
   2   3 -12   11.61    0.82
  -2  -3  12   14.50    0.73
   2   2 -12   14.73    0.82
   2   2 -12   15.32    0.73
  -2  -2  12   16.34    0.72
   2   1 -12    8.78    0.65
   2   1 -12   11.30    0.65
  -2  -1  12    9.44    0.54
   2   0 -12   24.74    0.94
   2   0 -12   24.08    0.86
  -2   0  12   25.84    0.74
   2  -1 -12   15.23    0.52
   2  -1 -12   12.89    0.74
   2  -1 -12   13.32    0.69
  -2   1  12   13.76    0.49
  -2   1  12   14.05    0.41
   2  -2 -12   25.26    0.75
   2  -2 -12   24.42    0.94
   2  -2 -12   24.31    0.92
  -2   2  12   24.77    0.66
  -2   2  12   24.28    0.58
   2  -3 -12  142.87    2.91
   2  -3 -12  148.15    2.74
   2  -3 -12  150.19    2.80
  -2   3  12  145.76    2.33
  -2   3  12  147.65    2.58
   2  -4 -12   15.42    0.82
   2  -4 -12   13.56    0.76
   2  -4 -12   14.95    0.73
  -2   4  12   14.86    0.67
   2  -5 -12   51.05    1.43
   2  -5 -12   53.68    1.51
   2  -5 -12   53.55    1.43
  -2   5  12   51.66    1.35
   2  -6 -12   13.03    0.86
   2  -6 -12   14.24    0.98
   2  -6 -12   13.04    0.86
  -2   6  12   15.08    0.85
   2  -7 -12    8.64    0.76
   2  -7 -12    8.90    0.78
   2  -7 -12    7.43    0.79
  -2   7  12    9.38    0.77
   2  -8 -12   28.89    1.15
   2  -8 -12   27.24    1.16
   2  -8 -12   26.04    1.24
  -2   8  12   26.67    1.15
   2  -9 -12    2.84    0.71
  -2   9  12    5.06    0.77
   3   7 -12    2.98    0.71
  -3  -7  12    3.87    0.76
   3   6 -12    2.12    0.64
  -3  -6  12    1.08    0.53
   3   5 -12   13.63    0.93
  -3  -5  12   10.11    0.85
   3   4 -12   13.96    0.89
   3   4 -12   16.46    1.02
  -3  -4  12   13.98    0.88
   3   3 -12   23.40    1.05
   3   3 -12   22.88    0.98
  -3  -3  12   23.13    0.99
   3   2 -12   54.53    1.50
   3   2 -12   52.41    1.43
  -3  -2  12   53.22    1.39
   3   1 -12   41.53    1.26
   3   1 -12   39.48    1.21
  -3  -1  12   42.19    1.13
   3   0 -12   37.27    1.17
   3   0 -12   37.14    1.15
  -3   0  12   35.71    0.97
   3  -1 -12  145.94    2.80
   3  -1 -12  144.98    2.84
  -3   1  12  139.86    2.28
  -3   1  12  145.72    2.53
   3  -2 -12    9.07    0.69
   3  -2 -12    8.39    0.65
  -3   2  12    8.40    0.44
  -3   2  12    8.60    0.39
   3  -3 -12   38.85    1.18
   3  -3 -12   37.76    1.20
   3  -3 -12   38.53    1.03
  -3   3  12   36.22    0.81
  -3   3  12   36.33    0.89
   3  -4 -12    4.14    0.49
   3  -4 -12    3.93    0.55
   3  -4 -12    3.77    0.56
  -3   4  12    2.89    0.37
   3  -5 -12   13.93    0.93
   3  -5 -12   13.07    0.83
   3  -5 -12   16.10    0.85
  -3   5  12   15.88    0.79
   3  -6 -12   25.14    1.10
   3  -6 -12   25.22    1.06
   3  -6 -12   24.41    1.12
  -3   6  12   23.66    0.97
   3  -7 -12    1.82    0.56
   3  -7 -12    1.73    0.62
   3  -7 -12    1.74    0.67
  -3   7  12    2.10    0.54
   3  -8 -12    6.72    0.71
   3  -8 -12    6.87    0.79
   3  -8 -12    6.00    0.74
  -3   8  12    6.61    0.73
   3  -9 -12   11.10    1.00
   3  -9 -12   11.11    0.89
  -3   9  12   11.27    0.94
   3 -10 -12    7.49    0.96
  -3  10  12    8.07    0.87
  -4  -6  12   13.39    0.93
   4   5 -12   14.49    0.95
  -4  -5  12   14.06    0.94
   4   4 -12   23.39    1.15
  -4  -4  12   22.78    1.08
   4   3 -12    1.54    0.58
   4   3 -12    0.55    0.60
  -4  -3  12    2.29    0.58
   4   2 -12   13.75    0.93
   4   2 -12   15.10    0.94
  -4  -2  12   14.07    0.78
   4   1 -12   76.26    1.88
   4   1 -12   77.62    1.90
  -4  -1  12   76.44    1.75
   4   0 -12    1.02    0.49
   4   0 -12    0.88    0.51
  -4   0  12    1.03    0.39
   4  -1 -12    3.13    0.53
   4  -1 -12    2.88    0.51
  -4   1  12    4.00    0.44
   4  -2 -12   14.51    0.86
   4  -2 -12   15.14    0.80
  -4   2  12   14.46    0.62
   4  -3 -12   40.34    1.26
   4  -3 -12   42.09    1.26
  -4   3  12   42.78    0.99
   4  -4 -12    0.63    0.51
   4  -4 -12    1.29    0.48
  -4   4  12    1.12    0.33
   4  -5 -12   23.35    1.12
   4  -5 -12   25.45    0.99
   4  -5 -12   22.78    1.04
  -4   5  12   23.86    0.90
   4  -6 -12   28.27    1.23
   4  -6 -12   26.92    1.13
   4  -6 -12   28.50    1.08
  -4   6  12   29.10    1.03
   4  -7 -12   13.26    1.06
   4  -7 -12   16.25    0.95
   4  -7 -12   15.73    0.92
  -4   7  12   15.64    0.84
   4  -8 -12   21.84    1.08
   4  -8 -12   23.28    1.06
   4  -8 -12   23.75    1.16
  -4   8  12   22.86    1.08
   4  -9 -12    4.14    0.73
   4  -9 -12    2.53    0.65
  -4   9  12    3.43    0.67
   4 -10 -12    6.88    0.90
   4 -10 -12    8.88    0.88
  -4  10  12    9.00    0.88
  -5  -5  12    0.15    0.57
   5   4 -12    2.85    0.65
  -5  -4  12    3.32    0.66
   5   3 -12    6.33    0.78
   5   3 -12    6.73    0.74
  -5  -3  12    5.32    0.72
   5   2 -12    8.04    0.79
   5   2 -12    7.88    0.82
  -5  -2  12    9.30    0.79
   5   1 -12    0.60    0.60
   5   1 -12    0.47    0.53
  -5  -1  12   -0.20    0.44
   5   0 -12   50.89    1.51
   5   0 -12   45.63    1.48
  -5   0  12   50.94    1.36
   5  -1 -12   25.01    1.11
   5  -1 -12   25.62    1.08
  -5   1  12   22.88    0.89
   5  -2 -12   14.47    0.97
   5  -2 -12   14.63    0.95
  -5   2  12   13.50    0.68
   5  -3 -12   54.40    1.55
   5  -3 -12   49.77    1.48
  -5   3  12   51.75    1.24
   5  -4 -12   77.04    1.93
   5  -4 -12   73.47    1.90
   5  -5 -12   49.26    1.47
   5  -5 -12   51.09    1.58
   5  -6 -12   17.97    1.03
   5  -6 -12   18.31    1.14
  -5   6  12   19.27    0.92
   5  -7 -12    0.46    0.67
   5  -7 -12    1.12    0.53
  -5   7  12    1.39    0.45
   5  -8 -12   10.64    0.97
   5  -8 -12   13.77    0.91
  -5   8  12   13.03    0.90
   5  -9 -12   15.38    1.09
  -5   9  12   14.68    0.98
   5 -10 -12    0.77    0.64
  -5  10  12    0.33    0.57
  -6  -4  12    7.15    0.85
   6   3 -12   11.71    0.94
   6   3 -12   11.57    0.94
  -6  -3  12   10.73    0.93
   6   2 -12   29.30    1.25
   6   2 -12   27.29    1.26
  -6  -2  12   25.36    1.14
   6   1 -12    5.14    0.76
   6   1 -12    7.03    0.85
  -6  -1  12    5.84    0.66
   6   0 -12   14.72    1.09
   6   0 -12   15.13    1.02
  -6   0  12   16.73    0.83
   6  -1 -12   17.35    1.13
   6  -1 -12   18.50    1.08
  -6   1  12   18.75    0.89
   6  -2 -12   28.77    1.25
   6  -2 -12   26.81    1.25
  -6   2  12   29.38    1.01
   6  -3 -12   23.70    1.18
   6  -3 -12   23.20    1.17
  -6   3  12   23.19    0.88
   6  -4 -12   15.75    1.07
   6  -4 -12   12.69    0.93
   6  -5 -12    0.12    0.58
   6  -5 -12    0.28    0.63
   6  -6 -12   14.98    1.14
   6  -6 -12   14.64    1.01
   6  -7 -12   -0.71    0.64
   6  -7 -12    0.29    0.57
   6  -8 -12    5.34    0.71
   6  -8 -12    4.97    0.78
  -6   8  12    5.03    0.65
   6  -9 -12    1.43    0.69
  -6   9  12    1.30    0.58
   6 -10 -12   17.29    1.18
  -6  10  12   16.40    0.99
   7   3 -12    8.02    0.91
  -7  -3  12    8.67    0.92
   7   2 -12    2.88    0.73
   7   2 -12    3.15    0.68
  -7  -2  12    2.70    0.65
   7   1 -12    5.62    0.78
   7   1 -12    6.52    0.82
  -7  -1  12    5.80    0.74
   7   0 -12    5.53    0.78
   7   0 -12    6.97    0.82
  -7   0  12    6.77    0.73
   7  -1 -12   -0.09    0.61
   7  -1 -12   -0.36    0.67
  -7   1  12   -0.24    0.50
   7  -2 -12    1.30    0.66
   7  -2 -12    0.94    0.67
  -7   2  12    1.44    0.53
   7  -3 -12   12.71    1.00
   7  -3 -12   13.72    1.04
  -7   3  12   15.54    0.84
   7  -4 -12    2.20    0.72
   7  -4 -12    1.87    0.66
  -7   4  12    1.69    0.50
   7  -5 -12    8.63    0.87
   7  -5 -12    7.87    0.90
   7  -6 -12    5.96    0.83
   7  -6 -12    5.57    0.85
   7  -7 -12    7.18    0.90
   7  -7 -12    5.74    0.80
   7  -8 -12   49.23    1.62
   7  -8 -12   47.49    1.67
   7  -9 -12    7.52    0.94
   7  -9 -12    8.34    0.86
  -7   9  12    8.67    0.84
   7 -10 -12    3.07    0.80
  -7  10  12    4.20    0.74
   8   1 -12    1.45    0.72
  -8  -1  12    1.10    0.61
   8   0 -12   -0.33    0.67
   8   0 -12   -0.07    0.61
  -8   0  12    0.98    0.51
   8  -1 -12   48.93    1.66
   8  -1 -12   45.90    1.68
  -8   1  12   48.90    1.54
   8  -2 -12    4.62    0.76
   8  -2 -12    4.02    0.82
  -8   2  12    5.38    0.65
   8  -3 -12   11.43    0.99
   8  -3 -12   10.95    1.00
  -8   3  12   12.07    0.84
   8  -4 -12   20.37    1.16
   8  -4 -12   22.11    1.23
  -8   4  12   23.77    1.02
   8  -5 -12    5.68    0.86
   8  -5 -12    5.29    0.79
   8  -6 -12   24.79    1.29
   8  -6 -12   25.46    1.28
   8  -7 -12    3.94    0.79
   8  -7 -12    5.51    0.86
   8  -8 -12    0.57    0.65
   8  -8 -12    0.16    0.69
   8  -9 -12    3.28    0.83
   8  -9 -12    5.02    0.81
   9   0 -12    3.09    0.80
  -9   0  12    2.47    0.68
   9  -1 -12    3.40    0.80
   9  -1 -12    3.21    0.82
  -9   1  12    4.77    0.76
   9  -2 -12    7.60    0.91
   9  -2 -12    8.85    1.00
  -9   2  12    7.65    0.83
   9  -3 -12    2.04    0.74
   9  -3 -12    1.75    0.71
  -9   3  12    1.71    0.61
   9  -4 -12   15.47    1.13
   9  -4 -12   13.90    1.06
  -9   4  12   14.39    0.92
   9  -5 -12    3.68    0.81
   9  -5 -12    2.92    0.79
   9  -6 -12   11.70    1.06
   9  -6 -12   10.50    1.03
   9  -7 -12    3.30    0.80
   9  -7 -12    3.82    0.84
   9  -8 -12    1.84    0.78
   9  -8 -12    0.51    0.65
   9  -9 -12    2.67    0.81
   9  -9 -12    2.48    0.78
  10  -3 -12    2.78    0.80
  10  -3 -12    1.98    0.78
 -10   3  12    4.35    0.75
  10  -4 -12   15.51    1.23
  10  -4 -12   15.18    1.19
 -10   4  12   16.85    1.03
  10  -5 -12    0.39    0.75
  10  -5 -12   -0.29    0.72
 -10   5  12   -0.06    0.56
  10  -6 -12    6.28    0.98
  10  -6 -12    7.87    0.98
  10  -7 -12    6.31    0.91
  10  -7 -12    7.90    0.97
  10  -7  13   14.49    1.04
  10  -6  13   15.43    1.06
  10  -6  13   18.49    0.96
 -10   5 -13    3.60    0.67
  10  -5  13    2.81    0.55
  10  -5  13    2.60    0.70
 -10   4 -13    0.09    0.53
  10  -4  13   -0.05    0.43
  10  -4  13    0.32    0.57
  10  -3  13    0.60    0.48
  10  -3  13    1.50    0.69
   9  -8  13    6.66    0.81
   9  -8  13    8.20    0.91
   9  -7  13    1.02    0.60
   9  -7  13    0.00    0.53
   9  -6  13    1.21    0.59
   9  -6  13    1.50    0.47
  -9   5 -13    0.89    0.50
   9  -5  13    0.49    0.55
   9  -5  13    0.33    0.44
  -9   4 -13    0.73    0.52
   9  -4  13    0.83    0.47
   9  -4  13    0.63    0.56
  -9   3 -13    0.45    0.50
   9  -3  13    0.73    0.48
   9  -3  13    0.25    0.53
  -9   2 -13   18.20    1.06
   9  -2  13   15.78    1.05
   9  -2  13   20.25    1.03
  -9   1 -13    6.66    0.85
   9  -1  13    5.27    0.68
   9  -1  13    5.30    0.84
   8  -9  13    5.51    0.77
   8  -8  13    2.72    0.63
   8  -8  13    1.44    0.57
   8  -7  13   19.28    1.02
   8  -7  13   20.17    1.12
   8  -6  13    0.11    0.51
   8  -6  13    0.04    0.48
   8  -6  13    0.39    0.40
   8  -5  13    0.15    0.45
   8  -5  13    0.88    0.43
  -8   4 -13   42.66    1.49
   8  -4  13   42.13    1.30
   8  -4  13   43.52    1.52
  -8   3 -13   12.93    0.87
   8  -3  13   15.55    0.86
   8  -3  13   12.78    0.96
  -8   2 -13   19.16    1.08
   8  -2  13   19.67    1.13
   8  -2  13   19.84    0.97
  -8   1 -13    0.00    0.47
   8  -1  13    0.22    0.46
   8  -1  13    0.19    0.48
  -8   0 -13    1.99    0.61
   8   0  13    0.98    0.59
   8   0  13    1.44    0.53
  -8  -1 -13    7.02    0.91
   8   1  13    5.55    0.70
   8   1  13    6.57    0.89
   7 -10  13    2.29    0.64
   7  -9  13   20.70    1.10
   7  -8  13    0.21    0.47
   7  -8  13    0.50    0.47
   7  -7  13    6.74    0.75
   7  -7  13    8.54    0.76
   7  -6  13   39.44    1.35
   7  -6  13   38.13    1.28
   7  -5  13    7.22    0.74
   7  -5  13    7.54    0.73
   7  -5  13    7.29    0.63
  -7   4 -13    8.34    0.78
   7  -4  13    8.56    0.80
   7  -4  13    7.85    0.67
  -7   3 -13    0.83    0.46
   7  -3  13    1.29    0.53
   7  -3  13    1.22    0.43
  -7   2 -13    4.05    0.63
   7  -2  13    3.65    0.54
   7  -2  13    4.16    0.64
  -7   1 -13    7.42    0.80
   7  -1  13    6.62    0.74
   7  -1  13    6.85    0.69
  -7   0 -13    9.78    0.91
   7   0  13    7.91    0.71
   7   0  13    7.77    0.84
  -7  -1 -13   19.18    1.09
   7   1  13   19.76    0.98
   7   1  13   20.48    1.11
  -7  -2 -13   -0.12    0.51
   7   2  13   -0.22    0.43
   7   2  13    0.64    0.52
   7   3  13   12.60    1.13
   7   3  13   13.69    0.96
   6 -10  13    0.71    0.53
   6  -9  13   -0.44    0.49
   6  -8  13   19.29    0.96
   6  -7  13    6.10    0.69
   6  -7  13    6.95    0.69
   6  -6  13    0.59    0.47
   6  -6  13    0.15    0.44
   6  -5  13    0.23    0.44
   6  -5  13   -0.19    0.43
   6  -5  13    0.07    0.34
   6  -4  13   40.20    1.32
   6  -4  13   37.77    1.16
   6  -4  13   38.31    1.18
  -6   3 -13   -0.28    0.37
   6  -3  13    0.81    0.40
   6  -3  13    0.14    0.43
  -6   2 -13    3.46    0.60
   6  -2  13    2.07    0.54
   6  -2  13    2.99    0.49
  -6   1 -13   46.96    1.51
   6  -1  13   45.99    1.46
   6  -1  13   46.10    1.39
  -6   0 -13    0.33    0.50
   6   0  13    0.50    0.45
   6   0  13    0.05    0.39
  -6  -1 -13   41.88    1.51
   6   1  13   40.41    1.44
   6   1  13   42.09    1.38
  -6  -2 -13    1.09    0.54
   6   2  13    0.42    0.51
   6   2  13    1.06    0.46
  -6  -3 -13    1.47    0.59
   6   3  13    0.99    0.57
   6   3  13    1.24    0.52
  -6  -4 -13   17.45    1.12
   6   4  13   16.68    0.97
   6   4  13   16.34    1.14
   5 -10  13    3.26    0.64
   5  -9  13    1.06    0.51
   5  -8  13   11.82    0.79
   5  -7  13    3.78    0.61
   5  -6  13   47.84    1.39
   5  -6  13   45.87    1.40
   5  -5  13    1.08    0.41
   5  -5  13    0.36    0.43
   5  -5  13    0.80    0.35
   5  -4  13    1.77    0.40
   5  -4  13    1.22    0.44
   5  -4  13    1.66    0.44
  -5   3 -13  113.57    2.24
  -5   3 -13  113.43    2.41
   5  -3  13  114.93    2.35
   5  -3  13  112.82    2.39
   5  -3  13  115.58    2.29
  -5   2 -13    4.26    0.57
  -5   2 -13    4.39    0.44
   5  -2  13    5.78    0.53
   5  -2  13    4.93    0.57
  -5   1 -13   54.31    1.53
   5  -1  13   52.90    1.54
   5  -1  13   56.48    1.48
  -5   0 -13    1.58    0.51
   5   0  13    0.53    0.43
   5   0  13    0.86    0.40
  -5  -1 -13   -0.35    0.43
   5   1  13    0.30    0.48
   5   1  13   -0.09    0.39
  -5  -2 -13    6.63    0.77
   5   2  13    7.28    0.68
   5   2  13    6.09    0.76
  -5  -3 -13    0.60    0.58
   5   3  13    1.24    0.58
   5   3  13    0.85    0.48
  -5  -4 -13   -0.07    0.52
   5   4  13    0.39    0.44
   5   4  13    1.10    0.58
  -5  -5 -13    4.03    0.76
   5   5  13    4.12    0.67
   5   5  13    2.94    0.71
   4 -10  13   17.80    1.02
   4  -9  13    0.03    0.49
   4  -8  13   43.54    1.44
   4  -7  13    1.61    0.52
   4  -6  13    3.47    0.57
   4  -6  13    3.24    0.51
   4  -5  13   52.13    1.24
   4  -5  13   51.24    1.35
   4  -4  13    0.82    0.37
   4  -4  13    0.33    0.37
   4  -4  13    0.56    0.33
  -4   3 -13   13.08    0.65
  -4   3 -13   12.60    0.65
   4  -3  13   12.99    0.67
   4  -3  13   13.37    0.66
   4  -3  13   11.90    0.70
  -4   2 -13    9.21    0.57
  -4   2 -13    9.36    0.61
   4  -2  13   10.26    0.68
   4  -2  13   10.30    0.65
   4  -2  13    9.88    0.58
  -4   1 -13   19.96    0.88
   4  -1  13   20.10    0.85
   4  -1  13   21.75    0.91
  -4   0 -13    0.62    0.39
   4   0  13    0.39    0.40
   4   0  13    0.43    0.36
  -4  -1 -13    1.99    0.54
   4   1  13    1.05    0.40
   4   1  13    1.71    0.51
  -4  -2 -13   34.82    1.28
   4   2  13   35.75    1.19
   4   2  13   36.11    1.28
  -4  -3 -13    8.11    0.82
   4   3  13    9.92    0.88
   4   3  13    8.49    0.70
  -4  -4 -13   42.91    1.56
   4   4  13   47.38    1.62
   4   4  13   48.63    1.49
  -4  -5 -13    1.09    0.62
   4   5  13    0.82    0.49
   4   5  13    0.56    0.52
  -4  -6 -13    1.52    0.64
   4   6  13    0.12    0.57
   4   6  13   -0.37    0.47
  -3  10 -13   13.96    0.97
   3 -10  13   13.34    0.99
  -3   9 -13    1.22    0.54
   3  -9  13    0.42    0.53
  -3   8 -13    1.60    0.52
   3  -8  13    1.14    0.50
  -3   7 -13    9.15    0.75
   3  -7  13    9.84    0.82
  -3   6 -13   -0.07    0.42
   3  -6  13   -0.08    0.44
  -3   5 -13    4.92    0.53
   3  -5  13    4.41    0.55
   3  -5  13    5.55    0.51
  -3   4 -13   21.64    0.86
   3  -4  13   21.77    0.84
   3  -4  13   21.32    0.74
   3  -4  13   21.65    0.80
  -3   3 -13  103.86    2.07
  -3   3 -13  102.09    2.09
   3  -3  13  105.41    2.10
   3  -3  13  102.25    2.03
   3  -3  13  103.59    2.04
  -3   2 -13    7.20    0.56
  -3   2 -13    7.53    0.57
   3  -2  13    7.50    0.54
   3  -2  13    7.00    0.52
   3  -2  13    7.61    0.52
  -3   1 -13    3.02    0.37
  -3   1 -13    2.83    0.43
   3  -1  13    2.48    0.34
   3  -1  13    2.05    0.37
   3  -1  13    1.89    0.39
  -3   0 -13  101.02    2.16
  -3   0 -13  104.82    1.93
   3   0  13   98.40    2.12
   3   0  13   97.64    2.08
  -3  -1 -13   13.72    0.76
   3   1  13   13.22    0.76
   3   1  13   12.23    0.78
  -3  -2 -13  115.76    2.57
   3   2  13  116.52    2.48
   3   2  13  113.88    2.48
  -3  -3 -13   -0.21    0.47
   3   3  13    0.06    0.45
   3   3  13   -0.20    0.42
  -3  -4 -13    1.03    0.55
   3   4  13    1.00    0.49
   3   4  13    1.05    0.54
  -3  -5 -13   13.91    1.10
   3   5  13   14.64    0.90
   3   5  13   15.28    1.03
  -3  -6 -13    1.07    0.65
   3   6  13    0.32    0.57
   3   6  13    1.18    0.52
   3   7  13    2.64    0.61
   3   7  13    1.43    0.61
  -2   9 -13   -0.11    0.54
   2  -9  13    1.36    0.53
  -2   8 -13    0.77    0.46
   2  -8  13    1.05    0.48
  -2   7 -13    6.67    0.72
   2  -7  13    6.67    0.72
  -2   6 -13   35.68    1.23
   2  -6  13   38.75    1.27
  -2   5 -13  117.31    2.50
   2  -5  13  123.44    2.49
  -2   4 -13    9.54    0.68
  -2   4 -13   10.88    0.57
   2  -4  13   10.62    0.58
   2  -4  13   10.18    0.57
   2  -4  13   10.80    0.66
  -2   3 -13    2.62    0.41
  -2   3 -13    2.01    0.31
   2  -3  13    2.66    0.34
   2  -3  13    2.92    0.42
   2  -3  13    2.26    0.36
  -2   2 -13   85.20    1.80
  -2   2 -13   90.57    1.76
   2  -2  13   85.61    1.70
   2  -2  13   87.80    1.71
   2  -2  13   82.74    1.80
  -2   1 -13   16.19    0.66
  -2   1 -13   15.56    0.66
   2  -1  13   15.91    0.72
   2  -1  13   15.54    0.63
   2  -1  13   14.85    0.55
  -2   0 -13   88.25    1.88
  -2   0 -13   85.81    1.75
   2   0  13   88.47    1.81
   2   0  13   86.89    1.59
   2   0  13   87.46    1.91
  -2  -1 -13    7.06    0.53
  -2  -1 -13    7.50    0.62
   2   1  13    7.11    0.57
   2   1  13    7.50    0.57
  -2  -2 -13   10.66    0.76
  -2  -2 -13    9.86    0.42
   2   2  13    8.89    0.70
   2   2  13    9.70    0.65
  -2  -3 -13    5.81    0.67
   2   3  13    5.50    0.60
   2   3  13    5.30    0.59
  -2  -4 -13    3.05    0.61
   2   4  13    2.07    0.56
   2   4  13    3.32    0.57
  -2  -5 -13    3.75    0.67
   2   5  13    4.62    0.67
   2   5  13    4.10    0.61
  -2  -6 -13   19.97    1.14
   2   6  13   15.65    0.97
   2   6  13   20.47    0.99
  -2  -7 -13   17.89    1.19
   2   7  13   18.27    1.15
   2   7  13   20.63    1.04
  -1   9 -13    7.28    0.82
   1  -9  13    7.01    0.83
  -1   8 -13   20.95    1.05
   1  -8  13   18.62    0.99
  -1   7 -13   43.70    1.41
   1  -7  13   40.56    1.37
  -1   6 -13    0.07    0.46
   1  -6  13    0.03    0.41
  -1   5 -13    1.12    0.45
   1  -5  13    0.95    0.42
  -1   4 -13   12.52    0.61
  -1   4 -13   12.88    0.74
   1  -4  13   11.11    0.69
  -1   3 -13    6.75    0.51
  -1   3 -13    6.27    0.53
  -1   3 -13    7.17    0.40
   1  -3  13    7.22    0.44
   1  -3  13    7.08    0.54
  -1   2 -13   14.92    0.72
  -1   2 -13   14.61    0.54
  -1   2 -13   14.46    0.70
   1  -2  13   15.20    0.71
   1  -2  13   15.09    0.60
   1  -2  13   14.80    0.53
  -1   1 -13   71.00    1.46
  -1   1 -13   71.08    1.56
   1  -1  13   70.30    1.38
   1  -1  13   68.75    1.56
   1  -1  13   71.00    1.39
  -1   0 -13   70.11    1.52
  -1   0 -13   68.09    1.49
   1   0  13   68.14    1.60
   1   0  13   68.68    1.28
   1   0  13   71.74    1.44
  -1  -1 -13   14.60    0.66
  -1  -1 -13   14.92    0.70
   1   1  13   15.83    0.66
   1   1  13   13.04    0.74
  -1  -2 -13    2.43    0.46
  -1  -2 -13    2.44    0.40
   1   2  13    2.53    0.41
   1   2  13    2.37    0.41
  -1  -3 -13   21.13    0.92
  -1  -3 -13   20.40    0.80
   1   3  13   20.89    0.88
   1   3  13   22.42    0.94
  -1  -4 -13   51.97    1.56
   1   4  13   53.52    1.49
   1   4  13   52.27    1.48
  -1  -5 -13   50.35    1.62
   1   5  13   50.27    1.54
   1   5  13   49.19    1.46
  -1  -6 -13    5.81    0.75
   1   6  13    6.86    0.78
   1   6  13    6.94    0.71
  -1  -7 -13    0.38    0.60
   1   7  13    0.01    0.49
   1   7  13    0.09    0.49
  -1  -8 -13    7.79    0.95
   1   8  13    6.56    0.87
   0   8 -13    2.20    0.63
   0  -8  13    2.89    0.64
   0   7 -13    7.94    0.78
   0  -7  13    8.13    0.76
   0   6 -13    0.91    0.51
   0  -6  13    0.23    0.48
   0   5 -13    1.24    0.48
   0  -5  13    1.76    0.45
   0   4 -13    0.21    0.41
   0   4 -13    0.19    0.34
   0  -4  13    0.73    0.39
   0   3 -13  104.33    2.07
   0   3 -13  102.01    2.18
   0  -3  13  103.36    2.08
   0   2 -13   86.16    1.83
   0   2 -13   85.78    1.89
   0   2 -13   86.60    1.52
   0  -2  13   85.15    1.72
   0   1 -13   68.41    1.58
   0   1 -13   68.34    1.33
   0   1 -13   71.47    1.61
   0  -1  13   66.97    1.24
   0  -1  13   70.07    1.39
   0   0 -13    0.53    0.35
   0   0 -13    0.20    0.26
   0   0 -13    0.35    0.34
   0   0  13   -0.29    0.21
   0   0  13    0.27    0.21
   0   0  13    0.73    0.33
   0  -1 -13   68.74    1.51
   0  -1 -13   67.88    1.53
   0   1  13   69.35    1.41
   0   1  13   69.96    1.62
   0   1  13   71.41    1.20
   0  -2 -13   83.17    1.78
   0  -2 -13   83.40    1.75
   0   2  13   84.46    1.70
   0   2  13   82.33    1.86
   0  -3 -13  100.19    2.15
   0  -3 -13  101.85    2.02
   0   3  13  100.93    2.07
   0   3  13  102.66    2.22
   0  -4 -13    0.45    0.42
   0  -4 -13    0.04    0.40
   0   4  13    1.12    0.45
   0   4  13    0.29    0.34
   0  -5 -13    0.90    0.46
   0  -5 -13    1.38    0.51
   0   5  13    1.48    0.47
   0   5  13    1.50    0.47
   0  -6 -13   -0.19    0.55
   0   6  13   -0.37    0.46
   0   6  13    0.27    0.49
   0  -7 -13    8.41    0.88
   0   7  13    7.57    0.74
   0   7  13    9.24    0.83
   0  -8 -13    1.61    0.65
   0   8  13    2.09    0.58
   0   8  13    2.56    0.66
   1   8 -13    5.24    0.76
  -1  -8  13    4.78    0.75
   1   7 -13   -0.43    0.48
  -1  -7  13    0.01    0.49
   1   6 -13    9.45    0.79
  -1  -6  13    6.71    0.74
   1   5 -13   45.41    1.43
  -1  -5  13   46.63    1.43
   1   4 -13   52.88    1.34
   1   4 -13   52.67    1.49
  -1  -4  13   52.83    1.42
   1   3 -13   19.85    0.87
   1   3 -13   21.09    0.83
  -1  -3  13   20.28    0.84
   1   2 -13    2.46    0.41
   1   2 -13    2.35    0.46
  -1  -2  13    2.34    0.41
   1   1 -13   14.24    0.71
   1   1 -13   15.07    0.41
   1   1 -13   14.40    0.77
  -1  -1  13   15.13    0.60
   1   0 -13   68.20    1.61
   1   0 -13   68.44    1.32
   1   0 -13   69.92    1.58
  -1   0  13   72.55    1.37
  -1   0  13   68.09    1.20
   1  -1 -13   67.74    1.41
   1  -1 -13   68.06    1.57
  -1   1  13   68.84    1.32
  -1   1  13   70.43    1.25
   1  -2 -13   14.69    0.74
   1  -2 -13   16.30    0.68
   1  -2 -13   14.97    0.74
  -1   2  13   14.83    0.59
   1  -3 -13    7.53    0.58
   1  -3 -13    6.40    0.60
   1  -3 -13    8.06    0.60
  -1   3  13    9.73    0.59
  -1   3  13    6.60    0.59
   1  -4 -13   12.33    0.74
   1  -4 -13   11.58    0.80
   1  -4 -13   11.65    0.78
  -1   4  13   11.82    0.73
  -1   4  13   12.34    0.69
   1  -5 -13    0.66    0.51
   1  -5 -13    0.69    0.51
   1  -5 -13    1.02    0.46
  -1   5  13    1.20    0.47
  -1   5  13    1.65    0.46
   1  -6 -13   -0.14    0.49
   1  -6 -13    0.20    0.48
   1  -6 -13    0.24    0.51
  -1   6  13    0.65    0.52
  -1   6  13    0.22    0.42
   1  -7 -13   40.01    1.39
   1  -7 -13   39.58    1.49
  -1   7  13   42.53    1.38
  -1   7  13   40.24    1.39
   1  -8 -13   19.00    1.15
   1  -8 -13   20.33    1.05
  -1   8  13   21.70    1.13
   1  -9 -13    7.18    0.92
  -1   9  13    7.04    0.84
   2   7 -13   18.69    1.08
  -2  -7  13   18.57    1.09
   2   6 -13   18.45    1.03
  -2  -6  13   19.76    1.04
   2   5 -13    3.97    0.65
  -2  -5  13    4.34    0.66
   2   4 -13    2.85    0.59
   2   4 -13    3.34    0.55
  -2  -4  13    3.46    0.58
   2   3 -13    4.87    0.63
   2   3 -13    4.93    0.56
  -2  -3  13    4.97    0.56
   2   2 -13    9.84    0.77
   2   2 -13    8.38    0.67
  -2  -2  13   10.48    0.64
   2   1 -13    7.79    0.64
   2   1 -13    7.91    0.66
  -2  -1  13    6.85    0.52
   2   0 -13   83.83    1.47
   2   0 -13   83.02    1.85
   2   0 -13   82.87    1.85
  -2   0  13   83.47    1.63
   2  -1 -13   13.15    0.71
   2  -1 -13   14.70    0.56
   2  -1 -13   14.78    0.73
  -2   1  13   14.39    0.52
  -2   1  13   15.56    0.44
   2  -2 -13   82.03    1.86
   2  -2 -13   85.07    1.94
   2  -2 -13   86.80    1.72
  -2   2  13   85.33    1.57
  -2   2  13   85.83    1.49
   2  -3 -13    2.59    0.50
   2  -3 -13    2.31    0.41
   2  -3 -13    2.71    0.50
  -2   3  13    2.38    0.33
   2  -4 -13   11.42    0.86
   2  -4 -13   10.16    0.67
   2  -4 -13    9.76    0.71
  -2   4  13   10.79    0.62
   2  -5 -13  118.43    2.50
   2  -5 -13  117.30    2.60
   2  -5 -13  116.17    2.43
  -2   5  13  117.66    2.36
   2  -6 -13   39.00    1.36
   2  -6 -13   38.41    1.34
   2  -6 -13   39.26    1.34
  -2   6  13   35.48    1.18
   2  -7 -13    6.79    0.74
   2  -7 -13    6.57    0.76
   2  -7 -13    8.41    0.78
  -2   7  13    5.94    0.70
   2  -8 -13    0.83    0.56
   2  -8 -13    1.12    0.61
   2  -8 -13    1.59    0.53
  -2   8  13    1.32    0.56
   2  -9 -13    0.35    0.65
  -2   9  13   -0.23    0.57
   3   7 -13    0.49    0.64
  -3  -7  13    0.53    0.60
   3   6 -13    0.83    0.61
  -3  -6  13    0.87    0.53
   3   5 -13   12.80    0.93
  -3  -5  13   12.82    0.88
   3   4 -13    0.72    0.55
   3   4 -13    1.71    0.57
  -3  -4  13    1.19    0.52
   3   3 -13   -0.23    0.50
   3   3 -13   -0.59    0.47
  -3  -3  13   -0.06    0.45
   3   2 -13  114.38    2.50
   3   2 -13  113.98    2.43
  -3  -2  13  118.87    2.38
   3   1 -13   12.58    0.84
   3   1 -13   13.63    0.75
  -3  -1  13   11.51    0.66
   3   0 -13   99.93    2.20
   3   0 -13  102.00    2.19
  -3   0  13   99.85    1.96
   3  -1 -13    2.29    0.50
   3  -1 -13    1.58    0.43
  -3   1  13    1.96    0.33
   3  -2 -13    7.47    0.62
   3  -2 -13    6.89    0.65
   3  -2 -13    6.80    0.50
  -3   2  13    7.64    0.38
  -3   2  13    6.83    0.43
   3  -3 -13  100.51    2.24
   3  -3 -13  101.98    2.20
   3  -3 -13  102.97    2.02
  -3   3  13  101.39    1.77
  -3   3  13  100.28    1.86
   3  -4 -13   20.74    0.99
   3  -4 -13   19.51    0.96
   3  -4 -13   19.18    0.85
  -3   4  13   19.48    0.72
   3  -5 -13    5.04    0.61
   3  -5 -13    4.23    0.65
   3  -5 -13    5.31    0.59
  -3   5  13    5.03    0.50
   3  -6 -13   -0.26    0.49
   3  -6 -13    0.82    0.59
   3  -6 -13    0.48    0.50
  -3   6  13   -0.22    0.40
   3  -7 -13    8.92    0.83
   3  -7 -13    9.28    0.81
   3  -7 -13    9.10    0.86
  -3   7  13    9.58    0.78
   3  -8 -13    1.57    0.56
   3  -8 -13    1.12    0.56
   3  -8 -13    2.09    0.64
  -3   8  13    0.95    0.48
   3  -9 -13    1.48    0.63
   3  -9 -13    0.48    0.63
  -3   9  13    0.74    0.53
   3 -10 -13   12.00    1.10
  -3  10  13   13.75    0.99
   4   6 -13    0.44    0.62
  -4  -6  13    0.27    0.57
   4   5 -13    0.40    0.59
  -4  -5  13    1.13    0.52
   4   4 -13   44.33    1.48
  -4  -4  13   44.71    1.47
   4   3 -13    9.42    0.82
   4   3 -13    9.71    0.85
  -4  -3  13    9.06    0.79
   4   2 -13   37.15    1.29
   4   2 -13   38.89    1.39
  -4  -2  13   35.05    1.21
   4   1 -13    1.97    0.55
   4   1 -13    1.06    0.55
  -4  -1  13    0.92    0.44
   4   0 -13   -0.09    0.43
   4   0 -13   -0.20    0.49
  -4   0  13    0.33    0.36
   4  -1 -13   18.28    0.90
   4  -1 -13   20.22    0.97
  -4   1  13   19.12    0.72
   4  -2 -13   10.46    0.83
   4  -2 -13   10.31    0.77
  -4   2  13   10.46    0.56
   4  -3 -13   11.93    0.88
   4  -3 -13   11.15    0.76
  -4   3  13   11.70    0.54
  -4   3  13   12.00    0.53
   4  -4 -13   -0.31    0.47
   4  -4 -13    0.69    0.55
  -4   4  13    0.78    0.29
  -4   4  13    0.75    0.31
   4  -5 -13   50.99    1.55
   4  -5 -13   52.14    1.40
   4  -5 -13   50.25    1.49
  -4   5  13   54.00    1.29
   4  -6 -13    2.52    0.60
   4  -6 -13    3.28    0.71
   4  -6 -13    2.57    0.61
  -4   6  13    3.09    0.50
   4  -7 -13    1.06    0.57
   4  -7 -13    1.11    0.56
   4  -7 -13    1.46    0.68
  -4   7  13    1.19    0.48
   4  -8 -13   46.62    1.55
   4  -8 -13   45.72    1.52
   4  -8 -13   47.70    1.51
  -4   8  13   46.11    1.48
   4  -9 -13    0.27    0.60
   4  -9 -13   -0.26    0.53
  -4   9  13   -1.21    0.48
   4 -10 -13   20.62    1.14
   4 -10 -13   17.82    1.16
  -4  10  13   16.72    1.03
  -5  -5  13    3.82    0.74
   5   4 -13   -0.17    0.60
  -5  -4  13    0.40    0.53
   5   3 -13    1.04    0.59
   5   3 -13    0.06    0.56
  -5  -3  13    1.66    0.55
   5   2 -13    8.11    0.81
   5   2 -13    7.69    0.82
  -5  -2  13    6.87    0.69
   5   1 -13    1.01    0.57
   5   1 -13    0.72    0.58
  -5  -1  13    0.37    0.46
   5   0 -13    1.35    0.57
   5   0 -13   -0.18    0.60
  -5   0  13    1.11    0.47
   5  -1 -13   51.41    1.57
   5  -1 -13   52.13    1.60
  -5   1  13   54.03    1.37
   5  -2 -13    4.63    0.69
   5  -2 -13    3.98    0.67
  -5   2  13    4.79    0.52
   5  -3 -13  117.75    2.60
   5  -3 -13  114.05    2.56
  -5   3  13  119.27    2.24
   5  -4 -13    0.40    0.54
   5  -4 -13    1.12    0.54
  -5   4  13    0.92    0.36
   5  -5 -13    1.02    0.54
   5  -5 -13    1.30    0.58
  -5   5  13    1.16    0.40
   5  -6 -13   45.72    1.53
   5  -6 -13   48.44    1.62
  -5   6  13   48.69    1.32
   5  -7 -13    4.15    0.65
   5  -7 -13    4.04    0.79
  -5   7  13    4.40    0.61
   5  -8 -13   13.81    1.04
   5  -8 -13   16.55    0.97
  -5   8  13   16.68    0.96
   5  -9 -13    1.30    0.66
  -5   9  13    1.04    0.57
   5 -10 -13    5.42    0.84
  -5  10  13    2.80    0.69
  -6  -4  13   13.57    0.95
   6   3 -13   -0.48    0.59
   6   3 -13    0.78    0.61
  -6  -3  13    1.19    0.54
   6   2 -13   -0.31    0.59
   6   2 -13    0.68    0.59
  -6  -2  13    0.57    0.53
   6   1 -13   40.59    1.50
   6   1 -13   42.19    1.47
  -6  -1  13   38.90    1.33
   6   0 -13   -0.40    0.58
   6   0 -13    0.43    0.61
  -6   0  13    1.48    0.51
   6  -1 -13   51.18    1.58
   6  -1 -13   46.27    1.55
  -6   1  13   44.39    1.34
   6  -2 -13    3.32    0.71
   6  -2 -13    1.96    0.64
  -6   2  13    3.23    0.53
   6  -3 -13   -0.73    0.59
   6  -3 -13   -0.07    0.54
  -6   3  13    0.09    0.41
   6  -4 -13   37.00    1.37
   6  -4 -13   39.32    1.36
  -6   4  13   37.06    1.10
   6  -5 -13   -0.15    0.57
   6  -5 -13    0.05    0.64
   6  -6 -13    0.55    0.61
   6  -6 -13   -0.11    0.68
   6  -7 -13    7.01    0.76
   6  -7 -13    6.46    0.80
  -6   7  13    7.76    0.69
   6  -8 -13   18.07    1.06
   6  -8 -13   20.15    1.19
  -6   8  13   21.40    1.04
   6  -9 -13    1.51    0.69
   6  -9 -13    0.69    0.59
  -6   9  13   -0.07    0.52
   6 -10 -13    0.64    0.70
  -6  10  13    1.14    0.60
   7   3 -13   12.65    1.04
  -7  -3  13   13.69    1.02
   7   2 -13   -0.22    0.60
   7   2 -13    0.69    0.67
  -7  -2  13    0.21    0.56
   7   1 -13   21.74    1.21
   7   1 -13   21.45    1.23
  -7  -1  13   18.86    1.03
   7   0 -13    8.76    0.93
   7   0 -13    9.03    0.88
  -7   0  13    8.10    0.79
   7  -1 -13    5.94    0.81
   7  -1 -13    6.31    0.86
  -7   1  13    6.84    0.72
   7  -2 -13    4.75    0.78
   7  -2 -13    5.27    0.80
  -7   2  13    4.13    0.60
   7  -3 -13    0.91    0.67
   7  -3 -13    1.35    0.69
  -7   3  13    0.78    0.49
   7  -4 -13   11.05    0.98
   7  -4 -13    8.90    0.94
  -7   4  13    9.08    0.71
   7  -5 -13    6.51    0.81
   7  -5 -13    5.87    0.85
   7  -6 -13   42.40    1.58
   7  -6 -13   39.05    1.45
   7  -7 -13    7.42    0.90
   7  -7 -13    8.23    0.83
   7  -8 -13    0.73    0.71
   7  -8 -13    0.26    0.55
   7  -9 -13   20.58    1.26
   7  -9 -13   17.98    1.14
  -7   9  13   21.35    1.11
   7 -10 -13    0.77    0.73
  -7  10  13    2.08    0.68
   8   1 -13    7.35    0.93
   8   1 -13    7.46    0.95
  -8  -1  13    7.33    0.85
   8   0 -13    1.78    0.72
   8   0 -13    1.88    0.70
  -8   0  13    2.68    0.64
   8  -1 -13   -0.23    0.62
   8  -1 -13   -0.44    0.67
  -8   1  13    0.08    0.47
   8  -2 -13   18.16    1.22
   8  -2 -13   16.84    1.20
  -8   2  13   19.88    0.99
   8  -3 -13   13.52    1.10
   8  -3 -13   14.87    1.10
  -8   3  13   13.52    0.91
   8  -4 -13   43.25    1.63
   8  -4 -13   42.20    1.59
  -8   4  13   48.10    1.40
   8  -5 -13    1.60    0.71
   8  -5 -13    0.46    0.63
   8  -6 -13   -0.09    0.59
   8  -6 -13    1.61    0.73
   8  -7 -13   19.88    1.23
   8  -7 -13   21.35    1.21
   8  -8 -13    1.02    0.69
   8  -8 -13    0.54    0.72
   8  -9 -13    5.38    0.85
   8  -9 -13    5.31    0.89
   9  -1 -13    6.33    0.93
   9  -1 -13    5.58    0.88
  -9   1  13    6.00    0.79
   9  -2 -13   20.23    1.28
   9  -2 -13   19.41    1.24
  -9   2  13   18.21    0.99
   9  -3 -13    1.44    0.72
   9  -3 -13    0.28    0.74
  -9   3  13    0.75    0.57
   9  -4 -13    0.71    0.71
   9  -4 -13    1.11    0.71
  -9   4  13    0.36    0.52
   9  -5 -13   -0.57    0.69
   9  -5 -13   -0.07    0.65
  -9   5  13   -0.05    0.55
   9  -6 -13    0.83    0.65
   9  -6 -13    1.28    0.75
   9  -7 -13    0.34    0.73
   9  -7 -13    0.14    0.71
   9  -8 -13    6.43    0.92
   9  -8 -13    6.60    0.95
  10  -3 -13    1.06    0.78
  10  -3 -13    0.36    0.81
 -10   3  13    0.67    0.63
  10  -4 -13   -0.24    0.74
  10  -4 -13    0.86    0.72
 -10   4  13    1.20    0.63
  10  -5 -13    1.91    0.87
  10  -5 -13    3.30    0.83
 -10   5  13    3.42    0.69
  10  -6 -13   18.02    1.29
  10  -6 -13   18.76    1.31
  10  -7 -13   15.27    1.23
  10  -7 -13   11.25    1.14
 -10   5 -14    0.60    0.52
  10  -5  14    0.00    0.44
  10  -5  14    1.45    0.65
   9  -8  14    0.48    0.59
   9  -8  14    1.62    0.66
   9  -7  14    0.67    0.59
   9  -7  14    2.06    0.65
   9  -6  14    4.23    0.71
   9  -6  14    3.57    0.59
  -9   5 -14    5.53    0.76
   9  -5  14    3.83    0.74
   9  -5  14    4.38    0.61
  -9   4 -14    7.99    0.85
   9  -4  14    7.87    0.89
   9  -4  14    7.10    0.71
  -9   3 -14    1.24    0.56
   9  -3  14    0.51    0.58
   9  -3  14    1.01    0.47
  -9   2 -14    6.84    0.84
   9  -2  14    6.11    0.75
   9  -2  14    5.44    0.79
  -9   1 -14    6.66    0.83
   9  -1  14    4.12    0.76
   9  -1  14    4.17    0.69
   8  -9  14    4.69    0.70
   8  -8  14    0.14    0.56
   8  -8  14    0.80    0.55
   8  -7  14    5.51    0.70
   8  -7  14    5.41    0.75
   8  -6  14   31.95    1.26
   8  -6  14   33.36    1.32
  -8   5 -14    6.71    0.77
   8  -5  14    5.53    0.61
   8  -5  14    6.30    0.75
  -8   4 -14    8.94    0.82
   8  -4  14   10.60    0.91
   8  -4  14   10.08    0.77
  -8   3 -14   10.23    0.88
   8  -3  14    9.32    0.72
   8  -3  14    9.86    0.92
  -8   2 -14    3.68    0.63
   8  -2  14    3.34    0.57
   8  -2  14    3.61    0.65
  -8   1 -14   34.31    1.42
   8  -1  14   33.52    1.43
   8  -1  14   32.30    1.27
  -8   0 -14    1.38    0.60
   8   0  14   -0.07    0.57
   8   0  14   -0.06    0.42
  -8  -1 -14    2.89    0.67
   8   1  14    2.86    0.68
   8   1  14    2.04    0.54
   7  -9  14    6.94    0.80
   7  -8  14   33.83    1.34
   7  -8  14   32.90    1.31
   7  -7  14    6.32    0.75
   7  -7  14    6.54    0.73
   7  -6  14   19.16    1.05
   7  -6  14   18.93    0.98
   7  -5  14    5.06    0.65
   7  -5  14    5.07    0.68
   7  -5  14    4.97    0.56
  -7   4 -14   11.04    0.84
   7  -4  14   11.77    0.76
   7  -4  14   10.72    0.87
  -7   3 -14   21.67    1.08
   7  -3  14   21.90    0.97
   7  -3  14   21.52    1.10
  -7   2 -14    4.47    0.68
   7  -2  14    3.08    0.55
   7  -2  14    3.77    0.65
  -7   1 -14    1.41    0.52
   7  -1  14    1.45    0.57
   7  -1  14    1.52    0.49
  -7   0 -14    6.93    0.80
   7   0  14    5.75    0.68
   7   0  14    7.52    0.80
  -7  -1 -14    4.16    0.71
   7   1  14    3.51    0.72
   7   1  14    4.79    0.66
  -7  -2 -14    3.72    0.72
   7   2  14    2.13    0.55
   7   2  14    1.20    0.57
   6  -9  14    0.59    0.53
   6  -8  14    2.39    0.56
   6  -7  14    1.63    0.49
   6  -7  14    1.79    0.52
   6  -6  14    5.56    0.66
   6  -6  14    5.84    0.64
   6  -5  14    2.52    0.51
   6  -5  14    1.44    0.43
   6  -5  14    2.28    0.52
  -6   4 -14    7.52    0.70
   6  -4  14    7.36    0.67
   6  -4  14    6.75    0.71
   6  -4  14    6.38    0.59
  -6   3 -14   14.49    0.88
  -6   3 -14   16.74    0.76
   6  -3  14   13.98    0.91
   6  -3  14   17.47    0.84
  -6   2 -14   31.60    1.21
   6  -2  14   33.51    1.27
   6  -2  14   35.94    1.19
  -6   1 -14   23.26    1.07
   6  -1  14   25.43    1.05
   6  -1  14   24.15    1.09
  -6   0 -14    5.90    0.73
   6   0  14    5.75    0.71
   6   0  14    6.51    0.64
  -6  -1 -14   19.85    1.12
   6   1  14   19.22    0.93
   6   1  14   20.06    1.05
  -6  -2 -14   26.67    1.25
   6   2  14   32.91    1.38
   6   2  14   29.28    1.20
  -6  -3 -14    4.78    0.81
   6   3  14    4.40    0.69
   6   3  14    5.71    0.82
   5 -10  14    1.09    0.58
   5  -9  14    6.34    0.73
   5  -8  14    9.64    0.81
   5  -7  14    3.88    0.60
   5  -6  14   24.98    1.04
   5  -6  14   24.42    1.06
   5  -5  14   34.39    1.18
   5  -5  14   36.45    1.07
   5  -5  14   33.38    1.16
  -5   4 -14   48.30    1.30
   5  -4  14   52.28    1.40
   5  -4  14   48.09    1.29
   5  -4  14   49.46    1.41
  -5   3 -14   32.29    1.08
  -5   3 -14   32.30    1.02
   5  -3  14   30.82    1.02
   5  -3  14   31.38    1.02
   5  -3  14   30.62    1.11
  -5   2 -14   13.65    0.69
  -5   2 -14   13.02    0.77
   5  -2  14   12.25    0.82
   5  -2  14   14.39    0.74
  -5   1 -14    8.91    0.76
   5  -1  14    7.52    0.69
   5  -1  14    8.61    0.66
  -5   0 -14   34.80    1.30
   5   0  14   37.55    1.23
   5   0  14   34.50    1.24
  -5  -1 -14    1.88    0.59
   5   1  14    2.03    0.56
   5   1  14    1.48    0.46
  -5  -2 -14    4.84    0.71
   5   2  14    4.54    0.69
   5   2  14    5.21    0.65
  -5  -3 -14    5.71    0.77
   5   3  14    5.76    0.75
   5   3  14    6.36    0.68
  -5  -4 -14    3.86    0.73
   5   4  14    3.21    0.59
   5   4  14    4.93    0.75
  -5  -5 -14    0.26    0.59
   5   5  14    1.01    0.54
   5   5  14    1.04    0.63
   4  -9  14    4.03    0.64
   4  -8  14   10.06    0.85
   4  -7  14   23.61    1.05
   4  -6  14   35.64    1.22
   4  -6  14   36.90    1.19
  -4   5 -14    9.26    0.73
   4  -5  14    8.03    0.63
   4  -5  14    8.33    0.68
   4  -5  14    8.53    0.60
  -4   4 -14    0.27    0.36
   4  -4  14    0.15    0.33
   4  -4  14    0.55    0.38
   4  -4  14   -0.27    0.36
  -4   3 -14   23.04    0.88
  -4   3 -14   23.66    0.89
   4  -3  14   20.31    0.83
   4  -3  14   22.34    0.85
   4  -3  14   22.79    0.90
  -4   2 -14   10.09    0.62
  -4   2 -14    8.49    0.61
   4  -2  14    9.13    0.61
   4  -2  14   10.38    0.70
   4  -2  14    9.50    0.63
  -4   1 -14    3.04    0.51
  -4   1 -14    3.11    0.40
   4  -1  14    2.84    0.49
   4  -1  14    2.79    0.47
  -4   0 -14   -0.10    0.41
   4   0  14   -0.11    0.40
   4   0  14   -0.26    0.37
  -4  -1 -14   48.12    1.48
   4   1  14   49.72    1.46
   4   1  14   47.96    1.39
  -4  -2 -14    7.09    0.75
   4   2  14    8.19    0.73
   4   2  14    6.62    0.70
  -4  -3 -14   10.47    0.93
   4   3  14   10.83    0.77
   4   3  14   11.26    0.86
  -4  -4 -14    9.88    0.92
   4   4  14   10.30    0.83
   4   4  14   11.18    0.96
  -4  -5 -14    7.45    0.91
   4   5  14    7.97    0.91
   4   5  14    8.38    0.78
  -3   9 -14    4.38    0.66
   3  -9  14    4.04    0.70
  -3   8 -14    7.88    0.76
   3  -8  14    5.12    0.70
  -3   7 -14   11.11    0.85
   3  -7  14   10.34    0.81
  -3   6 -14   15.83    0.89
   3  -6  14   14.84    0.86
  -3   5 -14   12.93    0.81
  -3   5 -14   13.71    0.65
   3  -5  14   12.16    0.77
   3  -5  14   13.07    0.70
  -3   4 -14    3.06    0.45
   3  -4  14    2.67    0.42
   3  -4  14    3.07    0.41
   3  -4  14    2.42    0.45
  -3   3 -14   18.12    0.75
  -3   3 -14   19.93    0.81
   3  -3  14   19.12    0.77
   3  -3  14   17.95    0.74
   3  -3  14   18.11    0.76
  -3   2 -14    5.90    0.51
  -3   2 -14    6.74    0.53
   3  -2  14    5.97    0.53
   3  -2  14    6.14    0.51
   3  -2  14    5.61    0.45
  -3   1 -14  143.00    2.74
  -3   1 -14  141.44    2.61
   3  -1  14  138.61    2.68
   3  -1  14  136.93    2.49
   3  -1  14  141.89    2.78
  -3   0 -14   17.98    0.86
  -3   0 -14   19.00    0.71
   3   0  14   18.64    0.84
   3   0  14   17.77    0.85
  -3  -1 -14   25.16    1.05
   3   1  14   23.84    0.98
   3   1  14   24.13    1.01
  -3  -2 -14   30.52    1.23
   3   2  14   33.65    1.21
   3   2  14   33.34    1.13
  -3  -3 -14   15.50    0.94
   3   3  14   14.30    0.94
   3   3  14   14.71    0.89
  -3  -4 -14   21.70    1.10
   3   4  14   23.34    1.05
   3   4  14   21.39    1.11
  -3  -5 -14   11.50    0.98
   3   5  14   12.53    1.00
   3   5  14   10.86    0.78
  -3  -6 -14    1.22    0.61
   3   6  14    1.28    0.55
   3   6  14   -0.03    0.52
  -2   9 -14    0.98    0.55
   2  -9  14    1.51    0.56
  -2   8 -14   30.33    1.23
   2  -8  14   33.10    1.29
  -2   7 -14    4.73    0.65
   2  -7  14    6.31    0.71
  -2   6 -14    7.12    0.70
   2  -6  14    8.29    0.75
  -2   5 -14   32.91    1.15
   2  -5  14   31.62    1.11
  -2   4 -14   10.12    0.73
  -2   4 -14   10.03    0.59
   2  -4  14   10.54    0.62
   2  -4  14    9.00    0.65
   2  -4  14    9.55    0.57
  -2   3 -14  138.11    2.73
  -2   3 -14  141.22    2.57
   2  -3  14  141.02    2.53
   2  -3  14  140.59    2.69
   2  -3  14  144.54    2.65
  -2   2 -14   25.21    0.87
  -2   2 -14   23.23    0.78
   2  -2  14   23.93    0.87
   2  -2  14   23.82    0.77
   2  -2  14   23.76    0.77
  -2   1 -14    6.32    0.51
  -2   1 -14    4.48    0.46
   2  -1  14    5.44    0.42
   2  -1  14    5.20    0.44
   2  -1  14    4.40    0.48
  -2   0 -14   24.94    0.89
  -2   0 -14   24.83    0.82
   2   0  14   23.49    0.66
   2   0  14   22.58    0.88
   2   0  14   23.97    0.85
  -2  -1 -14    6.03    0.56
  -2  -1 -14    6.51    0.48
   2   1  14    5.31    0.53
   2   1  14    6.32    0.57
  -2  -2 -14    7.64    0.60
  -2  -2 -14    9.80    0.75
   2   2  14   10.05    0.74
   2   2  14    8.89    0.67
  -2  -3 -14   13.56    0.93
   2   3  14   13.24    0.85
   2   3  14   14.19    0.86
  -2  -4 -14   32.99    1.28
   2   4  14   31.07    1.18
   2   4  14   31.96    1.16
  -2  -5 -14    3.16    0.67
   2   5  14    2.94    0.55
   2   5  14    3.38    0.61
  -2  -6 -14    2.64    0.65
   2   6  14    3.09    0.67
   2   6  14    4.27    0.63
  -2  -7 -14    8.99    0.98
   2   7  14    6.78    0.86
   2   7  14    7.76    0.80
  -1   9 -14    1.88    0.62
   1  -9  14    2.21    0.64
  -1   8 -14    5.16    0.72
   1  -8  14    5.13    0.69
  -1   7 -14   17.79    0.98
   1  -7  14   19.04    1.00
  -1   6 -14    2.67    0.57
   1  -6  14    2.65    0.57
  -1   5 -14   50.46    1.42
   1  -5  14   50.53    1.44
  -1   4 -14   19.88    0.94
  -1   4 -14   23.56    0.80
   1  -4  14   22.94    0.90
  -1   3 -14    5.42    0.40
  -1   3 -14    5.01    0.55
  -1   3 -14    6.28    0.51
   1  -3  14    5.53    0.42
   1  -3  14    6.49    0.53
  -1   2 -14    6.15    0.52
  -1   2 -14    4.70    0.37
  -1   2 -14    5.81    0.53
   1  -2  14    5.11    0.49
   1  -2  14    5.22    0.44
   1  -2  14    5.03    0.36
  -1   1 -14    3.53    0.44
  -1   1 -14    3.80    0.38
   1  -1  14    3.62    0.34
   1  -1  14    3.40    0.33
   1  -1  14    3.30    0.42
  -1   0 -14    2.29    0.37
  -1   0 -14    3.81    0.44
   1   0  14    3.97    0.30
   1   0  14    4.09    0.48
   1   0  14    3.33    0.36
  -1  -1 -14    4.95    0.47
  -1  -1 -14    4.22    0.47
   1   1  14    4.38    0.44
   1   1  14    5.03    0.52
  -1  -2 -14  140.84    2.76
  -1  -2 -14  138.44    2.56
   1   2  14  135.09    2.79
   1   2  14  138.31    2.65
  -1  -3 -14    3.02    0.45
  -1  -3 -14    2.80    0.51
   1   3  14    3.06    0.49
   1   3  14    1.80    0.46
  -1  -4 -14    9.97    0.81
   1   4  14    9.13    0.75
   1   4  14    8.38    0.74
  -1  -5 -14   25.15    1.16
   1   5  14   26.29    1.09
   1   5  14   25.93    1.15
  -1  -6 -14    2.39    0.64
   1   6  14    1.05    0.51
   1   6  14    1.53    0.55
  -1  -7 -14   35.47    1.50
   1   7  14   35.71    1.44
   1   7  14   39.02    1.39
  -1  -8 -14    5.28    0.82
   1   8  14    6.28    0.84
   0   8 -14    0.19    0.52
   0  -8  14    0.17    0.53
   0   7 -14    6.69    0.73
   0  -7  14    6.02    0.73
   0   6 -14    6.76    0.73
   0  -6  14    5.82    0.66
   0   5 -14   34.48    1.23
   0  -5  14   33.64    1.14
   0   4 -14    0.00    0.36
   0   4 -14   -0.13    0.37
   0  -4  14   -0.26    0.38
   0   3 -14   18.59    0.79
   0   3 -14   16.85    0.86
   0  -3  14   18.09    0.77
   0   2 -14   24.68    0.87
   0   2 -14   22.83    0.59
   0   2 -14   22.94    0.92
   0  -2  14   23.75    0.78
   0   1 -14    3.00    0.42
   0   1 -14    3.79    0.31
   0   1 -14    3.22    0.46
   0  -1  14    3.19    0.25
   0  -1  14    3.07    0.35
   0   0 -14  353.66    5.93
   0   0 -14  341.24    6.08
   0   0 -14  345.95    5.72
   0   0  14  346.62    5.53
   0   0  14  354.63    5.51
   0   0  14  344.84    6.02
   0  -1 -14    3.18    0.46
   0  -1 -14    3.69    0.41
   0  -1 -14    3.50    0.45
   0   1  14    3.83    0.27
   0   1  14    3.50    0.36
   0   1  14    3.01    0.45
   0  -2 -14   23.48    0.94
   0  -2 -14   25.04    0.86
   0  -2 -14   24.02    0.85
   0   2  14   23.27    0.92
   0   2  14   23.70    0.80
   0  -3 -14   17.95    0.82
   0  -3 -14   18.40    0.84
   0   3  14   17.81    0.86
   0   3  14   17.62    0.79
   0  -4 -14   -0.09    0.44
   0  -4 -14    0.51    0.42
   0   4  14   -0.02    0.34
   0   4  14    0.11    0.41
   0  -5 -14   34.63    1.32
   0   5  14   34.95    1.23
   0   5  14   33.88    1.25
   0  -6 -14    7.82    0.85
   0   6  14    6.16    0.68
   0   6  14    7.66    0.77
   0  -7 -14    6.13    0.73
   0  -7 -14    6.68    0.83
   0   7  14    5.54    0.69
   0   7  14    6.80    0.75
   0  -8 -14    0.42    0.66
   0   8  14   -0.09    0.49
   0   8  14    0.41    0.53
   1   8 -14    4.36    0.74
  -1  -8  14    6.02    0.80
   1   7 -14   34.25    1.31
  -1  -7  14   34.59    1.35
   1   6 -14    0.40    0.51
  -1  -6  14    1.53    0.53
   1   5 -14   25.05    1.13
  -1  -5  14   26.06    1.08
   1   4 -14    8.77    0.76
   1   4 -14    9.63    0.76
  -1  -4  14    9.84    0.74
   1   3 -14    2.32    0.47
   1   3 -14    2.70    0.49
  -1  -3  14    2.92    0.48
   1   2 -14  139.75    2.71
   1   2 -14  135.63    2.78
  -1  -2  14  140.43    2.61
   1   1 -14    4.91    0.54
   1   1 -14    3.95    0.29
   1   1 -14    4.77    0.51
  -1  -1  14    3.98    0.42
   1   0 -14    3.23    0.48
   1   0 -14    3.17    0.30
   1   0 -14    3.71    0.46
  -1   0  14    3.59    0.34
  -1   0  14    3.92    0.28
   1  -1 -14    3.32    0.37
   1  -1 -14    2.90    0.46
   1  -1 -14    2.56    0.45
  -1   1  14    3.77    0.31
  -1   1  14    3.47    0.27
   1  -2 -14    5.45    0.55
   1  -2 -14    5.14    0.47
   1  -2 -14    4.11    0.52
  -1   2  14    5.99    0.47
   1  -3 -14    4.90    0.57
   1  -3 -14    4.54    0.56
   1  -3 -14    6.22    0.56
  -1   3  14    5.93    0.49
   1  -4 -14   22.37    1.03
   1  -4 -14   20.75    0.97
   1  -4 -14   25.67    1.02
  -1   4  14   22.27    1.04
  -1   4  14   24.07    0.89
   1  -5 -14   49.90    1.50
   1  -5 -14   46.16    1.48
   1  -5 -14   47.44    1.39
  -1   5  14   47.16    1.36
  -1   5  14   48.49    1.48
   1  -6 -14    2.26    0.58
   1  -6 -14    1.94    0.56
   1  -6 -14    1.30    0.60
  -1   6  14    3.05    0.60
  -1   6  14    1.88    0.53
   1  -7 -14   19.09    1.11
   1  -7 -14   20.05    1.04
  -1   7  14   18.55    0.96
  -1   7  14   19.30    1.04
   1  -8 -14    6.27    0.75
   1  -8 -14    4.35    0.75
  -1   8  14    5.21    0.75
   1  -9 -14    1.96    0.70
  -1   9  14    2.85    0.71
   2   7 -14    5.93    0.79
  -2  -7  14    7.20    0.83
   2   6 -14    3.69    0.67
  -2  -6  14    3.79    0.67
   2   5 -14    3.26    0.63
  -2  -5  14    4.36    0.64
   2   4 -14   33.84    1.17
   2   4 -14   34.55    1.28
  -2  -4  14   33.68    1.17
   2   3 -14   12.38    0.79
   2   3 -14   13.68    0.89
  -2  -3  14   12.17    0.76
   2   2 -14    9.36    0.72
   2   2 -14    9.83    0.76
  -2  -2  14   10.26    0.65
   2   1 -14    5.95    0.58
   2   1 -14    6.24    0.60
  -2  -1  14    5.32    0.48
   2   0 -14   23.26    0.97
   2   0 -14   23.15    0.95
   2   0 -14   22.84    0.59
  -2   0  14   22.93    0.72
   2  -1 -14    5.59    0.55
   2  -1 -14    4.14    0.51
   2  -1 -14    5.08    0.38
  -2   1  14    4.81    0.36
   2  -2 -14   22.65    0.95
   2  -2 -14   21.24    0.91
   2  -2 -14   23.80    0.80
  -2   2  14   22.51    0.66
  -2   2  14   22.98    0.58
   2  -3 -14  133.65    2.85
   2  -3 -14  139.09    2.74
   2  -3 -14  140.33    2.65
  -2   3  14  139.57    2.48
   2  -4 -14    9.51    0.77
   2  -4 -14   10.42    0.76
   2  -4 -14   10.36    0.75
  -2   4  14   10.59    0.62
   2  -5 -14   32.27    1.21
   2  -5 -14   33.34    1.21
   2  -5 -14   32.72    1.27
  -2   5  14   31.28    1.06
   2  -6 -14    7.10    0.77
   2  -6 -14    8.02    0.77
   2  -6 -14    6.96    0.75
  -2   6  14    6.84    0.68
   2  -7 -14    6.03    0.73
   2  -7 -14    5.21    0.73
   2  -7 -14    4.02    0.68
  -2   7  14    4.66    0.65
   2  -8 -14   32.84    1.30
   2  -8 -14   31.78    1.33
  -2   8  14   32.12    1.30
   2  -9 -14    1.87    0.69
  -2   9  14    1.86    0.65
   3   6 -14    1.16    0.65
  -3  -6  14    0.88    0.54
   3   5 -14   11.64    0.94
  -3  -5  14    9.82    0.83
   3   4 -14   21.65    1.10
  -3  -4  14   23.60    1.00
   3   3 -14   15.68    1.00
   3   3 -14   15.27    0.96
  -3  -3  14   15.51    0.81
   3   2 -14   31.56    1.21
   3   2 -14   31.77    1.17
  -3  -2  14   30.34    1.06
   3   1 -14   21.88    0.93
   3   1 -14   21.84    1.04
  -3  -1  14   23.92    0.86
   3   0 -14   17.17    0.93
   3   0 -14   16.71    0.85
  -3   0  14   18.39    0.71
   3  -1 -14  132.96    2.71
   3  -1 -14  133.32    2.74
  -3   1  14  135.25    2.40
   3  -2 -14    5.01    0.59
   3  -2 -14    6.53    0.46
   3  -2 -14    5.72    0.59
  -3   2  14    6.13    0.42
   3  -3 -14   15.60    0.87
   3  -3 -14   19.38    0.79
   3  -3 -14   18.80    0.98
  -3   3  14   18.35    0.65
   3  -4 -14    2.59    0.53
   3  -4 -14    3.12    0.49
   3  -4 -14    2.34    0.59
  -3   4  14    2.95    0.39
   3  -5 -14   12.57    0.89
   3  -5 -14   13.67    1.05
   3  -5 -14   12.20    0.84
  -3   5  14   13.35    0.71
   3  -6 -14   14.85    0.90
   3  -6 -14   14.65    0.96
   3  -6 -14   15.13    1.04
  -3   6  14   15.79    0.83
   3  -7 -14   12.62    0.96
   3  -7 -14   13.76    0.98
   3  -7 -14   11.22    0.89
  -3   7  14   11.76    0.84
   3  -8 -14    7.80    0.78
   3  -8 -14    6.16    0.79
   3  -8 -14    6.30    0.74
  -3   8  14    5.46    0.71
   3  -9 -14    4.25    0.76
   3  -9 -14    4.14    0.75
  -3   9  14    4.10    0.69
   4   5 -14    7.64    0.85
  -4  -5  14    6.74    0.78
   4   4 -14    9.71    0.89
  -4  -4  14   10.43    0.86
   4   3 -14   12.16    0.94
   4   3 -14    9.47    0.84
  -4  -3  14   11.64    0.83
   4   2 -14    7.90    0.80
   4   2 -14    6.86    0.77
  -4  -2  14    7.19    0.69
   4   1 -14   45.77    1.44
   4   1 -14   49.64    1.51
  -4  -1  14   48.70    1.35
   4   0 -14    0.61    0.54
   4   0 -14    0.64    0.48
  -4   0  14    0.13    0.40
   4  -1 -14    3.80    0.60
   4  -1 -14    2.61    0.59
  -4   1  14    3.08    0.44
   4  -2 -14   11.45    0.89
   4  -2 -14    9.74    0.80
  -4   2  14    9.22    0.54
   4  -3 -14   21.91    1.01
   4  -3 -14   20.77    0.98
  -4   3  14   23.08    0.70
   4  -4 -14   -0.01    0.46
   4  -4 -14    0.54    0.52
  -4   4  14   -0.04    0.29
   4  -5 -14    7.95    0.83
   4  -5 -14    9.91    0.84
   4  -5 -14    9.61    0.77
  -4   5  14    9.58    0.70
   4  -6 -14   32.86    1.36
   4  -6 -14   33.79    1.25
   4  -6 -14   33.33    1.31
  -4   6  14   34.17    1.12
   4  -7 -14   23.75    1.21
   4  -7 -14   24.10    1.08
   4  -7 -14   20.56    1.10
  -4   7  14   22.62    1.00
   4  -8 -14   10.44    0.91
   4  -8 -14   11.64    0.90
   4  -8 -14   10.58    0.95
  -4   8  14   10.92    0.85
   4  -9 -14    5.33    0.78
   4  -9 -14    4.27    0.74
  -4   9  14    6.10    0.76
   5   5 -14    0.67    0.64
  -5  -5  14    0.53    0.59
   5   4 -14    3.72    0.73
  -5  -4  14    5.27    0.74
   5   3 -14    7.21    0.84
   5   3 -14    5.25    0.73
  -5  -3  14    5.42    0.72
   5   2 -14    5.11    0.75
   5   2 -14    5.56    0.76
  -5  -2  14    4.72    0.65
   5   1 -14    1.93    0.64
   5   1 -14    1.98    0.69
  -5  -1  14    2.65    0.55
   5   0 -14   32.92    1.32
   5   0 -14   32.92    1.27
  -5   0  14   34.44    1.11
   5  -1 -14    7.55    0.79
   5  -1 -14    7.98    0.80
  -5   1  14    8.50    0.64
   5  -2 -14   14.54    1.02
   5  -2 -14   12.83    0.89
  -5   2  14   11.71    0.69
   5  -3 -14   33.54    1.30
   5  -3 -14   29.05    1.19
  -5   3  14   30.46    0.93
   5  -4 -14   48.26    1.56
   5  -5 -14   32.30    1.28
   5  -5 -14   35.07    1.42
  -5   5  14   34.34    1.01
   5  -6 -14   25.40    1.21
   5  -6 -14   25.70    1.30
  -5   6  14   26.09    1.04
   5  -7 -14    3.16    0.75
   5  -7 -14    4.95    0.70
  -5   7  14    3.55    0.54
   5  -8 -14   11.45    0.92
   5  -8 -14   11.38    1.01
  -5   8  14   11.05    0.85
   5  -9 -14    7.15    0.92
  -5   9  14    8.63    0.85
   5 -10 -14    0.75    0.67
  -5  10  14    1.58    0.63
   6   3 -14    3.40    0.75
   6   3 -14    3.53    0.74
  -6  -3  14    3.85    0.69
   6   2 -14   30.47    1.30
   6   2 -14   29.42    1.28
  -6  -2  14   30.46    1.25
   6   1 -14   19.91    1.19
   6   1 -14   19.47    1.16
  -6  -1  14   18.85    0.97
   6   0 -14    7.13    0.86
   6   0 -14    6.68    0.83
  -6   0  14    6.84    0.70
   6  -1 -14   26.08    1.26
   6  -1 -14   23.72    1.21
  -6   1  14   26.98    1.02
   6  -2 -14   32.05    1.37
   6  -2 -14   30.75    1.36
  -6   2  14   34.46    1.09
   6  -3 -14   13.57    1.00
   6  -3 -14   15.35    1.13
  -6   3  14   15.99    0.80
   6  -4 -14    7.87    0.87
   6  -4 -14    7.08    0.85
  -6   4  14    7.33    0.59
   6  -5 -14    2.67    0.70
   6  -5 -14    1.98    0.72
   6  -6 -14    7.49    0.85
   6  -6 -14    8.17    0.87
  -6   6  14    7.93    0.65
   6  -7 -14    1.36    0.57
   6  -7 -14    1.75    0.71
  -6   7  14    1.58    0.50
   6  -8 -14    3.12    0.78
   6  -8 -14    2.38    0.67
  -6   8  14    3.42    0.60
   6  -9 -14    0.20    0.70
   6  -9 -14    1.77    0.66
  -6   9  14    0.81    0.54
   7   2 -14    1.67    0.74
   7   2 -14    1.02    0.71
  -7  -2  14    1.71    0.63
   7   1 -14    4.17    0.79
   7   1 -14    4.49    0.78
  -7  -1  14    3.92    0.67
   7   0 -14    6.42    0.83
   7   0 -14    6.58    0.88
  -7   0  14    4.60    0.68
   7  -1 -14    2.38    0.73
   7  -1 -14    1.84    0.68
  -7   1  14    1.15    0.51
   7  -2 -14    3.61    0.75
   7  -2 -14    3.92    0.73
  -7   2  14    4.19    0.60
   7  -3 -14   21.91    1.24
   7  -3 -14   21.26    1.16
  -7   3  14   21.28    0.93
   7  -4 -14   10.35    0.94
   7  -4 -14   11.11    0.99
  -7   4  14   11.24    0.72
   7  -5 -14    3.24    0.78
   7  -5 -14    5.38    0.82
   7  -6 -14   18.87    1.16
   7  -6 -14   21.30    1.24
   7  -7 -14    6.03    0.82
   7  -7 -14    4.44    0.83
   7  -8 -14   35.64    1.44
   7  -8 -14   32.68    1.49
  -7   8  14   37.20    1.33
   7  -9 -14    6.93    0.85
   7  -9 -14    5.64    0.91
  -7   9  14    6.58    0.77
   8   1 -14    1.53    0.77
   8   1 -14    1.34    0.73
  -8  -1  14    2.72    0.68
   8   0 -14   -0.01    0.63
   8   0 -14   -0.45    0.65
  -8   0  14   -0.42    0.53
   8  -1 -14   34.34    1.47
   8  -1 -14   33.50    1.52
  -8   1  14   36.61    1.33
   8  -2 -14    2.58    0.77
   8  -2 -14    2.36    0.75
  -8   2  14    2.49    0.61
   8  -3 -14   10.22    1.00
   8  -3 -14   11.19    1.03
  -8   3  14   10.53    0.81
   8  -4 -14    8.82    0.96
   8  -4 -14   10.01    0.99
  -8   4  14   10.59    0.78
   8  -5 -14    5.90    0.88
   8  -5 -14    4.76    0.84
   8  -6 -14   27.36    1.39
   8  -6 -14   30.23    1.39
   8  -7 -14    5.28    0.84
   8  -7 -14    4.50    0.86
   8  -8 -14    0.51    0.74
   8  -8 -14    1.30    0.69
   8  -9 -14    4.80    0.85
   8  -9 -14    5.36    0.92
  -8   9  14    4.99    0.75
   9  -1 -14    4.71    0.91
   9  -1 -14    4.48    0.89
  -9   1  14    5.41    0.78
   9  -2 -14    5.09    0.93
   9  -2 -14    5.33    0.88
  -9   2  14    6.56    0.79
   9  -3 -14    0.82    0.79
   9  -3 -14    1.14    0.76
  -9   3  14    1.17    0.60
   9  -4 -14    9.34    1.04
   9  -4 -14    7.10    0.96
  -9   4  14    7.46    0.79
   9  -5 -14    6.03    0.91
   9  -5 -14    3.42    0.83
  -9   5  14    4.79    0.70
   9  -6 -14    4.25    0.89
   9  -6 -14    2.91    0.83
   9  -7 -14    0.99    0.73
   9  -7 -14    1.01    0.78
   9  -8 -14    0.47    0.74
   9  -8 -14    2.01    0.83
  10  -5 -14    0.08    0.77
  10  -5 -14    0.36    0.78
 -10   5  14   -0.07    0.55
   9  -7  15    0.61    0.55
   9  -7  15   -0.26    0.54
  -9   6 -15    0.58    0.52
   9  -6  15    1.69    0.60
  -9   5 -15    1.05    0.53
   9  -5  15    1.17    0.62
   9  -5  15    0.87    0.49
  -9   4 -15    1.18    0.53
   9  -4  15    0.07    0.55
   9  -4  15    0.51    0.45
  -9   3 -15    0.30    0.47
   9  -3  15   -0.15    0.43
   9  -3  15    0.80    0.61
  -9   2 -15   15.80    1.04
   9  -2  15   16.61    0.96
   9  -2  15   15.63    1.12
   8  -8  15    1.27    0.54
   8  -8  15    2.01    0.64
   8  -7  15   12.74    0.92
   8  -7  15   13.56    0.94
   8  -6  15    0.50    0.52
   8  -6  15    1.22    0.57
  -8   5 -15    2.78    0.61
   8  -5  15    2.08    0.61
   8  -5  15    1.40    0.46
  -8   4 -15   38.81    1.43
   8  -4  15   38.74    1.47
   8  -4  15   37.36    1.25
  -8   3 -15    7.94    0.84
   8  -3  15    7.81    0.73
   8  -3  15    8.84    0.89
  -8   2 -15   16.12    0.99
   8  -2  15   17.43    1.09
   8  -2  15   19.01    0.99
  -8   1 -15    0.56    0.51
   8  -1  15    0.34    0.44
   8  -1  15    0.26    0.52
  -8   0 -15    2.48    0.69
   8   0  15    1.62    0.67
   8   0  15    1.74    0.52
   7  -9  15   16.41    1.03
   7  -8  15    0.37    0.52
   7  -8  15    0.74    0.55
   7  -7  15    2.46    0.61
   7  -7  15    2.08    0.54
   7  -6  15   29.65    1.25
   7  -6  15   29.48    1.18
  -7   5 -15   14.82    0.86
   7  -5  15   13.99    0.78
   7  -5  15   13.87    0.95
   7  -5  15   15.42    0.91
  -7   4 -15    6.59    0.70
   7  -4  15    6.68    0.61
   7  -4  15    6.96    0.76
  -7   3 -15   -0.41    0.40
   7  -3  15   -0.13    0.42
   7  -3  15    0.79    0.43
  -7   2 -15    2.89    0.60
   7  -2  15    1.40    0.45
   7  -2  15    2.53    0.56
  -7   1 -15    3.63    0.65
   7  -1  15    4.03    0.60
   7  -1  15    3.96    0.65
  -7   0 -15    2.74    0.62
   7   0  15    1.85    0.51
   7   0  15    2.10    0.59
  -7  -1 -15   14.14    0.99
   7   1  15   13.29    1.03
   7   1  15   11.24    0.82
  -7  -2 -15    0.01    0.58
   7   2  15    0.13    0.52
   7   2  15   -0.76    0.40
   6  -9  15    0.23    0.52
   6  -8  15   15.57    0.91
   6  -7  15    3.82    0.58
   6  -7  15    4.59    0.65
   6  -6  15    0.89    0.49
   6  -6  15    1.36    0.50
   6  -5  15    1.80    0.51
   6  -5  15    1.48    0.50
   6  -5  15    1.26    0.41
  -6   4 -15   29.32    1.03
  -6   4 -15   29.07    1.13
   6  -4  15   29.44    1.12
   6  -4  15   26.52    1.01
   6  -4  15   25.88    1.13
  -6   3 -15    0.02    0.45
  -6   3 -15   -0.27    0.39
   6  -3  15    0.37    0.47
   6  -3  15    0.75    0.44
  -6   2 -15    0.02    0.42
   6  -2  15    0.03    0.38
   6  -2  15    0.42    0.47
  -6   1 -15   51.98    1.61
   6  -1  15   53.05    1.63
   6  -1  15   51.71    1.49
  -6   0 -15    0.69    0.53
   6   0  15    0.91    0.43
   6   0  15    1.16    0.50
  -6  -1 -15   27.92    1.24
   6   1  15   29.44    1.14
   6   1  15   27.64    1.27
  -6  -2 -15    1.49    0.60
   6   2  15   -0.11    0.48
   6   2  15    0.93    0.59
  -6  -3 -15    0.66    0.57
   6   3  15    1.03    0.62
   6   3  15    0.35    0.51
   5  -9  15    0.93    0.55
   5  -8  15    7.70    0.79
   5  -7  15    2.73    0.53
   5  -6  15   53.10    1.53
   5  -6  15   53.59    1.53
  -5   5 -15    1.62    0.47
   5  -5  15    1.38    0.47
   5  -5  15    1.70    0.41
   5  -5  15    1.94    0.50
  -5   4 -15    0.14    0.38
  -5   4 -15    0.41    0.39
   5  -4  15    0.43    0.39
   5  -4  15   -0.06    0.40
   5  -4  15    0.89    0.43
  -5   3 -15   90.34    1.92
  -5   3 -15   87.62    2.05
   5  -3  15   89.42    1.92
   5  -3  15   91.05    2.07
   5  -3  15   86.43    1.99
  -5   2 -15    1.55    0.38
  -5   2 -15    1.58    0.46
   5  -2  15    1.25    0.45
   5  -2  15    1.41    0.46
  -5   1 -15   41.60    1.34
   5  -1  15   40.24    1.28
   5  -1  15   37.73    1.28
  -5   0 -15    1.11    0.49
   5   0  15    1.67    0.49
   5   0  15    1.20    0.51
  -5  -1 -15    0.95    0.51
   5   1  15    3.12    0.55
   5   1  15    1.34    0.49
  -5  -2 -15   14.18    0.93
   5   2  15   13.90    0.82
   5   2  15   15.69    1.02
  -5  -3 -15    1.48    0.61
   5   3  15    2.08    0.62
   5   3  15    2.54    0.54
  -5  -4 -15    1.02    0.59
   5   4  15    1.06    0.54
   5   4  15    1.94    0.65
  -4   9 -15    1.64    0.58
   4  -9  15    1.49    0.58
  -4   8 -15   38.73    1.33
   4  -8  15   40.63    1.41
  -4   7 -15   -0.47    0.43
   4  -7  15   -0.04    0.43
  -4   6 -15   -0.08    0.44
   4  -6  15   -0.33    0.43
   4  -6  15   -0.04    0.40
  -4   5 -15   43.10    1.30
   4  -5  15   40.99    1.27
   4  -5  15   41.34    1.22
  -4   4 -15    0.35    0.35
  -4   4 -15    0.54    0.43
   4  -4  15    0.04    0.35
   4  -4  15    0.03    0.41
   4  -4  15   -0.48    0.35
  -4   3 -15   17.00    0.79
  -4   3 -15   16.52    0.81
   4  -3  15   17.01    0.77
   4  -3  15   15.98    0.78
   4  -3  15   17.24    0.81
  -4   2 -15   13.65    0.71
  -4   2 -15   11.70    0.73
   4  -2  15   10.51    0.63
   4  -2  15   13.09    0.75
   4  -2  15   12.48    0.75
  -4   1 -15   17.12    0.75
  -4   1 -15   17.47    0.88
   4  -1  15   19.11    0.90
   4  -1  15   19.12    0.91
  -4   0 -15    0.37    0.45
   4   0  15    0.36    0.41
   4   0  15    0.76    0.43
  -4  -1 -15    0.20    0.49
   4   1  15    0.13    0.41
   4   1  15    0.08    0.43
  -4  -2 -15   27.44    1.23
   4   2  15   25.78    1.07
   4   2  15   30.57    1.24
  -4  -3 -15    7.36    0.79
   4   3  15    6.70    0.75
   4   3  15    6.01    0.66
  -4  -4 -15   39.27    1.50
   4   4  15   40.12    1.52
   4   4  15   40.69    1.42
  -4  -5 -15    0.80    0.59
   4   5  15    0.86    0.62
   4   5  15    1.36    0.56
  -3   9 -15    1.13    0.58
   3  -9  15    0.33    0.52
  -3   8 -15    3.09    0.58
   3  -8  15    2.28    0.61
  -3   7 -15    6.26    0.67
   3  -7  15    6.14    0.67
  -3   6 -15    0.25    0.47
   3  -6  15    0.05    0.46
  -3   5 -15    1.58    0.49
  -3   5 -15    1.50    0.39
   3  -5  15    0.86    0.44
   3  -5  15    0.77    0.40
  -3   4 -15   17.96    0.74
  -3   4 -15   18.47    0.89
   3  -4  15   17.83    0.81
   3  -4  15   18.04    0.78
   3  -4  15   18.55    0.82
  -3   3 -15   59.87    1.49
  -3   3 -15   58.74    1.40
   3  -3  15   58.07    1.40
   3  -3  15   59.40    1.40
   3  -3  15   57.85    1.44
  -3   2 -15    7.36    0.57
  -3   2 -15    7.38    0.60
   3  -2  15    7.72    0.58
   3  -2  15    7.61    0.61
   3  -2  15    8.13    0.57
  -3   1 -15    1.25    0.40
  -3   1 -15    1.53    0.39
   3  -1  15    0.51    0.36
   3  -1  15    1.49    0.33
   3  -1  15    1.38    0.38
  -3   0 -15   57.75    1.52
  -3   0 -15   56.52    1.33
   3   0  15   58.63    1.52
   3   0  15   59.82    1.50
  -3  -1 -15   15.18    0.84
   3   1  15   17.90    0.90
   3   1  15   17.60    0.84
  -3  -2 -15   90.97    2.22
   3   2  15   91.30    2.15
   3   2  15   89.62    2.12
  -3  -3 -15    0.05    0.53
   3   3  15    0.01    0.46
   3   3  15    0.17    0.44
  -3  -4 -15    0.19    0.49
   3   4  15    0.50    0.44
   3   4  15    0.81    0.45
  -3  -5 -15    7.72    0.87
   3   5  15    8.33    0.87
   3   5  15    9.08    0.81
  -3  -6 -15   -0.06    0.61
   3   6  15    0.51    0.59
   3   6  15    0.51    0.53
  -2   9 -15   -0.48    0.51
   2  -9  15   -0.31    0.45
  -2   8 -15    1.86    0.58
   2  -8  15    1.34    0.55
  -2   7 -15   14.08    0.91
   2  -7  15   15.44    0.92
  -2   6 -15   27.49    1.08
   2  -6  15   29.00    1.13
  -2   5 -15   89.09    2.09
   2  -5  15   91.09    2.06
  -2   4 -15   12.38    0.67
  -2   4 -15   11.43    0.57
  -2   4 -15   12.11    0.79
   2  -4  15   11.16    0.61
   2  -4  15   13.55    0.74
  -2   3 -15    1.74    0.43
  -2   3 -15    1.02    0.32
   2  -3  15    1.42    0.39
   2  -3  15    1.19    0.32
   2  -3  15    1.68    0.38
  -2   2 -15   56.85    1.44
  -2   2 -15   58.04    1.35
   2  -2  15   59.62    1.32
   2  -2  15   58.14    1.31
   2  -2  15   59.34    1.47
  -2   1 -15   13.84    0.69
  -2   1 -15   13.97    0.74
   2  -1  15   13.21    0.64
   2  -1  15   12.71    0.57
   2  -1  15   14.31    0.77
  -2   0 -15   58.29    1.45
  -2   0 -15   55.06    1.35
   2   0  15   57.21    1.48
   2   0  15   58.13    1.17
   2   0  15   57.74    1.37
  -2  -1 -15    6.14    0.61
  -2  -1 -15    6.75    0.52
   2   1  15    6.83    0.60
   2   1  15    6.36    0.59
  -2  -2 -15   12.29    0.84
  -2  -2 -15   13.76    0.71
   2   2  15   11.32    0.76
   2   2  15   12.73    0.79
  -2  -3 -15    1.74    0.53
   2   3  15    1.68    0.48
   2   3  15    1.23    0.48
  -2  -4 -15    0.43    0.52
   2   4  15    0.54    0.49
   2   4  15    0.63    0.48
  -2  -5 -15    3.11    0.66
   2   5  15    4.16    0.66
   2   5  15    2.52    0.53
  -2  -6 -15   16.35    1.09
   2   6  15   18.33    1.01
   2   6  15   14.81    0.97
  -2  -7 -15   18.23    1.14
   2   7  15   15.65    0.97
   2   7  15   18.46    1.14
  -1   8 -15   14.50    0.95
   1  -8  15   15.24    0.97
  -1   7 -15   29.29    1.20
   1  -7  15   29.95    1.21
  -1   6 -15    1.29    0.52
   1  -6  15    1.73    0.54
  -1   5 -15    0.16    0.45
   1  -5  15    0.08    0.44
  -1   4 -15   15.80    0.76
  -1   4 -15   16.48    0.89
   1  -4  15   16.18    0.79
  -1   3 -15    7.77    0.44
  -1   3 -15    8.86    0.68
  -1   3 -15    7.23    0.59
   1  -3  15    7.28    0.59
  -1   2 -15   11.79    0.54
  -1   2 -15   12.87    0.70
  -1   2 -15   13.49    0.76
   1  -2  15   12.03    0.52
   1  -2  15   14.39    0.73
   1  -2  15   11.88    0.59
  -1   1 -15   42.51    1.20
  -1   1 -15   43.30    1.07
  -1   1 -15   42.29    1.22
   1  -1  15   42.75    1.20
   1  -1  15   43.14    1.00
   1  -1  15   42.12    1.00
  -1   0 -15   43.86    1.14
  -1   0 -15   43.52    1.20
   1   0  15   42.36    1.06
   1   0  15   42.02    0.92
   1   0  15   43.44    1.27
  -1  -1 -15   13.11    0.71
  -1  -1 -15   13.33    0.72
   1   1  15   13.30    0.66
   1   1  15   13.94    0.82
  -1  -2 -15    1.04    0.43
  -1  -2 -15    0.97    0.42
   1   2  15    1.77    0.48
   1   2  15    1.07    0.39
  -1  -3 -15   16.58    0.82
  -1  -3 -15   18.41    0.97
   1   3  15   17.32    0.86
   1   3  15   18.29    0.90
  -1  -4 -15   39.11    1.35
   1   4  15   44.11    1.42
   1   4  15   40.28    1.27
  -1  -5 -15   54.38    1.70
   1   5  15   53.36    1.62
   1   5  15   53.71    1.59
  -1  -6 -15    5.35    0.76
   1   6  15    3.97    0.65
   1   6  15    5.85    0.71
  -1  -7 -15    0.44    0.63
   1   7  15    1.11    0.56
   1   7  15    0.81    0.50
   0   8 -15    1.78    0.61
   0  -8  15    0.60    0.51
   0   7 -15    2.48    0.61
   0  -7  15    2.65    0.57
   0   6 -15    0.19    0.51
   0  -6  15    1.45    0.52
   0   5 -15    1.04    0.51
   0  -5  15    1.06    0.45
   0   4 -15    0.67    0.48
   0   4 -15    0.03    0.37
   0  -4  15   -0.33    0.40
   0   3 -15   57.22    1.45
   0   3 -15   57.29    1.52
   0  -3  15   59.09    1.43
   0   2 -15   56.05    1.46
   0   2 -15   56.80    1.45
   0   2 -15   57.25    1.12
   0  -2  15   58.01    1.33
   0   1 -15   42.02    1.21
   0   1 -15   40.98    0.96
   0   1 -15   42.70    1.21
   0  -1  15   44.29    1.03
   0   0 -15    0.57    0.38
   0   0 -15    0.93    0.38
   0   0  15    0.36    0.23
   0   0  15    0.86    0.40
   0   0  15    0.38    0.22
   0  -1 -15   42.75    1.18
   0  -1 -15   40.93    1.10
   0  -1 -15   40.90    1.25
   0   1  15   41.77    1.04
   0   1  15   41.59    0.82
   0   1  15   41.71    1.23
   0  -2 -15   52.57    1.36
   0  -2 -15   54.63    1.40
   0  -2 -15   54.85    1.55
   0   2  15   57.22    1.53
   0   2  15   59.43    1.33
   0  -3 -15   56.38    1.44
   0  -3 -15   57.59    1.53
   0   3  15   58.83    1.62
   0   3  15   59.38    1.45
   0  -4 -15    0.15    0.45
   0  -4 -15    0.07    0.46
   0   4  15    0.36    0.40
   0   4  15    0.28    0.48
   0  -5 -15    1.21    0.54
   0   5  15    1.59    0.56
   0   5  15    1.44    0.50
   0  -6 -15    0.50    0.45
   0  -6 -15    0.86    0.58
   0   6  15    0.90    0.48
   0   6  15    1.13    0.51
   0  -7 -15    3.56    0.64
   0  -7 -15    3.74    0.73
   0   7  15    4.16    0.66
   0   7  15    3.83    0.65
   0  -8 -15    2.54    0.74
   0   8  15    2.24    0.63
   0   8  15    2.62    0.69
   1   7 -15    0.31    0.53
  -1  -7  15    0.42    0.48
   1   6 -15    3.79    0.66
  -1  -6  15    4.04    0.64
   1   5 -15   51.07    1.57
  -1  -5  15   49.12    1.46
   1   4 -15   40.56    1.38
   1   4 -15   42.07    1.22
  -1  -4  15   42.32    1.30
   1   3 -15   18.16    0.95
   1   3 -15   17.85    0.87
  -1  -3  15   19.64    0.84
   1   2 -15    1.30    0.47
   1   2 -15    1.30    0.42
  -1  -2  15    1.27    0.38
   1   1 -15   12.69    0.42
   1   1 -15   13.17    0.73
   1   1 -15   12.29    0.74
  -1  -1  15   12.21    0.61
   1   0 -15   40.28    1.23
   1   0 -15   42.72    0.96
   1   0 -15   42.66    1.28
  -1   0  15   42.08    0.97
   1  -1 -15   41.75    1.05
   1  -1 -15   43.81    1.24
   1  -1 -15   41.21    1.30
  -1   1  15   42.29    0.95
  -1   1  15   40.89    0.88
   1  -2 -15   11.94    0.66
   1  -2 -15   11.33    0.77
   1  -2 -15   13.58    0.78
  -1   2  15   12.43    0.60
   1  -3 -15    7.91    0.61
   1  -3 -15    7.24    0.70
   1  -3 -15    6.68    0.65
  -1   3  15    7.63    0.56
   1  -4 -15   16.52    0.89
   1  -4 -15   16.81    0.91
   1  -4 -15   16.33    0.96
  -1   4  15   16.18    0.83
  -1   4  15   16.63    0.91
   1  -5 -15    0.63    0.55
   1  -5 -15    0.25    0.45
   1  -5 -15    0.54    0.52
  -1   5  15   -0.26    0.46
  -1   5  15    0.80    0.42
   1  -6 -15    1.44    0.58
   1  -6 -15    0.96    0.53
   1  -6 -15    1.43    0.60
  -1   6  15    1.56    0.51
  -1   6  15    1.85    0.60
   1  -7 -15   31.16    1.30
   1  -7 -15   30.85    1.28
  -1   7  15   32.90    1.30
  -1   7  15   31.51    1.27
   1  -8 -15   14.72    0.99
   1  -8 -15   13.38    0.99
  -1   8  15   13.23    0.99
   2   7 -15   16.47    1.08
  -2  -7  15   15.66    1.03
   2   6 -15   17.40    1.05
  -2  -6  15   18.39    1.03
   2   5 -15    2.19    0.61
  -2  -5  15    3.10    0.57
   2   4 -15    0.99    0.56
  -2  -4  15    0.67    0.50
   2   3 -15    1.59    0.54
   2   3 -15    1.46    0.54
  -2  -3  15    1.13    0.46
   2   2 -15   11.19    0.78
   2   2 -15   12.21    0.85
  -2  -2  15   11.78    0.69
   2   1 -15    7.83    0.67
   2   1 -15    6.89    0.70
  -2  -1  15    7.48    0.55
   2   0 -15   56.43    1.53
   2   0 -15   54.69    1.53
   2   0 -15   57.36    1.10
  -2   0  15   56.99    1.26
   2  -1 -15   12.21    0.56
   2  -1 -15   12.66    0.76
   2  -1 -15   12.70    0.81
  -2   1  15   12.36    0.51
   2  -2 -15   56.40    1.30
   2  -2 -15   55.29    1.54
   2  -2 -15   57.52    1.52
  -2   2  15   57.33    1.19
   2  -3 -15    0.59    0.45
   2  -3 -15    1.41    0.53
   2  -3 -15    1.76    0.42
  -2   3  15    0.99    0.31
   2  -4 -15   10.12    0.71
   2  -4 -15   12.59    0.90
   2  -4 -15   12.26    0.82
  -2   4  15   12.29    0.66
   2  -5 -15   90.61    2.10
   2  -5 -15   86.19    2.10
   2  -5 -15   89.43    2.22
  -2   5  15   88.31    1.95
   2  -6 -15   27.28    1.21
   2  -6 -15   29.25    1.24
   2  -6 -15   26.33    1.21
  -2   6  15   28.75    1.10
   2  -7 -15   16.13    0.99
   2  -7 -15   14.21    1.00
   2  -7 -15   16.25    1.02
  -2   7  15   13.63    0.91
   2  -8 -15    0.57    0.56
   2  -8 -15    1.15    0.55
  -2   8  15    1.40    0.53
   2  -9 -15    0.08    0.65
  -2   9  15   -0.32    0.55
   3   6 -15   -0.08    0.54
  -3  -6  15    0.19    0.49
   3   5 -15    7.53    0.85
  -3  -5  15    7.91    0.81
   3   4 -15   -0.13    0.52
  -3  -4  15    0.15    0.46
   3   3 -15    0.42    0.55
   3   3 -15    0.11    0.58
  -3  -3  15    0.52    0.47
   3   2 -15   88.38    2.16
   3   2 -15   89.92    2.09
  -3  -2  15   87.86    1.98
   3   1 -15   16.56    0.97
   3   1 -15   16.66    0.93
  -3  -1  15   15.30    0.75
   3   0 -15   54.50    1.52
   3   0 -15   56.95    1.59
  -3   0  15   57.05    1.33
   3  -1 -15    2.56    0.55
   3  -1 -15    1.13    0.46
  -3   1  15    1.12    0.33
   3  -2 -15    6.18    0.64
   3  -2 -15    6.29    0.69
   3  -2 -15    9.27    0.56
  -3   2  15    7.35    0.45
   3  -3 -15   59.04    1.40
   3  -3 -15   57.51    1.65
   3  -3 -15   55.20    1.60
  -3   3  15   57.16    1.22
   3  -4 -15   17.30    0.99
   3  -4 -15   19.48    1.06
   3  -4 -15   16.78    0.85
  -3   4  15   18.25    0.74
   3  -5 -15    1.56    0.62
   3  -5 -15    1.10    0.50
   3  -5 -15    0.28    0.50
  -3   5  15    1.25    0.41
   3  -6 -15    0.22    0.61
   3  -6 -15    0.33    0.50
   3  -6 -15    0.07    0.54
  -3   6  15    0.08    0.41
   3  -7 -15    6.51    0.75
   3  -7 -15    6.41    0.78
   3  -7 -15    7.56    0.79
  -3   7  15    6.47    0.68
   3  -8 -15    2.36    0.64
   3  -8 -15    1.69    0.62
   3  -8 -15    2.63    0.63
  -3   8  15    1.68    0.58
   3  -9 -15    1.38    0.69
  -3   9  15    1.62    0.63
   4   5 -15    0.19    0.58
  -4  -5  15    0.32    0.56
   4   4 -15   42.42    1.54
  -4  -4  15   39.47    1.38
   4   3 -15    7.74    0.82
   4   3 -15    7.64    0.78
  -4  -3  15    7.29    0.74
   4   2 -15   27.06    1.23
   4   2 -15   28.42    1.22
  -4  -2  15   27.82    1.08
   4   1 -15    0.56    0.61
   4   1 -15    0.17    0.55
  -4  -1  15   -0.04    0.44
   4   0 -15    0.46    0.49
   4   0 -15   -0.84    0.52
  -4   0  15    0.37    0.38
   4  -1 -15   17.57    1.02
   4  -1 -15   17.65    1.01
  -4   1  15   17.86    0.75
   4  -2 -15   11.49    0.92
   4  -2 -15   11.91    0.88
  -4   2  15   11.06    0.59
   4  -3 -15   15.30    1.04
   4  -3 -15   16.00    0.98
   4  -4 -15   -0.32    0.39
   4  -4 -15   -0.39    0.51
   4  -4 -15    0.00    0.47
  -4   4  15    0.04    0.30
   4  -5 -15   38.91    1.27
   4  -5 -15   37.28    1.40
   4  -5 -15   41.68    1.46
  -4   5  15   41.27    1.15
   4  -6 -15    0.89    0.55
   4  -6 -15    1.35    0.55
   4  -6 -15    1.42    0.72
  -4   6  15   -0.24    0.38
   4  -7 -15    0.30    0.66
   4  -7 -15    0.59    0.54
   4  -7 -15    0.78    0.57
  -4   7  15    1.30    0.47
   4  -8 -15   40.73    1.48
   4  -8 -15   40.15    1.48
   4  -8 -15   42.63    1.52
  -4   8  15   41.59    1.40
   4  -9 -15    1.73    0.69
   4  -9 -15    1.06    0.69
  -4   9  15    1.97    0.62
   5   4 -15    0.90    0.64
  -5  -4  15    1.45    0.59
   5   3 -15    1.42    0.64
   5   3 -15    2.02    0.67
  -5  -3  15    1.95    0.58
   5   2 -15   14.04    1.01
   5   2 -15   14.40    1.01
  -5  -2  15   14.94    0.89
   5   1 -15    1.35    0.62
   5   1 -15    1.38    0.68
  -5  -1  15    1.82    0.51
   5   0 -15    1.38    0.63
   5   0 -15    1.12    0.66
  -5   0  15    1.93    0.50
   5  -1 -15   40.23    1.46
   5  -1 -15   38.98    1.40
  -5   1  15   42.13    1.21
   5  -2 -15    0.77    0.61
   5  -2 -15    0.97    0.60
  -5   2  15    1.98    0.44
   5  -3 -15   85.81    2.18
   5  -3 -15   90.85    2.22
  -5   3  15   90.28    1.82
   5  -4 -15   -0.31    0.53
   5  -4 -15    0.48    0.57
   5  -5 -15    1.63    0.65
   5  -5 -15    0.78    0.68
   5  -6 -15   50.55    1.60
   5  -6 -15   51.30    1.72
  -5   6  15   56.00    1.44
   5  -7 -15    3.32    0.63
   5  -7 -15    2.41    0.72
  -5   7  15    2.90    0.54
   5  -8 -15    8.42    0.85
   5  -8 -15    7.31    0.91
  -5   8  15    8.17    0.76
   5  -9 -15    1.40    0.70
   5  -9 -15    1.94    0.64
  -5   9  15    0.82    0.57
   6   3 -15    0.33    0.66
   6   3 -15    1.53    0.72
  -6  -3  15    0.85    0.58
   6   2 -15    0.25    0.63
   6   2 -15   -0.46    0.63
  -6  -2  15    0.79    0.53
   6   1 -15   28.96    1.33
   6   1 -15   30.26    1.31
  -6  -1  15   29.69    1.17
   6   0 -15    0.57    0.61
   6   0 -15    1.22    0.62
  -6   0  15    1.25    0.50
   6  -1 -15   53.94    1.74
   6  -1 -15   50.66    1.68
  -6   1  15   53.86    1.46
   6  -2 -15    1.30    0.64
   6  -2 -15    0.73    0.66
  -6   2  15    0.64    0.47
   6  -3 -15    0.65    0.67
   6  -3 -15    0.02    0.64
  -6   3  15    0.24    0.40
   6  -4 -15   26.26    1.22
   6  -4 -15   26.88    1.28
   6  -5 -15    2.84    0.75
   6  -5 -15    1.87    0.67
   6  -6 -15   -0.74    0.64
   6  -6 -15    1.26    0.64
   6  -7 -15    4.31    0.80
   6  -7 -15    4.25    0.70
  -6   7  15    4.50    0.59
   6  -8 -15   18.76    1.21
   6  -8 -15   16.77    1.10
  -6   8  15   19.14    0.99
   6  -9 -15    0.20    0.74
   6  -9 -15    1.55    0.65
  -6   9  15    1.24    0.59
   7   2 -15    0.38    0.70
   7   2 -15   -1.45    0.60
  -7  -2  15    0.48    0.56
   7   1 -15   13.11    1.07
   7   1 -15   11.71    1.05
  -7  -1  15   13.38    0.93
   7   0 -15    2.46    0.77
   7   0 -15    3.07    0.77
  -7   0  15    3.27    0.62
   7  -1 -15    3.53    0.78
   7  -1 -15    6.38    0.85
  -7   1  15    3.73    0.61
   7  -2 -15    3.09    0.76
   7  -2 -15    2.53    0.73
  -7   2  15    1.23    0.54
   7  -3 -15   -0.89    0.62
   7  -3 -15    0.50    0.60
  -7   3  15    0.43    0.47
   7  -4 -15    8.05    0.91
   7  -4 -15    6.54    0.87
   7  -5 -15   13.58    1.08
   7  -5 -15   14.53    1.09
   7  -6 -15   32.35    1.43
   7  -6 -15   31.69    1.40
   7  -7 -15    1.91    0.70
   7  -7 -15    3.68    0.75
   7  -8 -15    0.54    0.73
   7  -8 -15    0.39    0.63
   7  -9 -15   17.26    1.14
   7  -9 -15   18.15    1.25
  -7   9  15   17.33    1.05
   8   0 -15    1.35    0.76
   8   0 -15    1.44    0.75
  -8   0  15    1.90    0.63
   8  -1 -15    0.08    0.67
   8  -1 -15    0.82    0.72
  -8   1  15    0.51    0.55
   8  -2 -15   17.34    1.19
   8  -2 -15   14.29    1.09
  -8   2  15   17.64    0.97
   8  -3 -15    7.57    0.91
   8  -3 -15    8.18    0.94
  -8   3  15    8.72    0.77
   8  -4 -15   40.45    1.60
   8  -4 -15   40.85    1.58
  -8   4  15   44.77    1.38
   8  -5 -15    1.11    0.66
   8  -5 -15    1.13    0.74
   8  -6 -15    1.75    0.76
   8  -6 -15    1.78    0.68
   8  -7 -15   12.22    1.04
   8  -7 -15   12.89    1.12
   8  -8 -15    1.69    0.79
   8  -8 -15    1.88    0.70
   9  -2 -15   16.12    1.27
   9  -2 -15   14.81    1.19
  -9   2  15   15.43    1.01
   9  -3 -15    0.69    0.75
   9  -3 -15   -0.20    0.68
  -9   3  15    0.03    0.54
   9  -4 -15    0.85    0.76
   9  -4 -15    0.45    0.70
  -9   4  15    1.06    0.61
   9  -5 -15    1.94    0.76
   9  -5 -15    1.31    0.79
   9  -6 -15    1.48    0.74
   9  -6 -15    0.30    0.79
   9  -7 -15    0.00    0.72
   9  -7 -15    0.30    0.77
   9  -7  16    0.36    0.58
   9  -7  16    0.71    0.61
  -9   6 -16    4.73    0.74
   9  -6  16    3.70    0.71
  -9   5 -16    2.50    0.64
   9  -5  16    3.60    0.73
   9  -5  16    2.29    0.55
  -9   4 -16    8.32    0.87
   9  -4  16    8.70    0.77
   9  -4  16    8.56    0.95
  -9   3 -16    0.99    0.54
   9  -3  16    1.23    0.52
   9  -3  16    1.32    0.60
   9  -2  16    5.20    0.72
   9  -2  16    3.87    0.75
   8  -8  16    0.16    0.53
   8  -8  16   -0.25    0.50
   8  -7  16    3.31    0.66
   8  -7  16    3.24    0.69
   8  -6  16   21.67    1.11
   8  -6  16   21.92    1.17
  -8   5 -16    4.98    0.70
   8  -5  16    4.34    0.58
   8  -5  16    4.45    0.69
  -8   4 -16    9.67    0.88
   8  -4  16   11.87    0.99
   8  -4  16    9.75    0.78
  -8   3 -16   11.02    0.96
   8  -3  16    9.78    0.92
   8  -3  16   10.18    0.80
  -8   2 -16    3.72    0.67
   8  -2  16    3.05    0.64
   8  -2  16    3.61    0.62
  -8   1 -16   29.51    1.37
   8  -1  16   31.34    1.26
   8  -1  16   27.39    1.31
  -8   0 -16    0.80    0.60
   8   0  16   -0.07    0.52
   8   0  16    1.17    0.54
   7  -9  16    5.45    0.77
   7  -8  16   30.96    1.30
   7  -8  16   32.49    1.34
   7  -7  16    6.27    0.75
   7  -7  16    6.33    0.75
   7  -6  16   12.86    0.94
   7  -6  16   15.57    0.95
  -7   5 -16    1.47    0.51
   7  -5  16    1.66    0.46
   7  -5  16    1.48    0.55
   7  -5  16    1.50    0.56
  -7   4 -16    6.68    0.69
   7  -4  16    6.13    0.64
   7  -4  16    5.91    0.74
  -7   3 -16   19.27    1.00
   7  -3  16   21.64    0.98
   7  -3  16   19.27    1.07
  -7   2 -16    2.20    0.54
   7  -2  16    2.02    0.48
   7  -2  16    2.57    0.60
  -7   1 -16    1.20    0.55
   7  -1  16    0.98    0.52
   7  -1  16    0.47    0.46
  -7   0 -16    4.97    0.78
   7   0  16    4.72    0.74
   7   0  16    5.54    0.68
  -7  -1 -16    4.07    0.72
   7   1  16    3.69    0.61
   7   1  16    4.80    0.77
   7   2  16    1.45    0.63
   7   2  16    0.63    0.48
   6  -9  16    0.54    0.51
   6  -8  16    3.42    0.64
   6  -7  16    0.55    0.48
   6  -7  16    0.38    0.48
   6  -6  16    7.48    0.71
   6  -6  16    7.38    0.73
  -6   5 -16    2.69    0.54
  -6   5 -16    2.04    0.49
   6  -5  16    2.64    0.47
   6  -5  16    2.93    0.56
   6  -5  16    1.91    0.52
  -6   4 -16   10.69    0.78
  -6   4 -16    9.87    0.72
   6  -4  16   10.80    0.78
   6  -4  16   11.50    0.84
   6  -4  16    9.60    0.72
  -6   3 -16   15.14    0.91
  -6   3 -16   15.94    0.79
   6  -3  16   15.16    0.80
   6  -3  16   13.99    0.91
  -6   2 -16   26.38    1.15
   6  -2  16   26.95    1.12
   6  -2  16   25.03    1.05
  -6   1 -16   17.18    0.95
   6  -1  16   16.23    0.99
   6  -1  16   16.89    0.87
  -6   0 -16    7.38    0.80
   6   0  16    7.62    0.74
   6   0  16    8.91    0.82
  -6  -1 -16   13.53    0.93
   6   1  16   12.29    0.96
   6   1  16   13.56    0.84
  -6  -2 -16   20.99    1.19
   6   2  16   19.91    1.11
   6   2  16   20.22    1.01
  -6  -3 -16    3.67    0.75
   6   3  16    3.69    0.73
   6   3  16    3.74    0.63
  -5   9 -16    8.32    0.80
   5  -9  16    7.68    0.80
  -5   8 -16    9.53    0.85
   5  -8  16    9.52    0.83
  -5   7 -16    2.23    0.54
   5  -7  16    2.41    0.57
  -5   6 -16   17.03    0.91
   5  -6  16   15.95    0.89
   5  -6  16   16.49    0.90
  -5   5 -16   28.98    1.09
   5  -5  16   30.12    1.05
   5  -5  16   31.38    1.14
   5  -5  16   30.00    1.10
  -5   4 -16   43.56    1.26
  -5   4 -16   43.66    1.28
   5  -4  16   39.49    1.29
   5  -4  16   41.39    1.26
   5  -4  16   42.53    1.25
  -5   3 -16   22.94    0.94
  -5   3 -16   21.90    0.99
   5  -3  16   22.96    0.96
   5  -3  16   24.09    0.98
   5  -3  16   23.87    1.02
  -5   2 -16    9.91    0.73
  -5   2 -16   11.46    0.72
   5  -2  16    8.97    0.69
   5  -2  16    8.43    0.72
  -5   1 -16   11.82    0.85
   5  -1  16   12.16    0.82
   5  -1  16   11.80    0.85
  -5   0 -16   26.72    1.16
   5   0  16   27.36    1.17
   5   0  16   29.15    1.10
  -5  -1 -16    3.18    0.61
   5   1  16    3.41    0.55
   5   1  16    2.92    0.61
  -5  -2 -16    1.38    0.54
   5   2  16    1.36    0.49
   5   2  16    2.24    0.57
  -5  -3 -16    4.94    0.75
   5   3  16    3.82    0.61
   5   3  16    4.30    0.70
  -5  -4 -16    4.31    0.79
   5   4  16    2.61    0.68
   5   4  16    2.69    0.63
  -4   9 -16    2.72    0.63
   4  -9  16    3.03    0.64
  -4   8 -16   10.50    0.85
   4  -8  16   10.51    0.88
  -4   7 -16   19.67    1.00
   4  -7  16   20.74    0.96
  -4   6 -16   27.02    1.11
   4  -6  16   25.36    1.02
   4  -6  16   27.14    1.05
  -4   5 -16   11.63    0.81
   4  -5  16   10.64    0.77
   4  -5  16   10.42    0.76
  -4   4 -16    0.44    0.38
  -4   4 -16   -0.30    0.39
   4  -4  16    0.54    0.41
   4  -4  16    0.33    0.39
   4  -4  16    0.37    0.38
  -4   3 -16   14.23    0.80
  -4   3 -16   12.73    0.74
   4  -3  16   12.06    0.75
   4  -3  16   12.28    0.75
   4  -3  16   12.98    0.73
  -4   2 -16   11.46    0.74
  -4   2 -16   10.94    0.71
   4  -2  16   11.24    0.70
   4  -2  16   10.24    0.68
   4  -2  16   10.32    0.73
  -4   1 -16    1.99    0.50
  -4   1 -16    2.19    0.41
   4  -1  16    1.70    0.48
   4  -1  16    2.17    0.47
  -4   0 -16   -0.06    0.44
   4   0  16    0.18    0.41
   4   0  16    0.01    0.38
  -4  -1 -16   40.33    1.38
   4   1  16   41.38    1.32
   4   1  16   40.14    1.38
  -4  -2 -16   10.21    0.91
   4   2  16   10.70    0.77
   4   2  16   10.96    0.90
  -4  -3 -16    6.85    0.81
   4   3  16    6.12    0.68
   4   3  16    7.11    0.77
  -4  -4 -16   10.24    0.96
   4   4  16   11.63    0.83
   4   4  16   11.00    0.98
  -4  -5 -16    8.48    0.95
   4   5  16    9.17    0.96
   4   5  16    8.59    0.83
  -3   9 -16    4.97    0.75
   3  -9  16    3.75    0.67
  -3   8 -16    3.57    0.60
   3  -8  16    4.03    0.69
  -3   7 -16    6.69    0.72
   3  -7  16    6.40    0.69
  -3   6 -16   14.09    0.82
   3  -6  16   14.50    0.86
  -3   5 -16   10.03    0.78
   3  -5  16   10.19    0.75
   3  -5  16   10.19    0.66
  -3   4 -16    1.26    0.37
  -3   4 -16    1.88    0.49
   3  -4  16    0.97    0.37
   3  -4  16    2.18    0.45
   3  -4  16    1.53    0.44
  -3   3 -16   11.33    0.65
  -3   3 -16   11.30    0.74
   3  -3  16   11.42    0.69
   3  -3  16   12.34    0.77
   3  -3  16    9.88    0.68
  -3   2 -16    0.00    0.35
  -3   2 -16    0.10    0.36
   3  -2  16   -0.57    0.31
   3  -2  16    0.82    0.40
   3  -2  16   -0.28    0.32
  -3   1 -16  120.62    2.34
  -3   1 -16  115.47    2.43
   3  -1  16  115.19    2.46
   3  -1  16  117.40    2.36
   3  -1  16  116.20    2.17
  -3   0 -16   10.39    0.76
  -3   0 -16   10.93    0.65
   3   0  16   11.84    0.75
   3   0  16   10.59    0.78
  -3  -1 -16   13.78    0.88
   3   1  16   12.58    0.79
   3   1  16   12.94    0.77
  -3  -2 -16   21.98    1.08
   3   2  16   21.68    1.04
   3   2  16   20.43    0.97
  -3  -3 -16   15.62    0.96
   3   3  16   16.04    0.94
   3   3  16   14.51    0.95
  -3  -4 -16   19.80    1.06
   3   4  16   19.03    1.02
   3   4  16   21.82    1.06
  -3  -5 -16    9.89    0.96
   3   5  16   10.59    0.93
   3   5  16   11.06    0.89
  -3  -6 -16    1.14    0.63
   3   6  16    1.10    0.61
   3   6  16    1.54    0.58
  -2   9 -16    0.83    0.57
   2  -9  16    1.15    0.55
  -2   8 -16   21.73    1.10
   2  -8  16   23.32    1.09
  -2   7 -16    1.13    0.53
   2  -7  16    1.53    0.49
  -2   6 -16   10.78    0.83
   2  -6  16   10.92    0.81
  -2   5 -16   23.66    1.05
   2  -5  16   22.39    0.94
  -2   4 -16   11.17    0.81
  -2   4 -16   10.53    0.68
   2  -4  16   10.37    0.71
  -2   3 -16  113.82    2.42
  -2   3 -16  114.82    2.43
  -2   3 -16  117.94    2.24
   2  -3  16  116.67    2.29
   2  -3  16  118.31    2.38
   2  -3  16  115.20    2.19
  -2   2 -16   16.82    0.81
  -2   2 -16   16.66    0.68
   2  -2  16   16.18    0.69
   2  -2  16   16.12    0.77
   2  -2  16   16.45    0.68
  -2   1 -16    3.06    0.42
  -2   1 -16    2.85    0.47
   2  -1  16    3.98    0.53
   2  -1  16    2.86    0.35
   2  -1  16    3.32    0.42
  -2   0 -16   15.27    0.77
  -2   0 -16   15.93    0.79
   2   0  16   17.03    0.75
   2   0  16   16.32    0.82
  -2  -1 -16    0.41    0.37
  -2  -1 -16   -0.34    0.40
   2   1  16   -0.05    0.36
   2   1  16    0.21    0.40
  -2  -2 -16   10.40    0.83
   2   2  16   10.83    0.82
   2   2  16   11.03    0.78
  -2  -3 -16    9.82    0.86
   2   3  16    9.32    0.79
   2   3  16   10.21    0.81
  -2  -4 -16   26.32    1.18
   2   4  16   24.97    1.07
   2   4  16   24.54    1.13
  -2  -5 -16    3.47    0.64
   2   5  16    2.25    0.55
   2   5  16    1.78    0.51
  -2  -6 -16    3.20    0.70
   2   6  16    3.13    0.68
   2   6  16    4.77    0.71
   2   7  16    4.10    0.74
   2   7  16    5.74    0.79
  -1   8 -16    4.86    0.72
   1  -8  16    3.31    0.67
  -1   7 -16   12.95    0.90
   1  -7  16   12.92    0.84
  -1   6 -16    1.71    0.55
   1  -6  16    3.77    0.62
  -1   5 -16   37.34    1.27
   1  -5  16   42.23    1.29
  -1   4 -16   12.65    0.73
  -1   4 -16   13.02    0.85
   1  -4  16   13.96    0.78
  -1   3 -16    0.40    0.44
  -1   3 -16    0.55    0.41
   1  -3  16   -0.03    0.35
  -1   2 -16    4.20    0.51
  -1   2 -16    3.46    0.52
  -1   2 -16    3.09    0.35
   1  -2  16    3.11    0.49
   1  -2  16    2.70    0.42
  -1   1 -16    3.47    0.49
  -1   1 -16    3.39    0.40
  -1   1 -16    2.66    0.48
   1  -1  16    3.50    0.37
   1  -1  16    4.02    0.52
   1  -1  16    3.87    0.37
  -1   0 -16    3.50    0.47
  -1   0 -16    3.45    0.44
   1   0  16    3.50    0.32
   1   0  16    2.70    0.50
   1   0  16    2.93    0.37
  -1  -1 -16    3.26    0.48
  -1  -1 -16    2.83    0.46
   1   1  16    3.12    0.44
   1   1  16    2.98    0.54
  -1  -2 -16  116.59    2.48
   1   2  16  115.67    2.56
   1   2  16  119.58    2.38
  -1  -3 -16    2.15    0.57
  -1  -3 -16    2.13    0.50
   1   3  16    2.21    0.51
   1   3  16    1.26    0.45
  -1  -4 -16   10.91    0.85
   1   4  16   11.35    0.84
   1   4  16   10.87    0.83
  -1  -5 -16   13.83    0.94
   1   5  16   18.71    1.03
   1   5  16   18.30    0.99
  -1  -6 -16    0.91    0.56
   1   6  16    1.38    0.51
   1   6  16    2.10    0.54
  -1  -7 -16   29.92    1.37
   1   7  16   32.22    1.33
   1   7  16   30.83    1.38
   0   8 -16    0.16    0.54
   0  -8  16    0.51    0.56
   0   7 -16    5.83    0.75
   0  -7  16    6.03    0.75
   0   6 -16    6.83    0.75
   0  -6  16    7.52    0.75
   0   5 -16   29.48    1.20
   0  -5  16   28.47    1.07
   0   4 -16   -0.14    0.41
   0   4 -16   -0.16    0.41
   0  -4  16    0.44    0.43
   0   3 -16   10.85    0.83
   0   3 -16   10.22    0.71
   0  -3  16   11.85    0.73
   0   2 -16   15.47    0.88
   0   2 -16   16.38    0.82
   0  -2  16   18.09    0.75
   0   1 -16    2.96    0.51
   0   1 -16    3.37    0.34
   0   1 -16    2.74    0.49
   0  -1  16    3.48    0.38
   0   0 -16  173.94    3.10
   0   0 -16  173.04    3.43
   0   0 -16  173.87    3.30
   0   0  16  181.02    2.95
   0   0  16  171.52    2.95
   0  -1 -16    2.63    0.50
   0  -1 -16    3.21    0.43
   0  -1 -16    3.19    0.51
   0   1  16    3.41    0.38
   0   1  16    3.61    0.54
   0  -2 -16   15.98    0.88
   0  -2 -16   17.39    0.80
   0  -2 -16   16.72    0.92
   0   2  16   15.74    0.92
   0   2  16   15.12    0.74
   0  -3 -16    8.70    0.70
   0  -3 -16   11.44    0.78
   0  -3 -16   10.96    0.79
   0   3  16   12.09    0.75
   0   3  16   10.69    0.79
   0  -4 -16    0.19    0.52
   0  -4 -16    0.76    0.52
   0  -4 -16    0.35    0.48
   0   4  16    0.23    0.40
   0   4  16   -0.12    0.49
   0  -5 -16   29.92    1.27
   0  -5 -16   30.85    1.28
   0   5  16   30.64    1.18
   0   5  16   32.29    1.28
   0  -6 -16    7.52    0.81
   0  -6 -16    6.67    0.74
   0   6  16    6.53    0.70
   0   6  16    7.06    0.73
   0  -7 -16    5.40    0.76
   0  -7 -16    5.61    0.78
   0   7  16    6.56    0.75
   0   7  16    5.57    0.75
   0  -8 -16    0.24    0.55
   0  -8 -16   -0.31    0.61
   0   8  16   -0.12    0.53
   0   8  16    0.16    0.56
   1   7 -16   29.20    1.28
  -1  -7  16   29.71    1.28
   1   6 -16    1.35    0.52
  -1  -6  16    1.56    0.54
   1   5 -16   17.18    1.01
  -1  -5  16   17.43    0.93
   1   4 -16   11.76    0.91
   1   4 -16   11.60    0.80
  -1  -4  16   11.64    0.79
   1   3 -16    1.62    0.50
   1   3 -16    2.04    0.56
  -1  -3  16    2.73    0.49
   1   2 -16  112.37    2.48
   1   2 -16  113.89    2.40
  -1  -2  16  115.47    2.27
   1   1 -16    2.78    0.53
   1   1 -16    3.30    0.53
  -1  -1  16    3.21    0.42
   1   0 -16    3.38    0.34
   1   0 -16    3.55    0.52
   1   0 -16    2.64    0.52
  -1   0  16    2.79    0.35
   1  -1 -16    3.01    0.52
   1  -1 -16    3.51    0.56
   1  -1 -16    3.36    0.40
   1  -2 -16    3.94    0.56
   1  -2 -16    2.78    0.54
   1  -2 -16    3.04    0.46
  -1   2  16    3.05    0.37
   1  -3 -16    0.76    0.44
   1  -3 -16    0.09    0.40
   1  -3 -16    0.02    0.48
  -1   3  16    0.45    0.35
   1  -4 -16   13.97    0.93
   1  -4 -16   11.36    0.85
   1  -4 -16   13.25    0.89
  -1   4  16   13.92    0.76
   1  -5 -16   39.44    1.43
   1  -5 -16   42.71    1.37
   1  -5 -16   41.78    1.42
  -1   5  16   40.24    1.28
  -1   5  16   39.50    1.43
   1  -6 -16    3.49    0.64
   1  -6 -16    2.27    0.63
  -1   6  16    2.87    0.64
  -1   6  16    3.55    0.58
   1  -7 -16   14.58    0.98
   1  -7 -16   14.22    0.97
  -1   7  16   15.06    0.96
   1  -8 -16    3.42    0.73
   1  -8 -16    5.80    0.75
  -1   8  16    4.89    0.76
   2   7 -16    5.50    0.81
  -2  -7  16    4.95    0.76
   2   6 -16    3.28    0.70
  -2  -6  16    3.44    0.66
   2   5 -16    2.23    0.61
  -2  -5  16    1.96    0.56
   2   4 -16   28.41    1.22
  -2  -4  16   28.30    1.13
   2   3 -16   10.33    0.77
   2   3 -16    9.49    0.84
  -2  -3  16    9.48    0.75
   2   2 -16    9.20    0.74
   2   2 -16   10.32    0.83
  -2  -2  16   10.25    0.67
   2   1 -16   -0.08    0.44
   2   1 -16    0.57    0.43
  -2  -1  16    0.35    0.37
   2   0 -16   15.89    0.90
   2   0 -16   16.22    0.92
  -2   0  16   16.53    0.66
   2  -1 -16    3.12    0.37
   2  -1 -16    2.46    0.54
   2  -1 -16    2.22    0.55
  -2   1  16    3.17    0.35
   2  -2 -16   15.43    0.84
   2  -2 -16   14.01    0.85
   2  -2 -16   15.63    0.73
   2  -3 -16  113.63    2.47
   2  -3 -16  118.37    2.36
   2  -3 -16  111.64    2.60
  -2   3  16  119.68    2.20
   2  -4 -16   11.00    0.87
   2  -4 -16   10.40    0.72
   2  -4 -16   10.27    0.82
  -2   4  16   10.24    0.67
   2  -5 -16   22.73    1.14
   2  -5 -16   20.55    1.00
   2  -5 -16   23.53    1.18
  -2   5  16   23.02    0.94
   2  -6 -16   10.96    0.93
   2  -6 -16   12.24    0.94
   2  -6 -16    9.95    0.85
  -2   6  16   11.41    0.79
   2  -7 -16    1.52    0.58
   2  -7 -16    1.85    0.54
   2  -7 -16    1.49    0.62
  -2   7  16    1.19    0.51
   2  -8 -16   23.03    1.24
   2  -8 -16   22.75    1.16
  -2   8  16   22.91    1.15
   2  -9 -16    1.33    0.69
  -2   9  16    1.55    0.65
   3   6 -16    0.27    0.62
  -3  -6  16    1.38    0.57
   3   5 -16   10.40    0.96
  -3  -5  16    9.05    0.85
   3   4 -16   20.10    1.09
  -3  -4  16   18.78    0.97
   3   3 -16   15.15    0.97
   3   3 -16   14.26    0.94
  -3  -3  16   14.56    0.84
   3   2 -16   23.00    1.08
   3   2 -16   21.16    1.11
  -3  -2  16   21.84    0.93
   3   1 -16   13.47    0.85
   3   1 -16   12.09    0.94
  -3  -1  16   13.39    0.72
   3   0 -16   11.78    0.92
   3   0 -16   11.27    0.89
  -3   0  16   10.41    0.61
   3  -1 -16  113.44    2.51
   3  -1 -16  108.51    2.46
  -3   1  16  113.37    2.10
   3  -2 -16    0.15    0.53
   3  -2 -16   -0.02    0.32
   3  -2 -16    0.20    0.50
   3  -3 -16    9.86    0.81
   3  -3 -16   10.71    0.72
   3  -3 -16   10.89    0.86
   3  -4 -16    2.96    0.52
   3  -4 -16    2.03    0.58
   3  -4 -16    2.26    0.63
  -3   4  16    2.36    0.40
   3  -5 -16    9.42    0.76
   3  -5 -16    9.04    0.82
   3  -5 -16    9.68    0.89
  -3   5  16   10.76    0.70
   3  -6 -16   16.43    1.02
   3  -6 -16   15.42    1.08
   3  -6 -16   16.11    0.99
  -3   6  16   14.68    0.84
   3  -7 -16    7.35    0.81
   3  -7 -16    7.38    0.80
   3  -7 -16    7.03    0.83
  -3   7  16    5.62    0.67
   3  -8 -16    6.80    0.79
   3  -8 -16    3.49    0.72
   3  -8 -16    4.64    0.78
  -3   8  16    3.69    0.67
   3  -9 -16    2.35    0.69
  -3   9  16    4.05    0.71
   4   5 -16    9.68    0.95
  -4  -5  16    8.74    0.88
   4   4 -16   10.00    0.94
  -4  -4  16   10.01    0.86
   4   3 -16    5.57    0.76
   4   3 -16    5.76    0.76
  -4  -3  16    6.77    0.72
   4   2 -16   12.12    0.92
   4   2 -16   11.62    0.95
  -4  -2  16   10.24    0.76
   4   1 -16   38.99    1.37
   4   1 -16   41.71    1.47
  -4  -1  16   40.58    1.26
   4   0 -16   -0.55    0.56
   4   0 -16   -0.23    0.56
  -4   0  16    0.00    0.38
   4  -1 -16    1.62    0.62
   4  -1 -16    1.72    0.54
  -4   1  16    1.29    0.40
   4  -2 -16   10.19    0.83
   4  -2 -16    8.52    0.80
  -4   2  16    9.85    0.59
   4  -3 -16   14.23    0.91
   4  -3 -16   14.39    1.06
   4  -4 -16    0.17    0.42
   4  -4 -16    0.44    0.51
   4  -4 -16    0.45    0.62
   4  -5 -16   11.42    0.83
   4  -5 -16   10.78    0.93
   4  -5 -16    9.99    0.87
  -4   5  16   12.64    0.72
   4  -6 -16   26.08    1.09
   4  -6 -16   27.31    1.19
   4  -6 -16   28.72    1.31
  -4   6  16   26.89    0.99
   4  -7 -16   19.42    1.04
   4  -7 -16   20.04    1.16
   4  -7 -16   20.95    1.09
  -4   7  16   21.98    0.98
   4  -8 -16   11.14    0.89
   4  -8 -16   10.71    1.00
   4  -8 -16   12.36    0.97
  -4   8  16   11.72    0.89
   4  -9 -16    2.94    0.76
   4  -9 -16    3.56    0.74
  -4   9  16    2.86    0.65
   5   4 -16    1.70    0.70
  -5  -4  16    1.84    0.62
   5   3 -16    4.65    0.79
   5   3 -16    4.63    0.78
  -5  -3  16    4.01    0.67
   5   2 -16    1.89    0.65
   5   2 -16    0.90    0.63
  -5  -2  16    1.32    0.53
   5   1 -16    3.57    0.71
   5   1 -16    0.90    0.66
  -5  -1  16    2.44    0.57
   5   0 -16   29.58    1.31
   5   0 -16   28.22    1.31
  -5   0  16   29.10    1.05
   5  -1 -16   12.28    0.97
   5  -1 -16   11.82    0.95
  -5   1  16   11.74    0.71
   5  -2 -16    9.43    0.91
   5  -2 -16   10.50    0.91
  -5   2  16    9.15    0.66
   5  -3 -16   20.75    1.17
   5  -3 -16   22.53    1.14
   5  -4 -16   39.10    1.47
   5  -4 -16   39.48    1.49
   5  -5 -16   27.19    1.35
   5  -5 -16   30.03    1.25
   5  -6 -16   14.67    1.15
   5  -6 -16   17.47    1.00
   5  -7 -16    2.37    0.60
   5  -7 -16    2.27    0.72
  -5   7  16    2.75    0.53
   5  -8 -16    9.52    1.01
   5  -8 -16    8.56    0.87
  -5   8  16   10.39    0.83
   5  -9 -16    8.72    1.00
   5  -9 -16   10.03    0.94
  -5   9  16    8.48    0.84
   6   3 -16    1.88    0.73
  -6  -3  16    3.88    0.69
   6   2 -16   21.09    1.20
   6   2 -16   20.14    1.12
  -6  -2  16   21.73    1.08
   6   1 -16   13.94    1.08
   6   1 -16   13.31    1.06
  -6  -1  16   13.92    0.89
   6   0 -16    8.18    0.89
   6   0 -16    7.76    0.87
  -6   0  16    7.23    0.71
   6  -1 -16   16.08    1.03
   6  -1 -16   17.34    1.06
  -6   1  16   16.63    0.85
   6  -2 -16   25.84    1.31
   6  -2 -16   27.51    1.32
  -6   2  16   27.22    0.98
   6  -3 -16   14.73    1.10
   6  -3 -16   14.11    1.11
  -6   3  16   16.74    0.80
   6  -4 -16   11.09    0.97
   6  -4 -16   10.46    0.98
   6  -5 -16    3.61    0.68
   6  -5 -16    4.22    0.79
   6  -6 -16    8.24    0.84
   6  -6 -16    6.18    0.88
   6  -7 -16    1.21    0.71
   6  -7 -16    1.18    0.64
   6  -8 -16    5.66    0.80
   6  -8 -16    4.69    0.85
  -6   8  16    4.09    0.67
   6  -9 -16    0.78    0.65
   6  -9 -16    0.94    0.73
  -6   9  16    1.24    0.57
   7   2 -16    0.49    0.70
   7   2 -16    1.19    0.71
  -7  -2  16    0.78    0.61
   7   1 -16    2.55    0.74
   7   1 -16    2.48    0.77
  -7  -1  16    3.80    0.68
   7   0 -16    4.53    0.85
   7   0 -16    4.46    0.84
  -7   0  16    4.75    0.68
   7  -1 -16    1.54    0.71
   7  -1 -16    0.88    0.68
  -7   1  16    1.16    0.53
   7  -2 -16    2.14    0.73
   7  -2 -16    1.67    0.71
  -7   2  16    2.60    0.55
   7  -3 -16   18.67    1.19
   7  -3 -16   17.80    1.19
  -7   3  16   19.97    0.92
   7  -4 -16    5.17    0.83
   7  -4 -16    5.25    0.85
   7  -5 -16    1.88    0.71
   7  -5 -16    2.13    0.74
   7  -6 -16   14.56    1.16
   7  -6 -16   15.86    1.12
   7  -7 -16    5.13    0.83
   7  -7 -16    5.95    0.84
   7  -8 -16   30.23    1.33
   7  -8 -16   29.16    1.46
   7  -9 -16    4.30    0.88
   7  -9 -16    4.30    0.81
   8   0 -16    0.05    0.72
   8   0 -16   -0.48    0.66
  -8   0  16    0.02    0.55
   8  -1 -16   29.92    1.50
   8  -1 -16   28.28    1.45
  -8   1  16   32.33    1.27
   8  -2 -16    2.88    0.76
   8  -2 -16    4.58    0.87
  -8   2  16    4.32    0.65
   8  -3 -16    9.22    1.02
   8  -3 -16    5.89    0.89
  -8   3  16    9.14    0.78
   8  -4 -16   10.08    0.98
   8  -4 -16   10.17    1.00
   8  -5 -16    4.64    0.88
   8  -5 -16    4.92    0.82
   8  -6 -16   17.61    1.15
   8  -6 -16   17.70    1.25
   8  -7 -16    4.76    0.89
   8  -7 -16    3.73    0.79
   8  -8 -16    0.77    0.77
   8  -8 -16    0.33    0.65
   9  -2 -16    4.13    0.92
   9  -2 -16    3.78    0.92
  -9   2  16    4.09    0.72
   9  -3 -16    2.26    0.84
   9  -3 -16    0.03    0.74
  -9   3  16    1.21    0.59
   9  -4 -16    9.61    1.08
   9  -4 -16    7.14    0.96
   9  -5 -16    2.70    0.86
   9  -5 -16    2.13    0.79
   9  -6 -16    2.40    0.86
   9  -6 -16    2.56    0.81
   9  -7 -16    0.23    0.79
   9  -7 -16    0.87    0.80
  -9   5 -17    1.80    0.57
   9  -5  17    1.68    0.64
   9  -5  17    1.87    0.53
  -9   4 -17   -0.11    0.51
   9  -4  17    0.03    0.43
   9  -4  17    0.63    0.55
   9  -3  17   -0.55    0.46
   8  -7  17   11.37    0.99
   8  -7  17   12.48    0.94
  -8   6 -17    1.04    0.50
   8  -6  17   -0.31    0.52
   8  -6  17    0.85    0.57
  -8   5 -17    1.11    0.54
   8  -5  17    0.85    0.57
   8  -5  17    1.68    0.51
  -8   4 -17   33.19    1.35
   8  -4  17   32.37    1.35
   8  -4  17   35.58    1.27
  -8   3 -17    7.25    0.81
   8  -3  17    6.64    0.84
   8  -3  17    7.06    0.73
  -8   2 -17   12.95    0.94
   8  -2  17   12.26    0.84
   8  -2  17   13.62    1.12
  -8   1 -17    0.89    0.56
   8  -1  17    0.84    0.49
   8  -1  17    0.95    0.61
   7  -8  17    0.16    0.53
   7  -8  17    0.67    0.50
   7  -7  17    1.62    0.58
   7  -7  17    3.03    0.62
  -7   6 -17   28.54    1.10
   7  -6  17   28.36    1.24
   7  -6  17   27.21    1.18
  -7   5 -17   11.65    0.80
  -7   5 -17   13.79    0.89
   7  -5  17   13.11    0.94
   7  -5  17   12.73    0.79
   7  -5  17   13.66    0.89
  -7   4 -17    4.59    0.64
   7  -4  17    5.18    0.59
   7  -4  17    4.45    0.67
  -7   3 -17    0.69    0.50
   7  -3  17    0.42    0.46
   7  -3  17    0.15    0.43
  -7   2 -17    3.99    0.64
   7  -2  17    1.94    0.60
   7  -2  17    2.95    0.56
  -7   1 -17    4.07    0.71
   7  -1  17    4.38    0.61
   7  -1  17    3.34    0.66
  -7   0 -17    2.09    0.60
   7   0  17    1.37    0.58
   7   0  17    1.98    0.54
  -7  -1 -17   12.15    1.05
   7   1  17   10.63    0.99
   7   1  17   10.01    0.81
  -6   9 -17    0.50    0.52
  -6   8 -17   13.15    0.90
   6  -8  17   11.65    0.95
  -6   7 -17    2.82    0.58
   6  -7  17    3.07    0.61
   6  -7  17    3.47    0.65
  -6   6 -17   -0.30    0.44
   6  -6  17    0.41    0.46
   6  -6  17    0.58    0.48
  -6   5 -17    1.88    0.49
  -6   5 -17    2.36    0.51
   6  -5  17    2.20    0.49
   6  -5  17    2.29    0.55
   6  -5  17    2.47    0.55
  -6   4 -17   19.12    0.96
  -6   4 -17   22.71    0.95
   6  -4  17   18.28    0.92
   6  -4  17   19.84    1.00
   6  -4  17   20.60    0.92
  -6   3 -17    1.00    0.47
   6  -3  17    1.57    0.46
   6  -3  17    0.08    0.46
  -6   2 -17    0.62    0.45
   6  -2  17    0.31    0.42
   6  -2  17    0.68    0.45
  -6   1 -17   46.80    1.55
   6  -1  17   44.68    1.53
   6  -1  17   47.86    1.47
  -6   0 -17    0.93    0.50
   6   0  17    0.82    0.52
   6   0  17    0.23    0.42
  -6  -1 -17   25.11    1.22
   6   1  17   28.29    1.18
   6   1  17   26.83    1.23
  -6  -2 -17    0.24    0.53
   6   2  17    0.82    0.60
   6   2  17    0.62    0.46
   6   3  17    0.98    0.50
  -5   9 -17    0.10    0.50
   5  -9  17    0.00    0.54
  -5   8 -17    7.57    0.80
   5  -8  17    7.82    0.82
  -5   7 -17    2.42    0.57
   5  -7  17    3.16    0.60
  -5   6 -17   45.90    1.44
   5  -6  17   49.61    1.48
   5  -6  17   47.99    1.43
  -5   5 -17    1.36    0.47
  -5   5 -17    0.73    0.41
   5  -5  17    1.17    0.46
   5  -5  17    0.87    0.47
  -5   4 -17    0.51    0.41
  -5   4 -17    1.06    0.43
   5  -4  17    0.55    0.45
   5  -4  17   -0.07    0.42
   5  -4  17    0.27    0.40
  -5   3 -17   62.39    1.71
  -5   3 -17   67.62    1.62
   5  -3  17   66.54    1.61
   5  -3  17   64.44    1.71
   5  -3  17   63.32    1.68
  -5   2 -17    1.50    0.49
  -5   2 -17    1.11    0.44
   5  -2  17    1.71    0.46
   5  -2  17    0.90    0.43
  -5   1 -17   35.82    1.33
   5  -1  17   36.38    1.30
   5  -1  17   35.90    1.27
  -5   0 -17    1.22    0.50
   5   0  17    1.37    0.50
   5   0  17    1.14    0.45
  -5  -1 -17    1.83    0.59
   5   1  17    2.70    0.60
   5   1  17    2.80    0.57
  -5  -2 -17   12.55    0.91
   5   2  17   12.69    0.83
   5   2  17   12.66    0.97
  -5  -3 -17    1.76    0.64
   5   3  17    1.45    0.63
   5   3  17    1.35    0.55
  -5  -4 -17    1.35    0.67
   5   4  17    0.58    0.60
   5   4  17    1.02    0.52
  -4   9 -17    1.01    0.58
   4  -9  17    1.81    0.56
  -4   8 -17   34.02    1.33
   4  -8  17   33.89    1.32
  -4   7 -17   -0.04    0.46
   4  -7  17    1.77    0.53
  -4   6 -17    0.21    0.46
   4  -6  17   -0.05    0.45
  -4   5 -17   37.52    1.26
  -4   5 -17   36.65    1.13
   4  -5  17   35.79    1.18
   4  -5  17   36.60    1.21
  -4   4 -17    0.00    0.43
  -4   4 -17    0.21    0.35
   4  -4  17    0.57    0.43
   4  -4  17   -0.43    0.37
   4  -4  17   -0.30    0.38
  -4   3 -17   10.89    0.73
  -4   3 -17   10.37    0.71
   4  -3  17   11.57    0.77
   4  -3  17   11.63    0.76
   4  -3  17   11.03    0.74
  -4   2 -17   10.01    0.69
  -4   2 -17   11.13    0.74
   4  -2  17   10.88    0.78
   4  -2  17   10.20    0.77
   4  -2  17   10.47    0.70
  -4   1 -17   12.51    0.82
  -4   1 -17   11.74    0.71
   4  -1  17   13.36    0.82
   4  -1  17   13.13    0.85
  -4   0 -17   -0.43    0.44
   4   0  17    0.42    0.45
   4   0  17    0.08    0.42
  -4  -1 -17    0.84    0.52
   4   1  17    0.17    0.47
   4   1  17    0.39    0.42
  -4  -2 -17   19.42    1.09
   4   2  17   19.77    1.07
   4   2  17   18.95    0.95
  -4  -3 -17    5.33    0.76
   4   3  17    4.11    0.66
   4   3  17    5.46    0.67
  -4  -4 -17   35.34    1.49
   4   4  17   35.59    1.38
   4   4  17   35.74    1.47
  -4  -5 -17   -0.48    0.55
   4   5  17    0.31    0.54
   4   5  17    0.73    0.60
  -3   8 -17    0.54    0.53
   3  -8  17    2.23    0.62
  -3   7 -17    4.96    0.68
   3  -7  17    4.13    0.61
  -3   6 -17    0.96    0.49
   3  -6  17    0.91    0.49
  -3   5 -17    0.95    0.50
   3  -5  17    0.57    0.46
  -3   4 -17   13.44    0.83
  -3   4 -17   12.65    0.68
   3  -4  17   12.68    0.71
   3  -4  17   12.44    0.75
   3  -4  17   13.40    0.80
  -3   3 -17   46.18    1.24
  -3   3 -17   46.14    1.34
   3  -3  17   45.93    1.21
   3  -3  17   46.46    1.25
   3  -3  17   46.14    1.34
  -3   2 -17    8.20    0.64
  -3   2 -17    7.02    0.59
   3  -2  17    6.25    0.57
   3  -2  17    7.38    0.66
   3  -2  17    7.56    0.59
  -3   1 -17    1.04    0.39
  -3   1 -17    1.75    0.46
   3  -1  17    1.10    0.46
   3  -1  17    1.27    0.34
   3  -1  17    1.32    0.41
  -3   0 -17   45.22    1.38
   3   0  17   44.87    1.32
   3   0  17   46.38    1.38
  -3  -1 -17   12.22    0.88
   3   1  17   11.29    0.85
   3   1  17   10.58    0.79
  -3  -2 -17   64.12    1.81
   3   2  17   61.69    1.73
   3   2  17   65.46    1.77
  -3  -3 -17    1.01    0.56
   3   3  17    2.07    0.55
   3   3  17    1.82    0.51
  -3  -4 -17    0.42    0.54
   3   4  17    0.37    0.46
   3   4  17    0.79    0.52
  -3  -5 -17    8.07    0.89
   3   5  17    7.48    0.77
   3   5  17    7.03    0.85
   3   6  17   -0.28    0.51
  -2   8 -17    0.37    0.48
   2  -8  17    0.96    0.55
  -2   7 -17   13.34    0.89
   2  -7  17   13.28    0.90
  -2   6 -17   19.23    0.99
   2  -6  17   19.18    0.98
  -2   5 -17   61.97    1.73
   2  -5  17   65.68    1.68
  -2   4 -17    9.64    0.66
  -2   4 -17   10.93    0.81
   2  -4  17    9.89    0.72
  -2   3 -17    0.53    0.32
  -2   3 -17    1.51    0.48
  -2   3 -17    0.73    0.39
   2  -3  17    0.61    0.40
   2  -3  17    1.41    0.44
  -2   2 -17   46.82    1.38
  -2   2 -17   46.87    1.21
   2  -2  17   47.84    1.19
   2  -2  17   48.72    1.37
   2  -2  17   47.22    1.17
  -2   1 -17    9.89    0.64
  -2   1 -17    9.86    0.70
   2  -1  17    9.01    0.53
   2  -1  17   10.31    0.72
   2  -1  17   10.12    0.63
  -2   0 -17   46.65    1.31
  -2   0 -17   45.25    1.24
   2   0  17   46.30    1.26
   2   0  17   46.57    1.39
  -2  -1 -17    6.43    0.63
  -2  -1 -17    6.94    0.58
   2   1  17    7.09    0.63
   2   1  17    7.21    0.68
  -2  -2 -17   10.73    0.84
   2   2  17   10.48    0.78
   2   2  17    9.99    0.76
  -2  -3 -17    1.02    0.50
   2   3  17    1.82    0.52
   2   3  17    0.90    0.48
  -2  -4 -17    1.05    0.57
   2   4  17    0.48    0.48
   2   4  17    0.08    0.43
  -2  -5 -17    2.05    0.60
   2   5  17    3.52    0.66
   2   5  17    2.94    0.59
  -2  -6 -17   12.95    1.09
   2   6  17   14.53    1.00
   2   6  17   13.37    1.02
  -1   8 -17   11.25    0.90
   1  -8  17   10.66    0.91
  -1   7 -17   27.28    1.19
   1  -7  17   25.92    1.17
  -1   6 -17    2.46    0.57
   1  -6  17    2.64    0.56
  -1   5 -17    0.62    0.49
   1  -5  17   -0.22    0.39
  -1   4 -17   10.48    0.73
  -1   4 -17   12.57    0.87
   1  -4  17   10.06    0.73
  -1   3 -17    7.98    0.66
  -1   3 -17    7.51    0.71
   1  -3  17    7.44    0.61
  -1   2 -17   10.44    0.77
  -1   2 -17    9.43    0.54
  -1   2 -17    8.82    0.71
   1  -2  17   10.08    0.62
  -1   1 -17   30.50    0.93
  -1   1 -17   32.65    1.16
  -1   1 -17   31.61    1.14
   1  -1  17   33.36    1.15
   1  -1  17   31.65    0.87
  -1   0 -17   29.92    1.05
  -1   0 -17   30.99    0.98
   1   0  17   32.72    0.93
   1   0  17   30.54    1.15
  -1  -1 -17   11.25    0.78
  -1  -1 -17    9.13    0.70
   1   1  17    9.07    0.75
   1   1  17    8.75    0.65
  -1  -2 -17    0.83    0.45
  -1  -2 -17    1.46    0.48
   1   2  17    1.50    0.51
   1   2  17    1.38    0.41
  -1  -3 -17   11.92    0.83
  -1  -3 -17   11.86    0.80
   1   3  17   13.26    0.85
   1   3  17   12.29    0.80
  -1  -4 -17   36.50    1.31
   1   4  17   35.20    1.30
   1   4  17   36.77    1.27
  -1  -5 -17   44.21    1.52
   1   5  17   46.86    1.51
   1   5  17   46.43    1.49
  -1  -6 -17    3.37    0.72
   1   6  17    2.56    0.64
   1   6  17    3.63    0.66
  -1  -7 -17    0.46    0.58
   1   7  17    1.09    0.58
   1   7  17    1.04    0.59
   0   7 -17    1.94    0.62
   0  -7  17    2.97    0.64
   0   6 -17    0.52    0.47
   0  -6  17    0.69    0.50
   0   5 -17    1.62    0.55
   0  -5  17    1.54    0.51
   0   4 -17    0.10    0.43
   0   4 -17    0.11    0.49
   0  -4  17    0.31    0.44
   0   3 -17   45.21    1.43
   0   3 -17   44.65    1.31
   0  -3  17   47.54    1.28
   0   2 -17   46.69    1.41
   0   2 -17   46.21    1.36
   0  -2  17   47.72    1.23
   0   1 -17   30.84    1.13
   0   1 -17   31.26    1.14
   0   1 -17   32.39    0.86
   0  -1  17   31.20    0.89
   0   0 -17    1.06    0.42
   0   0 -17    0.62    0.42
   0   0  17    0.63    0.27
   0  -1 -17   31.19    1.01
   0  -1 -17   31.15    1.18
   0  -1 -17   30.24    1.14
   0   1  17   33.16    1.20
   0   1  17   31.56    0.91
   0  -2 -17   46.98    1.37
   0  -2 -17   46.84    1.31
   0   2  17   46.34    1.22
   0   2  17   45.53    1.40
   0  -3 -17   45.01    1.37
   0  -3 -17   44.64    1.33
   0  -3 -17   42.87    1.44
   0   3  17   44.88    1.26
   0   3  17   45.48    1.42
   0  -4 -17   -0.48    0.48
   0  -4 -17    0.53    0.53
   0  -4 -17   -0.07    0.44
   0   4  17    0.15    0.47
   0   4  17    0.02    0.41
   0  -5 -17    0.89    0.52
   0  -5 -17    0.71    0.48
   0   5  17    1.20    0.47
   0   5  17    0.52    0.49
   0  -6 -17    1.28    0.53
   0  -6 -17    0.76    0.57
   0   6  17    1.03    0.52
   0   6  17    0.95    0.52
   0  -7 -17    2.42    0.66
   0  -7 -17    2.67    0.65
   0   7  17    1.36    0.60
   0   7  17    2.15    0.58
   1   7 -17    0.74    0.59
  -1  -7  17    0.23    0.53
   1   6 -17    2.26    0.64
  -1  -6  17    3.47    0.62
   1   5 -17   45.21    1.53
  -1  -5  17   46.46    1.44
   1   4 -17   35.98    1.36
  -1  -4  17   38.21    1.25
   1   3 -17   12.58    0.79
   1   3 -17   12.16    0.91
  -1  -3  17   13.42    0.77
   1   2 -17    0.99    0.47
   1   2 -17    1.16    0.52
  -1  -2  17    1.46    0.42
   1   1 -17    9.94    0.76
   1   1 -17   10.98    0.84
  -1  -1  17   10.74    0.61
   1   0 -17   32.70    0.85
   1   0 -17   32.25    1.18
   1   0 -17   30.63    1.17
  -1   0  17   30.86    0.85
   1  -1 -17   32.25    0.95
   1  -1 -17   31.90    1.16
   1  -1 -17   30.07    1.19
   1  -2 -17   10.80    0.78
   1  -2 -17   10.00    0.81
   1  -2 -17    9.42    0.70
  -1   2  17    9.11    0.56
   1  -3 -17    7.51    0.66
   1  -3 -17    7.45    0.71
   1  -3 -17    7.61    0.77
  -1   3  17    8.15    0.60
   1  -4 -17   11.13    0.83
   1  -4 -17   10.89    0.85
   1  -4 -17   12.41    0.90
  -1   4  17   10.67    0.72
   1  -5 -17    0.19    0.48
   1  -5 -17    0.42    0.59
   1  -5 -17    0.42    0.50
  -1   5  17    0.60    0.44
   1  -6 -17    2.60    0.60
   1  -6 -17    2.69    0.59
  -1   6  17    2.85    0.55
   1  -7 -17   27.32    1.30
   1  -7 -17   27.45    1.27
  -1   7  17   28.35    1.23
   1  -8 -17   12.26    0.97
   1  -8 -17   11.79    1.05
  -1   8  17   12.82    1.00
   2   6 -17   10.76    0.97
  -2  -6  17   11.22    0.83
   2   5 -17    3.16    0.67
  -2  -5  17    2.61    0.59
   2   4 -17    0.31    0.53
  -2  -4  17   -0.08    0.45
   2   3 -17    1.55    0.59
   2   3 -17    0.58    0.52
  -2  -3  17    0.63    0.47
   2   2 -17    9.50    0.79
   2   2 -17   10.64    0.86
  -2  -2  17   11.64    0.72
   2   1 -17    6.25    0.71
   2   1 -17    6.51    0.66
  -2  -1  17    6.44    0.55
   2   0 -17   46.69    1.46
   2   0 -17   44.87    1.39
  -2   0  17   46.87    1.16
   2  -1 -17    9.35    0.58
   2  -1 -17   11.25    0.88
   2  -1 -17    9.13    0.79
   2  -2 -17   47.78    1.22
   2  -2 -17   45.32    1.44
   2  -2 -17   47.53    1.51
   2  -3 -17    1.00    0.50
   2  -3 -17    0.56    0.43
   2  -3 -17    1.75    0.59
   2  -4 -17   10.19    0.84
   2  -4 -17   10.34    0.88
   2  -4 -17   11.49    0.82
  -2   4  17   10.13    0.70
   2  -5 -17   62.40    1.78
   2  -5 -17   62.76    1.74
   2  -5 -17   61.78    1.84
  -2   5  17   63.54    1.58
   2  -6 -17   19.88    1.07
   2  -6 -17   21.23    1.17
   2  -6 -17   20.54    1.11
  -2   6  17   20.17    0.96
   2  -7 -17   15.88    0.97
   2  -7 -17   12.66    0.91
   2  -7 -17   13.04    0.97
  -2   7  17   14.85    0.93
   2  -8 -17    0.85    0.57
   2  -8 -17    0.34    0.63
   3   5 -17    7.31    0.87
  -3  -5  17    8.43    0.84
   3   4 -17    0.85    0.56
  -3  -4  17    0.36    0.50
   3   3 -17    0.91    0.59
   3   3 -17    1.15    0.59
  -3  -3  17    1.08    0.48
   3   2 -17   63.21    1.73
   3   2 -17   64.06    1.81
  -3  -2  17   60.60    1.60
   3   1 -17   11.95    0.89
   3   1 -17   12.58    0.97
  -3  -1  17   12.92    0.72
   3   0 -17   43.61    1.40
   3   0 -17   45.45    1.47
  -3   0  17   46.50    1.20
   3  -1 -17    0.52    0.54
   3  -1 -17    0.74    0.51
  -3   1  17    1.18    0.37
   3  -2 -17    7.32    0.54
   3  -2 -17    6.54    0.71
   3  -2 -17    6.60    0.75
   3  -3 -17   46.00    1.23
   3  -3 -17   42.71    1.47
   3  -4 -17   12.52    0.81
   3  -4 -17   14.31    1.14
   3  -4 -17   11.58    0.94
   3  -5 -17    0.79    0.52
   3  -5 -17    0.70    0.68
   3  -5 -17   -0.04    0.50
  -3   5  17    1.05    0.41
   3  -6 -17    1.40    0.60
   3  -6 -17    1.21    0.68
   3  -6 -17    1.35    0.58
  -3   6  17    1.81    0.46
   3  -7 -17    4.87    0.74
   3  -7 -17    5.28    0.78
   3  -7 -17    6.08    0.74
  -3   7  17    5.58    0.67
   3  -8 -17    2.19    0.72
   3  -8 -17    2.11    0.63
   3  -8 -17    1.97    0.67
  -3   8  17    1.32    0.56
   4   5 -17   -0.40    0.59
  -4  -5  17    0.31    0.55
   4   4 -17   35.91    1.44
  -4  -4  17   34.73    1.32
   4   3 -17    4.60    0.74
   4   3 -17    5.10    0.75
  -4  -3  17    4.28    0.65
   4   2 -17   18.74    1.07
   4   2 -17   19.88    1.12
  -4  -2  17   19.18    0.92
   4   1 -17    0.13    0.58
   4   1 -17    1.36    0.64
  -4  -1  17    0.67    0.44
   4   0 -17    0.07    0.58
   4   0 -17   -0.46    0.58
  -4   0  17    0.49    0.40
   4  -1 -17   13.07    0.92
   4  -1 -17   12.01    0.88
  -4   1  17   12.05    0.68
   4  -2 -17    9.41    0.84
   4  -2 -17    9.98    0.90
   4  -3 -17   11.15    0.92
   4  -3 -17   11.73    0.97
   4  -4 -17   -0.48    0.44
   4  -4 -17    0.94    0.64
   4  -4 -17    0.38    0.53
   4  -5 -17   36.26    1.24
   4  -5 -17   36.30    1.42
   4  -5 -17   35.25    1.42
   4  -6 -17    0.62    0.66
   4  -6 -17   -0.27    0.51
   4  -6 -17    0.38    0.52
  -4   6  17    0.34    0.39
   4  -7 -17    1.28    0.70
   4  -7 -17    0.71    0.56
   4  -7 -17    0.97    0.58
  -4   7  17    0.75    0.45
   4  -8 -17   33.63    1.43
   4  -8 -17   38.63    1.49
   4  -8 -17   33.33    1.42
  -4   8  17   37.78    1.37
   4  -9 -17    1.91    0.66
   4  -9 -17    0.24    0.64
   4  -9 -17    2.11    0.72
  -4   9  17    1.82    0.62
   5   4 -17    1.35    0.70
  -5  -4  17    0.81    0.59
   5   3 -17    0.98    0.65
   5   3 -17    0.66    0.65
  -5  -3  17    0.99    0.55
   5   2 -17   14.75    1.06
   5   2 -17   15.49    1.06
  -5  -2  17   13.98    0.87
   5   1 -17    2.59    0.68
   5   1 -17    2.24    0.69
  -5  -1  17    2.03    0.55
   5   0 -17    0.73    0.67
   5   0 -17    1.99    0.67
  -5   0  17    1.58    0.51
   5  -1 -17   34.54    1.36
   5  -1 -17   35.41    1.43
  -5   1  17   36.80    1.13
   5  -2 -17    1.63    0.68
   5  -2 -17    0.05    0.57
  -5   2  17    0.41    0.40
   5  -3 -17   63.29    1.83
   5  -3 -17   60.99    1.79
   5  -4 -17    0.68    0.61
   5  -4 -17    0.89    0.63
   5  -5 -17    0.31    0.55
   5  -5 -17    0.91    0.70
   5  -6 -17   43.27    1.53
   5  -6 -17   47.22    1.65
   5  -7 -17    2.93    0.76
   5  -7 -17    2.87    0.64
   5  -8 -17    7.74    0.87
   5  -8 -17    9.38    1.00
  -5   8  17    8.79    0.80
   5  -9 -17    1.32    0.64
   5  -9 -17    0.79    0.69
  -5   9  17    1.38    0.55
   6   2 -17    1.37    0.73
   6   2 -17   -0.24    0.63
  -6  -2  17    0.98    0.56
   6   1 -17   24.95    1.29
   6   1 -17   26.06    1.29
  -6  -1  17   25.85    1.11
   6   0 -17    1.13    0.65
   6   0 -17    0.45    0.60
  -6   0  17    0.79    0.49
   6  -1 -17   45.12    1.57
   6  -1 -17   44.82    1.62
  -6   1  17   46.45    1.34
   6  -2 -17   -0.41    0.63
   6  -2 -17   -0.57    0.62
  -6   2  17    0.53    0.44
   6  -3 -17    0.22    0.66
   6  -3 -17    1.13    0.61
   6  -4 -17   19.44    1.09
   6  -4 -17   22.10    1.23
   6  -5 -17    1.73    0.72
   6  -5 -17    3.39    0.72
   6  -6 -17    0.58    0.68
   6  -6 -17    0.86    0.59
   6  -7 -17    3.20    0.79
   6  -7 -17    3.13    0.74
   6  -8 -17   11.72    1.10
   6  -8 -17   11.89    1.04
   7   1 -17   12.50    1.10
   7   1 -17   12.70    1.12
  -7  -1  17   11.47    0.90
   7   0 -17    1.52    0.70
   7   0 -17    2.20    0.77
  -7   0  17    2.23    0.58
   7  -1 -17    4.52    0.83
   7  -1 -17    1.34    0.70
  -7   1  17    4.19    0.65
   7  -2 -17    3.42    0.80
   7  -2 -17    2.35    0.76
  -7   2  17    2.91    0.57
   7  -3 -17    0.86    0.71
   7  -3 -17   -0.31    0.64
   7  -4 -17    6.89    0.88
   7  -4 -17    4.29    0.78
   7  -5 -17   12.89    1.04
   7  -5 -17   13.12    1.08
   7  -6 -17   25.62    1.26
   7  -6 -17   24.70    1.36
   7  -7 -17    2.60    0.73
   7  -7 -17    3.05    0.84
   7  -8 -17    1.02    0.69
   7  -8 -17    1.35    0.79
   8  -1 -17    0.88    0.76
   8  -1 -17    0.47    0.75
  -8   1  17    0.12    0.54
   8  -2 -17   11.13    1.10
   8  -2 -17   11.51    1.10
  -8   2  17   12.78    0.87
   8  -3 -17    6.43    0.95
   8  -3 -17    6.96    0.93
   8  -4 -17   31.13    1.44
   8  -4 -17   32.23    1.50
   8  -5 -17    0.82    0.76
   8  -5 -17    1.55    0.76
   8  -6 -17    1.26    0.76
   8  -6 -17    0.68    0.76
   8  -7 -17   10.46    1.12
   8  -7 -17   11.35    1.11
   9  -3 -17    0.26    0.78
   9  -4 -17    0.88    0.71
   9  -4 -17   -0.75    0.74
   9  -5 -17    0.86    0.80
   9  -5 -17    0.33    0.72
  -8   7 -18    1.42    0.52
   8  -7  18    2.42    0.63
   8  -7  18    2.65    0.67
  -8   6 -18   14.30    0.97
  -8   6 -18   15.47    0.93
   8  -6  18   16.66    1.03
   8  -6  18   16.67    1.08
  -8   5 -18    4.73    0.72
   8  -5  18    6.17    0.69
   8  -5  18    4.95    0.79
  -8   4 -18    7.10    0.84
   8  -4  18    8.00    0.87
   8  -4  18    7.66    0.77
  -8   3 -18    7.29    0.83
   8  -3  18    7.09    0.73
   8  -3  18    5.75    0.82
  -8   2 -18    1.87    0.57
   8  -2  18    1.19    0.63
   8  -2  18    1.37    0.53
  -8   1 -18   27.84    1.36
   8  -1  18   25.34    1.21
   8  -1  18   26.29    1.35
  -7   8 -18   24.10    1.19
   7  -8  18   24.19    1.27
   7  -8  18   27.44    1.25
  -7   7 -18    3.33    0.61
   7  -7  18    3.30    0.61
   7  -7  18    1.84    0.60
  -7   6 -18   12.72    0.88
  -7   6 -18   12.80    0.87
   7  -6  18   13.56    0.97
   7  -6  18   12.45    0.92
  -7   5 -18    1.19    0.48
  -7   5 -18    1.15    0.45
   7  -5  18    0.38    0.53
   7  -5  18    1.06    0.46
   7  -5  18    1.75    0.53
  -7   4 -18    7.18    0.75
   7  -4  18    7.21    0.80
   7  -4  18    7.22    0.70
  -7   3 -18   14.07    0.90
   7  -3  18   13.90    0.87
   7  -3  18   13.56    0.98
  -7   2 -18    1.63    0.58
   7  -2  18    2.17    0.60
   7  -2  18    2.32    0.56
  -7   1 -18    0.90    0.55
   7  -1  18    1.00    0.54
   7  -1  18    0.13    0.47
  -7   0 -18    3.83    0.73
   7   0  18    3.51    0.74
   7   0  18    3.63    0.64
  -7  -1 -18    1.93    0.62
   7   1  18    1.60    0.53
   7   1  18    1.88    0.65
  -6   8 -18    1.87    0.58
   6  -8  18    1.44    0.58
  -6   7 -18    0.24    0.47
   6  -7  18    0.92    0.51
   6  -7  18    0.10    0.43
  -6   6 -18    6.51    0.71
  -6   6 -18    6.35    0.66
   6  -6  18    5.69    0.70
   6  -6  18    6.35    0.72
  -6   5 -18    3.07    0.55
  -6   5 -18    3.08    0.53
   6  -5  18    3.74    0.61
   6  -5  18    2.73    0.57
  -6   4 -18   11.23    0.80
  -6   4 -18   12.18    0.81
   6  -4  18   10.91    0.87
   6  -4  18   11.87    0.79
   6  -4  18   13.15    0.87
  -6   3 -18   15.44    0.88
   6  -3  18   16.74    0.97
   6  -3  18   17.84    0.92
  -6   2 -18   18.10    1.02
   6  -2  18   19.64    0.99
   6  -2  18   20.16    0.94
  -6   1 -18   15.59    0.95
   6  -1  18   14.92    0.87
   6  -1  18   16.44    0.95
  -6   0 -18    5.99    0.80
   6   0  18    6.30    0.77
   6   0  18    5.83    0.70
  -6  -1 -18   13.27    1.09
   6   1  18   13.59    1.02
   6   1  18   13.72    0.93
  -6  -2 -18   12.98    1.00
   6   2  18   17.34    1.06
   6   2  18   16.05    1.01
  -5   8 -18    8.57    0.85
   5  -8  18    7.72    0.82
  -5   7 -18    2.94    0.61
   5  -7  18    2.41    0.58
  -5   6 -18   16.85    0.99
   5  -6  18   15.77    0.91
   5  -6  18   15.48    0.93
  -5   5 -18   25.79    1.06
  -5   5 -18   24.60    0.99
   5  -5  18   26.23    1.09
   5  -5  18   26.37    1.09
  -5   4 -18   24.73    1.03
  -5   4 -18   22.67    0.99
   5  -4  18   24.51    0.99
   5  -4  18   25.26    1.07
   5  -4  18   25.81    1.01
  -5   3 -18   17.63    0.89
  -5   3 -18   19.84    0.95
   5  -3  18   20.28    0.91
   5  -3  18   18.07    0.94
   5  -3  18   17.01    0.91
  -5   2 -18    8.43    0.77
   5  -2  18   10.01    0.79
   5  -2  18   11.05    0.75
  -5   1 -18   11.94    0.87
   5  -1  18   12.80    0.88
   5  -1  18   13.33    0.81
  -5   0 -18   25.53    1.14
   5   0  18   26.69    1.09
   5   0  18   26.99    1.17
  -5  -1 -18    2.31    0.60
   5   1  18    3.13    0.59
   5   1  18    4.55    0.66
  -5  -2 -18    1.57    0.56
   5   2  18    1.37    0.51
   5   2  18    1.53    0.59
  -5  -3 -18    5.72    0.80
   5   3  18    4.98    0.80
   5   3  18    5.68    0.74
  -4   8 -18    7.33    0.81
   4  -8  18    8.30    0.84
  -4   7 -18   12.39    0.89
   4  -7  18   13.78    0.90
  -4   6 -18   20.50    1.01
   4  -6  18   19.08    0.96
  -4   5 -18   11.64    0.83
   4  -5  18   14.07    0.83
  -4   4 -18    0.31    0.36
  -4   4 -18   -0.23    0.41
   4  -4  18    0.52    0.41
   4  -4  18    0.19    0.40
   4  -4  18    0.54    0.38
  -4   3 -18    9.31    0.72
  -4   3 -18   10.43    0.71
   4  -3  18   10.82    0.77
   4  -3  18    9.55    0.68
   4  -3  18    9.24    0.72
  -4   2 -18    9.94    0.75
  -4   2 -18    9.33    0.70
   4  -2  18    6.91    0.64
   4  -2  18    8.46    0.62
   4  -2  18    8.99    0.75
  -4   1 -18    3.98    0.56
  -4   1 -18    4.10    0.53
   4  -1  18    4.10    0.57
   4  -1  18    3.99    0.58
  -4   0 -18    0.14    0.47
   4   0  18    0.54    0.45
   4   0  18    0.38    0.43
  -4  -1 -18   22.56    1.07
   4   1  18   25.22    1.11
   4   1  18   22.94    1.08
  -4  -2 -18   10.94    0.91
   4   2  18   11.63    0.91
   4   2  18   10.50    0.79
  -4  -3 -18    5.59    0.78
   4   3  18    7.46    0.77
   4   3  18    5.93    0.76
  -4  -4 -18    6.25    0.83
   4   4  18    8.14    0.81
   4   4  18    7.58    0.88
  -3   8 -18    5.66    0.76
   3  -8  18    6.00    0.78
  -3   7 -18    8.07    0.82
   3  -7  18    5.48    0.71
  -3   6 -18   17.05    0.96
   3  -6  18   17.81    0.94
  -3   5 -18   10.21    0.82
   3  -5  18   11.78    0.78
  -3   4 -18    4.09    0.60
   3  -4  18    3.79    0.54
   3  -4  18    3.48    0.53
  -3   3 -18   10.52    0.78
  -3   3 -18   10.25    0.68
   3  -3  18    9.99    0.69
   3  -3  18    8.48    0.70
   3  -3  18    8.42    0.66
  -3   2 -18    0.92    0.44
  -3   2 -18    0.24    0.37
   3  -2  18    0.27    0.37
   3  -2  18    0.87    0.37
   3  -2  18   -0.23    0.45
  -3   1 -18   95.83    2.05
  -3   1 -18   92.53    2.13
   3  -1  18   95.95    2.09
   3  -1  18  100.36    2.26
  -3   0 -18    8.36    0.71
  -3   0 -18    8.75    0.70
   3   0  18   10.27    0.73
   3   0  18    7.65    0.71
  -3  -1 -18   10.07    0.79
   3   1  18   10.71    0.79
   3   1  18   12.99    0.85
  -3  -2 -18   17.05    1.01
   3   2  18   18.23    0.95
   3   2  18   18.36    0.99
  -3  -3 -18   17.82    1.05
   3   3  18   16.34    0.99
   3   3  18   15.58    0.95
  -3  -4 -18   13.90    0.96
   3   4  18   11.13    0.87
   3   4  18   15.92    0.97
  -3  -5 -18    7.40    0.87
   3   5  18    7.35    0.88
   3   5  18    6.41    0.76
  -2   8 -18   15.85    1.00
   2  -8  18   15.74    1.02
  -2   7 -18    1.14    0.53
   2  -7  18    1.53    0.57
  -2   6 -18   11.43    0.85
   2  -6  18   13.34    0.85
  -2   5 -18   19.22    1.00
   2  -5  18   18.84    0.93
  -2   4 -18    8.54    0.67
  -2   4 -18    7.70    0.74
   2  -4  18   10.56    0.73
  -2   3 -18   99.06    2.21
  -2   3 -18   92.14    2.16
   2  -3  18   96.89    2.14
   2  -3  18   97.52    2.04
  -2   2 -18   17.88    0.78
  -2   2 -18   17.33    0.96
   2  -2  18   18.18    0.92
   2  -2  18   18.32    0.75
  -2   1 -18    2.22    0.44
  -2   1 -18    2.72    0.52
   2  -1  18    3.07    0.56
   2  -1  18    3.08    0.43
  -2   0 -18   19.02    0.88
  -2   0 -18   19.83    0.91
   2   0  18   15.69    0.79
   2   0  18   17.27    0.98
  -2  -1 -18    0.09    0.44
  -2  -1 -18    0.62    0.44
   2   1  18    0.19    0.38
   2   1  18    0.00    0.47
  -2  -2 -18   10.09    0.84
   2   2  18   10.52    0.84
   2   2  18    9.04    0.75
  -2  -3 -18    9.78    0.85
   2   3  18   10.93    0.85
   2   3  18   13.27    0.92
  -2  -4 -18   21.17    1.13
   2   4  18   22.04    1.07
   2   4  18   21.25    1.05
  -2  -5 -18    2.13    0.62
   2   5  18    2.95    0.65
   2   5  18    2.92    0.60
  -2  -6 -18    2.45    0.71
   2   6  18    1.58    0.63
   2   6  18    1.88    0.59
  -1   8 -18    2.32    0.59
   1  -8  18    1.51    0.61
  -1   7 -18   12.03    0.98
   1  -7  18   13.14    0.92
  -1   6 -18    3.23    0.65
   1  -6  18    3.29    0.56
  -1   5 -18   24.32    1.10
   1  -5  18   23.24    1.01
  -1   4 -18    9.66    0.76
  -1   4 -18   10.73    0.86
   1  -4  18   10.12    0.74
  -1   3 -18    0.45    0.45
  -1   3 -18    0.95    0.50
   1  -3  18    0.49    0.38
  -1   2 -18    2.36    0.54
  -1   2 -18    2.21    0.50
   1  -2  18    1.80    0.40
  -1   1 -18    3.15    0.52
  -1   1 -18    2.87    0.56
  -1   1 -18    3.01    0.42
   1  -1  18    2.52    0.38
   1  -1  18    2.36    0.51
  -1   0 -18    2.67    0.45
  -1   0 -18    2.35    0.51
  -1   0 -18    3.48    0.54
   1   0  18    3.06    0.54
   1   0  18    2.96    0.39
  -1  -1 -18    1.87    0.51
  -1  -1 -18    2.07    0.50
   1   1  18    2.82    0.44
   1   1  18    2.90    0.57
  -1  -2 -18   98.13    2.19
   1   2  18   94.84    2.07
   1   2  18   91.49    2.26
  -1  -3 -18    3.64    0.64
   1   3  18    3.79    0.61
   1   3  18    3.76    0.54
  -1  -4 -18   11.94    0.93
   1   4  18   11.36    0.77
   1   4  18   13.01    0.86
  -1  -5 -18   16.15    0.97
   1   5  18   17.45    1.03
   1   5  18   15.13    0.96
  -1  -6 -18    1.42    0.64
   1   6  18    1.29    0.56
   1   6  18    1.33    0.58
  -1  -7 -18   24.20    1.26
   1   7  18   26.74    1.27
   1   7  18   22.98    1.17
   0   7 -18    3.01    0.68
   0  -7  18    4.00    0.69
   0   6 -18    5.72    0.75
   0  -6  18    5.97    0.72
   0   5 -18   24.27    1.13
   0  -5  18   25.35    1.07
   0   4 -18    0.34    0.46
   0   4 -18   -0.19    0.50
   0  -4  18    0.45    0.45
   0   3 -18   10.15    0.82
   0   3 -18    9.77    0.75
   0  -3  18    8.71    0.67
   0   2 -18   18.27    0.93
   0   2 -18   19.34    0.99
   0  -2  18   17.25    0.79
   0   1 -18    2.10    0.53
   0   1 -18    2.53    0.50
   0  -1  18    3.04    0.42
   0   0 -18  104.78    2.09
   0   0 -18  107.82    2.31
   0   0 -18  103.19    2.41
   0  -1 -18    3.51    0.60
   0  -1 -18    2.37    0.55
   0  -1 -18    3.24    0.47
   0   1  18    2.81    0.58
   0  -2 -18   16.10    0.96
   0  -2 -18   19.04    0.97
   0  -2 -18   16.51    0.84
   0   2  18   18.24    0.94
   0   2  18   16.23    0.74
   0  -3 -18   10.31    0.78
   0  -3 -18    8.43    0.82
   0  -3 -18   10.11    0.80
   0   3  18    9.89    0.75
   0   3  18    9.05    0.81
   0  -4 -18    0.08    0.50
   0  -4 -18    0.06    0.53
   0  -4 -18    0.26    0.47
   0   4  18   -0.17    0.49
   0   4  18    0.54    0.42
   0  -5 -18   25.81    1.18
   0  -5 -18   26.44    1.20
   0   5  18   29.38    1.19
   0   5  18   24.71    1.10
   0  -6 -18    7.09    0.81
   0  -6 -18    6.05    0.75
   0   6  18    6.81    0.77
   0   6  18    6.27    0.75
   0  -7 -18    3.48    0.69
   0  -7 -18    4.23    0.78
   0   7  18    4.70    0.71
   0   7  18    4.01    0.73
   1   7 -18   23.38    1.22
  -1  -7  18   20.86    1.14
   1   6 -18    0.66    0.59
  -1  -6  18    1.15    0.55
   1   5 -18   15.61    1.01
  -1  -5  18   15.15    0.89
   1   4 -18   11.80    0.95
  -1  -4  18   13.44    0.81
   1   3 -18    3.21    0.59
   1   3 -18    4.00    0.61
  -1  -3  18    2.72    0.52
   1   2 -18   94.92    2.24
   1   2 -18   89.42    2.14
  -1  -2  18   96.17    2.00
   1   1 -18    2.69    0.59
   1   1 -18    2.66    0.56
  -1  -1  18    2.62    0.42
   1   0 -18    3.36    0.59
   1   0 -18    2.89    0.58
   1  -1 -18    2.90    0.57
   1  -1 -18    2.41    0.54
   1  -1 -18    3.21    0.44
   1  -2 -18    2.73    0.58
   1  -2 -18    2.56    0.48
   1  -2 -18    2.20    0.55
   1  -3 -18   -0.14    0.46
   1  -3 -18    0.21    0.52
   1  -3 -18    0.66    0.44
  -1   3  18    0.85    0.37
   1  -4 -18    9.85    0.77
   1  -4 -18   11.22    0.92
   1  -4 -18    9.70    0.83
  -1   4  18    9.46    0.71
   1  -5 -18   20.91    1.14
   1  -5 -18   21.58    1.10
   1  -5 -18   22.75    1.11
  -1   5  18   24.39    1.04
   1  -6 -18    4.84    0.71
   1  -6 -18    3.16    0.64
  -1   6  18    4.23    0.59
   1  -7 -18   12.50    1.07
   1  -7 -18   14.61    0.97
  -1   7  18   13.72    0.97
   1  -8 -18    2.57    0.64
   1  -8 -18    1.53    0.66
  -1   8  18    1.50    0.62
   2   6 -18    1.45    0.65
  -2  -6  18    1.51    0.58
   2   5 -18    1.39    0.61
  -2  -5  18    2.51    0.59
   2   4 -18   18.86    1.08
  -2  -4  18   19.09    0.91
   2   3 -18   10.23    0.80
   2   3 -18    9.05    0.86
  -2  -3  18   10.43    0.75
   2   2 -18    7.43    0.76
   2   2 -18    8.51    0.82
  -2  -2  18    8.48    0.69
   2   1 -18    0.66    0.52
   2   1 -18    0.38    0.52
  -2  -1  18    0.41    0.41
   2   0 -18   17.07    0.95
   2   0 -18   18.74    0.96
  -2   0  18   17.02    0.72
   2  -1 -18    2.10    0.60
   2  -1 -18    1.29    0.56
   2  -2 -18   16.40    0.74
   2  -2 -18   17.72    1.04
   2  -2 -18   17.47    0.97
   2  -3 -18   96.79    2.05
   2  -3 -18   89.32    2.27
   2  -3 -18   92.44    2.20
   2  -4 -18    8.88    0.85
   2  -4 -18    8.05    0.74
   2  -4 -18    8.48    0.82
  -2   4  18    8.72    0.64
   2  -5 -18   16.52    1.13
   2  -5 -18   17.28    1.00
   2  -5 -18   17.17    1.00
  -2   5  18   18.63    0.87
   2  -6 -18   11.32    0.91
   2  -6 -18   11.58    0.91
   2  -6 -18   11.71    0.94
  -2   6  18   12.24    0.82
   2  -7 -18    1.26    0.62
   2  -7 -18    2.21    0.61
  -2   7  18    1.31    0.51
   2  -8 -18   17.75    1.15
   2  -8 -18   17.24    1.09
  -2   8  18   16.33    1.04
   3   5 -18    7.13    0.86
  -3  -5  18    7.80    0.85
   3   4 -18   12.68    0.97
  -3  -4  18   14.30    0.89
   3   3 -18   14.38    0.94
   3   3 -18   16.90    0.98
  -3  -3  18   16.65    0.89
   3   2 -18   17.24    1.05
   3   2 -18   17.17    1.01
  -3  -2  18   18.15    0.86
   3   1 -18   11.63    0.94
   3   1 -18    9.69    0.85
  -3  -1  18    9.93    0.67
   3   0 -18   10.09    0.88
   3   0 -18    6.97    0.75
  -3   0  18    8.51    0.63
   3  -1 -18   89.80    2.19
   3  -1 -18   87.64    2.19
   3  -2 -18    0.99    0.54
   3  -2 -18    0.75    0.56
   3  -3 -18    8.69    0.85
   3  -3 -18    9.69    0.85
   3  -3 -18    9.17    0.73
   3  -4 -18    4.97    0.61
   3  -4 -18    3.62    0.69
   3  -4 -18    3.69    0.73
   3  -5 -18   11.01    0.85
   3  -5 -18    9.82    0.90
   3  -5 -18    9.40    0.89
   3  -6 -18   16.54    1.17
   3  -6 -18   15.85    0.98
   3  -6 -18   14.48    0.95
  -3   6  18   17.09    0.86
   3  -7 -18    6.90    0.83
   3  -7 -18    7.79    0.88
   3  -7 -18    6.40    0.81
  -3   7  18    7.06    0.73
   3  -8 -18    4.88    0.79
   3  -8 -18    5.06    0.77
   3  -8 -18    6.55    0.83
  -3   8  18    5.50    0.69
   4   4 -18    7.42    0.89
  -4  -4  18    7.25    0.80
   4   3 -18    7.33    0.82
   4   3 -18    7.15    0.85
  -4  -3  18    6.32    0.68
   4   2 -18   10.64    0.91
   4   2 -18    9.97    0.89
  -4  -2  18    9.99    0.75
   4   1 -18   21.12    1.09
   4   1 -18   22.63    1.16
  -4  -1  18   22.88    0.94
   4   0 -18    0.48    0.60
   4   0 -18    0.68    0.56
  -4   0  18   -0.62    0.36
   4  -1 -18    2.25    0.64
   4  -1 -18    3.45    0.69
  -4   1  18    3.22    0.50
   4  -2 -18   10.00    0.91
   4  -2 -18    7.05    0.80
   4  -3 -18    9.53    0.90
   4  -3 -18   10.50    0.96
   4  -4 -18    1.58    0.61
   4  -4 -18    0.05    0.43
   4  -4 -18    0.37    0.65
   4  -5 -18   11.41    1.00
   4  -5 -18   12.38    0.93
   4  -5 -18   12.67    0.90
   4  -6 -18   18.20    1.11
   4  -6 -18   21.00    1.04
   4  -6 -18   19.28    1.19
   4  -7 -18   15.74    1.06
   4  -7 -18   15.58    1.20
   4  -7 -18   13.57    0.91
  -4   7  18   15.13    0.89
   4  -8 -18    6.79    0.86
   4  -8 -18    7.95    0.93
   4  -8 -18    7.76    0.89
  -4   8  18    8.38    0.80
   5   3 -18    5.93    0.87
  -5  -3  18    4.91    0.71
   5   2 -18    0.55    0.65
   5   2 -18    1.02    0.65
  -5  -2  18    1.66    0.54
   5   1 -18    2.56    0.67
   5   1 -18    3.79    0.75
  -5  -1  18    2.90    0.60
   5   0 -18   26.76    1.29
   5   0 -18   24.80    1.24
  -5   0  18   24.34    0.98
   5  -1 -18   13.06    1.04
   5  -1 -18   13.38    1.05
  -5   1  18   11.54    0.70
   5  -2 -18   13.39    1.05
   5  -2 -18   10.54    0.97
   5  -3 -18   17.72    1.06
   5  -3 -18   17.92    1.18
   5  -4 -18   23.66    1.26
   5  -4 -18   22.21    1.22
   5  -5 -18   24.39    1.21
   5  -5 -18   22.80    1.27
   5  -6 -18   15.06    1.16
   5  -6 -18   15.28    1.05
   5  -7 -18    2.41    0.69
   5  -7 -18    1.65    0.75
   5  -8 -18    9.09    0.92
   5  -8 -18    7.32    0.95
   6   2 -18   16.48    1.17
   6   2 -18   15.36    1.14
  -6  -2  18   14.49    0.96
   6   1 -18   14.01    1.09
   6   1 -18   13.99    1.11
  -6  -1  18   14.17    0.93
   6   0 -18    6.75    0.84
   6   0 -18    6.07    0.86
  -6   0  18    6.22    0.68
   6  -1 -18   15.03    1.05
   6  -1 -18   14.72    1.11
  -6   1  18   16.00    0.88
   6  -2 -18   19.15    1.12
   6  -2 -18   18.38    1.09
   6  -3 -18   13.78    1.06
   6  -3 -18   14.87    1.11
   6  -4 -18   10.03    0.93
   6  -4 -18   10.47    0.96
   6  -5 -18    3.16    0.73
   6  -5 -18    2.71    0.67
   6  -6 -18    7.51    0.88
   6  -6 -18    6.60    0.92
   6  -7 -18    1.95    0.70
   6  -7 -18    0.29    0.73
   6  -8 -18    1.42    0.77
   6  -8 -18    2.39    0.74
   7   1 -18    2.06    0.80
   7   1 -18    1.39    0.74
  -7  -1  18    2.11    0.62
   7   0 -18    2.49    0.79
   7   0 -18    1.69    0.79
  -7   0  18    2.39    0.61
   7  -1 -18    1.31    0.74
   7  -1 -18    1.41    0.71
  -7   1  18    0.65    0.49
   7  -2 -18    3.39    0.80
   7  -2 -18    1.25    0.74
   7  -3 -18   14.17    1.14
   7  -3 -18   14.53    1.16
   7  -4 -18    7.04    0.94
   7  -4 -18    5.77    0.85
   7  -5 -18    0.54    0.72
   7  -5 -18    0.99    0.65
   7  -6 -18   11.77    1.06
   7  -6 -18   15.34    1.14
   7  -7 -18    3.37    0.75
   7  -7 -18    3.81    0.90
   7  -8 -18   25.71    1.35
   7  -8 -18   23.69    1.41
   8  -1 -18   25.23    1.43
   8  -1 -18   20.56    1.35
  -8   1  18   25.56    1.14
   8  -2 -18   -0.24    0.73
   8  -2 -18    1.66    0.75
  -8   2  18    1.21    0.59
   8  -3 -18    7.44    0.96
   8  -3 -18    5.23    0.95
   8  -4 -18    8.63    1.05
   8  -4 -18    5.27    0.92
   8  -5 -18    3.88    0.89
   8  -5 -18    4.21    0.88
   8  -6 -18   15.36    1.15
   8  -6 -18   15.41    1.27
   8  -7 -18    2.22    0.75
   8  -7 -18    1.17    0.73
  -8   6 -19    0.05    0.48
   8  -6  19    0.46    0.57
   8  -6  19    0.49    0.58
  -8   5 -19    2.20    0.60
   8  -5  19    2.69    0.57
   8  -5  19    2.35    0.62
  -8   4 -19   20.37    1.11
   8  -4  19   23.04    1.08
   8  -4  19   22.93    1.22
  -8   3 -19    9.53    0.93
   8  -3  19    8.72    0.82
   8  -3  19    8.48    0.94
  -8   2 -19   12.70    1.06
   8  -2  19    9.46    0.85
   8  -2  19   11.50    1.06
  -7   7 -19    3.94    0.63
  -7   7 -19    4.61    0.67
   7  -7  19    3.96    0.71
   7  -7  19    3.39    0.67
  -7   6 -19   13.45    0.90
  -7   6 -19   16.75    0.92
   7  -6  19   16.15    0.99
   7  -6  19   16.26    1.03
  -7   5 -19    4.16    0.65
  -7   5 -19    5.03    0.63
   7  -5  19    3.36    0.57
   7  -5  19    4.55    0.67
   7  -5  19    3.52    0.65
  -7   4 -19    3.64    0.61
   7  -4  19    2.89    0.57
   7  -4  19    2.91    0.66
  -7   3 -19   -0.21    0.47
   7  -3  19    0.81    0.55
   7  -3  19    0.66    0.48
  -7   2 -19    0.85    0.53
   7  -2  19    1.08    0.48
   7  -2  19    1.23    0.58
  -7   1 -19    2.85    0.67
   7  -1  19    1.99    0.54
   7  -1  19    2.39    0.65
  -7   0 -19    5.02    0.76
   7   0  19    4.20    0.79
   7   0  19    3.76    0.65
  -6   8 -19    8.44    0.85
   6  -8  19   12.26    0.93
  -6   7 -19    2.35    0.59
   6  -7  19    2.72    0.62
  -6   6 -19    0.60    0.43
  -6   6 -19    0.12    0.48
   6  -6  19    0.60    0.49
   6  -6  19   -0.02    0.47
  -6   5 -19    2.05    0.52
  -6   5 -19    1.79    0.48
   6  -5  19    1.44    0.53
   6  -5  19    1.45    0.52
  -6   4 -19   21.18    0.92
  -6   4 -19   20.94    1.02
   6  -4  19   20.85    0.98
   6  -4  19   20.82    1.05
   6  -4  19   20.75    0.97
  -6   3 -19    0.67    0.42
   6  -3  19    0.82    0.51
   6  -3  19    0.73    0.45
  -6   2 -19    1.43    0.52
   6  -2  19    0.43    0.43
   6  -2  19    0.91    0.49
  -6   1 -19   35.78    1.40
   6  -1  19   33.28    1.36
   6  -1  19   34.35    1.31
  -6   0 -19    0.88    0.51
   6   0  19    0.15    0.52
   6   0  19    1.23    0.52
  -6  -1 -19   14.10    0.99
   6   1  19   14.89    0.99
   6   1  19   14.66    0.97
  -6  -2 -19    0.00    0.52
   6   2  19    1.41    0.62
   6   2  19    0.28    0.51
  -5   8 -19    9.90    0.91
   5  -8  19    8.37    0.85
  -5   7 -19    2.11    0.57
   5  -7  19    1.46    0.55
  -5   6 -19   32.51    1.25
   5  -6  19   36.01    1.31
  -5   5 -19    1.65    0.49
  -5   5 -19    1.58    0.45
   5  -5  19    1.18    0.48
   5  -5  19    0.89    0.46
  -5   4 -19   -0.35    0.38
  -5   4 -19    0.25    0.44
   5  -4  19    0.23    0.42
   5  -4  19    1.00    0.45
   5  -4  19   -0.62    0.38
  -5   3 -19   68.04    1.70
  -5   3 -19   68.06    1.80
   5  -3  19   65.89    1.76
   5  -3  19   68.52    1.80
   5  -3  19   68.57    1.66
  -5   2 -19    3.75    0.58
   5  -2  19    2.90    0.55
   5  -2  19    2.32    0.52
  -5   1 -19   27.97    1.20
   5  -1  19   29.58    1.17
   5  -1  19   27.56    1.17
  -5   0 -19    0.85    0.52
   5   0  19    1.67    0.52
   5   0  19    1.09    0.51
  -5  -1 -19    2.26    0.61
   5   1  19    2.04    0.56
   5   1  19    1.66    0.56
  -5  -2 -19    7.33    0.84
   5   2  19    3.04    0.60
   5   2  19    4.55    0.74
  -5  -3 -19    2.03    0.65
   5   3  19    1.71    0.56
   5   3  19    1.44    0.64
  -4   8 -19   22.96    1.15
   4  -8  19   24.98    1.18
  -4   7 -19    1.02    0.53
   4  -7  19    0.58    0.50
  -4   6 -19    0.64    0.49
   4  -6  19    1.08    0.49
  -4   5 -19   29.36    1.15
   4  -5  19   29.76    1.11
  -4   4 -19    3.57    0.50
  -4   4 -19    2.72    0.55
   4  -4  19    2.75    0.52
   4  -4  19    2.95    0.51
  -4   3 -19    6.78    0.64
  -4   3 -19    7.17    0.66
   4  -3  19    5.65    0.59
   4  -3  19    6.02    0.63
   4  -3  19    6.40    0.67
  -4   2 -19    7.19    0.67
  -4   2 -19    8.49    0.72
   4  -2  19    8.48    0.69
   4  -2  19    7.71    0.72
  -4   1 -19   11.40    0.83
   4  -1  19   11.59    0.79
   4  -1  19    9.86    0.77
  -4   0 -19    3.46    0.57
   4   0  19    2.74    0.54
   4   0  19    2.05    0.52
  -4  -1 -19    0.42    0.50
   4   1  19   -0.20    0.45
   4   1  19    0.61    0.47
  -4  -2 -19   20.12    1.06
   4   2  19   20.08    1.00
   4   2  19   18.16    1.00
  -4  -3 -19    3.57    0.69
   4   3  19    3.26    0.66
   4   3  19    3.55    0.62
  -4  -4 -19   22.71    1.21
   4   4  19   21.77    1.22
   4   4  19   25.15    1.22
  -3   8 -19    2.57    0.64
   3  -8  19    2.20    0.61
  -3   7 -19    3.29    0.64
   3  -7  19    3.85    0.66
  -3   6 -19    0.58    0.48
   3  -6  19    0.74    0.49
  -3   5 -19    3.40    0.59
   3  -5  19    3.19    0.54
  -3   4 -19   12.87    0.80
  -3   4 -19   11.27    0.83
   3  -4  19   10.17    0.81
   3  -4  19   10.65    0.76
  -3   3 -19   35.74    1.11
  -3   3 -19   35.51    1.23
   3  -3  19   33.16    1.21
   3  -3  19   35.35    1.11
  -3   2 -19    8.64    0.73
  -3   2 -19    8.55    0.67
   3  -2  19    8.18    0.65
   3  -2  19    9.16    0.77
  -3   1 -19    2.88    0.52
  -3   1 -19    3.83    0.56
   3  -1  19    3.40    0.60
   3  -1  19    3.10    0.51
  -3   0 -19   33.59    1.22
   3   0  19   34.02    1.15
   3   0  19   32.28    1.21
  -3  -1 -19    5.91    0.71
   3   1  19    5.87    0.67
   3   1  19    7.04    0.68
   3   2  19   68.08    1.90
   3   2  19   68.68    1.86
  -3  -3 -19    0.15    0.49
   3   3  19    0.11    0.44
   3   3  19    1.61    0.54
  -3  -4 -19    0.78    0.58
   3   4  19    0.67    0.53
   3   4  19    0.55    0.55
  -3  -5 -19    8.56    0.92
   3   5  19    7.61    0.86
   3   5  19    8.17    0.84
  -2   8 -19    0.95    0.52
   2  -8  19    0.05    0.52
  -2   7 -19    4.63    0.70
   2  -7  19    4.37    0.69
  -2   6 -19   19.49    0.98
   2  -6  19   21.56    1.02
  -2   5 -19   64.58    1.81
   2  -5  19   68.29    1.75
  -2   4 -19    8.73    0.69
  -2   4 -19    7.87    0.77
   2  -4  19    9.12    0.71
  -2   3 -19    3.93    0.58
  -2   3 -19    3.24    0.58
   2  -3  19    4.02    0.53
   2  -3  19    2.68    0.54
  -2   2 -19   31.31    1.02
  -2   2 -19   32.75    1.19
  -2   2 -19   34.43    1.22
   2  -2  19   31.74    1.19
   2  -2  19   33.45    0.99
  -2   1 -19   15.87    0.81
  -2   1 -19   13.86    0.85
   2  -1  19   14.08    0.85
  -2   0 -19   32.75    1.14
  -2   0 -19   33.66    1.14
   2   0  19   32.49    1.04
   2   0  19   31.62    1.20
  -2  -1 -19    8.47    0.76
  -2  -1 -19    8.85    0.69
   2   1  19    7.82    0.67
   2   1  19    8.39    0.79
  -2  -2 -19    8.89    0.80
   2   2  19    7.85    0.77
   2   2  19    9.85    0.78
  -2  -3 -19    2.20    0.60
   2   3  19    3.00    0.61
   2   3  19    3.01    0.56
  -2  -4 -19    0.27    0.50
   2   4  19    0.32    0.48
   2   4  19    0.14    0.47
  -2  -5 -19    1.80    0.64
   2   5  19    1.41    0.60
   2   5  19    1.72    0.58
  -2  -6 -19    9.95    1.01
   2   6  19   11.11    0.99
   2   6  19   12.24    1.03
  -1   7 -19   14.99    0.93
   1  -7  19   13.31    0.88
  -1   6 -19    1.61    0.56
   1  -6  19    3.13    0.59
  -1   5 -19   -0.01    0.43
   1  -5  19    0.83    0.46
  -1   4 -19    6.49    0.74
  -1   4 -19    6.64    0.64
   1  -4  19    6.57    0.64
  -1   3 -19    8.81    0.73
  -1   3 -19    8.67    0.80
   1  -3  19    7.56    0.65
  -1   2 -19   13.87    0.90
  -1   2 -19   14.88    0.87
   1  -2  19   14.30    0.73
  -1   1 -19   20.57    0.80
  -1   1 -19   20.74    1.02
  -1   1 -19   21.05    0.98
   1  -1  19   22.26    1.04
  -1   0 -19   21.35    0.86
  -1   0 -19   19.83    0.95
  -1   0 -19   18.34    0.96
   1   0  19   20.99    0.99
  -1  -1 -19   13.54    0.81
  -1  -1 -19   15.87    0.91
  -1  -1 -19   14.53    0.91
   1   1  19   14.64    0.76
   1   1  19   13.58    0.88
  -1  -2 -19    3.00    0.58
  -1  -2 -19    2.93    0.56
   1   2  19    4.20    0.61
   1   2  19    3.63    0.52
  -1  -3 -19   11.32    0.88
   1   3  19   11.59    0.83
   1   3  19    9.86    0.76
  -1  -4 -19   29.08    1.23
   1   4  19   29.98    1.18
   1   4  19   30.18    1.26
  -1  -5 -19   32.36    1.31
   1   5  19   35.03    1.36
   1   5  19   32.56    1.25
  -1  -6 -19    3.37    0.74
   1   6  19    2.48    0.61
   1   6  19    3.36    0.67
   0   7 -19    2.93    0.69
   0  -7  19    3.47    0.64
   0   6 -19   -0.85    0.51
   0  -6  19    0.70    0.53
   0   5 -19    0.68    0.54
   0  -5  19    0.79    0.49
   0   4 -19    3.91    0.66
   0  -4  19    3.50    0.54
   0   3 -19   34.82    1.21
   0   3 -19   35.14    1.31
   0  -3  19   32.99    1.10
   0   2 -19   31.02    1.23
   0   2 -19   33.10    1.22
   0  -2  19   32.85    1.03
   0   1 -19   21.58    1.05
   0   1 -19   21.53    1.04
   0  -1 -19   21.63    1.09
   0  -1 -19   20.56    1.01
   0  -1 -19   21.07    0.85
   0  -2 -19   32.43    1.12
   0  -2 -19   31.66    1.23
   0  -2 -19   31.68    1.22
   0   2  19   30.03    1.20
   0  -3 -19   34.95    1.24
   0  -3 -19   33.69    1.35
   0  -3 -19   34.57    1.28
   0   3  19   34.63    1.12
   0   3  19   33.25    1.32
   0  -4 -19    2.97    0.61
   0  -4 -19    3.22    0.62
   0   4  19    4.31    0.65
   0   4  19    2.55    0.51
   0  -5 -19    0.46    0.49
   0  -5 -19    1.59    0.58
   0   5  19    1.88    0.51
   0   5  19    1.74    0.56
   0  -6 -19    0.45    0.50
   0  -6 -19    0.55    0.57
   0   6  19   -0.41    0.49
   0   6  19    0.46    0.46
   0  -7 -19    3.61    0.74
   0  -7 -19    3.72    0.69
   0   7  19    3.28    0.66
   0   7  19    2.53    0.65
   1   6 -19    2.81    0.68
  -1  -6  19    2.66    0.62
   1   5 -19   33.54    1.30
  -1  -5  19   32.36    1.23
   1   4 -19   28.60    1.19
  -1  -4  19   27.64    1.07
   1   3 -19   10.06    0.78
   1   3 -19   10.92    0.90
  -1  -3  19   10.33    0.72
   1   2 -19    3.52    0.59
   1   2 -19    3.07    0.61
  -1  -2  19    3.05    0.50
   1   1 -19   14.31    0.97
   1   1 -19   14.86    0.93
  -1  -1  19   14.74    0.71
   1   0 -19   21.49    1.07
   1   0 -19   19.79    1.00
   1  -1 -19   20.22    1.06
   1  -1 -19   21.35    0.83
   1  -1 -19   21.64    1.04
   1  -2 -19   15.20    1.00
   1  -2 -19   13.78    0.96
   1  -2 -19   15.21    0.79
   1  -3 -19    8.06    0.80
   1  -3 -19    7.26    0.82
   1  -3 -19    8.63    0.72
   1  -4 -19    6.91    0.72
   1  -4 -19    7.60    0.76
   1  -4 -19    5.17    0.71
  -1   4  19    6.75    0.63
   1  -5 -19    0.51    0.49
   1  -5 -19    0.19    0.51
   1  -5 -19    0.17    0.57
  -1   5  19    0.59    0.43
   1  -6 -19    1.45    0.54
   1  -6 -19    1.84    0.59
  -1   6  19    1.60    0.51
   1  -7 -19   14.93    1.03
   1  -7 -19   16.31    1.08
  -1   7  19   16.96    1.03
   2   6 -19   11.03    1.02
  -2  -6  19   10.09    0.91
   2   5 -19    0.32    0.58
  -2  -5  19    1.58    0.56
   2   4 -19    0.26    0.55
  -2  -4  19    0.68    0.48
   2   3 -19    2.11    0.56
   2   3 -19    2.68    0.59
  -2  -3  19    2.89    0.55
   2   2 -19    7.84    0.78
   2   2 -19    7.38    0.81
  -2  -2  19    7.85    0.68
   2   1 -19    7.53    0.76
   2   1 -19    7.00    0.76
  -2  -1  19    8.78    0.67
   2   0 -19   29.70    1.20
   2   0 -19   31.88    1.27
   2  -1 -19   16.03    1.03
   2  -1 -19   14.85    0.93
   2  -2 -19   29.85    1.30
   2  -2 -19   32.65    1.03
   2  -2 -19   32.59    1.29
   2  -3 -19    3.68    0.67
   2  -3 -19    2.44    0.70
   2  -3 -19    3.62    0.56
   2  -4 -19    7.36    0.84
   2  -4 -19    7.42    0.71
   2  -4 -19    7.01    0.78
   2  -5 -19   65.97    1.86
   2  -5 -19   61.09    1.87
   2  -5 -19   63.51    1.75
  -2   5  19   67.60    1.65
   2  -6 -19   16.23    1.07
   2  -6 -19   19.83    1.01
   2  -6 -19   20.11    1.11
  -2   6  19   21.17    0.98
   2  -7 -19    5.62    0.78
   2  -7 -19    4.41    0.76
  -2   7  19    4.40    0.64
   2  -8 -19    1.02    0.65
   2  -8 -19    1.11    0.60
  -2   8  19    1.07    0.54
   3   5 -19    9.32    0.95
  -3  -5  19    8.06    0.84
   3   4 -19    1.20    0.60
  -3  -4  19    0.28    0.49
   3   3 -19    0.81    0.58
   3   3 -19    1.68    0.59
  -3  -3  19    0.81    0.47
   3   2 -19   64.88    1.88
   3   2 -19   63.83    1.80
  -3  -2  19   69.45    1.69
   3   1 -19    7.69    0.81
   3   1 -19    7.04    0.82
  -3  -1  19    5.67    0.60
   3   0 -19   32.90    1.35
   3   0 -19   32.77    1.32
  -3   0  19   35.01    1.03
   3  -1 -19    3.18    0.69
   3  -1 -19    3.24    0.64
   3  -2 -19    9.36    0.89
   3  -2 -19    8.08    0.85
   3  -3 -19   33.92    1.39
   3  -3 -19   35.76    1.15
   3  -4 -19   10.71    0.88
   3  -4 -19   10.07    0.92
   3  -4 -19   10.61    0.79
   3  -5 -19    2.59    0.61
   3  -5 -19    2.21    0.67
   3  -5 -19    3.14    0.59
   3  -6 -19   -0.08    0.63
   3  -6 -19    0.84    0.57
   3  -6 -19    0.55    0.54
   3  -7 -19    2.87    0.65
   3  -7 -19    3.36    0.70
   3  -7 -19    2.77    0.78
  -3   7  19    2.44    0.56
   3  -8 -19    2.62    0.71
   3  -8 -19    2.70    0.71
  -3   8  19    3.66    0.66
   4   4 -19   19.37    1.18
  -4  -4  19   22.14    1.10
   4   3 -19    2.80    0.73
  -4  -3  19    4.03    0.63
   4   2 -19   20.70    1.16
   4   2 -19   20.60    1.14
  -4  -2  19   20.87    0.97
   4   1 -19    1.33    0.58
   4   1 -19   -0.08    0.50
  -4  -1  19    0.90    0.47
   4   0 -19    2.79    0.68
   4   0 -19    2.08    0.65
  -4   0  19    3.07    0.50
   4  -1 -19   11.63    0.93
   4  -1 -19    9.35    0.91
   4  -2 -19    8.45    0.87
   4  -2 -19    7.19    0.86
   4  -3 -19    6.82    0.85
   4  -3 -19    6.13    0.75
   4  -4 -19    3.04    0.74
   4  -4 -19    3.71    0.72
   4  -4 -19    3.08    0.56
   4  -5 -19   27.50    1.11
   4  -5 -19   28.99    1.26
   4  -5 -19   28.55    1.33
   4  -6 -19    0.07    0.51
   4  -6 -19    1.31    0.62
   4  -6 -19    1.14    0.68
   4  -7 -19    0.48    0.53
   4  -7 -19    0.90    0.60
   4  -7 -19   -0.38    0.64
   4  -8 -19   26.13    1.35
   4  -8 -19   23.38    1.27
   4  -8 -19   22.47    1.24
  -4   8  19   23.49    1.12
   5   3 -19    1.56    0.72
  -5  -3  19    1.52    0.60
   5   2 -19    4.82    0.80
   5   2 -19    3.29    0.78
  -5  -2  19    3.82    0.63
   5   1 -19    1.50    0.66
   5   1 -19    2.32    0.72
  -5  -1  19    1.20    0.53
   5   0 -19    0.05    0.62
   5   0 -19    0.72    0.61
  -5   0  19    1.39    0.47
   5  -1 -19   26.90    1.21
   5  -1 -19   26.30    1.29
   5  -2 -19    2.46    0.70
   5  -2 -19    2.97    0.71
   5  -3 -19   61.33    1.90
   5  -4 -19   -0.49    0.52
   5  -4 -19    0.45    0.60
   5  -5 -19    0.43    0.60
   5  -5 -19    1.39    0.61
   5  -6 -19   32.10    1.36
   5  -6 -19   33.77    1.47
   5  -7 -19   -0.04    0.72
   5  -7 -19    1.25    0.61
   5  -8 -19    9.86    0.98
   5  -8 -19    8.51    1.04
   6   2 -19   -0.43    0.69
   6   2 -19   -0.20    0.67
  -6  -2  19    0.36    0.53
   6   1 -19   14.09    1.15
   6   1 -19   14.75    1.14
   6   0 -19    0.83    0.66
   6   0 -19   -0.32    0.62
  -6   0  19    1.32    0.51
   6  -1 -19   32.15    1.45
   6  -1 -19   32.96    1.46
   6  -2 -19   -0.08    0.65
   6  -2 -19    0.86    0.68
   6  -3 -19    0.80    0.62
   6  -3 -19   -0.33    0.56
   6  -4 -19   20.62    1.21
   6  -4 -19   18.68    1.21
   6  -5 -19    0.48    0.60
   6  -5 -19    1.73    0.74
   6  -6 -19    0.41    0.60
   6  -6 -19   -0.03    0.63
   6  -7 -19    2.55    0.84
   6  -7 -19    2.86    0.78
   6  -8 -19   11.30    1.06
   6  -8 -19   10.19    1.08
   7   0 -19    3.14    0.79
   7   0 -19    1.86    0.83
  -7   0  19    4.18    0.67
   7  -1 -19    2.18    0.78
   7  -1 -19    2.07    0.81
  -7   1  19    2.24    0.61
   7  -2 -19    0.27    0.74
   7  -2 -19    1.42    0.70
   7  -3 -19    0.26    0.64
   7  -3 -19   -0.17    0.65
   7  -4 -19    3.12    0.81
   7  -4 -19    3.45    0.77
   7  -5 -19    3.05    0.75
   7  -5 -19    2.42    0.84
   7  -6 -19   15.10    1.17
   7  -6 -19   13.58    1.20
   7  -7 -19    4.20    0.85
   7  -7 -19    2.54    0.86
   8  -2 -19   10.60    1.09
   8  -2 -19   10.08    1.11
   8  -3 -19    8.85    1.07
   8  -3 -19    9.18    1.08
   8  -4 -19   18.73    1.30
   8  -5 -19    1.20    0.81
   8  -5 -19    1.21    0.72
   8  -6 -19    0.63    0.77
   8  -6 -19    1.20    0.80
   8  -4  20    7.10    0.77
  -7   6 -20    3.87    0.61
  -7   6 -20    3.60    0.60
   7  -6  20    3.01    0.66
   7  -6  20    3.09    0.64
  -7   5 -20    4.70    0.67
   7  -5  20    3.88    0.68
   7  -5  20    3.19    0.66
  -7   4 -20    2.43    0.57
   7  -4  20    1.20    0.55
   7  -4  20    1.57    0.52
  -7   3 -20   10.27    0.93
   7  -3  20   10.47    0.79
   7  -3  20   11.18    0.98
  -7   2 -20    2.57    0.64
   7  -2  20    2.72    0.65
   7  -2  20    2.53    0.61
  -7   1 -20    0.65    0.53
   7  -1  20    0.69    0.48
   7  -1  20    1.27    0.60
  -6   7 -20    0.99    0.55
   6  -7  20    0.06    0.51
  -6   6 -20    4.95    0.68
   6  -6  20    4.09    0.65
  -6   5 -20   -0.10    0.39
  -6   5 -20    0.01    0.45
   6  -5  20   -0.36    0.44
   6  -5  20    0.54    0.48
  -6   4 -20    7.28    0.73
  -6   4 -20    7.36    0.69
   6  -4  20    6.92    0.73
   6  -4  20    7.21    0.71
  -6   3 -20   10.06    0.78
   6  -3  20   11.35    0.90
   6  -3  20   11.54    0.79
  -6   2 -20   11.03    0.89
   6  -2  20   11.87    0.93
   6  -2  20   10.50    0.87
  -6   1 -20    5.34    0.76
   6  -1  20    5.42    0.69
   6  -1  20    6.62    0.77
  -6   0 -20    6.05    0.78
   6   0  20    6.06    0.80
   6   0  20    4.89    0.67
  -6  -1 -20    4.32    0.72
   6   1  20    3.68    0.72
   6   1  20    2.85    0.64
  -5   7 -20    2.19    0.60
   5  -7  20    2.58    0.61
  -5   6 -20    6.02    0.72
   5  -6  20    4.67    0.65
  -5   5 -20   12.67    0.88
   5  -5  20   11.72    0.82
  -5   4 -20   42.08    1.37
  -5   4 -20   44.07    1.38
   5  -4  20   40.85    1.35
   5  -4  20   44.76    1.36
   5  -4  20   41.79    1.35
  -5   3 -20   27.70    1.12
  -5   3 -20   28.39    1.10
   5  -3  20   25.84    1.10
   5  -3  20   26.98    1.09
  -5   2 -20    4.67    0.63
   5  -2  20    6.03    0.68
   5  -2  20    5.60    0.65
  -5   1 -20   12.19    0.84
   5  -1  20   14.19    0.91
   5  -1  20   14.36    0.91
  -5   0 -20   11.64    0.96
   5   0  20   11.18    0.87
   5   0  20   10.93    0.89
  -5  -1 -20   -0.03    0.47
   5   1  20    0.70    0.52
   5   1  20   -0.01    0.50
  -5  -2 -20    2.93    0.65
   5   2  20    3.72    0.71
   5   2  20    3.35    0.64
  -4   7 -20   11.15    0.88
   4  -7  20   10.10    0.86
  -4   6 -20   10.06    0.86
   4  -6  20    8.92    0.79
  -4   5 -20   13.56    0.92
   4  -5  20   12.53    0.85
  -4   4 -20    1.48    0.48
   4  -4  20    0.83    0.44
   4  -4  20    1.30    0.47
  -4   3 -20   21.23    1.01
  -4   3 -20   21.68    0.96
   4  -3  20   20.03    1.00
  -4   2 -20   11.33    0.80
  -4   2 -20   10.21    0.76
   4  -2  20   10.54    0.76
   4  -2  20   10.21    0.73
  -4   1 -20    1.42    0.49
   4  -1  20    0.72    0.48
   4  -1  20    0.75    0.43
  -4   0 -20    0.47    0.44
   4   0  20    0.51    0.44
   4   0  20    1.59    0.48
  -4  -1 -20   41.49    1.50
   4   1  20   43.26    1.45
   4   1  20   42.33    1.44
  -4  -2 -20    7.89    0.82
   4   2  20    8.37    0.82
   4   2  20    8.09    0.81
  -4  -3 -20    1.90    0.65
   4   3  20    1.73    0.58
   4   3  20    1.02    0.61
   4   4  20    8.27    0.87
  -3   7 -20    1.26    0.57
   3  -7  20    1.86    0.53
  -3   6 -20   10.81    0.89
   3  -6  20   11.75    0.84
  -3   5 -20    5.28    0.67
   3  -5  20    5.39    0.64
  -3   4 -20    0.59    0.42
  -3   4 -20    0.79    0.48
   3  -4  20    0.92    0.46
   3  -4  20    1.38    0.44
  -3   3 -20   15.79    0.92
   3  -3  20   17.22    0.93
   3  -3  20   17.59    0.82
  -3   2 -20    5.02    0.58
  -3   2 -20    5.44    0.65
   3  -2  20    4.28    0.63
  -3   1 -20   40.29    1.27
  -3   1 -20   40.44    1.28
   3  -1  20   39.42    1.23
   3  -1  20   40.01    1.35
  -3   0 -20   18.04    0.95
   3   0  20   16.06    0.97
   3   0  20   16.57    0.86
  -3  -1 -20   19.43    1.01
   3   1  20   17.59    0.99
   3   1  20   18.24    0.94
  -3  -2 -20   26.31    1.16
   3   2  20   28.52    1.17
   3   2  20   26.60    1.16
  -3  -3 -20    9.99    0.90
   3   3  20   12.01    0.92
   3   3  20   11.00    0.93
  -3  -4 -20   11.02    1.00
   3   4  20    9.25    0.89
   3   4  20    9.45    0.92
  -2   7 -20    4.00    0.69
   2  -7  20    2.37    0.61
  -2   6 -20    7.89    0.81
   2  -6  20    7.74    0.77
  -2   5 -20   25.76    1.16
   2  -5  20   27.02    1.09
  -2   4 -20   10.25    0.77
  -2   4 -20   11.59    0.86
   2  -4  20   11.58    0.74
  -2   3 -20   43.50    1.40
  -2   3 -20   40.91    1.38
   2  -3  20   42.43    1.35
   2  -3  20   41.63    1.22
  -2   2 -20    1.72    0.54
  -2   2 -20    1.46    0.50
   2  -2  20    0.49    0.50
  -2   1 -20    5.86    0.63
  -2   1 -20    5.49    0.57
   2  -1  20    4.83    0.63
  -2   0 -20    0.96    0.49
  -2   0 -20    1.02    0.43
   2   0  20    1.20    0.51
  -2  -1 -20    6.03    0.66
  -2  -1 -20    5.04    0.61
   2   1  20    4.44    0.64
   2   1  20    4.57    0.55
  -2  -2 -20   10.43    0.78
   2   2  20   10.88    0.82
   2   2  20   11.55    0.80
  -2  -3 -20    4.68    0.71
   2   3  20    4.56    0.65
   2   3  20    4.94    0.72
  -2  -4 -20   10.46    0.94
   2   4  20    9.40    0.85
   2   4  20    9.94    0.87
  -2  -5 -20    3.18    0.70
   2   5  20    2.81    0.66
   2   5  20    3.17    0.61
  -1   7 -20    3.14    0.68
   1  -7  20    3.64    0.67
  -1   6 -20    0.01    0.51
   1  -6  20   -0.07    0.48
  -1   5 -20   41.81    1.46
   1  -5  20   43.66    1.38
  -1   4 -20   19.01    1.04
   1  -4  20   19.63    0.92
  -1   3 -20    4.51    0.63
  -1   3 -20    3.99    0.65
   1  -3  20    5.42    0.57
  -1   2 -20    5.35    0.68
  -1   2 -20    3.75    0.61
  -1   1 -20   10.65    0.79
  -1   1 -20   10.77    0.85
   1  -1  20   10.08    0.81
  -1   0 -20   12.19    0.86
  -1   0 -20   11.81    0.77
  -1   0 -20   10.17    0.88
   1   0  20   10.13    0.85
  -1  -1 -20    5.01    0.65
  -1  -1 -20    4.50    0.66
  -1  -1 -20    5.65    0.61
   1   1  20    4.70    0.66
  -1  -2 -20   38.24    1.32
  -1  -2 -20   37.93    1.40
  -1  -2 -20   40.66    1.30
   1   2  20   39.88    1.25
   1   2  20   40.36    1.40
  -1  -3 -20    1.14    0.47
   1   3  20    1.05    0.43
   1   3  20    1.27    0.55
  -1  -4 -20   13.53    0.88
   1   4  20   13.72    0.89
   1   4  20   13.75    0.91
  -1  -5 -20    6.07    0.77
   1   5  20    6.94    0.77
   1   5  20    7.29    0.80
  -1  -6 -20    0.71    0.55
  -1  -6 -20    1.41    0.60
   1   6  20    0.79    0.57
   1   6  20    1.61    0.61
   0   6 -20    5.57    0.79
   0  -6  20    5.32    0.71
   0   5 -20   11.61    0.91
   0  -5  20   11.80    0.83
   0   4 -20    0.53    0.50
   0  -4  20    0.87    0.47
   0   3 -20   17.78    1.02
   0   3 -20   18.02    0.99
   0  -3  20   16.90    0.82
   0   2 -20    0.68    0.53
   0   2 -20    1.10    0.52
   0  -2  20    1.34    0.42
   0   1 -20   11.57    0.82
   0   1 -20   10.25    0.84
   0   0 -20  253.72    4.61
   0   0 -20  240.14    4.75
   0  -1 -20   11.91    0.94
   0  -1 -20   10.34    0.83
   0  -1 -20   11.51    0.76
   0  -2 -20    0.24    0.51
   0  -2 -20    0.27    0.52
   0  -2 -20    0.90    0.44
   0   2  20    1.09    0.57
   0  -3 -20   17.08    0.97
   0  -3 -20   15.20    1.02
   0  -3 -20   16.25    0.91
   0   3  20   15.22    0.83
   0   3  20   14.90    0.93
   0  -4 -20    0.47    0.50
   0  -4 -20    0.42    0.49
   0   4  20    0.64    0.55
   0   4  20    0.99    0.44
   0  -5 -20   10.28    0.91
   0  -5 -20   11.78    0.93
   0   5  20   12.71    0.86
   0   5  20    9.83    0.88
   0  -6 -20    4.95    0.74
   0  -6 -20    4.90    0.78
   0   6  20    4.79    0.70
   0   6  20    3.66    0.70
   1   6 -20    0.87    0.59
  -1  -6  20   -0.10    0.50
   1   5 -20    7.52    0.86
  -1  -5  20    6.36    0.72
   1   4 -20   14.73    0.98
  -1  -4  20   13.26    0.83
   1   3 -20    1.01    0.51
   1   3 -20    0.21    0.53
  -1  -3  20    0.32    0.42
   1   2 -20   39.43    1.37
   1   2 -20   41.80    1.44
  -1  -2  20   40.37    1.17
   1   1 -20    4.98    0.69
   1   1 -20    4.79    0.70
   1   0 -20   11.28    0.85
   1   0 -20    9.83    0.85
   1  -1 -20   10.08    0.86
   1  -1 -20    9.68    0.85
   1  -2 -20    5.24    0.71
   1  -2 -20    5.64    0.75
   1  -2 -20    6.08    0.61
   1  -3 -20    4.57    0.68
   1  -3 -20    5.62    0.63
   1  -3 -20    3.88    0.69
   1  -4 -20   21.72    1.14
   1  -4 -20   19.45    1.07
   1  -4 -20   19.88    1.01
   1  -5 -20   40.09    1.49
   1  -5 -20   42.81    1.46
   1  -5 -20   41.57    1.41
  -1   5  20   41.99    1.33
   1  -6 -20   -0.24    0.53
   1  -6 -20    1.12    0.55
  -1   6  20    0.98    0.50
   1  -7 -20    4.01    0.77
   1  -7 -20    2.24    0.64
  -1   7  20    3.21    0.66
   2   5 -20    1.95    0.68
  -2  -5  20    3.22    0.63
   2   4 -20   10.39    0.94
  -2  -4  20   10.59    0.80
   2   3 -20    4.68    0.72
   2   3 -20    5.84    0.68
  -2  -3  20    5.08    0.60
   2   2 -20   12.09    0.96
   2   2 -20   10.31    0.86
  -2  -2  20   11.37    0.76
   2   1 -20    5.18    0.74
   2   1 -20    5.25    0.72
  -2  -1  20    4.22    0.53
   2   0 -20    0.65    0.54
   2   0 -20    0.42    0.57
   2  -1 -20    5.11    0.74
   2  -1 -20    5.65    0.75
   2  -2 -20    0.71    0.53
   2  -2 -20    0.72    0.59
   2  -3 -20   38.05    1.43
   2  -3 -20   42.79    1.26
   2  -3 -20   37.42    1.47
   2  -4 -20   11.56    0.93
   2  -4 -20   10.65    0.82
   2  -4 -20   11.75    0.96
   2  -5 -20   26.56    1.29
   2  -5 -20   25.14    1.14
   2  -5 -20   26.31    1.26
   2  -6 -20    7.51    0.83
   2  -6 -20    6.85    0.85
   2  -6 -20    7.51    0.86
  -2   6  20    6.42    0.70
   2  -7 -20    3.81    0.69
   2  -7 -20    3.98    0.73
  -2   7  20    4.20    0.67
   3   4 -20    8.56    0.93
  -3  -4  20    9.78    0.85
   3   3 -20   11.18    0.93
   3   3 -20   11.48    1.00
  -3  -3  20   11.10    0.81
   3   2 -20   24.97    1.22
   3   2 -20   28.18    1.21
  -3  -2  20   26.33    1.03
   3   1 -20   16.98    1.04
   3   1 -20   17.81    1.09
  -3  -1  20   19.06    0.87
   3   0 -20   17.73    1.07
   3   0 -20   16.86    1.05
   3  -1 -20   36.19    1.42
   3  -1 -20   38.95    1.45
   3  -2 -20    5.39    0.76
   3  -2 -20    4.50    0.77
   3  -3 -20   16.73    1.11
   3  -3 -20   16.21    1.01
   3  -4 -20    0.38    0.44
   3  -4 -20   -0.16    0.49
   3  -4 -20    0.10    0.66
   3  -5 -20    4.71    0.79
   3  -5 -20    6.02    0.78
   3  -5 -20    6.55    0.71
   3  -6 -20   10.35    0.93
   3  -6 -20   10.21    0.81
   3  -6 -20   10.23    0.99
   3  -7 -20    0.90    0.61
   3  -7 -20    1.43    0.62
   3  -7 -20    2.38    0.76
   4   3 -20    2.01    0.71
  -4  -3  20    2.51    0.59
   4   2 -20    5.54    0.79
   4   2 -20    5.41    0.81
  -4  -2  20    5.95    0.66
   4   1 -20   36.81    1.41
   4   1 -20   42.16    1.50
  -4  -1  20   40.24    1.27
   4   0 -20    0.15    0.58
   4   0 -20    1.02    0.61
   4  -1 -20    0.08    0.54
   4  -1 -20    0.61    0.53
   4  -2 -20   10.62    0.90
   4  -2 -20    9.93    0.95
   4  -3 -20   20.09    1.18
   4  -3 -20   16.22    1.03
   4  -4 -20    1.55    0.68
   4  -4 -20    1.39    0.61
   4  -5 -20   13.96    0.91
   4  -5 -20   11.91    0.92
   4  -5 -20   13.46    1.06
   4  -6 -20   10.46    0.99
   4  -6 -20    9.25    0.98
   4  -6 -20   10.77    0.88
   4  -7 -20   11.46    1.06
   4  -7 -20    8.80    0.97
   4  -7 -20   10.97    0.93
   5   2 -20    2.86    0.75
   5   2 -20    4.21    0.82
  -5  -2  20    3.70    0.63
   5   1 -20    1.89    0.70
   5   1 -20    0.24    0.63
  -5  -1  20   -0.47    0.43
   5   0 -20   10.34    1.00
   5   0 -20   12.22    1.04
  -5   0  20   10.92    0.78
   5  -1 -20   12.52    0.96
   5  -1 -20   12.68    1.04
   5  -2 -20    6.07    0.82
   5  -2 -20    5.38    0.80
   5  -3 -20   25.91    1.33
   5  -3 -20   26.02    1.24
   5  -4 -20   37.40    1.53
   5  -4 -20   41.32    1.53
   5  -5 -20   11.89    1.01
   5  -5 -20   12.48    1.01
   5  -6 -20    6.93    0.88
   5  -6 -20    4.76    0.87
   5  -7 -20    1.21    0.79
   5  -7 -20    2.29    0.71
   6   1 -20    2.92    0.84
   6   1 -20    2.34    0.76
  -6  -1  20    2.76    0.61
   6   0 -20    5.73    0.88
   6   0 -20    5.55    0.90
  -6   0  20    5.24    0.67
   6  -1 -20    4.46    0.86
   6  -1 -20    6.11    0.87
   6  -2 -20    8.72    0.98
   6  -2 -20    9.38    1.00
   6  -3 -20    9.54    0.95
   6  -3 -20   10.93    1.06
   6  -4 -20    5.66    0.85
   6  -4 -20    5.38    0.88
   6  -5 -20   -0.07    0.70
   6  -5 -20    0.44    0.64
   6  -6 -20    4.71    0.89
   6  -6 -20    4.93    0.80
   6  -7 -20    0.88    0.79
   6  -7 -20    0.32    0.64
   7  -1 -20    0.06    0.67
   7  -1 -20    0.44    0.74
   7  -2 -20    2.49    0.85
   7  -2 -20    1.55    0.81
   7  -3 -20    9.33    1.02
   7  -3 -20   12.07    1.15
   7  -4 -20    1.20    0.74
   7  -4 -20    0.63    0.75
   7  -5 -20    3.82    0.79
   7  -5 -20    3.29    0.88
   7  -6 -20    3.88    0.90
   7  -6 -20    2.96    0.82
  -7   5 -21    4.90    0.71
   7  -5  21    5.27    0.76
  -7   4 -21    4.52    0.69
   7  -4  21    3.52    0.62
   7  -4  21    3.60    0.67
  -7   3 -21    0.90    0.50
   7  -3  21    0.46    0.52
   7  -3  21    0.50    0.50
  -7   2 -21    1.00    0.54
   7  -2  21    1.35    0.52
   7  -2  21    0.67    0.56
  -6   6 -21    1.08    0.52
   6  -6  21    1.29    0.55
  -6   5 -21    1.66    0.50
  -6   5 -21    0.42    0.48
   6  -5  21    0.99    0.50
  -6   4 -21   18.09    0.97
   6  -4  21   15.11    0.97
   6  -4  21   17.38    0.97
  -6   3 -21    0.80    0.48
   6  -3  21    0.74    0.50
   6  -3  21    1.75    0.53
  -6   2 -21   -0.11    0.46
   6  -2  21   -0.03    0.49
   6  -2  21    0.85    0.52
  -6   1 -21   26.26    1.25
   6  -1  21   23.13    1.10
   6  -1  21   22.88    1.19
  -6   0 -21    3.39    0.69
   6   0  21    2.63    0.67
   6   0  21    1.56    0.54
  -5   7 -21    1.35    0.56
   5  -7  21    0.99    0.54
  -5   6 -21   24.91    1.13
  -5   5 -21    0.96    0.48
   5  -5  21    0.86    0.48
  -5   4 -21    1.18    0.51
  -5   4 -21    1.27    0.46
   5  -4  21    1.49    0.49
  -5   3 -21   54.25    1.53
  -5   3 -21   52.78    1.57
   5  -3  21   52.61    1.59
   5  -3  21   51.86    1.59
  -5   2 -21    3.05    0.56
   5  -2  21    3.05    0.58
   5  -2  21    3.43    0.61
  -5   1 -21   11.85    0.90
   5  -1  21   12.88    0.90
   5  -1  21   11.61    0.82
  -5   0 -21    1.22    0.55
   5   0  21    0.35    0.50
   5   0  21    1.07    0.55
  -5  -1 -21    0.30    0.55
   5   1  21    0.95    0.53
   5   1  21    0.39    0.53
  -5  -2 -21    5.52    0.78
   5   2  21    5.58    0.73
   5   2  21    6.26    0.80
  -4   7 -21    1.61    0.56
   4  -7  21    0.82    0.53
  -4   6 -21    0.89    0.51
   4  -6  21    0.90    0.51
  -4   5 -21   11.32    0.86
   4  -5  21   11.30    0.80
  -4   4 -21    0.65    0.47
   4  -4  21   -0.37    0.41
   4  -4  21    0.06    0.43
  -4   3 -21   10.17    0.78
  -4   3 -21   10.01    0.75
   4  -3  21   10.93    0.84
  -4   2 -21    1.53    0.50
  -4   2 -21    1.10    0.45
   4  -2  21    0.32    0.45
  -4   1 -21    9.61    0.80
   4  -1  21    9.17    0.82
   4  -1  21   10.72    0.78
  -4   0 -21    0.62    0.45
   4   0  21    0.29    0.45
   4   0  21    0.48    0.46
  -4  -1 -21    0.36    0.48
   4   1  21    0.69    0.48
   4   1  21    1.24    0.51
  -4  -2 -21   15.77    1.04
   4   2  21   15.22    0.95
   4   2  21   16.34    1.04
  -4  -3 -21    4.98    0.79
   4   3  21    3.45    0.65
   4   3  21    5.23    0.76
  -3   7 -21    3.89    0.68
   3  -7  21    3.89    0.67
  -3   6 -21    0.80    0.53
   3  -6  21    0.75    0.50
  -3   5 -21    2.66    0.58
   3  -5  21    2.38    0.53
  -3   4 -21   10.95    0.87
  -3   4 -21    9.39    0.72
   3  -4  21   10.00    0.75
  -3   3 -21   26.53    1.12
  -3   3 -21   26.20    1.11
   3  -3  21   26.76    1.11
  -3   2 -21    4.83    0.65
  -3   2 -21    4.38    0.56
   3  -2  21    5.76    0.67
  -3   1 -21    5.59    0.61
  -3   1 -21    3.84    0.58
   3  -1  21    4.09    0.65
  -3   0 -21   26.34    1.12
   3   0  21   27.08    1.08
   3   0  21   27.08    1.16
  -3  -1 -21    9.79    0.83
   3   1  21   10.70    0.83
   3   1  21   10.10    0.81
  -3  -2 -21   51.69    1.68
   3   2  21   55.00    1.67
   3   2  21   52.93    1.70
  -3  -3 -21    1.67    0.55
   3   3  21    1.64    0.57
   3   3  21    2.19    0.61
  -3  -4 -21    2.01    0.66
   3   4  21    0.69    0.52
   3   4  21    0.28    0.53
  -2   7 -21    4.67    0.69
   2  -7  21    5.44    0.74
  -2   6 -21   16.48    1.01
   2  -6  21   17.21    0.99
  -2   5 -21   48.16    1.56
   2  -5  21   54.88    1.55
  -2   4 -21    0.72    0.46
  -2   4 -21    1.23    0.54
   2  -4  21    1.66    0.46
  -2   3 -21    3.59    0.64
  -2   3 -21    5.26    0.63
  -2   2 -21   33.68    1.27
  -2   2 -21   32.92    1.22
   2  -2  21   32.51    1.24
  -2   1 -21    1.51    0.50
  -2   1 -21    1.19    0.40
  -2   1 -21    0.43    0.46
   2  -1  21    0.76    0.49
  -2   0 -21   33.75    1.17
  -2   0 -21   35.75    1.24
   2   0  21   33.14    1.30
  -2  -1 -21    4.04    0.60
   2   1  21    3.80    0.63
  -2  -2 -21    1.67    0.52
   2   2  21    1.17    0.51
   2   2  21    1.28    0.47
  -2  -3 -21    1.84    0.59
   2   3  21    2.97    0.58
   2   3  21    2.65    0.63
  -2  -4 -21    0.77    0.51
   2   4  21    0.42    0.49
   2   4  21    1.23    0.56
  -2  -5 -21    1.32    0.59
   2   5  21    0.79    0.59
   2   5  21    1.40    0.57
  -1   6 -21    0.76    0.55
   1  -6  21    0.76    0.51
  -1   5 -21    1.88    0.59
   1  -5  21    0.56    0.49
  -1   4 -21   11.16    0.92
   1  -4  21    9.96    0.74
  -1   3 -21    3.81    0.65
  -1   3 -21    5.34    0.65
   1  -3  21    4.47    0.56
  -1   2 -21    0.73    0.50
  -1   2 -21    0.68    0.54
  -1   1 -21   34.29    1.31
  -1   1 -21   33.64    1.26
  -1   0 -21   34.07    1.29
  -1   0 -21   33.49    1.24
  -1   0 -21   36.38    1.15
   1   0  21   33.68    1.27
  -1  -1 -21    0.74    0.46
  -1  -1 -21    0.69    0.50
  -1  -1 -21    1.53    0.56
   1   1  21    1.03    0.55
  -1  -2 -21    3.97    0.66
  -1  -2 -21    4.16    0.63
  -1  -2 -21    4.61    0.62
   1   2  21    3.94    0.65
  -1  -3 -21    9.65    0.84
  -1  -3 -21    9.02    0.85
   1   3  21    9.08    0.76
   1   3  21    9.01    0.83
  -1  -4 -21   10.19    0.95
  -1  -4 -21   11.61    0.91
   1   4  21   10.92    0.94
   1   4  21   12.06    0.85
  -1  -5 -21   22.48    1.20
  -1  -5 -21   22.65    1.22
   1   5  21   23.25    1.17
   1   5  21   24.29    1.15
   0   6 -21    1.39    0.64
   0  -6  21    1.11    0.56
   0   5 -21    0.85    0.57
   0  -5  21    0.80    0.50
   0   4 -21    0.43    0.52
   0  -4  21    0.61    0.45
   0   3 -21   25.89    1.18
   0   3 -21   24.77    1.09
   0  -3  21   25.96    0.98
   0   2 -21   34.19    1.28
   0   2 -21   33.21    1.29
   0   1 -21   35.21    1.33
   0   1 -21   33.74    1.30
   0  -1 -21   33.44    1.26
   0  -1 -21   33.43    1.11
   0  -1 -21   34.05    1.36
   0  -2 -21   34.65    1.32
   0  -2 -21   33.50    1.37
   0  -2 -21   34.49    1.17
   0  -3 -21   27.74    1.19
   0  -3 -21   26.44    1.09
   0  -3 -21   24.76    1.17
   0   3  21   25.38    1.16
   0  -4 -21   -0.67    0.46
   0  -4 -21    0.61    0.54
   0   4  21    0.31    0.55
   0   4  21    0.79    0.44
   0  -5 -21    1.96    0.60
   0  -5 -21    1.37    0.57
   0   5  21    0.76    0.48
   0   5  21    0.37    0.58
   0  -6 -21    2.25    0.61
   0  -6 -21    0.78    0.61
   0   6  21    1.37    0.61
   0   6  21    2.11    0.58
   1   5 -21   22.88    1.21
  -1  -5  21   25.21    1.12
   1   4 -21   10.81    0.96
  -1  -4  21   10.70    0.78
   1   3 -21    9.25    0.78
   1   3 -21   11.69    0.94
  -1  -3  21   10.88    0.77
   1   2 -21    4.00    0.67
   1   2 -21    5.73    0.69
  -1  -2  21    4.64    0.56
   1   1 -21    0.38    0.53
   1   1 -21    1.79    0.59
   1   0 -21   29.86    1.26
   1   0 -21   30.11    1.24
   1  -1 -21   33.60    1.38
   1  -1 -21   33.66    1.31
   1  -2 -21    1.14    0.59
   1  -2 -21    1.63    0.58
   1  -2 -21    0.77    0.43
   1  -3 -21    5.66    0.63
   1  -3 -21    4.31    0.67
   1  -3 -21    4.63    0.71
   1  -4 -21    9.25    0.84
   1  -4 -21   10.23    0.83
   1  -4 -21    9.39    0.91
   1  -5 -21    0.78    0.49
   1  -5 -21    1.53    0.59
   1  -6 -21    0.66    0.59
   1  -6 -21    1.78    0.63
  -1   6  21    0.90    0.50
   2   5 -21    1.48    0.65
  -2  -5  21    1.69    0.56
   2   4 -21    0.81    0.59
  -2  -4  21    0.68    0.50
   2   3 -21    2.25    0.65
   2   3 -21    3.46    0.63
  -2  -3  21    2.51    0.52
   2   2 -21    2.16    0.61
   2   2 -21    1.79    0.60
  -2  -2  21    1.50    0.45
   2   1 -21    4.78    0.73
   2   1 -21    4.33    0.70
   2   0 -21   34.86    1.29
   2   0 -21   32.80    1.35
   2  -1 -21    0.44    0.52
   2  -1 -21    1.17    0.56
   2  -2 -21   32.29    1.32
   2  -2 -21   34.57    1.35
   2  -3 -21    5.30    0.61
   2  -3 -21    4.41    0.73
   2  -3 -21    4.88    0.73
   2  -4 -21    0.91    0.62
   2  -4 -21    2.37    0.54
   2  -4 -21    1.92    0.62
   2  -5 -21   49.88    1.75
   2  -5 -21   51.45    1.65
   2  -5 -21   51.85    1.59
   2  -6 -21   14.64    0.94
   2  -6 -21   16.58    1.20
   2  -6 -21   16.07    1.10
   2  -7 -21    5.88    0.83
   2  -7 -21    4.74    0.76
  -2   7  21    6.56    0.74
   3   4 -21    0.41    0.62
  -3  -4  21    1.20    0.57
   3   3 -21    1.47    0.63
  -3  -3  21    2.00    0.56
   3   2 -21   50.74    1.62
   3   2 -21   51.62    1.71
  -3  -2  21   52.61    1.49
   3   1 -21    9.25    0.90
   3   1 -21    9.72    0.86
   3   0 -21   22.84    1.19
   3   0 -21   26.77    1.22
   3  -1 -21    3.79    0.71
   3  -1 -21    4.24    0.74
   3  -2 -21    4.61    0.70
   3  -2 -21    4.09    0.74
   3  -3 -21   25.45    1.26
   3  -3 -21   27.01    1.27
   3  -4 -21    8.06    0.84
   3  -4 -21    9.74    0.76
   3  -4 -21    9.87    0.94
   3  -5 -21    2.07    0.58
   3  -5 -21    2.89    0.64
   3  -5 -21    2.67    0.73
   3  -6 -21    1.77    0.59
   3  -6 -21    2.05    0.65
   3  -6 -21    0.04    0.68
   3  -7 -21    4.32    0.75
   3  -7 -21    3.49    0.72
   3  -7 -21    2.91    0.78
   4   3 -21    3.54    0.78
  -4  -3  21    3.79    0.64
   4   2 -21   17.65    1.14
   4   2 -21   14.53    1.09
  -4  -2  21   15.96    0.93
   4   1 -21    1.37    0.65
   4   1 -21    0.24    0.61
  -4  -1  21    1.51    0.48
   4   0 -21    0.74    0.55
   4   0 -21    0.19    0.60
   4  -1 -21    9.08    0.90
   4  -1 -21    8.95    0.91
   4  -2 -21    1.08    0.62
   4  -2 -21    1.63    0.67
   4  -3 -21    9.86    0.91
   4  -3 -21    9.30    0.95
   4  -4 -21    0.92    0.67
   4  -4 -21   -0.04    0.57
   4  -5 -21   11.30    0.83
   4  -5 -21   10.40    1.01
   4  -5 -21   13.36    0.97
   4  -6 -21   -0.18    0.51
   4  -6 -21    0.12    0.71
   4  -6 -21    1.15    0.60
   4  -7 -21    0.28    0.58
   4  -7 -21    1.31    0.60
   4  -7 -21    0.53    0.73
   5   2 -21    5.46    0.87
   5   2 -21    4.50    0.82
  -5  -2  21    5.47    0.71
   5   1 -21    0.58    0.66
   5   1 -21    0.27    0.68
  -5  -1  21    0.51    0.48
   5   0 -21    0.30    0.66
   5   0 -21    1.63    0.71
   5  -1 -21   11.41    1.04
   5  -1 -21   10.92    0.97
   5  -2 -21    2.90    0.70
   5  -2 -21    1.99    0.70
   5  -3 -21   47.73    1.71
   5  -3 -21   48.18    1.68
   5  -4 -21    1.16    0.72
   5  -4 -21   -0.17    0.56
   5  -5 -21    0.74    0.59
   5  -5 -21   -0.18    0.68
   5  -6 -21   22.79    1.34
   5  -6 -21   23.57    1.29
   5  -7 -21    0.71    0.79
   5  -7 -21    0.64    0.65
   6   0 -21    1.22    0.71
   6   0 -21    1.94    0.77
   6  -1 -21   23.27    1.35
   6  -1 -21   21.20    1.29
   6  -2 -21    0.86    0.70
   6  -2 -21    0.11    0.70
   6  -3 -21    1.36    0.73
   6  -3 -21    0.10    0.62
   6  -4 -21   14.43    1.16
   6  -4 -21   13.97    1.06
   6  -5 -21    0.68    0.63
   6  -5 -21    0.67    0.73
   6  -6 -21    1.96    0.75
   6  -6 -21    2.52    0.84
   7  -2 -21    0.12    0.69
   7  -2 -21    0.21    0.78
   7  -3 -21    1.23    0.71
   7  -3 -21    0.72    0.76
   7  -4 -21    3.68    0.88
   7  -4 -21    2.38    0.85
   7  -5 -21    5.60    0.89
   7  -5 -21    3.92    0.90
  -6   6 -22    3.62    0.62
   6  -6  22    2.55    0.61
  -6   5 -22    1.72    0.55
  -6   4 -22    4.52    0.64
   6  -4  22    3.41    0.62
  -6   3 -22   10.02    0.86
   6  -3  22   11.69    0.93
   6  -3  22   10.72    0.87
  -6   2 -22   10.55    0.84
   6  -2  22   10.65    0.93
   6  -2  22    9.71    0.85
  -6   1 -22    8.69    0.90
   6  -1  22    6.86    0.81
   6  -1  22    8.05    0.83
   6   0  22    3.91    0.69
   6   0  22    3.99    0.72
  -5   6 -22    7.16    0.79
   5  -6  22    6.76    0.74
  -5   5 -22   15.22    0.93
  -5   4 -22   14.71    0.89
   5  -4  22   15.90    0.96
  -5   3 -22   13.25    0.89
   5  -3  22   11.17    0.90
  -5   2 -22    7.66    0.78
   5  -2  22    8.11    0.79
   5  -2  22    8.14    0.78
  -5   1 -22    4.88    0.68
   5  -1  22    4.68    0.67
   5  -1  22    5.28    0.69
  -5   0 -22   14.22    1.00
   5   0  22   14.78    0.99
   5   0  22   15.61    1.01
  -5  -1 -22    0.49    0.52
   5   1  22    0.35    0.52
   5   1  22    0.58    0.50
  -4   6 -22   10.33    0.93
   4  -6  22   10.67    0.83
  -4   5 -22    6.09    0.74
   4  -5  22    5.03    0.65
  -4   4 -22    0.82    0.51
   4  -4  22    0.69    0.48
  -4   3 -22    6.93    0.70
   4  -3  22    5.89    0.71
  -4   2 -22    4.80    0.63
  -4   2 -22    5.78    0.65
   4  -2  22    4.98    0.66
  -4   1 -22    1.17    0.50
   4  -1  22    1.38    0.51
  -4   0 -22    0.98    0.51
   4   0  22    0.13    0.49
   4   0  22    0.00    0.50
  -4  -1 -22   14.74    0.99
   4   1  22   13.63    0.97
   4   1  22   15.84    0.98
  -4  -2 -22    4.05    0.73
   4   2  22    4.48    0.73
   4   2  22    5.84    0.75
  -3   6 -22   12.05    0.92
   3  -6  22   11.63    0.86
  -3   5 -22    8.38    0.83
   3  -5  22    8.27    0.75
  -3   4 -22    1.82    0.57
  -3   4 -22    1.72    0.49
  -3   3 -22    7.91    0.78
  -3   3 -22    9.68    0.79
   3  -3  22   10.32    0.84
  -3   2 -22    2.78    0.56
   3  -2  22    2.31    0.57
  -3   1 -22   58.52    1.57
  -3   1 -22   57.85    1.61
   3  -1  22   56.55    1.73
  -3   0 -22    8.91    0.78
   3   0  22    9.78    0.86
  -3  -1 -22    7.81    0.77
   3   1  22    7.04    0.80
   3   1  22    6.58    0.70
  -3  -2 -22   11.76    0.93
   3   2  22   12.78    0.90
   3   2  22   10.18    0.92
  -3  -3 -22   11.59    0.98
   3   3  22    9.97    0.90
   3   3  22   10.88    0.88
  -2   6 -22    3.55    0.69
   2  -6  22    2.73    0.62
  -2   5 -22   12.05    0.92
   2  -5  22   12.08    0.83
  -2   4 -22    5.42    0.71
   2  -4  22    5.24    0.61
  -2   3 -22   53.08    1.60
  -2   3 -22   53.52    1.66
  -2   2 -22   16.22    0.95
  -2   2 -22   15.98    1.01
   2  -2  22   14.99    0.96
  -2   1 -22    0.74    0.46
  -2   1 -22    1.25    0.51
   2  -1  22    1.30    0.50
  -2   0 -22   15.66    0.89
  -2   0 -22   15.98    0.95
   2   0  22   15.27    0.98
  -2  -1 -22    1.41    0.49
   2   1  22    2.21    0.56
  -2  -2 -22    5.65    0.70
   2   2  22    5.18    0.69
  -2  -3 -22    8.73    0.87
   2   3  22    7.39    0.84
   2   3  22    8.07    0.78
  -2  -4 -22   10.60    0.97
   2   4  22   10.90    0.89
   2   4  22   11.54    0.94
  -1   6 -22    0.65    0.57
   1  -6  22   -0.02    0.53
  -1   5 -22   14.89    0.99
   1  -5  22   12.85    0.86
  -1   4 -22    6.62    0.78
   1  -4  22    6.10    0.66
  -1   3 -22    2.12    0.60
  -1   3 -22    1.72    0.52
  -1   2 -22    0.86    0.52
  -1   2 -22    0.10    0.47
  -1   1 -22    1.90    0.55
  -1   1 -22    1.52    0.53
  -1   0 -22    2.03    0.58
  -1   0 -22    3.43    0.61
   1   0  22    2.16    0.59
  -1  -1 -22    1.06    0.45
  -1  -1 -22    0.70    0.54
  -1  -1 -22    0.36    0.47
   1   1  22    0.33    0.49
  -1  -2 -22   54.00    1.77
  -1  -2 -22   55.66    1.58
   1   2  22   53.88    1.72
  -1  -3 -22    1.83    0.55
  -1  -3 -22    1.70    0.59
   1   3  22    1.16    0.57
  -1  -4 -22    5.80    0.75
  -1  -4 -22    5.36    0.74
   1   4  22    5.49    0.69
   1   4  22    4.73    0.72
  -1  -5 -22    8.65    0.92
  -1  -5 -22    8.39    0.91
   1   5  22    8.92    0.92
   1   5  22    8.91    0.85
   0   6 -22    3.71    0.73
   0  -6  22    3.33    0.63
   0   5 -22   14.41    1.01
   0  -5  22   15.77    0.92
   0   4 -22    0.54    0.54
   0  -4  22    0.90    0.48
   0   3 -22    9.99    0.81
   0   3 -22    7.81    0.83
   0   2 -22   15.47    0.94
   0   2 -22   15.43    0.98
   0   1 -22    1.87    0.57
   0   1 -22    1.46    0.51
   0   0 -22   65.81    1.82
   0   0 -22   67.69    1.91
   0  -1 -22    2.02    0.58
   0  -1 -22    1.97    0.57
   0  -2 -22   16.61    1.04
   0  -2 -22   17.68    0.91
   0  -2 -22   15.48    0.97
   0  -3 -22    8.31    0.83
   0  -3 -22    7.28    0.79
   0  -3 -22    9.57    0.80
   0   3  22    6.39    0.77
   0  -4 -22    0.60    0.54
   0  -4 -22    1.20    0.54
   0   4  22   -0.77    0.54
   0  -5 -22   13.12    0.93
   0  -5 -22   14.82    1.05
   0   5  22   15.71    0.94
   0   5  22   12.84    1.05
   0  -6 -22    4.30    0.71
   0   6  22    1.48    0.57
   0   6  22    2.48    0.69
   1   5 -22    7.23    0.85
  -1  -5  22    7.66    0.78
   1   4 -22    4.93    0.75
  -1  -4  22    6.09    0.69
   1   3 -22    1.53    0.54
   1   3 -22    1.95    0.61
  -1  -3  22    2.08    0.49
   1   2 -22   53.34    1.68
   1   2 -22   52.94    1.62
   1   1 -22    1.10    0.56
   1   1 -22    0.78    0.56
   1   0 -22    2.43    0.62
   1   0 -22    1.66    0.59
   1  -1 -22    1.43    0.54
   1  -1 -22    2.03    0.61
   1  -2 -22    0.94    0.52
   1  -2 -22    0.64    0.56
   1  -3 -22    2.62    0.63
   1  -3 -22    2.32    0.65
   1  -3 -22    2.95    0.52
   1  -4 -22    5.09    0.77
   1  -4 -22    5.73    0.75
   1  -4 -22    8.62    0.79
   1  -5 -22   12.70    0.95
   1  -5 -22   12.64    0.86
   1  -6 -22    0.62    0.54
   1  -6 -22    0.27    0.60
   2   4 -22    8.91    0.95
  -2  -4  22   10.67    0.81
   2   3 -22   11.29    0.91
   2   3 -22    8.58    0.91
  -2  -3  22    7.27    0.71
   2   2 -22    5.74    0.78
   2   2 -22    5.28    0.72
   2   1 -22    2.71    0.64
   2   1 -22    2.24    0.64
   2   0 -22   15.22    1.02
   2   0 -22   15.31    0.96
   2  -1 -22    0.64    0.57
   2  -1 -22    0.45    0.57
   2  -2 -22   12.33    0.91
   2  -2 -22   15.08    1.04
   2  -3 -22   53.54    1.78
   2  -3 -22   54.93    1.70
   2  -4 -22    4.75    0.75
   2  -4 -22    3.14    0.72
   2  -4 -22    4.82    0.64
   2  -5 -22   10.45    0.99
   2  -5 -22    9.51    0.86
   2  -5 -22   14.19    1.04
   2  -6 -22    4.43    0.74
   2  -6 -22    2.96    0.69
   3   3 -22   10.69    0.99
  -3  -3  22   10.66    0.82
   3   2 -22   11.51    0.95
   3   2 -22    9.86    0.96
   3   1 -22    7.26    0.86
   3   1 -22    7.87    0.86
   3   0 -22    9.46    0.88
   3   0 -22    7.52    0.85
   3  -1 -22   52.05    1.71
   3  -1 -22   54.66    1.74
   3  -2 -22    1.72    0.66
   3  -2 -22    2.15    0.60
   3  -3 -22    7.63    0.87
   3  -3 -22    8.30    0.85
   3  -4 -22    0.76    0.66
   3  -4 -22    2.33    0.65
   3  -5 -22    8.23    0.87
   3  -5 -22    8.45    0.95
   3  -5 -22    8.17    0.79
   3  -6 -22   12.55    1.07
   3  -6 -22   13.05    1.04
   3  -6 -22   11.04    0.85
   4   2 -22    4.02    0.79
   4   2 -22    4.23    0.82
  -4  -2  22    4.05    0.62
   4   1 -22   13.57    1.10
   4   1 -22   12.81    1.04
   4   0 -22    1.06    0.66
   4   0 -22   -0.49    0.60
   4  -1 -22    0.94    0.63
   4  -1 -22    0.71    0.62
   4  -2 -22    5.97    0.83
   4  -2 -22    3.54    0.77
   4  -3 -22    4.81    0.76
   4  -3 -22    6.38    0.88
   4  -4 -22   -0.43    0.58
   4  -4 -22   -0.47    0.66
   4  -5 -22    5.39    0.87
   4  -5 -22    5.04    0.81
   4  -6 -22   11.14    1.07
   4  -6 -22   10.54    1.01
   4  -6 -22   10.63    0.90
   5   1 -22    0.66    0.72
   5   1 -22    0.67    0.69
   5   0 -22   13.60    1.10
   5   0 -22   14.25    1.15
   5  -1 -22    5.23    0.84
   5  -1 -22    3.53    0.79
   5  -2 -22    8.12    0.96
   5  -2 -22    8.88    0.96
   5  -3 -22   10.35    1.00
   5  -3 -22   12.42    1.08
   5  -4 -22   13.90    1.14
   5  -4 -22   14.77    1.19
   5  -5 -22   12.56    1.00
   5  -5 -22   14.82    1.20
   5  -6 -22    6.35    0.89
   5  -6 -22    7.23    0.99
   6   0 -22    4.67    0.89
   6   0 -22    2.93    0.82
   6  -1 -22    6.66    0.94
   6  -1 -22    8.35    1.02
   6  -2 -22    9.82    1.06
   6  -2 -22    9.23    1.04
   6  -3 -22   10.60    1.08
   6  -3 -22   10.69    1.06
   6  -4 -22    3.66    0.88
   6  -4 -22    4.17    0.84
   6  -5 -22    0.76    0.78
   6  -5 -22    0.93    0.70
   6  -6 -22    3.06    0.88
   6  -6 -22    3.20    0.81
   6  -4  23   10.61    0.89
  -6   3 -23    0.28    0.47
   6  -3  23    0.77    0.50
  -6   2 -23    1.28    0.56
   6  -2  23    0.74    0.50
   6  -2  23    0.75    0.56
  -5   5 -23    0.87    0.51
  -5   4 -23    0.95    0.52
   5  -4  23    0.73    0.54
   5  -3  23   28.95    1.26
  -5   2 -23    1.62    0.52
   5  -2  23    0.51    0.53
  -5   1 -23   17.60    1.04
   5  -1  23   18.75    1.07
   5  -1  23   16.67    1.00
  -5   0 -23    0.81    0.56
   5   0  23    1.24    0.52
   5   0  23    0.79    0.53
  -4   6 -23    0.33    0.56
   4  -6  23    1.27    0.54
  -4   5 -23   17.86    1.04
  -4   4 -23    0.04    0.52
  -4   4 -23    1.32    0.49
  -4   3 -23    3.32    0.59
   4  -3  23    2.94    0.61
   4  -2  23    2.81    0.64
  -4   1 -23    9.63    0.83
   4  -1  23    7.90    0.83
  -4   0 -23    1.61    0.55
   4   0  23    0.54    0.53
  -4  -1 -23    0.15    0.51
   4   1  23    1.60    0.52
   4   1  23    1.33    0.55
  -4  -2 -23   11.67    1.00
   4   2  23    9.14    0.89
   4   2  23   10.39    0.93
  -3   6 -23    0.66    0.57
   3  -6  23   -0.45    0.46
  -3   5 -23    0.86    0.56
   3  -5  23    1.42    0.53
  -3   4 -23    8.83    0.85
  -3   3 -23   33.98    1.31
  -3   3 -23   35.88    1.36
   3  -3  23   32.57    1.29
  -3   2 -23    1.28    0.54
   3  -2  23    1.96    0.57
  -3   1 -23    0.67    0.48
   3  -1  23    1.21    0.56
  -3   0 -23   32.24    1.23
   3   0  23   30.73    1.28
  -3  -1 -23    3.79    0.63
   3   1  23    3.84    0.66
  -3  -2 -23   25.02    1.15
   3   2  23   25.40    1.15
   3   2  23   24.88    1.20
  -3  -3 -23   -0.21    0.49
   3   3  23    0.10    0.50
   3   3  23    0.11    0.52
  -2   6 -23    9.11    0.92
   2  -6  23    9.58    0.85
  -2   5 -23   25.28    1.21
   2  -5  23   25.82    1.12
  -2   4 -23    3.03    0.65
  -2   3 -23    1.44    0.56
  -2   2 -23   22.38    1.08
  -2   2 -23   22.12    1.09
   2  -2  23   21.03    1.11
  -2   1 -23    4.53    0.63
  -2   1 -23    2.64    0.57
   2  -1  23    3.30    0.62
  -2   0 -23   20.81    1.12
  -2   0 -23   23.54    1.00
  -2   0 -23   22.42    1.02
   2   0  23   22.55    1.13
  -2  -1 -23    1.04    0.48
   2   1  23    0.82    0.52
  -2  -2 -23    4.37    0.64
   2   2  23    2.29    0.58
  -2  -3 -23    0.89    0.55
   2   3  23    1.19    0.58
  -2  -4 -23    1.20    0.60
   2   4  23    2.19    0.64
   2   4  23    2.11    0.58
  -1   5 -23    0.75    0.59
   1  -5  23    1.50    0.55
  -1   4 -23    3.09    0.66
  -1   3 -23    1.26    0.58
  -1   3 -23    1.72    0.56
  -1   2 -23    3.63    0.64
  -1   2 -23    4.32    0.68
  -1   1 -23   15.41    0.95
  -1   1 -23   13.81    0.95
  -1   0 -23   13.42    0.90
  -1   0 -23   13.68    0.99
   1   0  23   12.52    0.91
  -1  -1 -23    3.30    0.62
  -1  -1 -23    3.38    0.61
  -1  -1 -23    4.81    0.59
   1   1  23    3.29    0.66
  -1  -2 -23    1.55    0.50
  -1  -2 -23    1.01    0.51
   1   2  23    1.65    0.56
  -1  -3 -23    7.66    0.79
  -1  -3 -23    7.93    0.85
   1   3  23    7.34    0.81
  -1  -4 -23   15.52    1.08
  -1  -4 -23   15.71    1.01
   1   4  23   15.48    1.08
   0   5 -23    1.49    0.62
   0  -5  23    0.87    0.51
   0   4 -23    0.84    0.60
   0  -4  23    1.61    0.51
   0   3 -23   34.48    1.37
   0   3 -23   34.99    1.34
   0   2 -23   21.39    1.08
   0   2 -23   22.10    1.13
   0   1 -23   14.63    0.97
   0   1 -23   12.82    0.93
   0  -1 -23   13.34    0.96
   0  -1 -23   12.39    0.91
   0  -2 -23   22.07    1.09
   0  -2 -23   20.11    1.14
   0  -2 -23   21.56    0.99
   0  -3 -23   29.51    1.33
   0  -3 -23   33.89    1.24
   0  -3 -23   32.89    1.35
   0  -4 -23    0.90    0.54
   0  -4 -23    1.58    0.57
   0  -5 -23    1.85    0.64
   0  -5 -23    1.42    0.61
   1   4 -23   16.52    1.07
  -1  -4  23   15.82    0.91
   1   3 -23    9.43    0.83
   1   3 -23    8.04    0.87
   1   2 -23    1.42    0.59
   1   2 -23    0.99    0.55
   1   1 -23    4.07    0.70
   1   1 -23    3.36    0.65
   1   0 -23   15.44    1.01
   1   0 -23   14.17    0.99
   1  -1 -23   14.17    1.00
   1  -1 -23   12.77    0.99
   1  -2 -23    4.60    0.73
   1  -2 -23    4.26    0.73
   1  -3 -23    1.05    0.55
   1  -3 -23    1.70    0.52
   1  -3 -23    1.80    0.63
   1  -4 -23    3.39    0.68
   1  -4 -23    3.74    0.62
   1  -4 -23    2.86    0.73
   1  -5 -23    0.28    0.55
   1  -5 -23    0.42    0.53
   2   4 -23    0.07    0.58
  -2  -4  23    1.50    0.56
   2   3 -23    0.51    0.60
   2   2 -23    3.20    0.66
   2   2 -23    2.88    0.67
   2   1 -23    1.93    0.58
   2   1 -23    0.67    0.59
   2   0 -23   22.83    1.19
   2   0 -23   21.62    1.15
   2  -1 -23    4.82    0.74
   2  -1 -23    4.73    0.74
   2  -2 -23   18.92    1.13
   2  -2 -23   21.82    1.12
   2  -3 -23    1.27    0.67
   2  -4 -23    2.85    0.67
   2  -4 -23    3.26    0.60
   2  -4 -23    2.16    0.75
   2  -5 -23   26.13    1.38
   2  -5 -23   24.90    1.26
   2  -5 -23   27.62    1.19
   2  -6 -23    8.57    0.92
   2  -6 -23   11.37    0.97
   3   3 -23    0.06    0.61
  -3  -3  23    0.44    0.50
   3   2 -23   25.31    1.24
   3   2 -23   24.00    1.26
   3   1 -23    4.53    0.75
   3   1 -23    3.67    0.74
   3   0 -23   31.51    1.35
   3   0 -23   31.13    1.31
   3  -1 -23    1.46    0.58
   3  -1 -23    0.82    0.62
   3  -2 -23    1.82    0.60
   3  -2 -23    0.91    0.65
   3  -3 -23   30.58    1.39
   3  -4 -23    7.04    0.92
   3  -4 -23    6.62    0.84
   3  -5 -23    1.72    0.66
   3  -5 -23    0.08    0.69
   3  -5 -23    0.83    0.52
   3  -6 -23    1.33    0.74
   3  -6 -23    0.95    0.62
   3  -6 -23    0.17    0.55
   4   2 -23   10.14    1.02
   4   2 -23    9.43    1.01
   4   1 -23    1.01    0.67
   4   1 -23    1.96    0.66
   4   0 -23    0.42    0.63
   4   0 -23    1.07    0.62
   4  -1 -23    7.09    0.84
   4  -1 -23    7.17    0.87
   4  -2 -23    3.49    0.77
   4  -2 -23    3.88    0.76
   4  -3 -23    2.32    0.67
   4  -3 -23    2.59    0.78
   4  -4 -23    1.98    0.63
   4  -4 -23    0.20    0.70
   4  -5 -23   16.94    1.09
   4  -5 -23   15.36    1.21
   4  -6 -23    1.38    0.81
   4  -6 -23    2.75    0.73
   5   0 -23    0.98    0.63
   5   0 -23    1.54    0.75
   5  -1 -23   15.13    1.15
   5  -1 -23   16.71    1.18
   5  -2 -23    1.13    0.70
   5  -2 -23    0.45    0.63
   5  -3 -23   22.00    1.23
   5  -3 -23   22.04    1.31
   5  -4 -23    1.52    0.78
   5  -4 -23    1.77    0.71
   5  -5 -23    1.14    0.77
   5  -5 -23    1.36    0.66
   6  -2 -23    0.80    0.74
   6  -2 -23   -0.11    0.65
   6  -3 -23    0.39    0.73
   6  -3 -23   -0.85    0.59
   6  -4 -23    8.04    0.96
   6  -4 -23    7.24    1.01
  -5   4 -24   16.40    1.01
   5  -3  24   10.00    0.92
  -5   2 -24    2.61    0.59
   5  -2  24    3.07    0.66
  -5   1 -24    5.20    0.72
   5  -1  24    3.71    0.69
  -4   5 -24    2.56    0.65
  -4   4 -24    0.81    0.56
  -4   3 -24    7.70    0.79
   4  -3  24    6.82    0.78
   4  -2  24    2.15    0.62
  -4   1 -24    0.48    0.46
   4  -1  24    1.76    0.62
  -4   0 -24   -0.20    0.46
   4   0  24    0.40    0.52
  -4  -1 -24   17.13    1.05
   4   1  24   15.67    1.07
  -3   5 -24    2.71    0.66
  -3   4 -24    1.05    0.60
  -3   3 -24    5.38    0.69
  -3   3 -24    5.20    0.71
   3  -3  24    4.62    0.69
  -3   2 -24    5.41    0.68
  -3   2 -24    4.62    0.66
   3  -2  24    5.06    0.70
   3  -1  24   33.39    1.36
  -3   0 -24    4.32    0.62
   3   0  24    4.97    0.73
  -3  -1 -24    6.78    0.78
   3   1  24    6.53    0.78
  -3  -2 -24    9.71    0.91
   3   2  24    7.32    0.83
  -2   5 -24    9.09    0.94
  -2   4 -24    1.58    0.61
  -2   3 -24   30.43    1.29
  -2   3 -24   34.28    1.30
  -2   2 -24   12.61    0.87
  -2   2 -24   12.60    0.92
  -2   1 -24    1.74    0.55
  -2   1 -24    1.04    0.49
   2  -1  24    1.34    0.57
  -2   0 -24   12.79    0.96
  -2   0 -24   14.17    0.96
   2   0  24   10.20    0.90
  -2  -1 -24    3.77    0.67
  -2  -1 -24    5.77    0.69
   2   1  24    4.14    0.69
  -2  -2 -24    1.35    0.54
  -2  -2 -24    2.23    0.59
   2   2  24    1.93    0.62
  -2  -3 -24    2.75    0.66
   2   3  24    2.27    0.62
  -1   5 -24   13.16    1.01
   1  -5  24   15.65    0.93
  -1   4 -24    6.77    0.83
  -1   3 -24    5.58    0.71
  -1   3 -24    4.53    0.73
  -1   2 -24    1.17    0.54
  -1   2 -24    1.00    0.57
  -1   1 -24    2.53    0.57
  -1   1 -24    1.84    0.56
  -1   0 -24    2.33    0.60
  -1   0 -24    2.02    0.61
  -1  -1 -24    0.88    0.53
  -1  -1 -24    2.01    0.61
   1   1  24    0.42    0.54
  -1  -2 -24   31.10    1.38
  -1  -2 -24   33.13    1.26
   1   2  24   31.02    1.36
  -1  -3 -24    0.29    0.54
  -1  -3 -24    1.51    0.57
   1   3  24    0.87    0.60
  -1  -4 -24    4.59    0.72
  -1  -4 -24    2.97    0.65
   1   4  24    2.79    0.67
   0   4 -24    0.14    0.56
   0   3 -24    5.65    0.73
   0   3 -24    4.23    0.71
   0   2 -24   14.34    0.95
   0   2 -24   13.76    1.00
   0   1 -24    1.32    0.58
   0   1 -24    2.71    0.61
   0   0 -24   54.20    1.67
   0   0 -24   53.61    1.74
   0  -1 -24    2.37    0.66
   0  -1 -24    2.43    0.61
   0  -2 -24   11.36    0.92
   0  -2 -24   10.12    0.93
   0  -3 -24    5.10    0.67
   0  -3 -24    5.56    0.78
   0  -4 -24    0.73    0.53
   0  -4 -24    1.44    0.55
   1   4 -24    3.22    0.68
   1   3 -24    0.40    0.58
   1   2 -24   32.10    1.31
   1   2 -24   30.08    1.32
   1   1 -24    1.93    0.59
   1   1 -24    1.98    0.63
   1   0 -24    1.88    0.60
   1   0 -24    0.74    0.58
   1  -1 -24    0.54    0.59
   1  -1 -24    2.06    0.62
   1  -2 -24    2.14    0.68
   1  -2 -24    1.64    0.59
   1  -3 -24    3.85    0.68
   1  -3 -24    4.25    0.77
   1  -4 -24    5.81    0.82
   1  -4 -24    6.27    0.84
   1  -4 -24    7.05    0.76
   1  -5 -24   15.60    1.02
   1  -5 -24   15.56    1.12
   2   3 -24    1.73    0.66
   2   2 -24    3.39    0.69
   2   2 -24    1.27    0.63
   2   1 -24    3.70    0.74
   2   1 -24    4.68    0.74
   2   0 -24   11.85    0.92
   2   0 -24   13.64    1.03
   2  -1 -24    0.53    0.62
   2  -1 -24    1.06    0.61
   2  -2 -24   12.11    0.93
   2  -2 -24   11.83    1.01
   2  -3 -24   32.57    1.39
   2  -3 -24   28.89    1.33
   2  -4 -24    0.22    0.70
   2  -4 -24    1.79    0.62
   2  -5 -24    8.95    0.96
   2  -5 -24    9.69    0.88
   2  -5 -24    9.26    0.99
   3   2 -24    7.00    0.89
   3   2 -24    8.79    0.92
   3   1 -24    6.05    0.83
   3   1 -24    8.69    0.94
   3   0 -24    4.19    0.78
   3   0 -24    5.67    0.81
   3  -1 -24   31.34    1.38
   3  -1 -24   31.66    1.40
   3  -2 -24    4.22    0.77
   3  -2 -24    4.84    0.83
   3  -3 -24    5.80    0.83
   3  -3 -24    4.27    0.82
   3  -4 -24   -0.12    0.71
   3  -4 -24    0.88    0.60
   3  -5 -24    3.16    0.71
   3  -5 -24    1.41    0.78
   4   1 -24   14.01    1.03
   4   1 -24   16.98    1.17
   4   0 -24   -0.17    0.62
   4   0 -24    0.17    0.65
   4  -1 -24    0.79    0.67
   4  -1 -24    0.69    0.63
   4  -2 -24    0.98    0.66
   4  -2 -24    1.14    0.64
   4  -3 -24    5.05    0.88
   4  -3 -24    6.55    0.86
   4  -4 -24   -0.64    0.68
   4  -4 -24    1.12    0.64
   4  -5 -24    2.44    0.74
   4  -5 -24    2.34    0.85
   5  -1 -24    1.80    0.74
   5  -1 -24    2.19    0.76
   5  -2 -24    2.29    0.77
   5  -2 -24    3.21    0.79
   5  -3 -24    7.26    0.91
   5  -3 -24    7.84    1.02
   5  -4 -24   16.39    1.26
   5  -4 -24   16.82    1.20
  -4   4 -25    0.44    0.56
  -4   3 -25    3.16    0.62
  -4   3 -25    3.06    0.61
   4  -3  25    2.80    0.64
   4  -2  25    1.89    0.63
   4  -1  25    6.48    0.81
  -4   0 -25    0.45    0.49
   4   0  25    1.11    0.60
  -3   4 -25    5.90    0.81
  -3   3 -25   25.42    1.17
  -3   3 -25   21.30    1.17
   3  -3  25   20.85    1.14
  -3   2 -25    1.20    0.56
  -3   2 -25    1.24    0.51
   3  -2  25    1.09    0.55
  -3   1 -25    1.91    0.55
   3  -1  25    1.19    0.55
   3   0  25   23.18    1.20
  -3  -1 -25    3.32    0.63
   3   1  25    2.59    0.62
  -2   4 -25    2.33    0.66
  -2   3 -25    1.17    0.61
  -2   2 -25   14.17    0.98
  -2   2 -25   15.32    0.99
  -2   1 -25    2.15    0.61
  -2   1 -25    2.77    0.61
   2  -1  25    2.54    0.68
  -2   0 -25   13.80    0.96
  -2   0 -25   12.98    0.96
   2   0  25   13.83    0.97
  -2  -1 -25    0.38    0.51
   2   1  25    1.87    0.61
  -2  -2 -25    1.67    0.57
  -2  -2 -25    2.94    0.60
   2   2  25    2.15    0.63
  -1   4 -25    2.62    0.68
  -1   3 -25    1.87    0.57
  -1   3 -25    0.38    0.56
  -1   2 -25    3.37    0.65
  -1   2 -25    2.87    0.67
  -1   1 -25    9.73    0.90
  -1   1 -25   10.72    0.95
  -1   0 -25    9.83    0.88
  -1   0 -25   10.09    0.91
  -1  -1 -25    2.88    0.66
  -1  -1 -25    3.03    0.66
  -1  -2 -25    1.14    0.53
   1   2  25   -0.08    0.54
  -1  -3 -25    7.47    0.79
  -1  -3 -25    6.51    0.81
   1   3  25    6.56    0.82
   0   4 -25    0.30    0.59
   0   3 -25   23.47    1.20
   0   2 -25   13.34    1.01
   0   2 -25   16.07    1.00
   0   1 -25   10.05    0.93
   0   1 -25   10.19    0.90
   0   0 -25    1.64    0.60
   0  -1 -25    8.56    0.91
   0  -1 -25    9.70    0.89
   0  -2 -25   13.75    1.02
   0  -2 -25   16.35    1.02
   0  -3 -25   22.96    1.25
   0  -4 -25    1.46    0.58
   0  -4 -25    0.47    0.55
   1   3 -25    7.00    0.87
   1   2 -25    0.83    0.59
   1   1 -25    3.08    0.70
   1   1 -25    3.45    0.69
   1   0 -25    9.36    0.93
   1   0 -25    8.22    0.84
   1  -1 -25    7.91    0.88
   1  -1 -25    8.51    0.89
   1  -2 -25    2.14    0.71
   1  -2 -25    3.41    0.66
   1  -3 -25    0.15    0.61
   1  -3 -25    1.42    0.61
   1  -4 -25    3.46    0.73
   2   2 -25    2.69    0.72
   2   2 -25    2.63    0.68
   2   1 -25    0.76    0.61
   2   1 -25    1.43    0.66
   2   0 -25   13.06    1.03
   2   0 -25   13.91    0.98
   2  -1 -25    4.10    0.74
   2  -1 -25    2.44    0.72
   2  -2 -25   14.13    1.05
   2  -2 -25   13.01    1.08
   2  -3 -25    0.35    0.66
   2  -3 -25    2.26    0.65
   2  -4 -25    2.39    0.80
   2  -4 -25    3.16    0.74
   3   1 -25    3.39    0.77
   3   1 -25    1.78    0.70
   3   0 -25   21.44    1.15
   3   0 -25   20.15    1.21
   3  -1 -25    0.54    0.64
   3  -1 -25    2.02    0.64
   3  -2 -25    2.60    0.65
   3  -2 -25    0.07    0.66
   3  -3 -25   20.13    1.22
   3  -3 -25   19.40    1.25
   3  -4 -25    5.86    0.83
   3  -4 -25    7.07    0.93
   4   0 -25    1.00    0.71
   4   0 -25   -0.12    0.65
   4  -1 -25    4.40    0.85
   4  -1 -25    5.63    0.84
   4  -2 -25    2.42    0.70
   4  -2 -25    1.17    0.72
   4  -3 -25    3.82    0.76
   4  -3 -25    4.68    0.89
   4  -4 -25   -0.34    0.72
   4  -4 -25   -0.10    0.58
  -3   3 -26    3.09    0.67
  -3   3 -26    4.74    0.71
  -3   2 -26    1.76    0.60
  -3   2 -26    1.19    0.51
   3  -2  26    0.71    0.56
  -3   1 -26   21.66    1.15
   3  -1  26   22.45    1.14
  -3   0 -26    5.73    0.79
   3   0  26    3.32    0.71
  -2   3 -26   21.31    1.15
  -2   2 -26    6.88    0.80
  -2   2 -26    7.14    0.81
  -2   1 -26    1.43    0.61
  -2   1 -26    1.33    0.58
  -2   0 -26    8.38    0.86
   2   0  26    6.29    0.83
  -2  -1 -26    1.68    0.61
   2   1  26    0.31    0.59
  -1   3 -26    2.99    0.61
  -1   3 -26    1.52    0.63
  -1   2 -26    1.17    0.59
  -1   2 -26    1.24    0.64
  -1   1 -26    1.20    0.59
  -1   1 -26    1.22    0.59
  -1   0 -26    0.58    0.56
  -1   0 -26    1.09    0.52
  -1  -1 -26    1.82    0.59
  -1  -1 -26    0.96    0.63
  -1  -2 -26   20.80    1.21
   0   3 -26    3.41    0.72
   0   2 -26    9.20    0.89
   0   2 -26    7.89    0.90
   0   1 -26    1.14    0.57
   0   1 -26    0.22    0.57
   0   0 -26   28.54    1.35
   0   0 -26   29.55    1.29
   0  -1 -26    1.38    0.62
   0  -1 -26    1.45    0.60
   0  -2 -26    8.39    0.89
   0  -2 -26    8.16    0.90
   0  -3 -26    3.40    0.72
   1   2 -26   22.86    1.19
   1   2 -26   21.78    1.21
   1   1 -26    0.58    0.62
   1   1 -26    2.58    0.67
   1   0 -26    0.72    0.62
   1   0 -26    1.62    0.61
   1  -1 -26    1.25    0.64
   1  -1 -26    1.89    0.60
   1  -2 -26    1.96    0.66
   1  -2 -26    1.61    0.71
   1  -3 -26    0.72    0.68
   1  -3 -26    0.80    0.55
   2   1 -26    2.15    0.71
   2   1 -26    2.41    0.68
   2   0 -26    8.13    0.88
   2   0 -26    6.80    0.89
   2  -1 -26    0.57    0.67
   2  -1 -26    2.30    0.69
   2  -2 -26    6.57    0.90
   2  -2 -26    9.45    0.98
   2  -3 -26   21.44    1.28
   2  -3 -26   21.44    1.24
   3   0 -26    4.31    0.81
   3   0 -26    3.84    0.76
   3  -1 -26   22.04    1.25
   3  -1 -26   19.82    1.23
   3  -2 -26    0.96    0.60
   3  -2 -26    1.85    0.73
   3  -3 -26    3.41    0.78
   3  -3 -26    1.33    0.76
  -1   1 -27    5.57    0.83
  -1   1 -27    5.90    0.80
  -1   0 -27    5.37    0.81
  -1   0 -27    6.71    0.83
   0   1 -27    5.81    0.86
   0   1 -27    5.72    0.81
   0   0 -27    0.37    0.61
   0   0 -27    2.47    0.67
   0  -1 -27    6.29    0.84
   0  -1 -27    4.53    0.81
   1   0 -27    4.96    0.82
   1   0 -27    5.98    0.80
   1  -1 -27    5.77    0.83
   1  -1 -27    5.57    0.83
   0   0   0    0.00    0.00
;
_shelx_hkl_checksum              5263
_shelx_shelxl_version_number     2014/7
_olex2_submission_special_instructions 'No special instructions were received'
loop_
_space_group_symop_operation_xyz
'x, y, z'
'x-y, x, z+1/2'
'-y, x-y, z'
'-x, -y, z+1/2'
'-x+y, -x, z'
'y, -x+y, z+1/2'
'-x, -y, -z'
'-x+y, -x, -z-1/2'
'y, -x+y, -z'
'x, y, -z-1/2'
'x-y, x, -z'
'-y, x-y, -z-1/2'
loop_
_atom_site_label
_atom_site_type_symbol
_atom_site_fract_x
_atom_site_fract_y
_atom_site_fract_z
_atom_site_U_iso_or_equiv
_atom_site_adp_type
_atom_site_occupancy
_atom_site_site_symmetry_order
_atom_site_calc_flag
_atom_site_refinement_flags_posn
_atom_site_refinement_flags_adp
_atom_site_refinement_flags_occupancy
_atom_site_disorder_assembly
_atom_site_disorder_group
Eu1 Eu 0.82938(6) 0.58556(6) 0.7500 0.0400(3) Uani 1 2 d DS TU P . .
O2 O 0.963(2) 0.5259(18) 0.6916(9) 0.060(4) Uani 0.5 1 d . U . A 2
O1A O 0.7586(19) 0.580(2) 0.6575(8) 0.061(5) Uani 0.5 1 d . U . A 1
O1 O 0.705(3) 0.543(3) 0.6682(9) 0.072(6) Uani 0.5 1 d . U . A 2
O3 O 0.739(3) 0.753(2) 0.7620(13) 0.078(7) Uani 0.3333 1 d D U . A -1
O3A O 0.801(6) 0.790(5) 0.758(3) 0.078(8) Uani 0.1667 1 d D U . A -2
H3AA H 0.8439 0.8650 0.7793 0.118 Uiso 0.1667 1 d DGR . . A -2
H3AB H 0.7663 0.8268 0.7324 0.118 Uiso 0.1667 1 d DGR . . A -2
O4 O 0.721(4) 0.943(3) 0.7681(8) 0.078(7) Uani 0.3333 1 d D U . A -1
O5 O 0.6667 0.3333 0.7500 0.021(2) Uani 1 6 d DS TU P A .
C1A C 0.627(3) 0.523(3) 0.6546(11) 0.045(6) Uani 0.5 1 d . U . A 1
C1 C 0.572(3) 0.489(3) 0.6574(12) 0.053(6) Uani 0.5 1 d . U . A 2
C2A C 0.566(10) 0.509(8) 0.598(2) 0.051(4) Uani 0.41(19) 1 d . U . A 1
C3 C 0.643(6) 0.544(9) 0.557(2) 0.055(7) Uani 0.5 1 d . U . A 1
H3 H 0.7433 0.5832 0.5597 0.066 Uiso 0.5 1 calc R . . A 1
C4 C 0.567(6) 0.520(7) 0.4974(12) 0.053(3) Uani 0.5 1 d . U . A 1
C5 C 0.659(8) 0.550(8) 0.4621(17) 0.073(4) Uani 0.5 1 d . U . A 1
H5A H 0.7554 0.5734 0.4675 0.087 Uiso 0.5 1 calc R . . A 1
C6A C 0.415(12) 0.456(7) 0.595(3) 0.067(4) Uani 0.41(19) 1 d . U . A 1
H6A H 0.3588 0.4254 0.6267 0.080 Uiso 0.41(19) 1 calc R . . A 1
C7 C 0.748(4) 0.862(3) 0.7349(9) 0.077(6) Uani 0.3333 1 d D U . A -1
H7 H 0.7706 0.8804 0.6984 0.092 Uiso 0.3333 1 calc R . . A -1
O7 O 1.0000 1.0000 0.6107(13) 0.24(3) Uani 0.5 3 d S TU P . .
O2A O 0.925(2) 0.4550(19) 0.6957(9) 0.060(4) Uani 0.5 1 d . U . A 1
O6 O 1.306(6) 1.638(9) 0.7010(10) 0.066(11) Uani 0.16 1 d D U . B -1
C8 C 1.231(4) 1.592(5) 0.7431(14) 0.066(11) Uani 0.16 1 d D U . B -1
O4A O 0.712(9) 0.942(7) 0.789(2) 0.076(8) Uani 0.1667 1 d . U . C -3
H4AA H 0.6830 0.9363 0.8210 0.114 Uiso 0.1667 1 d GR . . C -3
H4AB H 0.7898 0.9373 0.7882 0.114 Uiso 0.1667 1 d GR . . C -3
H5 H 0.6667 0.3333 0.78428(4) 0.03(7) Uiso 0.5 3 d DS T P . .
C0AA C 0.529(8) 0.491(6) 0.6006(14) 0.051(4) Uani 0.59(19) 1 d . U . A 2
C1AA C 0.380(7) 0.454(4) 0.5898(17) 0.067(4) Uani 0.59(19) 1 d . U . A 2
H1AA H 0.3173 0.4342 0.6190 0.080 Uiso 0.59(19) 1 calc R . . A 2
C3A C 0.616(6) 0.516(9) 0.557(2) 0.055(7) Uani 0.5 1 d . U . A 2
H3A H 0.7093 0.5295 0.5629 0.066 Uiso 0.5 1 calc R . . A 2
C4A C 0.578(6) 0.522(7) 0.5076(11) 0.053(3) Uani 0.5 1 d . U . A 2
C5A C 0.667(8) 0.554(9) 0.4534(17) 0.073(4) Uani 0.5 1 d . U . A 2
H5AA H 0.7649 0.5806 0.4561 0.087 Uiso 0.5 1 calc R . . A 2
loop_
_atom_site_aniso_label
_atom_site_aniso_U_11
_atom_site_aniso_U_22
_atom_site_aniso_U_33
_atom_site_aniso_U_23
_atom_site_aniso_U_13
_atom_site_aniso_U_12
Eu1 0.0475(4) 0.0327(4) 0.0376(4) 0.000 0.000 0.0183(3)
O2 0.064(8) 0.089(12) 0.032(5) 0.006(8) 0.012(5) 0.043(9)
O1A 0.055(8) 0.079(12) 0.041(7) 0.012(6) -0.003(6) 0.028(8)
O1 0.077(11) 0.073(12) 0.051(9) 0.023(7) -0.011(7) 0.026(9)
O3 0.145(14) 0.069(8) 0.050(15) 0.003(8) 0.010(12) 0.076(9)
O3A 0.145(15) 0.068(9) 0.050(16) 0.004(9) 0.010(13) 0.074(10)
O4 0.151(13) 0.072(8) 0.050(16) 0.000(9) 0.011(12) 0.084(9)
O5 0.023(3) 0.023(3) 0.018(6) 0.000 0.000 0.0115(16)
C1A 0.053(9) 0.045(14) 0.035(6) 0.010(6) -0.001(6) 0.023(9)
C1 0.079(11) 0.039(13) 0.038(7) 0.008(7) -0.010(7) 0.027(10)
C2A 0.067(11) 0.050(9) 0.035(4) 0.010(4) -0.004(6) 0.029(10)
C3 0.070(13) 0.06(2) 0.034(4) 0.010(7) -0.004(7) 0.033(13)
C4 0.065(8) 0.065(6) 0.033(6) 0.010(8) -0.002(7) 0.036(6)
C5 0.074(7) 0.109(9) 0.035(8) 0.011(8) 0.002(7) 0.047(6)
C6A 0.069(11) 0.085(8) 0.042(7) 0.007(6) -0.006(6) 0.037(8)
C7 0.146(13) 0.069(8) 0.051(15) 0.001(8) 0.009(11) 0.081(9)
O7 0.34(5) 0.34(5) 0.030(17) 0.000 0.000 0.17(2)
O2A 0.064(8) 0.089(12) 0.032(5) 0.006(8) 0.012(5) 0.043(9)
O6 0.037(18) 0.05(2) 0.08(2) 0.02(3) 0.00(3) -0.002(14)
C8 0.037(18) 0.05(2) 0.08(2) 0.02(3) 0.00(3) -0.002(14)
O4A 0.147(13) 0.070(9) 0.051(17) -0.002(11) 0.016(14) 0.084(10)
C0AA 0.067(11) 0.050(9) 0.035(4) 0.010(4) -0.004(6) 0.029(10)
C1AA 0.069(11) 0.085(8) 0.042(7) 0.007(6) -0.006(6) 0.037(8)
C3A 0.070(13) 0.06(2) 0.034(4) 0.010(7) -0.004(7) 0.033(13)
C4A 0.065(8) 0.065(6) 0.033(6) 0.010(8) -0.002(7) 0.036(6)
C5A 0.074(7) 0.109(9) 0.035(8) 0.011(8) 0.002(7) 0.047(6)
loop_
_atom_type_symbol
_atom_type_description
_atom_type_scat_dispersion_real
_atom_type_scat_dispersion_imag
_atom_type_scat_source
C C 0.0033 0.0016 'International Tables Vol C Tables 4.2.6.8 and 6.1.1.4'
H H 0.0000 0.0000 'International Tables Vol C Tables 4.2.6.8 and 6.1.1.4'
Eu Eu -0.1578 3.6682 'International Tables Vol C Tables 4.2.6.8 and 6.1.1.4'
O O 0.0106 0.0060 'International Tables Vol C Tables 4.2.6.8 and 6.1.1.4'
loop_
_geom_angle_atom_site_label_1
_geom_angle_atom_site_label_2
_geom_angle_atom_site_label_3
_geom_angle
_geom_angle_site_symmetry_1
_geom_angle_site_symmetry_3
_geom_angle_publ_flag
O2 Eu1 O2 77.4(11) 10_557 . ?
O2 Eu1 O1 148.3(8) . 10_557 ?
O2 Eu1 O1 76.4(9) . . ?
O2 Eu1 O1 76.4(9) 10_557 10_557 ?
O2 Eu1 O1 148.3(8) 10_557 . ?
O2 Eu1 O3A 125(2) 10_557 . ?
O2 Eu1 O3A 133.1(17) . . ?
O2 Eu1 O5 83.7(4) 10_557 . ?
O2 Eu1 O5 83.7(4) . . ?
O2 Eu1 H5 96.3(4) . . ?
O2 Eu1 H5 71.6(5) 10_557 . ?
O1A Eu1 O1A 145.1(9) 10_557 . ?
O1A Eu1 O3 70.6(9) 10_557 . ?
O1A Eu1 O3 84.4(10) . . ?
O1A Eu1 O2A 71.2(8) . . ?
O1A Eu1 O2A 135.6(7) 10_557 . ?
O1A Eu1 O2A 71.2(8) 10_557 10_557 ?
O1A Eu1 O2A 135.6(7) . 10_557 ?
O1A Eu1 H5 105.1(5) . . ?
O1A Eu1 H5 67.0(5) 10_557 . ?
O1 Eu1 O1 120.7(12) 10_557 . ?
O1 Eu1 O3A 77.5(19) 10_557 . ?
O1 Eu1 O3A 86(2) . . ?
O1 Eu1 O5 76.0(5) . . ?
O1 Eu1 O5 76.0(5) 10_557 . ?
O1 Eu1 H5 94.0(5) . . ?
O1 Eu1 H5 58.5(6) 10_557 . ?
O3 Eu1 O2A 153.8(9) . . ?
O3 Eu1 O2A 139.8(9) . 10_557 ?
O3 Eu1 H5 115.3(6) . . ?
O3A Eu1 O5 133.8(13) . . ?
O3A Eu1 H5 128.4(13) . . ?
O5 Eu1 O1A 86.0(5) . 10_557 ?
O5 Eu1 O1A 86.0(5) . . ?
O5 Eu1 O3 120.0(6) . . ?
O5 Eu1 O2A 68.8(4) . 10_557 ?
O5 Eu1 O2A 68.8(4) . . ?
O5 Eu1 O4A 141.9(15) . 3_765 ?
O5 Eu1 H5 19.95(2) . . ?
O2A Eu1 O2A 65.8(10) 10_557 . ?
O2A Eu1 H5 81.1(4) . . ?
O2A Eu1 H5 58.3(4) 10_557 . ?
O4A Eu1 H5 127.2(12) 3_765 . ?
C1 O2 Eu1 128.6(18) 5_665 . ?
C1A O1A Eu1 109.5(17) . . ?
C1 O1 Eu1 131.9(18) . . ?
C7 O3 Eu1 135(2) . . ?
Eu1 O3A H3AA 130.0 . . ?
Eu1 O3A H3AB 127.0 . . ?
H3AA O3A H3AB 100.1 . . ?
C7 O4 Eu1 125.9(19) . 8_677 ?
Eu1 O5 Eu1 120.000(1) 8_667 . ?
Eu1 O5 Eu1 120.0 . 3_655 ?
Eu1 O5 Eu1 120.0 8_667 3_655 ?
Eu1 O5 H5 90.0 8_667 . ?
Eu1 O5 H5 90.0 3_655 . ?
Eu1 O5 H5 90.0 . . ?
O1A C1A Eu1 48.4(15) . . ?
O1A C1A C2A 115(4) . . ?
O1A C1A O2A 122(3) . 3_655 ?
C2A C1A Eu1 164(4) . . ?
O2A C1A Eu1 73.9(16) 3_655 . ?
O2A C1A C2A 122(4) 3_655 . ?
O2 C1 Eu1 34.1(13) 3_655 3_655 ?
O2 C1 O1 124(3) 3_655 . ?
O2 C1 C0AA 118(3) 3_655 . ?
O1 C1 Eu1 102.9(17) . 3_655 ?
O1 C1 C0AA 119(4) . . ?
C0AA C1 Eu1 130(3) . 3_655 ?
C3 C2A C1A 123(6) . . ?
C3 C2A C6A 122(4) . . ?
C6A C2A C1A 115(7) . . ?
C2A C3 H3 120.2 . . ?
C2A C3 C4 120(5) . . ?
C4 C3 H3 120.2 . . ?
C4 C4 C3 110(4) 7_666 . ?
C5 C4 C3 110(5) . . ?
C5 C4 C4 140(5) . 7_666 ?
C4 C5 H5A 125.8 . . ?
C4 C5 C6A 108(6) . 7_666 ?
C6A C5 H5A 125.8 7_666 . ?
C2A C6A C5 119(5) . 7_666 ?
C2A C6A H6A 120.5 . . ?
C5 C6A H6A 120.5 7_666 . ?
O3 C7 O4 108(2) . . ?
O3 C7 H7 126.0 . . ?
O4 C7 H7 126.0 . . ?
Eu1 O2A Eu1 96.4(6) . 8_667 ?
C1A O2A Eu1 141.9(19) 5_665 . ?
C1A O2A Eu1 81.6(16) 5_665 8_667 ?
H4AA O4A H4AB 109.4 . . ?
C1AA C0AA C1 118(5) . . ?
C3A C0AA C1 125(5) . . ?
C3A C0AA C1AA 117(3) . . ?
C0AA C1AA H1AA 118.2 . . ?
C5A C1AA C0AA 124(4) 7_666 . ?
C5A C1AA H1AA 118.2 7_666 . ?
C0AA C3A H3A 117.9 . . ?
C4A C3A C0AA 124(6) . . ?
C4A C3A H3A 117.9 . . ?
C3A C4A C4A 122(6) . 7_666 ?
C3A C4A C5A 131(6) . . ?
C4A C4A C5A 107(4) 7_666 . ?
C1AA C5A C4A 126(7) 7_666 . ?
C1AA C5A H5AA 117.1 7_666 . ?
C4A C5A H5AA 117.1 . . ?
loop_
_geom_bond_atom_site_label_1
_geom_bond_atom_site_label_2
_geom_bond_distance
_geom_bond_site_symmetry_2
_geom_bond_publ_flag
Eu1 O2 2.318(19) 10_557 ?
Eu1 O2 2.318(19) . ?
Eu1 O1A 2.405(19) . ?
Eu1 O1A 2.405(19) 10_557 ?
Eu1 O1 2.33(2) 10_557 ?
Eu1 O1 2.33(2) . ?
Eu1 O3 2.41(2) . ?
Eu1 O3A 2.34(5) . ?
Eu1 O5 2.3419(5) . ?
Eu1 O2A 2.48(2) 10_557 ?
Eu1 O2A 2.48(2) . ?
Eu1 O4A 2.41(6) 3_765 ?
Eu1 H5 2.4913(6) . ?
O2 C1 1.23(4) 5_665 ?
O1A C1A 1.21(3) . ?
O1 C1 1.26(3) . ?
O3 C7 1.298(16) . ?
O3A H3AA 0.8702 . ?
O3A H3AB 0.9103 . ?
O4 Eu1 2.29(3) 8_677 ?
O4 C7 1.320(15) . ?
O5 Eu1 2.3419(5) 8_667 ?
O5 Eu1 2.3419(5) 3_655 ?
O5 H5 0.8500(11) . ?
C1A C2A 1.53(5) . ?
C1A O2A 1.27(3) 3_655 ?
C1 Eu1 3.23(3) 3_655 ?
C1 O2 1.23(4) 3_655 ?
C1 C0AA 1.48(4) . ?
C2A C3 1.24(9) . ?
C2A C6A 1.40(5) . ?
C3 H3 0.9300 . ?
C3 C4 1.63(7) . ?
C4 C4 1.27(11) 7_666 ?
C4 C5 1.23(8) . ?
C5 H5A 0.9300 . ?
C5 C6A 1.61(11) 7_666 ?
C6A C5 1.61(11) 7_666 ?
C6A H6A 0.9300 . ?
C7 H7 0.9300 . ?
O2A Eu1 2.945(16) 8_667 ?
O2A C1A 1.27(3) 5_665 ?
O6 C8 1.2500(12) . ?
O4A H4AA 0.8499 . ?
O4A H4AB 0.8501 . ?
C0AA C1AA 1.45(3) . ?
C0AA C3A 1.36(7) . ?
C1AA H1AA 0.9300 . ?
C1AA C5A 1.17(7) 7_666 ?
C3A H3A 0.9300 . ?
C3A C4A 1.30(7) . ?
C4A C4A 1.53(10) 7_666 ?
C4A C5A 1.57(7) . ?
C5A C1AA 1.17(7) 7_666 ?
C5A H5AA 0.9300 . ?
loop_
_geom_torsion_atom_site_label_1
_geom_torsion_atom_site_label_2
_geom_torsion_atom_site_label_3
_geom_torsion_atom_site_label_4
_geom_torsion
_geom_torsion_site_symmetry_1
_geom_torsion_site_symmetry_2
_geom_torsion_site_symmetry_3
_geom_torsion_site_symmetry_4
_geom_torsion_publ_flag
Eu1 O1A C1A C2A -179(3) . . . . ?
Eu1 O1A C1A O2A -3(3) . . . 3_655 ?
Eu1 O1 C1 Eu1 -35(2) . . . 3_655 ?
Eu1 O1 C1 O2 -5(4) . . . 3_655 ?
Eu1 O1 C1 C0AA 174(2) . . . . ?
Eu1 O3 C7 O4 -159(3) . . . . ?
Eu1 O4 C7 O3 169(2) 8_677 . . . ?
Eu1 C1A C2A C3 2(14) . . . . ?
Eu1 C1A C2A C6A -177(7) . . . . ?
Eu1 C1 C0AA C1AA 49(4) 3_655 . . . ?
Eu1 C1 C0AA C3A -127(6) 3_655 . . . ?
O2 C1 C0AA C1AA 10(5) 3_655 . . . ?
O2 C1 C0AA C3A -166(5) 3_655 . . . ?
O1A C1A C2A C3 5(7) . . . . ?
O1A C1A C2A C6A -174(4) . . . . ?
O1 C1 C0AA C1AA -169(3) . . . . ?
O1 C1 C0AA C3A 15(6) . . . . ?
C1A C2A C3 C4 178(6) . . . . ?
C1A C2A C6A C5 175(5) . . . 7_666 ?
C1 C0AA C1AA C5A -177(6) . . . 7_666 ?
C1 C0AA C3A C4A -178(7) . . . . ?
C2A C3 C4 C4 7(12) . . . 7_666 ?
C2A C3 C4 C5 -175(7) . . . . ?
C3 C2A C6A C5 -4(9) . . . 7_666 ?
C3 C4 C5 C6A -173(5) . . . 7_666 ?
C4 C4 C5 C6A 3(18) 7_666 . . 7_666 ?
C6A C2A C3 C4 -3(10) . . . . ?
O2A C1A C2A C3 -171(6) 3_655 . . . ?
O2A C1A C2A C6A 10(6) 3_655 . . . ?
C0AA C3A C4A C4A -9(14) . . . 7_666 ?
C0AA C3A C4A C5A 178(6) . . . . ?
C1AA C0AA C3A C4A 7(10) . . . . ?
C3A C0AA C1AA C5A -1(8) . . . 7_666 ?
C3A C4A C5A C1AA 174(7) . . . 7_666 ?
C4A C4A C5A C1AA 0(12) 7_666 . . 7_666 ?
