#------------------------------------------------------------------------------
#$Date: 2021-04-05 17:54:09 +0300 (Mon, 05 Apr 2021) $
#$Revision: 263776 $
#$URL: file:///home/coder/svn-repositories/cod/cif/7/70/66/7706646.cif $
#------------------------------------------------------------------------------
#
# This file is available in the Crystallography Open Database (COD),
# http://www.crystallography.net/
#
# All data on this site have been placed in the public domain by the
# contributors.
#
data_7706646
loop_
_publ_author_name
'Wang, Xiao-Ning'
'Zhao, Yumeng'
'Li, Jia-Luo'
'Pang, Jian-Dong'
'Wang, Qiang'
'Li, Bao'
'Zhou, Hong-Cai'
_publ_section_title
;
 Biomimetic catalysts of iron-based metal-organic frameworks with high
 peroxidase-mimicking activity for colorimetric biosensing.
;
_journal_issue                   11
_journal_name_full
'Dalton transactions (Cambridge, England : 2003)'
_journal_page_first              3854
_journal_page_last               3861
_journal_paper_doi               10.1039/d0dt02504f
_journal_volume                  50
_journal_year                    2021
_chemical_formula_moiety         'C42 H30 Fe3 N3 O22 P3, 4[H2O], 5[C3H7NO]'
_chemical_formula_sum            'C57 H73 Fe3 N8 O31 P3'
_chemical_formula_weight         1626.707
_space_group_crystal_system      orthorhombic
_space_group_IT_number           55
_space_group_name_Hall           '-P 2 2ab'
_space_group_name_H-M_alt        'P b a m'
_symmetry_Int_Tables_number      55
_audit_creation_date             2021-02-02
_audit_creation_method
;
Olex2 1.5-dev
(compiled 2021.01.30 svn.rb'd11e6e19' for OlexSys, GUI svn.r6224)
;
_audit_update_record
;
2021-02-10 deposited with the CCDC.	2021-02-19 downloaded from the CCDC.
;
_cell_angle_alpha                90
_cell_angle_beta                 90
_cell_angle_gamma                90
_cell_formula_units_Z            8
_cell_length_a                   22.234(4)
_cell_length_b                   28.096(6)
_cell_length_c                   28.408(6)
_cell_measurement_reflns_used    9314
_cell_measurement_temperature    100
_cell_measurement_theta_max      36.95
_cell_measurement_theta_min      2.46
_cell_volume                     17746(6)
_computing_molecular_graphics    'Olex2 1.5-dev (Dolomanov et al., 2009)'
_computing_publication_material  'Olex2 1.5-dev (Dolomanov et al., 2009)'
_computing_structure_refinement  'olex2.refine 1.5-dev (Bourhis et al., 2015)'
_diffrn_ambient_temperature      100.00
_diffrn_measured_fraction_theta_full 0.9595
_diffrn_measured_fraction_theta_max 0.9595
_diffrn_measurement_device_type  'Bruker APEX-II CCD'
_diffrn_measurement_method       '\w scans'
_diffrn_radiation_type           'Mo K\a'
_diffrn_radiation_wavelength     0.71073
_diffrn_reflns_av_R_equivalents  0.0000
_diffrn_reflns_av_unetI/netI     0.0214
_diffrn_reflns_Laue_measured_fraction_full 0.9595
_diffrn_reflns_Laue_measured_fraction_max 0.9595
_diffrn_reflns_limit_h_max       23
_diffrn_reflns_limit_h_min       0
_diffrn_reflns_limit_k_max       29
_diffrn_reflns_limit_k_min       0
_diffrn_reflns_limit_l_max       29
_diffrn_reflns_limit_l_min       0
_diffrn_reflns_number            11074
_diffrn_reflns_point_group_measured_fraction_full 0.9595
_diffrn_reflns_point_group_measured_fraction_max 0.9595
_diffrn_reflns_theta_full        22.2591
_diffrn_reflns_theta_max         22.26
_diffrn_reflns_theta_min         1.37
_exptl_absorpt_coefficient_mu    0.611
_exptl_absorpt_correction_type   none
_exptl_crystal_colour            'clear orangish'
_exptl_crystal_colour_lustre     clear
_exptl_crystal_colour_modifier   orangish
_exptl_crystal_density_diffrn    1.218
_exptl_crystal_description       plate
_exptl_crystal_F_000             6751.160
_exptl_crystal_size_max          0.2
_exptl_crystal_size_mid          0.2
_exptl_crystal_size_min          0.15
_refine_diff_density_max         0.5478
_refine_diff_density_min         -0.4719
_refine_diff_density_rms         0.0684
_refine_ls_d_res_high            0.9381
_refine_ls_d_res_low             14.8596
_refine_ls_extinction_coef       0.0034(3)
_refine_ls_extinction_expression Fc^*^=kFc[1+0.001xFc^2^\l^3^/sin(2\q)]^-1/4^
_refine_ls_goodness_of_fit_ref   1.0554
_refine_ls_hydrogen_treatment    constr
_refine_ls_matrix_type           full
_refine_ls_number_constraints    66
_refine_ls_number_parameters     680
_refine_ls_number_reflns         11074
_refine_ls_number_restraints     0
_refine_ls_restrained_S_all      1.0554
_refine_ls_R_factor_all          0.0684
_refine_ls_R_factor_gt           0.0648
_refine_ls_shift/su_max          0.0001
_refine_ls_shift/su_mean         0.0000
_refine_ls_structure_factor_coef Fsqd
_refine_ls_weighting_details
'w=1/[\s^2^(Fo^2^)+(0.1072P)^2^+30.9603P] where P=(Fo^2^+2Fc^2^)/3'
_refine_ls_weighting_scheme      calc
_refine_ls_wR_factor_gt          0.1903
_refine_ls_wR_factor_ref         0.1961
_reflns_Friedel_coverage         0.0
_reflns_limit_h_max              23
_reflns_limit_h_min              0
_reflns_limit_k_max              29
_reflns_limit_k_min              0
_reflns_limit_l_max              29
_reflns_limit_l_min              0
_reflns_number_gt                9993
_reflns_number_total             11074
_reflns_threshold_expression     I>=2u(I)
_iucr_refine_instructions_details
;
TITL p_a.res in Pbam
REM Old TITL p in Pbam
REM SHELXT solution in Pbam
REM R1 0.252, Rweak 0.007, Alpha 0.054, Orientation as input
REM Formula found by SHELXT: C79 N11 O50 P6 Fe6
CELL 0.71073 22.234 28.096 28.408 90 90 90
ZERR 8 0.0044 0.0056 0.0057 0 0 0
LATT 1
SYMM -X,-Y,+Z
SYMM 0.5-X,0.5+Y,-Z
SYMM 0.5+X,0.5-Y,-Z
SFAC C Fe H N O P
UNIT 456 24 584 64 248 24

L.S. 20 0 229
PLAN  73
SIZE 0.15 0.2 0.2
TEMP -173.15
CONF
MORE -1
fmap 2 53
ACTA 
BOND $H
ABIN 
EXTI 0.0034
WGHT 0.107217 30.960306
FVAR 2.133418
REM <olex2.extras>
REM <selected_cif_records
REM  <bonds
REM   <row "$M">
REM  >
REM  <angles
REM   <row "$* $M $*">
REM  >
REM >
REM <HklSrc "%.\\p_sqd_NO_SQUEEZE.hkl">
REM </olex2.extras>

C1    1     0.30651  0.56692  0.06120  11.00000  0.10373  0.04254  0.05142 =
 0.00378 -0.00277  0.00497 
C2    1     0.26892  0.53238  0.09011  11.00000  0.10152  0.04780  0.04147 =
 0.00887  0.00253  0.00448 
C3    1     0.28588  0.48563  0.09064  11.00000  0.11194  0.05824  0.08256 =
 0.01957  0.02928  0.01708 
AFIX 43
H3    3     0.32070  0.47573  0.07392  11.00000 -1.20000 
AFIX 0
C4    1     0.25166  0.45214  0.11603  11.00000  0.15289  0.04808  0.08395 =
 0.02255  0.02801  0.01262 
AFIX 43
H4    3     0.26347  0.41964  0.11635  11.00000 -1.20000 
AFIX 0
C5    1     0.20306  0.46573  0.13947  11.00000  0.09659  0.05480  0.03199 =
 0.01095 -0.00425 -0.00396 
C6    1     0.18483  0.51258  0.13919  11.00000  0.12947  0.05702  0.09007 =
 0.01706  0.03609  0.00977 
AFIX 43
H6    3     0.14920  0.52197  0.15515  11.00000 -1.20000 
AFIX 0
C7    1     0.21902  0.54559  0.11542  11.00000  0.13704  0.05180  0.10387 =
 0.01454  0.03500  0.00528 
AFIX 43
H7    3     0.20786  0.57821  0.11654  11.00000 -1.20000 
AFIX 0
C8    1     0.12422  0.22871  0.06686  11.00000  0.10989  0.03870  0.05767 =
 -0.00462  0.00081  0.00338 
C9    1     0.12889  0.26461  0.10582  11.00000  0.09786  0.03813  0.05822 =
 -0.01291 -0.01049 -0.00980 
C10   1     0.08059  0.28959  0.12050  11.00000  0.10497  0.12746  0.11797 =
 -0.07917 -0.02349 -0.00662 
AFIX 43
H10   3     0.04298  0.28451  0.10545  11.00000 -1.20000 
AFIX 0
C11   1     0.08404  0.32296  0.15740  11.00000  0.09485  0.09876  0.12419 =
 -0.07309 -0.00979 -0.00175 
AFIX 43
H11   3     0.04892  0.33877  0.16828  11.00000 -1.20000 
AFIX 0
C12   1     0.13735  0.33196  0.17676  11.00000  0.09481  0.04756  0.04292 =
 -0.01118  0.00049 -0.01921 
C13   1     0.18810  0.30713  0.16223  11.00000  0.11437  0.07227  0.10261 =
 -0.03386 -0.02213 -0.00344 
AFIX 43
H13   3     0.22620  0.31336  0.17604  11.00000 -1.20000 
AFIX 0
C14   1     0.18207  0.27274  0.12684  11.00000  0.11091  0.05747  0.10768 =
 -0.04334 -0.00833  0.00332 
AFIX 43
H14   3     0.21626  0.25480  0.11750  11.00000 -1.20000 
AFIX 0
C15   1     0.12114  0.28586  0.43867  11.00000  0.08353  0.04444  0.05440 =
 0.00825  0.00333 -0.00206 
C16   1     0.13607  0.32910  0.41087  11.00000  0.07715  0.04211  0.05808 =
 0.01204  0.00446 -0.00845 
C17   1     0.19464  0.34081  0.40291  11.00000  0.10661  0.06756  0.10246 =
 0.03989  0.01320  0.01838 
AFIX 43
H17   3     0.22551  0.31977  0.41298  11.00000 -1.20000 
AFIX 0
C18   1     0.21037  0.38362  0.37996  11.00000  0.09816  0.06733  0.09219 =
 0.03612  0.01637 -0.00273 
AFIX 43
H18   3     0.25135  0.39233  0.37603  11.00000 -1.20000 
AFIX 0
C19   1     0.16611  0.41175  0.36382  11.00000  0.09405  0.03352  0.04778 =
 0.00220  0.00731 -0.00141 
C20   1     0.10724  0.40025  0.36927  11.00000  0.09554  0.07870  0.12202 =
 0.05721  0.00012  0.00878 
AFIX 43
H20   3     0.07670  0.42021  0.35672  11.00000 -1.20000 
AFIX 0
C21   1     0.09196  0.35842  0.39374  11.00000  0.09728  0.08001  0.13313 =
 0.05983  0.01835 -0.00454 
AFIX 43
H21   3     0.05087  0.35047  0.39841  11.00000 -1.20000 
AFIX 0
C22   1     0.48971  0.39525  0.06692  11.00000  0.08778  0.05764  0.04313 =
 -0.00398 -0.00447  0.00860 
C23   1     0.45230  0.40449  0.10997  11.00000  0.09431  0.05074  0.04570 =
 -0.00321  0.00508 -0.00004 
C24   1     0.42723  0.36844  0.13453  11.00000  0.15144  0.05256  0.07337 =
 -0.00031  0.03757  0.00669 
AFIX 43
H24   3     0.43157  0.33662  0.12375  11.00000 -1.20000 
AFIX 0
C25   1     0.39468  0.37778  0.17607  11.00000  0.15883  0.04833  0.08656 =
 0.01175  0.04767  0.00461 
AFIX 43
H25   3     0.37855  0.35227  0.19402  11.00000 -1.20000 
AFIX 0
C26   1     0.38661  0.42284  0.19010  11.00000  0.09083  0.03642  0.04267 =
 -0.00354  0.00344 -0.00249 
C27   1     0.40981  0.45869  0.16571  11.00000  0.15152  0.05673  0.06298 =
 -0.02010  0.03675 -0.02288 
AFIX 43
H27   3     0.40319  0.49058  0.17555  11.00000 -1.20000 
AFIX 0
C28   1     0.44393  0.44938  0.12561  11.00000  0.14753  0.04614  0.07663 =
 -0.00388  0.03969 -0.01254 
AFIX 43
H28   3     0.46165  0.47513  0.10895  11.00000 -1.20000 
AFIX 0
C29   1     0.33223  0.62313  0.43409  11.00000  0.09769  0.04042  0.06005 =
 -0.00157 -0.00277 -0.01297 
C30   1     0.30151  0.59649  0.39543  11.00000  0.08216  0.04521  0.06231 =
 -0.01074 -0.00627 -0.00774 
C31   1     0.24192  0.60220  0.38653  11.00000  0.12195  0.07230  0.09099 =
 -0.04643 -0.01768  0.01189 
AFIX 43
H31   3     0.22017  0.62510  0.40429  11.00000 -1.20000 
AFIX 0
C32   1     0.21088  0.57565  0.35211  11.00000  0.12609  0.07447  0.12902 =
 -0.04361 -0.04950  0.03480 
AFIX 43
H32   3     0.16892  0.57942  0.34706  11.00000 -1.20000 
AFIX 0
C33   1     0.24460  0.54396  0.32621  11.00000  0.09488  0.03516  0.04788 =
 0.00008 -0.00084 -0.01304 
C34   1     0.30377  0.53958  0.33107  11.00000  0.10841  0.09047  0.11974 =
 -0.05045  0.02078 -0.01137 
AFIX 43
H34   3     0.32638  0.51931  0.31098  11.00000 -1.20000 
AFIX 0
C35   1     0.33210  0.56629  0.36740  11.00000  0.08965  0.09104  0.12256 =
 -0.06088 -0.00041 -0.00747 
AFIX 43
H35   3     0.37416  0.56270  0.37207  11.00000 -1.20000 
AFIX 0
C36   1     0.47193  0.33102  0.43262  11.00000  0.07939  0.05447  0.05710 =
 0.00232 -0.00484  0.01018 
C37   1     0.43354  0.33938  0.39065  11.00000  0.08747  0.05927  0.05621 =
 0.00655 -0.01270 -0.00655 
C38   1     0.43360  0.38311  0.36785  11.00000  0.13322  0.06368  0.10582 =
 0.02827 -0.05727 -0.02160 
AFIX 43
H38   3     0.45753  0.40835  0.37987  11.00000 -1.20000 
AFIX 0
C39   1     0.39936  0.39039  0.32799  11.00000  0.14813  0.05953  0.10702 =
 0.02884 -0.05569 -0.03608 
AFIX 43
H39   3     0.40160  0.41975  0.31151  11.00000 -1.20000 
AFIX 0
C40   1     0.36209  0.35489  0.31238  11.00000  0.09172  0.05360  0.04446 =
 0.00271 -0.01329  0.00074 
C41   1     0.35830  0.31199  0.33518  11.00000  0.14824  0.05925  0.09206 =
 0.01861 -0.05279 -0.02123 
AFIX 43
H41   3     0.33150  0.28796  0.32454  11.00000 -1.20000 
AFIX 0
C42   1     0.39424  0.30468  0.37381  11.00000  0.14794  0.06119  0.11532 =
 0.03642 -0.05326 -0.01997 
AFIX 43
H42   3     0.39226  0.27492  0.38961  11.00000 -1.20000 
AFIX 0
Fe1   2     0.31394  0.65725  0.00000  10.50000  0.10342  0.03319  0.04659 =
 0.00000 -0.00000  0.00188 
Fe2   2     0.41517  0.57026  0.00000  10.50000  0.09827  0.03265  0.04418 =
 0.00000 -0.00000  0.00035 
Fe3   2     0.46223  0.68052  0.00000  10.50000  0.10343  0.03178  0.03871 =
 0.00000 -0.00000  0.00527 
Fe4   2     0.56166  0.37433  0.50000  10.50000  0.08171  0.02836  0.05232 =
 0.00000 -0.00000  0.00375 
Fe5   2     0.52543  0.26018  0.50000  10.50000  0.08153  0.03183  0.04505 =
 0.00000 -0.00000  0.00631 
Fe6   2     0.67015  0.29288  0.50000  10.50000  0.08421  0.02970  0.04562 =
 0.00000 -0.00000  0.00364 
N1    4     0.16474  0.44476  0.25283  11.00000  0.09116  0.04057  0.05246 =
 -0.00510 -0.00999 -0.00653 
N2    4     0.27517  0.43858  0.29418  11.00000  0.09711  0.04896  0.03098 =
 -0.00460 -0.00124 -0.00813 
N3    4     0.25309  0.39275  0.21194  11.00000  0.09189  0.04577  0.03774 =
 -0.00668 -0.00971 -0.00225 
O1    5     0.16791  0.43136  0.16239  11.00000  0.10361  0.06463  0.04141 =
 0.01101 -0.01663 -0.01911 
O2    5     0.14006  0.36626  0.21334  11.00000  0.10004  0.04678  0.04931 =
 -0.00857  0.00181 -0.02392 
O3    5     0.35411  0.43469  0.23163  11.00000  0.09142  0.05202  0.04365 =
 -0.00454  0.00670 -0.01297 
O4    5     0.32450  0.35885  0.27196  11.00000  0.09955  0.04984  0.05352 =
 -0.00017 -0.02047 -0.00211 
O5    5     0.17862  0.45634  0.34325  11.00000  0.10931  0.03940  0.03952 =
 0.00199  0.01381 -0.01350 
O6    5     0.21377  0.51777  0.29088  11.00000  0.11186  0.03797  0.03342 =
 0.00189 -0.00565 -0.01999 
O7    5     0.35615  0.55187  0.04880  11.00000  0.12325  0.06877  0.12178 =
 0.04448  0.04595  0.02119 
O8    5     0.28494  0.60697  0.05139  11.00000  0.12731  0.05569  0.07704 =
 0.01302  0.01936  0.01121 
O9    5     0.51941  0.42904  0.04965  11.00000  0.11995  0.04657  0.05850 =
 0.00511  0.02443  0.00549 
O10   5     0.48895  0.35282  0.05127  11.00000  0.11648  0.05306  0.05437 =
 -0.01368  0.01864 -0.00456 
O11   5     0.07146  0.22238  0.05055  11.00000  0.11970  0.05987  0.09296 =
 -0.03770 -0.01295  0.00481 
O12   5     0.17017  0.20818  0.05336  11.00000  0.11626  0.05830  0.06514 =
 -0.01618  0.00246 -0.00215 
O13   5     0.47541  0.29009  0.44831  11.00000  0.09960  0.05840  0.06224 =
 0.01835 -0.02240 -0.00119 
O14   5     0.49963  0.36651  0.44877  11.00000  0.12205  0.05722  0.07910 =
 0.00885 -0.03645  0.01322 
O15   5     0.16191  0.25874  0.45093  11.00000  0.09844  0.06068  0.09720 =
 0.03570  0.01454  0.00380 
O16   5     0.06666  0.28031  0.45095  11.00000  0.10503  0.06222  0.09859 =
 0.04204  0.01269  0.00037 
O17   5     0.38053  0.60615  0.44957  11.00000  0.10823  0.05756  0.12811 =
 -0.04093 -0.04365  0.01513 
O18   5     0.30681  0.66022  0.44995  11.00000  0.09764  0.05532  0.06991 =
 -0.01867 -0.01271  0.00432 
O19   5     0.39975  0.63504  0.00000  10.50000  0.10129  0.03872  0.03718 =
 0.00000 -0.00000  0.00875 
O20   5     0.43467  0.49554  0.00000  10.50000  0.08933  0.04654  0.10864 =
 0.00000 -0.00000  0.00559 
AFIX 7
H20a  3     0.40323  0.47946  0.01026  10.50000 -1.50000 
H20b  3     0.46300  0.48904  0.02073  10.50000 -1.50000 
AFIX 0
O21   5     0.53301  0.72895  0.00000  10.50000  0.12476  0.05078  0.08474 =
 0.00000 -0.00000 -0.01558 
AFIX 7
H21a  3     0.54469  0.75149  0.02450  10.50000 -1.50000 
H21b  3     0.56294  0.73463 -0.02449  10.50000 -1.50000 
AFIX 0
O22   5     0.22718  0.68109  0.00000  10.50000  0.12970  0.07451  0.11450 =
 0.00000 -0.00000  0.01651 
AFIX 7
H22a  3     0.20451  0.68722  0.02422  10.50000 -1.50000 
H22b  3     0.20451  0.68722 -0.02422  10.50000 -1.50000 
AFIX 0
O23   5     0.58519  0.30963  0.50000  10.50000  0.08764  0.02836  0.03926 =
 0.00000 -0.00000  0.00575 
O24   5     0.45987  0.20830  0.50000  10.50000  0.10420  0.05321  0.09854 =
 0.00000 -0.00000 -0.01015 
AFIX 7
H24a  3     0.42377  0.20734  0.51725  10.50000 -1.50000 
H24b  3     0.45896  0.17983  0.48259  10.50000 -1.50000 
AFIX 0
O25   5     0.76008  0.27745  0.50000  10.50000  0.10561  0.07486  0.10539 =
 0.00000 -0.00000  0.01656 
AFIX 7
H25a  3     0.78104  0.25812  0.52048  10.50000 -1.50000 
H25b  3     0.78925  0.28837  0.47962  10.50000 -1.50000 
AFIX 0
O26   5     0.53611  0.44423  0.50000  10.50000  0.12469  0.03752  0.16189 =
 0.00000 -0.00000  0.01626 
AFIX 7
H26a  3     0.52945  0.46244  0.52422  10.50000 -1.50000 
H26b  3     0.52945  0.46244  0.47578  10.50000 -1.50000 
AFIX 0
P1    6     0.20948  0.46181  0.29313  11.00000  0.09408  0.03297  0.03295 =
 -0.00036  0.00089 -0.01039 
P2    6     0.29832  0.40733  0.25244  11.00000  0.08733  0.04193  0.03414 =
 0.00037 -0.00232 -0.00643 
P3    6     0.18502  0.41004  0.21232  11.00000  0.09348  0.04052  0.03558 =
 -0.00046 -0.00608 -0.01378 
HKLF 4

END
Q1 1 0.45 0.54 0 11 0.05 0.55
Q5 1 0.516667 0.4 0.5 11 0.05 0.45
Q8 1 0.15 0.193333 0 11 0.05 0.39
Q4 1 0.5 0.653333 0 11 0.05 0.5
Q2 1 0.45 0.593333 0 11 0.05 0.52
Q6 1 0.65 0.246667 0.5 11 0.05 0.45
Q17 1 0.25 0.44 0.293333 11 0.05 0.33
Q20 1 0.35 0.546667 0 11 0.05 0.32
Q19 1 0.233333 0.493333 0.293333 11 0.05 0.33
Q16 1 0.3 0.52 0.36 11 0.05 0.34
Q21 1 0.483333 0.286667 0.5 11 0.05 0.32
Q31 1 0.766667 0.24 0.5 11 0.05 0.28
Q23 1 0.3 0.56 0.12 11 0.05 0.31
Q26 1 0.316667 0.42 0.32 11 0.05 0.31
Q28 1 0.183333 0.366667 0.346667 11 0.05 0.3
Q69 1 0.116667 0.313333 0.093333 11 0.05 0.23
Q36 1 0.4 0.3 0.426667 11 0.05 0.27
Q27 1 0.266667 0.633333 0.453333 11 0.05 0.31
Q59 1 0.533333 0.76 0 11 0.05 0.24
Q18 1 0.316667 0.546667 0.4 11 0.05 0.33
Q15 1 0.4 0.22 0.5 11 0.05 0.36
Q32 1 0.566667 0.473333 0.066667 11 0.05 0.28
Q45 1 0.133333 0.373333 0.346667 11 0.05 0.26
Q44 1 0.483333 0.473333 0 11 0.05 0.27
Q34 1 0.216667 0.546667 0.28 11 0.05 0.28
Q51 1 0.366667 0.573333 0.066667 11 0.05 0.25
Q3 1 0.533333 0.466667 0.453333 11 0.05 0.52
Q9 1 0.55 0.34 0.5 11 0.05 0.38
Q11 1 0.4 0.58 0.5 11 0.05 0.37
Q7 1 0.483333 0.226667 0.5 11 0.05 0.41
Q10 1 0.5 0.5 0.546667 11 0.05 0.38
Q13 1 0.85 0.266667 0.533333 11 0.05 0.37
Q48 1 0.35 0.653333 0.5 11 0.05 0.26
Q22 1 0.316667 0.513333 0.093333 11 0.05 0.32
Q39 1 0.283333 0.566667 0 11 0.05 0.27
Q42 1 0.433333 0.306667 0.453333 11 0.05 0.27
Q47 1 0.05 0.333333 0.373333 11 0.05 0.26
Q33 1 0.183333 0.24 0.026667 11 0.05 0.28
Q37 1 0.483333 0.273333 0.453333 11 0.05 0.27
Q38 1 0.2 0.36 0.226667 11 0.05 0.27
Q68 1 0.566667 0.286667 0.5 11 0.05 0.24
Q52 1 0.466667 0.513333 0.026667 11 0.05 0.25
Q40 1 0.383333 0.426667 0.32 11 0.05 0.27
Q57 1 0.316667 0.633333 0.466667 11 0.05 0.25
Q43 1 0.166667 0.306667 0.386667 11 0.05 0.27
Q60 1 0.466667 0.153333 0.48 11 0.05 0.24
Q61 1 0.383333 0.366667 0.173333 11 0.05 0.24
Q67 1 0.133333 0.5 0.12 11 0.05 0.24
Q46 1 0.5 0.353333 0.48 11 0.05 0.26
Q58 1 0.633333 0.313333 0.5 11 0.05 0.25
Q64 1 0.3 0.66 0.44 11 0.05 0.24
Q41 1 0.366667 0.393333 0.333333 11 0.05 0.27
Q12 1 0.35 0.633333 0 11 0.05 0.37
Q53 1 0.066667 0.286667 0.12 11 0.05 0.25
Q25 1 0.033333 0.286667 0.5 11 0.05 0.31
Q56 1 0.383333 0.533333 0.04 11 0.05 0.25
Q24 1 0.5 0.446667 0.053333 11 0.05 0.31
Q66 1 0.4 0.373333 0.306667 11 0.05 0.24
Q29 1 0.183333 0.52 0.293333 11 0.05 0.3
Q70 1 0.683333 0.2 0.5 11 0.05 0.23
Q71 1 0.4 0.4 0.2 11 0.05 0.23
Q62 1 0.483333 0.186667 0.5 11 0.05 0.24
Q14 1 0.5 0.706667 0 11 0.05 0.37
Q30 1 0.183333 0.466667 0.16 11 0.05 0.3
Q63 1 0.283333 0.62 0.5 11 0.05 0.24
Q72 1 0.366667 0.406667 0.24 11 0.05 0.23
Q73 1 0.433333 0.44 0.186667 11 0.05 0.23
Q35 1 0.716667 0.306667 0.5 11 0.05 0.28
Q50 1 0.316667 0.506667 0 11 0.05 0.26
Q49 1 0.383333 0.326667 0.32 11 0.05 0.26
Q54 1 0.233333 0.513333 0.16 11 0.05 0.25
Q55 1 0.4 0.626667 0.453333 11 0.05 0.25
Q65 1 0.216667 0.393333 0.213333 11 0.05 0.24

  REM The information below was added by Olex2.
  REM
  REM R1 = 0.0648 for 9993 Fo > 4sig(Fo) and 0.0684 for all 11074 data
  REM 680 parameters refined using 0 restraints
  REM Highest difference peak 0.5478, deepest hole -0.4719
  REM Mean Shift 0.0000, Max Shift 0.0001.

  REM +++ Tabular Listing of Refinement Information +++
  REM R1_all = 0.0684
  REM R1_gt = 0.0648
  REM wR_ref = 0.1961
  REM GOOF = 1.0554
  REM Shift_max = 0.0001
  REM Shift_mean = 0.0000
  REM Reflections_all = 11074
  REM Reflections_gt = 9993
  REM Parameters = 680
  REM Hole = -0.4719
  REM Peak = 0.5478
  REM Flack = n/a

  
;
_cod_data_source_file            d0dt02504f2.cif
_cod_data_source_block           p_sqd
_cod_depositor_comments          'Adding full bibliography for 7706646.cif.'
_cod_original_formula_sum        'C57 Fe3 H73 N8 O31 P3 '
_cod_database_code               7706646
_olex2_refinement_description
;
1. Fixed Uiso
 At 1.2 times of:
  All C(H) groups
 At 1.5 times of:
  All O(H,H) groups
2. Others
 Fixed Sof: H20a(0.5) H20b(0.5) H21a(0.5) H21b(0.5) H22A(0.5) H22B(0.5)
 H24a(0.5) H24b(0.5) H25a(0.5) H25b(0.5) H26A(0.5) H26B(0.5) H26a(0.5)
 H26b(0.5) H22a(0.5) H22b(0.5)
3.a Rotating group:
 O20(H20a,H20b), O21(H21a,H21b), O24(H24a,H24b), O25(H25a,H25b), O26(H26a,
 H26b), O22(H22a,H22b)
3.b Aromatic/amide H refined with riding coordinates:
 C3(H3), C4(H4), C6(H6), C7(H7), C10(H10), C11(H11), C13(H13), C14(H14),
 C17(H17), C18(H18), C20(H20), C21(H21), C24(H24), C25(H25), C27(H27), C28(H28),
  C31(H31), C32(H32), C34(H34), C35(H35), C38(H38), C39(H39), C41(H41), C42(H42)
;
_smtbx_masks_special_details
;
A solvent mask was calculated and 1939 electrons were 
found in a volume of 10350\%A^3^ in 1 void per unit cell. 
This is consistent with the presence of 
4[H2O], 5[C3H7NO] per Formula Unit 
which account for 1920 electrons 
per unit cell.
;
_smtbx_masks_void_probe_radius   1.2
_smtbx_masks_void_truncation_radius 1.2
_shelx_fab_file
;
0 0 1 165.7147 -0.0087
0 0 2 -326.8102 -9.8656
0 0 3 41.0296 -0.1869
0 0 4 216.1879 -11.8200
0 0 5 31.4983 -0.1013
0 0 6 49.7093 -10.6498
0 0 7 24.4325 -0.2018
0 0 8 120.9693 -10.9162
0 0 9 -2.1287 -0.1946
0 0 10 -83.0338 -10.7424
0 0 11 3.6513 -0.0555
0 0 12 112.6703 -9.6569
0 0 13 -7.5360 -0.2411
0 0 14 -19.8485 -10.0103
0 0 15 -24.5280 -0.0674
0 0 16 66.7462 -8.9642
0 0 17 -7.7012 -0.2004
0 0 18 21.0874 -8.3329
0 0 19 35.0482 -0.3510
0 0 20 -12.1039 -8.5482
0 0 21 7.4070 0.0427
0 0 22 -46.3596 -6.2102
0 0 23 67.4880 -0.6393
0 0 24 -11.4164 -7.3195
0 0 25 47.5561 0.1584
0 0 26 1.9794 -4.7719
0 0 27 14.3728 -0.6070
0 0 28 9.4254 -5.3385
0 0 29 -19.9481 0.0034
0 0 30 -2.1989 -4.1147
0 2 0 -70.1924 3.4482
0 2 1 23.3801 -1.6574
0 2 2 212.8034 4.1756
0 2 3 12.2292 -0.6981
0 2 4 77.3074 1.4471
0 2 5 37.7571 0.0661
0 2 6 -41.3942 1.5893
0 2 7 2.7820 -0.6067
0 2 8 43.9603 1.6423
0 2 9 35.5344 -0.5225
0 2 10 -10.7622 1.4774
0 2 11 8.0697 -0.6548
0 2 12 9.0570 1.9020
0 2 13 -20.3385 -0.7009
0 2 14 34.0478 1.3995
0 2 15 5.5272 -0.3751
0 2 16 27.0187 1.6482
0 2 17 -3.4717 -0.6287
0 2 18 25.3373 1.5495
0 2 19 1.2540 -0.3761
0 2 20 -29.1831 1.0816
0 2 21 49.9129 -0.4948
0 2 22 -30.7117 1.5586
0 2 23 23.0873 -0.4534
0 2 24 2.0141 0.7086
0 2 25 19.2297 -0.1046
0 2 26 -20.3775 1.2687
0 2 27 -30.9770 -0.1929
0 2 28 12.2518 0.6340
0 2 29 3.4054 -0.1489
0 2 30 3.5855 1.3941
0 4 0 -67.9607 3.8631
0 4 1 -112.8823 1.3270
0 4 2 -130.6830 2.7786
0 4 3 121.9888 1.2820
0 4 4 -94.3346 4.2922
0 4 5 -164.4042 1.3962
0 4 6 -28.2025 3.6423
0 4 7 -4.8166 -0.1056
0 4 8 -102.8421 4.3169
0 4 9 25.6498 0.6992
0 4 10 10.0697 3.5117
0 4 11 -2.7955 0.4204
0 4 12 -5.5756 3.7370
0 4 13 -19.3633 0.4628
0 4 14 -13.9269 3.1204
0 4 15 -9.2784 0.8479
0 4 16 2.1487 3.1716
0 4 17 -26.0299 0.0730
0 4 18 -9.3358 2.7139
0 4 19 3.6426 0.9626
0 4 20 -17.2876 2.7570
0 4 21 3.6206 0.0828
0 4 22 0.9720 2.2297
0 4 23 8.6297 0.6216
0 4 24 -37.7189 2.3646
0 4 25 -12.2009 0.1887
0 4 26 18.4237 1.6373
0 4 27 11.6041 0.3855
0 4 28 -2.7608 1.5726
0 4 29 -26.6254 1.0567
0 4 30 2.3108 0.5903
0 6 0 -40.6364 -0.5811
0 6 1 -39.7313 -1.6471
0 6 2 37.9866 -2.5635
0 6 3 66.7756 -2.0426
0 6 4 -71.8680 -1.0639
0 6 5 3.4711 -1.4092
0 6 6 -3.9881 -2.0549
0 6 7 59.9824 -2.1926
0 6 8 -20.9396 -1.1347
0 6 9 -18.5504 -1.3323
0 6 10 -45.8200 -1.6046
0 6 11 11.5623 -1.8135
0 6 12 -4.3477 -1.4179
0 6 13 -32.4524 -1.4990
0 6 14 -1.2792 -1.4182
0 6 15 -14.9439 -1.1515
0 6 16 7.5572 -1.2335
0 6 17 -0.1490 -1.6331
0 6 18 0.9891 -1.4047
0 6 19 -0.7496 -0.6731
0 6 20 1.4286 -0.8285
0 6 21 7.8577 -1.4883
0 6 22 -4.2641 -1.4346
0 6 23 7.7616 -0.6423
0 6 24 0.1494 -0.5087
0 6 25 4.7687 -1.0452
0 6 26 -10.4667 -1.2896
0 6 27 -0.8534 -0.8395
0 6 28 11.5559 -0.3335
0 6 29 -11.9237 -1.0645
0 8 0 80.0423 1.9873
0 8 1 24.1734 5.7985
0 8 2 -44.3102 1.4297
0 8 3 -51.4516 5.8148
0 8 4 -9.5318 1.7925
0 8 5 3.5110 5.6957
0 8 6 42.7547 1.7836
0 8 7 31.4041 5.7223
0 8 8 -49.9548 1.7109
0 8 9 2.5491 5.6084
0 8 10 -11.8140 1.6957
0 8 11 14.3779 5.3119
0 8 12 28.5188 1.3934
0 8 13 9.0698 5.0580
0 8 14 -7.4297 1.5048
0 8 15 -6.0849 4.5603
0 8 16 8.3183 1.3579
0 8 17 -7.6930 4.4533
0 8 18 -2.4570 1.3525
0 8 19 4.5931 3.9953
0 8 20 -11.4702 1.3663
0 8 21 2.0088 3.7486
0 8 22 -3.0835 1.0579
0 8 23 -5.1460 3.3691
0 8 24 -6.4667 1.3511
0 8 25 -3.1645 2.8641
0 8 26 4.9487 0.9566
0 8 27 -4.5768 2.3635
0 8 28 -3.4613 0.9065
0 8 29 -5.3772 2.3646
0 10 0 40.8407 1.0727
0 10 1 -34.2183 1.8323
0 10 2 26.4471 1.9066
0 10 3 54.7323 2.3605
0 10 4 5.3927 0.9481
0 10 5 0.1749 1.3435
0 10 6 -17.8275 1.7780
0 10 7 -6.0271 2.3005
0 10 8 -9.8909 0.9542
0 10 9 8.4287 1.2691
0 10 10 -16.5826 1.6884
0 10 11 -1.3889 1.7191
0 10 12 -14.5064 1.1243
0 10 13 -14.4451 1.6353
0 10 14 3.8101 1.5416
0 10 15 -3.9144 1.0051
0 10 16 -0.9672 1.0646
0 10 17 0.8756 1.7861
0 10 18 0.4825 1.2822
0 10 19 -6.9752 0.6316
0 10 20 -1.9831 0.7973
0 10 21 0.1323 1.5056
0 10 22 -3.0801 1.0596
0 10 23 -7.5184 0.7630
0 10 24 -2.6286 0.5263
0 10 25 -0.6773 0.9998
0 10 26 -2.1079 0.9667
0 10 27 -0.2407 0.9669
0 10 28 -1.1918 0.2139
0 12 0 22.5126 -1.2842
0 12 1 10.7026 -6.0329
0 12 2 0.6614 -0.4468
0 12 3 14.4105 -5.4310
0 12 4 -5.1027 -1.2300
0 12 5 14.5808 -6.4703
0 12 6 -2.6562 -0.4402
0 12 7 23.4549 -5.0581
0 12 8 -11.0714 -1.2046
0 12 9 25.8151 -5.7733
0 12 10 18.0911 -0.4754
0 12 11 -0.4028 -4.9175
0 12 12 22.0050 -1.0266
0 12 13 6.0458 -4.7292
0 12 14 7.6848 -0.5152
0 12 15 0.3599 -4.9539
0 12 16 6.4781 -0.7886
0 12 17 -0.8827 -3.7237
0 12 18 8.0277 -0.6016
0 12 19 9.7942 -4.3877
0 12 20 -4.5985 -0.8672
0 12 21 1.7296 -2.9731
0 12 22 5.1794 -0.5981
0 12 23 2.3376 -3.3663
0 12 24 -0.4051 -0.7889
0 12 25 -1.0446 -2.7072
0 12 26 0.1686 -0.4460
0 12 27 -0.5788 -2.5802
0 14 0 15.7116 -0.6684
0 14 1 -13.3081 -0.6067
0 14 2 5.9143 -1.4321
0 14 3 14.4126 -0.2406
0 14 4 8.5365 -0.8688
0 14 5 11.1638 -0.6733
0 14 6 -4.3319 -1.1272
0 14 7 14.4061 -0.0780
0 14 8 0.6403 -1.0918
0 14 9 6.4658 -0.4119
0 14 10 -1.3346 -0.8246
0 14 11 -0.4564 -0.2082
0 14 12 2.8085 -1.1156
0 14 13 -6.2131 -0.1244
0 14 14 12.8249 -0.8140
0 14 15 2.5269 -0.3198
0 14 16 3.8601 -0.8583
0 14 17 -0.0100 0.0645
0 14 18 -2.0576 -0.9312
0 14 19 1.4481 -0.2918
0 14 20 7.4085 -0.4299
0 14 21 6.4488 0.0040
0 14 22 -6.8044 -0.8552
0 14 23 1.5424 -0.2363
0 14 24 2.2018 0.0035
0 14 25 -1.1528 -0.3775
0 14 26 -0.5022 -0.6178
0 16 0 13.8542 -1.8928
0 16 1 -4.4827 1.1024
0 16 2 -6.8053 -3.6922
0 16 3 -6.9482 1.0468
0 16 4 -7.6634 -2.1588
0 16 5 -5.3632 1.0537
0 16 6 -8.5202 -3.2124
0 16 7 -2.2127 0.8982
0 16 8 -13.2013 -2.5791
0 16 9 3.6767 0.9579
0 16 10 -0.5417 -2.5222
0 16 11 -5.2326 0.7687
0 16 12 -1.2061 -2.6336
0 16 13 -6.9117 0.7773
0 16 14 -10.1667 -2.1078
0 16 15 -7.7489 0.7766
0 16 16 5.8033 -1.9846
0 16 17 -1.6286 0.5192
0 16 18 -3.3121 -2.1192
0 16 19 -13.9111 0.6206
0 16 20 -7.2726 -1.4115
0 16 21 1.9977 0.2128
0 16 22 3.2722 -2.0066
0 16 23 0.5823 0.7098
0 16 24 -4.9773 -0.8625
0 16 25 1.5123 0.2115
0 18 0 5.6367 0.1812
0 18 1 -23.1210 -0.7923
0 18 2 1.0791 -0.9188
0 18 3 1.1714 -0.8390
0 18 4 -3.0707 0.0833
0 18 5 -4.3034 -0.6886
0 18 6 -6.1311 -0.4550
0 18 7 3.5782 -0.8289
0 18 8 -5.8782 -0.2115
0 18 9 -10.6048 -0.6239
0 18 10 -5.7889 -0.1407
0 18 11 4.2295 -0.7117
0 18 12 -4.8922 -0.4435
0 18 13 -3.1585 -0.6417
0 18 14 -2.7574 -0.0618
0 18 15 -3.9680 -0.5118
0 18 16 0.2921 -0.3658
0 18 17 0.3801 -0.7243
0 18 18 1.7566 -0.2483
0 18 19 -4.8959 -0.4513
0 18 20 -1.1188 0.1048
0 18 21 2.2822 -0.6263
0 18 22 -7.9852 -0.4210
0 18 23 -1.4973 -0.2727
0 18 24 1.5750 0.3932
0 20 0 34.4470 2.7881
0 20 1 -3.8026 -0.0038
0 20 2 1.2670 3.3600
0 20 3 -8.8525 -0.0038
0 20 4 -10.5895 2.7469
0 20 5 -0.4069 -0.0202
0 20 6 -7.7401 3.1366
0 20 7 2.6211 0.0948
0 20 8 -10.8292 2.6910
0 20 9 0.9218 0.0031
0 20 10 -3.5900 2.8785
0 20 11 -3.9608 0.0612
0 20 12 3.4740 2.5460
0 20 13 4.7019 0.0662
0 20 14 -0.0671 2.4935
0 20 15 -3.1633 0.0462
0 20 16 1.2948 2.0159
0 20 17 -4.9603 0.3044
0 20 18 4.9155 2.1410
0 20 19 5.4008 0.0838
0 20 20 -9.6311 1.6642
0 20 21 -2.3447 0.6360
0 20 22 -0.5958 1.7055
0 22 0 4.5657 0.9136
0 22 1 -8.2121 1.2040
0 22 2 8.6976 2.3388
0 22 3 -0.8916 1.3226
0 22 4 3.5471 1.1225
0 22 5 1.0666 1.1154
0 22 6 -1.4084 1.8688
0 22 7 -1.5490 1.2713
0 22 8 -0.9593 1.4096
0 22 9 -4.0312 0.9495
0 22 10 -1.6732 1.3807
0 22 11 -9.8219 1.1870
0 22 12 -4.5425 1.4568
0 22 13 -1.0068 1.1180
0 22 14 0.8411 1.2203
0 22 15 -2.8664 0.7501
0 22 16 0.5182 1.3041
0 22 17 -1.6083 0.7121
0 22 18 -0.3866 1.3655
0 22 19 0.5064 0.1785
0 22 20 -0.6589 1.2298
0 24 0 9.2846 -1.3597
0 24 1 7.6405 2.9994
0 24 2 8.3708 -0.7061
0 24 3 4.4619 2.8739
0 24 4 8.9115 -1.1872
0 24 5 1.4801 2.8561
0 24 6 -3.6037 -0.8879
0 24 7 6.9654 2.6526
0 24 8 5.5403 -0.7200
0 24 9 -7.5998 2.4758
0 24 10 6.8146 -1.1013
0 24 11 -2.6788 2.4165
0 24 12 0.9710 -0.6380
0 24 13 4.3548 2.2826
0 24 14 1.8195 -1.0201
0 24 15 0.7405 2.1244
0 24 16 5.9323 -0.5079
0 24 17 0.5119 2.0050
0 24 18 1.0578 -0.8697
0 26 0 4.4730 -0.6869
0 26 1 3.4082 -1.5506
0 26 2 -0.5112 -0.9880
0 26 3 1.9179 -1.8534
0 26 4 2.4300 -0.5648
0 26 5 8.0432 -1.3061
0 26 6 7.2152 -1.0135
0 26 7 3.2589 -1.7444
0 26 8 3.1918 -0.5060
0 26 9 4.0226 -1.0073
0 26 10 -2.5075 -1.1493
0 26 11 1.3353 -1.2602
0 26 12 6.2933 -0.7348
0 26 13 3.3929 -0.8712
0 26 14 4.4257 -1.2745
0 26 15 -0.8516 -0.6840
0 28 0 -4.4881 0.3772
0 28 1 -0.2998 -2.7896
0 28 2 3.3944 -0.0287
0 28 3 -2.8356 -3.1326
0 28 4 0.3880 0.3774
0 28 5 -1.9777 -2.4018
0 28 6 -5.9793 -0.0706
0 28 7 0.9274 -2.9488
0 28 8 2.1793 0.4307
0 28 9 3.4579 -2.3858
0 28 10 3.4430 0.0461
1 1 0 -374.3976 -3.6450
1 1 1 -99.1016 -1.6962
1 1 2 -72.8432 -1.7920
1 1 3 -43.0126 -0.3499
1 1 4 13.4265 -0.5375
1 1 5 0.2328 -1.0244
1 1 6 114.4560 0.4713
1 1 7 11.6918 -1.5639
1 1 8 -8.9456 0.1424
1 1 9 49.6902 -1.1175
1 1 10 -10.4015 0.6038
1 1 11 0.0984 -1.0605
1 1 12 32.6121 -0.3846
1 1 13 -0.8878 -0.7625
1 1 14 9.6909 -0.1088
1 1 15 8.5282 -0.9221
1 1 16 6.9679 -0.7325
1 1 17 -5.1751 -0.8467
1 1 18 -23.7510 -0.1355
1 1 19 -1.5341 -0.7889
1 1 20 38.8821 -0.0955
1 1 21 -30.8452 -0.7827
1 1 22 -3.1352 -0.0223
1 1 23 0.8928 -0.6180
1 1 24 -4.9191 0.1165
1 1 25 -8.5173 -0.6747
1 1 26 2.1125 -0.2093
1 1 27 -6.2021 -0.5077
1 1 28 6.9757 -0.4685
1 1 29 -3.4614 -0.5297
1 1 30 6.0660 -0.8084
1 2 0 -326.6952 4.5347
1 2 1 -11.6093 -0.7422
1 2 2 302.2527 2.8543
1 2 3 121.4771 -1.2825
1 2 4 132.4383 0.2336
1 2 5 -35.8197 -0.4385
1 2 6 56.3868 -0.5841
1 2 7 10.2125 -0.2053
1 2 8 -9.6238 -1.2150
1 2 9 2.0881 0.0695
1 2 10 58.9105 -0.6606
1 2 11 20.0307 -0.4767
1 2 12 -13.5478 0.0262
1 2 13 -1.4589 -0.8993
1 2 14 21.3870 0.0339
1 2 15 13.8366 -0.6071
1 2 16 10.4848 -0.0250
1 2 17 8.2900 -0.3667
1 2 18 -4.3626 -0.2714
1 2 19 -5.9242 -0.2083
1 2 20 5.6344 -0.5397
1 2 21 23.9586 -0.2166
1 2 22 11.4798 0.1046
1 2 23 3.1811 -0.5683
1 2 24 -12.9463 -0.4272
1 2 25 0.0673 -0.2917
1 2 26 13.4885 0.2037
1 2 27 16.5817 -0.3672
1 2 28 -4.4067 0.0322
1 2 29 4.4900 0.3172
1 2 30 1.8771 0.6573
1 3 0 45.2692 3.3441
1 3 1 -59.5024 0.6591
1 3 2 -2.1222 -0.1046
1 3 3 97.6746 0.6055
1 3 4 15.2954 -0.6432
1 3 5 -53.1416 -0.0968
1 3 6 -45.7864 -0.3526
1 3 7 38.7081 0.5854
1 3 8 -27.6335 0.0246
1 3 9 3.2498 0.5815
1 3 10 12.1377 0.1627
1 3 11 -13.0588 0.3960
1 3 12 14.5454 0.2307
1 3 13 0.1239 0.3158
1 3 14 -6.8277 -0.0393
1 3 15 -5.4700 0.1811
1 3 16 0.7998 0.2173
1 3 17 -12.9720 0.1628
1 3 18 1.8297 0.2839
1 3 19 10.6397 0.2983
1 3 20 -3.3993 0.1266
1 3 21 -10.0199 0.3020
1 3 22 6.8364 -0.1050
1 3 23 3.3721 0.3081
1 3 24 -16.6827 -0.0013
1 3 25 1.0813 0.2338
1 3 26 9.3080 0.0762
1 3 27 -5.9300 0.0392
1 3 28 6.9502 0.4355
1 3 29 -3.8746 0.2785
1 3 30 1.5128 0.8373
1 4 0 174.1703 -2.0767
1 4 1 -49.1221 0.6792
1 4 2 -31.1347 -0.7618
1 4 3 -8.8422 0.9181
1 4 4 -75.9892 0.0449
1 4 5 -68.8835 0.5052
1 4 6 17.4270 1.3507
1 4 7 -1.0918 -0.2898
1 4 8 12.8368 1.4508
1 4 9 9.4361 0.3694
1 4 10 -2.0076 0.8130
1 4 11 23.3642 0.6074
1 4 12 29.9724 0.5324
1 4 13 0.9827 0.6969
1 4 14 -6.6258 -0.0889
1 4 15 5.6833 0.7510
1 4 16 2.7864 0.4283
1 4 17 3.8069 -0.0359
1 4 18 5.8369 0.8262
1 4 19 0.8527 0.1198
1 4 20 -4.1632 0.8230
1 4 21 -5.5404 0.2533
1 4 22 1.1368 0.7393
1 4 23 1.7424 0.4338
1 4 24 -15.8025 0.1621
1 4 25 1.0325 0.5136
1 4 26 -2.3337 0.4282
1 4 27 7.0111 -0.0441
1 4 28 4.3080 -0.1697
1 4 29 -7.2520 0.0379
1 5 0 50.6962 -2.1041
1 5 1 -62.6062 -0.0089
1 5 2 -14.4827 -0.9708
1 5 3 70.1970 -0.7352
1 5 4 -3.6449 0.2297
1 5 5 -51.8281 -0.7090
1 5 6 18.1482 0.3213
1 5 7 -36.0367 -1.0056
1 5 8 -11.6312 0.1077
1 5 9 9.7480 -1.0991
1 5 10 -30.0871 -0.1396
1 5 11 -2.5039 -0.8364
1 5 12 10.9455 0.1312
1 5 13 -28.7775 -0.7329
1 5 14 -10.5825 0.1017
1 5 15 6.0981 -0.4541
1 5 16 9.3595 0.0767
1 5 17 -3.8620 -0.4357
1 5 18 -2.2997 -0.1788
1 5 19 2.9294 -0.4174
1 5 20 -3.0479 -0.1357
1 5 21 -0.9313 -0.6295
1 5 22 -4.4837 0.0674
1 5 23 12.0549 -0.6242
1 5 24 -3.2267 0.0064
1 5 25 -0.0676 -0.5214
1 5 26 -0.1791 0.0452
1 5 27 -8.4584 -0.2237
1 5 28 8.9941 -0.1820
1 5 29 4.5025 -0.0502
1 6 0 -59.4004 1.2424
1 6 1 22.4682 -1.8386
1 6 2 -4.3877 0.0408
1 6 3 -149.7488 -0.9663
1 6 4 26.9818 -0.8009
1 6 5 17.2361 0.8933
1 6 6 13.3418 -0.9855
1 6 7 8.1890 0.7017
1 6 8 -15.4670 -1.2522
1 6 9 -47.6024 0.7605
1 6 10 -13.4856 -1.2644
1 6 11 3.0855 -0.1403
1 6 12 -17.8081 -0.3220
1 6 13 -8.0732 -0.5570
1 6 14 -4.3570 -0.6599
1 6 15 -18.3018 0.0196
1 6 16 0.6913 -0.4365
1 6 17 6.9764 0.0161
1 6 18 -0.3932 -0.6566
1 6 19 -1.8079 0.4860
1 6 20 0.0780 -0.7776
1 6 21 1.6300 -0.0826
1 6 22 -7.1119 -0.2988
1 6 23 -1.0310 -0.2689
1 6 24 0.0506 -0.6084
1 6 25 1.3898 -0.2749
1 6 26 -0.3394 -0.1769
1 6 27 -8.7106 -0.1518
1 6 28 -0.7081 0.0302
1 6 29 1.0045 0.1828
1 7 0 5.5532 1.7813
1 7 1 2.8170 -1.3781
1 7 2 -20.3098 1.0351
1 7 3 -29.9020 -0.9943
1 7 4 -31.5429 0.5115
1 7 5 -24.9632 0.7533
1 7 6 -5.1279 0.2093
1 7 7 11.3025 0.6609
1 7 8 -30.5649 0.8382
1 7 9 -34.4966 0.3471
1 7 10 3.1366 0.6441
1 7 11 2.8725 0.4132
1 7 12 -0.7390 0.6168
1 7 13 -8.3628 0.2872
1 7 14 0.9477 0.4540
1 7 15 -9.1652 0.0734
1 7 16 3.8487 0.5380
1 7 17 -5.5759 0.1543
1 7 18 -5.6840 0.4335
1 7 19 -0.6889 0.1714
1 7 20 -0.4498 0.4083
1 7 21 0.0462 0.2711
1 7 22 -0.7045 0.4150
1 7 23 4.5423 0.4021
1 7 24 -5.9440 0.2396
1 7 25 3.6214 0.0543
1 7 26 1.7572 0.3577
1 7 27 0.5546 -0.4297
1 7 28 5.3650 0.3402
1 7 29 1.9618 0.0432
1 8 0 5.5726 -0.7599
1 8 1 -12.5342 2.3815
1 8 2 -25.2861 0.5689
1 8 3 44.6994 -0.2929
1 8 4 -12.7828 0.7193
1 8 5 -0.7338 -0.0327
1 8 6 -2.0354 0.5658
1 8 7 -41.2199 -0.7373
1 8 8 -3.0397 0.9575
1 8 9 32.1475 0.2666
1 8 10 -6.4398 0.4499
1 8 11 -10.1049 0.2039
1 8 12 3.1978 0.5764
1 8 13 9.1405 0.3763
1 8 14 0.1009 0.1363
1 8 15 10.2536 0.4971
1 8 16 -1.0324 0.5230
1 8 17 -9.4973 -0.3881
1 8 18 4.7105 0.4780
1 8 19 -1.9680 0.2543
1 8 20 3.4530 0.3954
1 8 21 0.5661 -0.0855
1 8 22 4.0463 0.4557
1 8 23 5.2747 0.1404
1 8 24 0.0054 0.0664
1 8 25 -0.5113 0.4153
1 8 26 -0.0150 0.2916
1 8 27 1.8001 0.3496
1 8 28 -0.4979 0.2182
1 8 29 -3.1971 0.3452
1 9 0 46.5270 -1.4964
1 9 1 -35.1756 3.6996
1 9 2 -10.8284 -0.2823
1 9 3 21.2023 0.2782
1 9 4 -13.4041 -0.4625
1 9 5 20.7809 0.3036
1 9 6 32.5691 -0.7359
1 9 7 14.9878 0.4862
1 9 8 -10.8233 -0.5517
1 9 9 24.5787 0.9808
1 9 10 -13.2928 -0.7823
1 9 11 -7.4647 0.9464
1 9 12 20.7838 -0.7551
1 9 13 -7.2573 0.8358
1 9 14 0.1138 -0.8451
1 9 15 -0.8488 0.8127
1 9 16 -1.0683 -0.6646
1 9 17 0.4927 0.9192
1 9 18 0.4714 -0.7125
1 9 19 2.9502 0.9151
1 9 20 -4.2053 -0.6017
1 9 21 2.2337 0.6609
1 9 22 -3.4181 -0.5550
1 9 23 5.7594 0.3940
1 9 24 -2.4220 -0.3703
1 9 25 1.8116 0.1096
1 9 26 0.8914 -0.4992
1 9 27 0.2937 0.7591
1 9 28 2.3597 -0.2705
1 10 0 -24.7524 0.1087
1 10 1 0.8251 -0.6229
1 10 2 -2.2825 0.3035
1 10 3 -22.7622 0.3439
1 10 4 13.2204 -0.0735
1 10 5 -12.7347 0.3087
1 10 6 -28.4119 -0.3556
1 10 7 15.7225 -0.3986
1 10 8 2.2259 -0.0488
1 10 9 7.6065 -0.1594
1 10 10 0.4123 -0.5599
1 10 11 10.2299 -0.0879
1 10 12 -25.9260 -0.2335
1 10 13 0.9341 0.0431
1 10 14 6.1295 -0.3624
1 10 15 -1.9202 0.1691
1 10 16 -7.2588 -0.1553
1 10 17 1.3624 -0.3160
1 10 18 -8.6378 -0.3684
1 10 19 0.6812 0.0449
1 10 20 -9.0053 -0.2587
1 10 21 -2.3406 -0.1503
1 10 22 -1.4154 -0.0427
1 10 23 -1.0664 -0.1358
1 10 24 0.0350 0.1131
1 10 25 -0.5722 -0.1622
1 10 26 -0.8980 0.0287
1 10 27 -1.0019 -0.7555
1 10 28 1.8932 -0.2154
1 11 0 17.2201 1.0909
1 11 1 14.7010 -3.1217
1 11 2 7.7836 0.2309
1 11 3 5.8144 -0.5214
1 11 4 6.9998 0.4451
1 11 5 2.0454 -0.1030
1 11 6 -10.3786 0.4824
1 11 7 20.5930 -0.1722
1 11 8 -11.4382 0.2485
1 11 9 7.5575 -0.4075
1 11 10 6.5903 0.5815
1 11 11 2.2168 -0.7537
1 11 12 0.4033 0.5317
1 11 13 3.7794 -0.5015
1 11 14 8.9749 0.5115
1 11 15 -4.3128 -0.3114
1 11 16 5.3219 0.4123
1 11 17 -2.4997 -0.4031
1 11 18 -0.0214 0.5330
1 11 19 0.4880 -0.4702
1 11 20 -6.4838 0.3948
1 11 21 -1.9573 -0.4068
1 11 22 -1.7182 0.2544
1 11 23 6.0129 -0.0985
1 11 24 -1.5490 0.3815
1 11 25 3.0697 -0.1893
1 11 26 -0.9663 0.2892
1 11 27 -1.2491 -1.1531
1 11 28 -2.9220 0.0596
1 12 0 6.2640 -1.9783
1 12 1 5.6585 -1.5651
1 12 2 0.1733 0.2398
1 12 3 -2.9530 -0.9948
1 12 4 -6.2210 0.3294
1 12 5 7.6293 -0.2533
1 12 6 1.2125 0.0164
1 12 7 -8.2837 -0.2105
1 12 8 -10.1761 -0.2607
1 12 9 1.1583 -0.4527
1 12 10 -18.3216 -0.3557
1 12 11 -6.5834 -0.5305
1 12 12 6.3353 -0.2552
1 12 13 1.7886 -0.4755
1 12 14 -8.5192 -0.1526
1 12 15 1.8702 -0.3743
1 12 16 -1.6334 -0.0081
1 12 17 -1.3119 -0.3211
1 12 18 -3.5676 -0.1216
1 12 19 2.8726 -0.2783
1 12 20 1.1539 -0.2477
1 12 21 -3.2616 -0.2731
1 12 22 -3.7328 -0.1835
1 12 23 -0.4656 -0.3436
1 12 24 -0.4107 -0.0862
1 12 25 -2.3218 -0.2108
1 12 26 -0.7689 -0.0969
1 12 27 -1.7364 -0.6362
1 13 0 15.1254 -0.1747
1 13 1 -7.1111 0.4696
1 13 2 8.1961 -0.4289
1 13 3 22.0638 -0.0031
1 13 4 2.2744 -0.0602
1 13 5 3.1032 -1.0747
1 13 6 7.8051 0.3078
1 13 7 6.4458 -0.9224
1 13 8 0.6998 0.2180
1 13 9 14.0358 -0.6430
1 13 10 1.2901 0.1484
1 13 11 -1.4519 -0.5852
1 13 12 5.2636 0.0263
1 13 13 -1.9677 -0.5193
1 13 14 3.9968 0.0656
1 13 15 0.6412 -0.6621
1 13 16 6.4061 0.0232
1 13 17 -3.9465 -0.6189
1 13 18 5.2411 0.1726
1 13 19 4.5424 -0.5987
1 13 20 2.2860 0.1060
1 13 21 4.3340 -0.4706
1 13 22 0.8424 0.1768
1 13 23 4.7525 -0.2155
1 13 24 -0.8979 0.0498
1 13 25 -0.4405 -0.1722
1 13 26 -0.7509 -0.3463
1 13 27 6.1783 -0.2874
1 14 0 4.8566 0.5523
1 14 1 8.4926 2.1599
1 14 2 7.7185 -0.1814
1 14 3 2.0593 0.2894
1 14 4 7.4460 -0.6397
1 14 5 -0.9561 -0.4620
1 14 6 -1.7868 0.0781
1 14 7 5.1489 0.0912
1 14 8 1.6328 0.2646
1 14 9 -0.5360 0.2430
1 14 10 9.2108 0.2561
1 14 11 13.8196 0.5629
1 14 12 0.3348 -0.0789
1 14 13 -2.9150 0.5023
1 14 14 3.0293 -0.0578
1 14 15 0.2203 0.1792
1 14 16 5.0314 -0.2949
1 14 17 8.7275 0.2244
1 14 18 0.9276 -0.1664
1 14 19 -2.1848 0.0652
1 14 20 4.2671 0.1551
1 14 21 3.5328 0.3383
1 14 22 6.3774 0.1998
1 14 23 -2.0677 0.2427
1 14 24 -0.4638 -0.1057
1 14 25 -0.5518 0.5735
1 14 26 -0.9480 -0.2523
1 15 0 17.5005 -0.2491
1 15 1 -4.0357 0.2792
1 15 2 -5.8483 0.1437
1 15 3 8.5933 1.4121
1 15 4 -0.9598 -0.1642
1 15 5 9.6798 0.9073
1 15 6 -2.2764 -0.8554
1 15 7 10.2301 0.5439
1 15 8 1.5879 -0.9753
1 15 9 9.5288 0.3482
1 15 10 8.6411 -0.6289
1 15 11 3.8257 0.4874
1 15 12 5.0918 -0.1180
1 15 13 1.0934 0.6767
1 15 14 7.5971 -0.0776
1 15 15 -2.1463 0.6677
1 15 16 3.7632 -0.2408
1 15 17 -0.6131 0.6432
1 15 18 -2.3936 -0.3829
1 15 19 3.7473 0.3702
1 15 20 -0.9163 -0.3844
1 15 21 4.3986 0.2933
1 15 22 -2.6377 -0.5523
1 15 23 -1.2158 0.2465
1 15 24 -0.3442 -0.0698
1 15 25 -0.5131 0.3264
1 15 26 -1.8004 -0.2190
1 16 0 4.9462 1.3478
1 16 1 8.1919 -1.1410
1 16 2 5.6046 0.0265
1 16 3 9.1811 0.8874
1 16 4 6.5149 -0.0995
1 16 5 6.8766 0.7676
1 16 6 6.4574 -0.4460
1 16 7 9.3617 0.8573
1 16 8 5.2427 -0.6671
1 16 9 14.2576 0.5351
1 16 10 7.8997 -0.2117
1 16 11 6.8603 0.6666
1 16 12 8.3981 -0.2128
1 16 13 9.7425 0.5190
1 16 14 -0.7696 -0.0222
1 16 15 2.1641 0.4720
1 16 16 3.9420 -0.3586
1 16 17 4.7639 0.7966
1 16 18 -0.0439 -0.4347
1 16 19 0.3345 0.3844
1 16 20 -1.9824 -0.2312
1 16 21 0.7757 0.3280
1 16 22 0.7194 -0.4623
1 16 23 1.7899 0.0026
1 16 24 1.2153 0.1286
1 16 25 -1.5051 0.0327
1 17 0 0.7594 -1.7669
1 17 1 -10.5312 -0.4190
1 17 2 -7.9575 -0.0459
1 17 3 -6.6248 -0.7346
1 17 4 -4.5164 0.0861
1 17 5 -0.1456 -0.5800
1 17 6 -11.5430 -0.3455
1 17 7 0.1236 -0.0733
1 17 8 -11.0448 -0.7610
1 17 9 -3.4124 -0.2835
1 17 10 -3.2644 -0.9851
1 17 11 -10.1077 -0.3671
1 17 12 2.7933 -0.7483
1 17 13 -4.4571 -0.3705
1 17 14 -6.9047 -0.6934
1 17 15 -6.4191 -0.3664
1 17 16 4.1996 -0.4585
1 17 17 -3.9709 -0.3548
1 17 18 1.3807 -0.1673
1 17 19 5.3107 -0.3597
1 17 20 -6.2008 -0.2514
1 17 21 3.5157 -0.0304
1 17 22 1.4407 -0.7182
1 17 23 1.9345 0.0635
1 17 24 -1.8987 -1.0409
1 18 0 -0.9739 -1.1938
1 18 1 0.8930 -0.0750
1 18 2 0.2948 -0.8790
1 18 3 -1.6390 -0.7443
1 18 4 -7.0485 1.0602
1 18 5 4.5019 -0.9724
1 18 6 -0.0086 1.4091
1 18 7 5.9561 -0.3429
1 18 8 -4.4817 0.8364
1 18 9 -11.1941 -0.8144
1 18 10 -4.9736 0.5438
1 18 11 1.6032 -0.8230
1 18 12 -0.6230 0.1037
1 18 13 0.1173 -0.5506
1 18 14 2.3699 0.6669
1 18 15 -3.1478 -0.6035
1 18 16 -6.8662 0.7123
1 18 17 -1.5791 -0.2617
1 18 18 0.5366 0.6965
1 18 19 0.8694 -0.7991
1 18 20 -5.1083 0.7938
1 18 21 -1.1068 -0.4146
1 18 22 -1.3836 0.2248
1 18 23 -0.3306 0.0497
1 18 24 0.8385 0.1844
1 19 0 6.3822 1.8874
1 19 1 -8.6500 0.1548
1 19 2 -3.0105 0.0109
1 19 3 -6.0587 0.4753
1 19 4 6.6416 -0.0648
1 19 5 0.9124 0.5106
1 19 6 -4.5732 0.5014
1 19 7 -3.0436 0.4138
1 19 8 -2.8433 1.1606
1 19 9 2.6255 0.3462
1 19 10 -4.5352 1.3546
1 19 11 -4.9499 0.1952
1 19 12 1.5495 1.1210
1 19 13 -0.2220 0.1794
1 19 14 4.5245 0.6001
1 19 15 -7.9676 0.1236
1 19 16 2.7115 0.6546
1 19 17 0.1387 0.1334
1 19 18 -1.1842 0.8149
1 19 19 -1.8337 0.1203
1 19 20 -3.6113 0.5407
1 19 21 1.4562 -0.0203
1 19 22 -0.2537 1.0717
1 19 23 3.4377 0.2476
1 20 0 2.1614 2.2939
1 20 1 -10.4278 -0.1617
1 20 2 9.0617 0.1155
1 20 3 -5.4663 0.8705
1 20 4 5.7500 -0.2065
1 20 5 -5.3210 0.6053
1 20 6 2.2330 -0.7689
1 20 7 -0.0238 0.5035
1 20 8 -2.0227 -0.3251
1 20 9 8.9202 0.2997
1 20 10 0.9028 0.5864
1 20 11 -7.8537 0.3426
1 20 12 -4.9363 0.0478
1 20 13 3.3323 0.2480
1 20 14 3.8356 0.1238
1 20 15 2.1499 0.0014
1 20 16 1.4771 -0.3267
1 20 17 -3.2701 0.6485
1 20 18 -0.4127 -0.0122
1 20 19 1.4224 0.3728
1 20 20 0.4450 0.1542
1 20 21 -3.9910 -0.0965
1 20 22 -2.8548 -0.0461
1 21 0 2.5667 -0.2428
1 21 1 -1.4983 0.7110
1 21 2 -7.4263 0.1344
1 21 3 -5.0208 -0.7062
1 21 4 -4.5382 0.2953
1 21 5 -1.0376 -0.5548
1 21 6 5.2496 0.5571
1 21 7 5.4995 -0.3422
1 21 8 -5.9139 0.3691
1 21 9 2.7874 -0.1718
1 21 10 -3.0011 0.0031
1 21 11 -3.8395 -0.1580
1 21 12 6.6155 -0.0108
1 21 13 -1.0908 -0.1188
1 21 14 -0.4575 0.0714
1 21 15 -3.6178 -0.0980
1 21 16 1.8724 -0.1399
1 21 17 -3.6374 -0.2872
1 21 18 0.1773 -0.0359
1 21 19 -0.4371 -0.2526
1 21 20 -5.0441 0.0432
1 21 21 4.1350 0.3238
1 22 0 4.1689 0.6949
1 22 1 -8.7539 0.8714
1 22 2 12.1830 -0.0866
1 22 3 -6.5113 0.1849
1 22 4 -3.5475 -0.3367
1 22 5 -0.3815 -0.1206
1 22 6 -7.1908 -0.2347
1 22 7 0.0147 0.4222
1 22 8 0.0284 -0.3125
1 22 9 0.7945 0.3426
1 22 10 0.0172 -0.0289
1 22 11 3.7856 0.4073
1 22 12 -1.5828 -0.3349
1 22 13 -3.8314 0.2939
1 22 14 -3.8564 0.0259
1 22 15 -0.1927 0.0970
1 22 16 3.3801 -0.2079
1 22 17 -1.5699 0.5444
1 22 18 0.2073 -0.0507
1 22 19 -1.5384 0.0890
1 22 20 -0.9500 -0.0369
1 23 0 -0.6609 0.6623
1 23 1 -0.6711 -1.0823
1 23 2 -8.4363 0.4673
1 23 3 -4.8032 -0.2560
1 23 4 -0.4102 0.0642
1 23 5 -1.4245 0.5566
1 23 6 -8.4030 -0.2849
1 23 7 3.3386 0.3403
1 23 8 -1.5625 -0.2067
1 23 9 3.2110 0.1185
1 23 10 -0.4254 0.1448
1 23 11 1.0775 0.1850
1 23 12 3.9658 -0.0728
1 23 13 -8.5708 0.1478
1 23 14 -2.1421 -0.1004
1 23 15 0.3720 0.1101
1 23 16 2.2077 0.0537
1 23 17 -7.2609 0.1441
1 23 18 1.2837 0.2612
1 23 19 9.2738 -0.0069
1 24 0 -2.0944 -1.9929
1 24 1 -2.1898 -1.1464
1 24 2 -4.0274 -0.0824
1 24 3 1.2871 -0.3675
1 24 4 -3.0228 0.1962
1 24 5 -3.7696 -0.3002
1 24 6 -4.6061 -0.1151
1 24 7 2.0760 -0.2920
1 24 8 -8.9425 -0.3931
1 24 9 -4.0376 -0.5976
1 24 10 -5.3067 -0.1004
1 24 11 -1.2583 -0.4037
1 24 12 -2.6124 -0.2625
1 24 13 -4.7775 -0.0758
1 24 14 1.2204 -0.2463
1 24 15 -2.2963 -0.2040
1 24 16 1.1231 -0.5321
1 24 17 -1.2114 -0.0735
1 24 18 -1.2042 -0.7748
1 25 0 7.0274 -1.3925
1 25 1 -2.0877 2.4422
1 25 2 4.5731 -0.4681
1 25 3 6.2007 0.6419
1 25 4 0.6186 -0.3854
1 25 5 -0.2226 0.4427
1 25 6 4.2312 -0.3271
1 25 7 5.7305 0.6192
1 25 8 0.8768 -0.2065
1 25 9 5.7636 0.6390
1 25 10 1.5873 -0.3651
1 25 11 0.7071 0.8322
1 25 12 3.9956 -0.8002
1 25 13 -0.2612 1.1958
1 25 14 2.5126 -0.7771
1 25 15 0.5258 1.1399
1 25 16 3.5486 -0.8567
1 26 0 3.9238 1.0297
1 26 1 2.8822 0.0511
1 26 2 3.8574 0.0761
1 26 3 6.8252 0.3192
1 26 4 2.8174 -0.1518
1 26 5 4.2041 -0.1053
1 26 6 2.6016 -0.1056
1 26 7 -0.3699 0.1360
1 26 8 2.4798 0.0162
1 26 9 2.9577 -0.2418
1 26 10 1.2309 0.4934
1 26 11 -0.5816 -0.4788
1 26 12 2.9998 0.3052
1 26 13 3.2737 -0.8763
1 26 14 6.0691 0.5554
1 27 0 -4.5698 1.5752
1 27 1 -0.5238 -2.8319
1 27 2 2.0985 0.4628
1 27 3 5.1614 -0.3499
1 27 4 4.5582 0.3471
1 27 5 -3.2896 -0.9922
1 27 6 -2.3885 0.5082
1 27 7 10.0705 -1.1952
1 27 8 -0.8156 0.3758
1 27 9 0.4459 -1.5739
1 27 10 -0.1069 0.5264
1 27 11 -0.7097 -1.6496
1 27 12 2.1845 0.5135
1 27 13 -5.8283 -1.7826
1 28 0 1.8512 -0.8514
1 28 1 1.2627 1.4455
1 28 2 0.9348 0.3196
1 28 3 -1.0682 0.3670
1 28 4 4.1071 0.1606
1 28 5 4.1245 0.1011
1 28 6 3.0757 -0.2701
1 28 7 5.3826 0.0731
1 28 8 5.0805 -0.2174
1 28 9 5.1217 0.7114
1 28 10 5.9480 -0.3750
1 29 0 0.0889 -1.5052
1 29 1 -0.8925 1.1053
1 29 2 -3.6165 -1.0024
1 29 3 4.6118 0.4673
1 29 4 -4.1956 -0.1926
1 29 5 1.4349 -0.0367
1 29 6 -2.7485 0.1776
1 29 7 -2.1404 0.2838
2 0 0 441.9631 -0.8019
2 0 1 -26.2540 0.3587
2 0 2 -194.0379 -3.4722
2 0 3 118.8366 1.2377
2 0 4 -44.6936 -1.8700
2 0 5 -70.6575 0.2924
2 0 6 -138.5495 -2.3571
2 0 7 12.1889 0.3860
2 0 8 -30.9345 -2.0572
2 0 9 -20.7192 0.3391
2 0 10 -47.6346 -2.0215
2 0 11 10.8186 0.2142
2 0 12 7.2737 -2.0181
2 0 13 -41.7963 0.2732
2 0 14 -25.4438 -1.4497
2 0 15 9.1077 0.2306
2 0 16 15.5166 -1.7201
2 0 17 2.5926 0.2009
2 0 18 -15.4753 -1.7951
2 0 19 -10.1376 0.2187
2 0 20 -11.7685 -1.0737
2 0 21 25.1662 0.0045
2 0 22 -2.9451 -1.8236
2 0 23 2.6459 0.2529
2 0 24 3.0054 -0.6869
2 0 25 -24.1976 -0.2470
2 0 26 24.7814 -1.5456
2 0 27 -10.8686 0.0934
2 0 28 9.0520 -0.6850
2 0 29 -24.6656 -0.0690
2 0 30 6.9128 -1.4408
2 1 0 223.4452 4.8652
2 1 1 8.6657 -0.9608
2 1 2 56.0444 -1.9511
2 1 3 -103.5552 -1.3515
2 1 4 20.2432 0.8754
2 1 5 44.0315 0.1842
2 1 6 -65.0612 2.8551
2 1 7 -13.2571 0.0532
2 1 8 15.5764 2.4119
2 1 9 -1.7280 0.3923
2 1 10 41.5000 2.5787
2 1 11 12.9634 -0.1400
2 1 12 17.7872 1.6279
2 1 13 12.7016 -0.1336
2 1 14 5.5577 2.2982
2 1 15 -4.1555 -0.0309
2 1 16 -5.7146 1.6958
2 1 17 -16.5641 -0.1577
2 1 18 32.0549 1.9677
2 1 19 3.8561 0.2105
2 1 20 -18.6134 1.4051
2 1 21 -0.5219 -0.1433
2 1 22 14.1693 1.3252
2 1 23 -4.3082 0.1831
2 1 24 -16.1971 1.4562
2 1 25 8.6863 0.0479
2 1 26 11.2024 0.9295
2 1 27 13.4796 -0.0297
2 1 28 -1.4920 1.0298
2 1 29 -13.5315 -0.1636
2 1 30 -5.9425 1.1739
2 2 0 264.1992 -0.4948
2 2 1 -19.2571 0.1824
2 2 2 -68.2812 -1.8281
2 2 3 65.4015 0.7081
2 2 4 -56.8741 -1.3585
2 2 5 -29.4181 0.3507
2 2 6 -40.7842 -0.3893
2 2 7 -1.2402 0.0832
2 2 8 16.3437 -0.3948
2 2 9 -10.2376 0.4752
2 2 10 -38.2968 -0.4477
2 2 11 -4.1173 0.4622
2 2 12 5.5584 -0.3987
2 2 13 -21.8918 0.2546
2 2 14 -19.5048 -0.9382
2 2 15 -2.1464 0.2949
2 2 16 6.0941 -0.5064
2 2 17 -8.0288 0.1496
2 2 18 12.0030 -0.1866
2 2 19 5.8822 0.3119
2 2 20 -14.9480 -0.3129
2 2 21 5.1764 0.4332
2 2 22 1.0755 -0.1067
2 2 23 -0.1315 0.4489
2 2 24 3.2484 -0.4718
2 2 25 11.5172 0.3373
2 2 26 9.7144 -0.3273
2 2 27 -21.0012 0.0515
2 2 28 9.4754 -0.3124
2 2 29 -2.5662 -0.0022
2 2 30 3.8452 0.1642
2 3 0 7.7528 1.0906
2 3 1 -91.5520 1.1506
2 3 2 95.9016 0.0164
2 3 3 187.2067 -1.7134
2 3 4 44.1399 0.0038
2 3 5 -37.3865 -2.2698
2 3 6 54.9582 -1.1704
2 3 7 80.0146 -2.3665
2 3 8 27.0233 -1.5280
2 3 9 28.5632 -1.7486
2 3 10 18.2474 -1.0768
2 3 11 24.1811 -1.4498
2 3 12 12.1679 -1.0551
2 3 13 -1.1460 -1.3109
2 3 14 12.0962 -0.7195
2 3 15 6.6490 -1.2312
2 3 16 18.9302 -1.0401
2 3 17 -9.7822 -1.2902
2 3 18 8.3411 -0.7816
2 3 19 1.5950 -1.2330
2 3 20 0.1515 -0.6183
2 3 21 4.7447 -1.4424
2 3 22 2.6220 -0.6574
2 3 23 13.2705 -1.0834
2 3 24 9.9722 -0.5026
2 3 25 -7.5840 -1.0291
2 3 26 -12.4651 -0.4843
2 3 27 -11.7780 -0.8650
2 3 28 6.0501 -0.3909
2 3 29 0.2498 -0.0465
2 3 30 -1.5534 -0.3785
2 4 0 48.1657 -0.2633
2 4 1 34.4295 -1.2896
2 4 2 -28.0822 -0.0222
2 4 3 -11.7684 -1.5641
2 4 4 -1.3169 0.3764
2 4 5 -4.0458 -0.8232
2 4 6 32.0939 0.4622
2 4 7 32.6640 -0.7858
2 4 8 -25.5853 0.6935
2 4 9 9.8659 -0.4490
2 4 10 4.3392 0.1774
2 4 11 3.1494 -1.1936
2 4 12 30.5729 0.5612
2 4 13 0.1786 -0.8929
2 4 14 5.5865 0.3629
2 4 15 -9.0965 -0.4464
2 4 16 9.4828 0.3875
2 4 17 -4.5976 -0.8137
2 4 18 6.9262 0.1604
2 4 19 4.2607 -0.2309
2 4 20 -0.2956 0.2208
2 4 21 -1.5028 -0.7747
2 4 22 -3.9177 0.2615
2 4 23 12.7698 -0.6069
2 4 24 0.7428 0.3527
2 4 25 -1.5662 -0.6268
2 4 26 3.5741 0.2500
2 4 27 8.1701 -0.5589
2 4 28 7.4350 0.3144
2 4 29 -6.7303 -0.1929
2 5 0 28.0893 0.4652
2 5 1 113.8967 -1.2693
2 5 2 -15.8340 0.5985
2 5 3 -92.6276 -0.0949
2 5 4 -13.9432 0.8000
2 5 5 103.4494 1.7331
2 5 6 12.2063 0.8962
2 5 7 11.8094 1.6121
2 5 8 6.7563 1.1179
2 5 9 -1.6130 1.5372
2 5 10 -14.5784 0.7509
2 5 11 29.9705 1.3974
2 5 12 2.4240 0.4764
2 5 13 5.4014 1.1889
2 5 14 7.9327 0.5081
2 5 15 0.9283 1.1367
2 5 16 -2.3369 0.5939
2 5 17 7.2842 0.8399
2 5 18 -1.6441 0.6486
2 5 19 -3.7086 0.8606
2 5 20 6.3912 0.7479
2 5 21 3.9599 0.9408
2 5 22 -2.3168 0.4060
2 5 23 -3.7555 1.0810
2 5 24 2.2180 0.4290
2 5 25 0.1479 0.7775
2 5 26 3.0743 0.3016
2 5 27 -1.1484 0.5171
2 5 28 0.6114 0.5238
2 5 29 -5.8095 -0.1091
2 6 0 5.2097 1.4218
2 6 1 -79.1183 -1.0440
2 6 2 -9.2364 -0.3001
2 6 3 78.2329 -0.0561
2 6 4 -15.6970 -0.3961
2 6 5 5.6631 -0.0448
2 6 6 7.6847 -1.5107
2 6 7 28.6515 -0.7397
2 6 8 -5.7455 -0.8481
2 6 9 32.8229 -0.7079
2 6 10 6.9730 -0.7717
2 6 11 -18.7304 -0.4716
2 6 12 2.4589 -0.5198
2 6 13 -10.9164 -0.2808
2 6 14 18.2748 -0.8002
2 6 15 9.1043 -0.1662
2 6 16 4.3350 -0.6639
2 6 17 -12.4700 -0.3926
2 6 18 -3.0383 -0.8254
2 6 19 2.1505 -0.2150
2 6 20 -3.3521 -0.5509
2 6 21 -1.9933 -0.5741
2 6 22 -2.1193 -0.6905
2 6 23 2.1506 -0.1433
2 6 24 -6.0889 -0.1983
2 6 25 2.4789 -0.1774
2 6 26 -2.9478 -0.5948
2 6 27 -3.4285 0.0342
2 6 28 0.6209 0.0192
2 6 29 -6.6158 -0.3482
2 7 0 -26.1256 0.6267
2 7 1 -23.6683 0.9696
2 7 2 -14.5205 0.0706
2 7 3 43.8347 -2.0968
2 7 4 -19.4220 -0.7588
2 7 5 -11.9881 -2.2550
2 7 6 -11.1781 -1.0721
2 7 7 32.8998 -1.3030
2 7 8 -47.6120 -1.2604
2 7 9 -12.9869 -0.9041
2 7 10 -18.5586 -0.9495
2 7 11 -18.8917 -1.0438
2 7 12 -1.0414 -0.8862
2 7 13 -1.8115 -1.4398
2 7 14 -9.3587 -0.8316
2 7 15 -4.5241 -1.4836
2 7 16 3.1480 -0.7949
2 7 17 -4.9865 -0.8892
2 7 18 3.8532 -0.7918
2 7 19 0.3487 -0.9011
2 7 20 -3.8755 -0.6615
2 7 21 0.9785 -0.9041
2 7 22 0.8420 -0.6813
2 7 23 -3.2710 -1.2504
2 7 24 0.4431 -0.4530
2 7 25 5.8247 -1.0422
2 7 26 -2.5993 -0.3407
2 7 27 0.5669 -0.2005
2 7 28 3.9710 -0.3725
2 7 29 1.7437 -0.0996
2 8 0 73.2058 -1.4354
2 8 1 -4.7442 4.7448
2 8 2 7.1885 0.0857
2 8 3 20.2134 -0.2407
2 8 4 1.4644 0.3228
2 8 5 -28.5884 -0.8131
2 8 6 -22.6688 0.2734
2 8 7 6.2389 -0.0256
2 8 8 -11.9549 0.4658
2 8 9 14.3274 0.4409
2 8 10 2.3695 0.2294
2 8 11 1.1642 0.5578
2 8 12 7.4458 -0.0316
2 8 13 -15.2021 0.4097
2 8 14 6.7026 0.1804
2 8 15 -4.1389 0.1347
2 8 16 3.2839 0.0890
2 8 17 -15.6002 0.3120
2 8 18 0.8761 0.1402
2 8 19 1.5420 0.4141
2 8 20 2.5743 0.1191
2 8 21 5.1935 0.3059
2 8 22 -2.7038 0.0636
2 8 23 3.1012 0.1005
2 8 24 -1.2775 0.1346
2 8 25 1.7016 0.0378
2 8 26 -5.2770 -0.0894
2 8 27 0.1389 0.5243
2 8 28 3.2034 -0.0574
2 8 29 -3.9327 1.1328
2 9 0 -12.9238 -0.7482
2 9 1 4.8938 0.2352
2 9 2 -27.9852 -0.0547
2 9 3 -54.9266 2.1069
2 9 4 0.8524 0.4486
2 9 5 13.2690 0.5753
2 9 6 -36.4906 0.5923
2 9 7 -38.5118 0.5299
2 9 8 5.4799 0.3580
2 9 9 4.0393 0.1905
2 9 10 -4.3372 0.2326
2 9 11 -3.0735 0.5112
2 9 12 -8.5926 0.2133
2 9 13 -4.4562 0.8873
2 9 14 10.7613 0.3828
2 9 15 -9.5232 0.6711
2 9 16 -6.0597 0.5006
2 9 17 2.7903 0.4399
2 9 18 -2.5845 0.2380
2 9 19 -5.1185 0.0804
2 9 20 -0.6089 0.3508
2 9 21 0.2905 0.5273
2 9 22 -1.4952 0.2727
2 9 23 3.8233 0.4550
2 9 24 3.3087 0.3647
2 9 25 -0.1485 0.6062
2 9 26 -0.0013 0.0127
2 9 27 2.3768 0.2541
2 9 28 2.8367 -0.1865
2 10 0 -2.8308 0.7539
2 10 1 -17.9628 -4.9982
2 10 2 -12.8841 0.4846
2 10 3 -9.4374 -1.2797
2 10 4 -6.8908 -0.0935
2 10 5 6.7315 0.1483
2 10 6 16.7624 -0.4946
2 10 7 5.6949 0.1835
2 10 8 -16.0700 -0.5893
2 10 9 -8.3927 -0.8072
2 10 10 -13.7496 -0.1386
2 10 11 -5.7663 -1.0273
2 10 12 17.1237 -0.3086
2 10 13 -0.1984 -0.7835
2 10 14 2.9362 -0.1449
2 10 15 -8.2672 -0.5404
2 10 16 10.6417 -0.3695
2 10 17 -0.4464 -0.2339
2 10 18 4.7184 -0.1247
2 10 19 4.6463 -0.5783
2 10 20 2.1737 -0.2854
2 10 21 1.9603 -0.2848
2 10 22 -3.9974 -0.1969
2 10 23 3.2267 -0.3027
2 10 24 -3.6282 -0.1832
2 10 25 3.0362 -0.1945
2 10 26 2.1482 -0.0332
2 10 27 -1.0204 -0.6609
2 10 28 2.5381 0.1211
2 11 0 -28.2583 -0.6305
2 11 1 -19.2304 -3.2707
2 11 2 18.8557 0.4044
2 11 3 7.0271 2.2942
2 11 4 15.3480 0.9174
2 11 5 -21.8155 2.7262
2 11 6 -22.1709 0.7875
2 11 7 -4.4914 2.1830
2 11 8 -0.9885 0.5189
2 11 9 6.8379 1.4236
2 11 10 0.9469 0.4634
2 11 11 -18.3943 1.2399
2 11 12 -11.2069 0.2988
2 11 13 -1.3179 1.2578
2 11 14 -12.3476 0.5211
2 11 15 0.3802 1.2369
2 11 16 4.6894 0.4620
2 11 17 -10.4379 1.1828
2 11 18 -3.9610 0.3863
2 11 19 1.1969 1.0942
2 11 20 -3.9144 0.3694
2 11 21 -4.5237 0.9805
2 11 22 2.8657 0.3182
2 11 23 -6.3331 0.9074
2 11 24 -4.1066 0.5371
2 11 25 -2.3432 1.0251
2 11 26 -1.5442 0.2939
2 11 27 -0.0963 -0.1350
2 11 28 -5.5159 -0.1924
2 12 0 31.8110 -1.1564
2 12 1 -25.6533 2.3747
2 12 2 9.5700 -1.0137
2 12 3 19.1051 1.2677
2 12 4 -14.7896 -0.2846
2 12 5 -0.1381 -0.4969
2 12 6 -3.7538 0.4447
2 12 7 11.1455 0.1350
2 12 8 -6.8797 -0.0570
2 12 9 10.9538 0.3050
2 12 10 13.0270 -0.1951
2 12 11 -3.6200 0.6112
2 12 12 14.1663 -0.3813
2 12 13 -11.2300 0.4681
2 12 14 -1.3779 -0.1103
2 12 15 -2.1892 0.1046
2 12 16 2.0593 -0.2408
2 12 17 -0.8538 0.2777
2 12 18 -1.7806 -0.0798
2 12 19 0.0016 -0.0771
2 12 20 -4.7763 -0.0043
2 12 21 4.9440 0.3259
2 12 22 -1.3175 -0.0838
2 12 23 0.7121 0.2752
2 12 24 -0.9249 -0.1239
2 12 25 1.2770 0.2336
2 12 26 -1.0139 -0.4047
2 12 27 1.0664 -0.3879
2 13 0 16.7193 -0.9615
2 13 1 5.9846 1.7047
2 13 2 -6.7700 0.0547
2 13 3 0.3152 -0.9703
2 13 4 -4.5689 -0.0087
2 13 5 10.2296 -1.4908
2 13 6 8.8021 -0.0721
2 13 7 4.1875 -1.4382
2 13 8 -1.0458 -0.1794
2 13 9 0.5407 -0.8793
2 13 10 5.1212 -0.2257
2 13 11 7.3428 -0.6802
2 13 12 -5.0162 -0.6293
2 13 13 -5.5995 -0.5854
2 13 14 8.2201 -0.1055
2 13 15 -1.8241 -0.5891
2 13 16 -2.5381 -0.4025
2 13 17 -0.3375 -0.7311
2 13 18 -5.0983 -0.2260
2 13 19 -4.3906 -0.4392
2 13 20 4.9215 -0.1925
2 13 21 2.2699 -0.6088
2 13 22 -2.9165 -0.2427
2 13 23 -1.8246 -0.7102
2 13 24 1.8939 -0.3160
2 13 25 -1.5473 -0.4994
2 13 26 -5.2134 -0.3340
2 13 27 3.7577 0.0939
2 14 0 -8.7853 3.4616
2 14 1 -15.2576 -0.4483
2 14 2 -1.6611 0.9958
2 14 3 -3.8570 0.7028
2 14 4 4.4427 0.3583
2 14 5 -11.3824 0.5793
2 14 6 -16.7036 0.2399
2 14 7 3.0808 0.6474
2 14 8 -13.9851 0.3054
2 14 9 2.1877 0.4656
2 14 10 -5.4256 0.9598
2 14 11 -7.2727 0.4034
2 14 12 -6.7749 0.8200
2 14 13 -9.1910 0.3378
2 14 14 5.9492 0.6599
2 14 15 -5.3625 0.1813
2 14 16 4.8799 0.4228
2 14 17 -0.4133 0.5493
2 14 18 0.1770 0.3428
2 14 19 -4.1589 0.3137
2 14 20 -3.7679 0.5336
2 14 21 3.0948 0.2449
2 14 22 -0.2166 0.3235
2 14 23 2.5754 0.2717
2 14 24 -1.7227 0.7395
2 14 25 0.7066 0.2533
2 14 26 0.2697 0.7729
2 15 0 0.0636 0.8686
2 15 1 6.4073 0.2210
2 15 2 17.2471 0.9984
2 15 3 2.2734 -0.5997
2 15 4 17.1434 0.5285
2 15 5 17.1191 -0.1744
2 15 6 4.9907 0.0560
2 15 7 16.7772 -0.4628
2 15 8 8.4732 0.1683
2 15 9 5.6825 -0.0280
2 15 10 0.8462 0.5917
2 15 11 -7.6352 -0.0046
2 15 12 8.8367 0.5904
2 15 13 7.9184 -0.0894
2 15 14 -0.2381 0.4166
2 15 15 4.7829 -0.1149
2 15 16 10.7627 0.0056
2 15 17 6.0284 -0.2813
2 15 18 7.2672 0.2894
2 15 19 5.2342 -0.1156
2 15 20 -2.3081 0.5187
2 15 21 1.9819 -0.3822
2 15 22 5.7223 0.3275
2 15 23 -0.5091 0.0436
2 15 24 -2.5742 0.1440
2 15 25 4.7778 0.2515
2 15 26 2.8479 0.2071
2 16 0 22.1748 -4.7748
2 16 1 -8.8668 -0.9870
2 16 2 4.2045 -1.1310
2 16 3 1.2669 -0.1069
2 16 4 -9.0058 1.1321
2 16 5 0.8212 0.0565
2 16 6 -0.5991 0.6486
2 16 7 9.9455 0.0978
2 16 8 -6.7463 -0.2847
2 16 9 2.8811 -0.2593
2 16 10 -1.8523 -0.5955
2 16 11 0.7859 -0.4326
2 16 12 6.2077 -0.3052
2 16 13 -0.8203 -0.2645
2 16 14 1.7812 0.2400
2 16 15 -1.4523 -0.1503
2 16 16 0.4789 0.2580
2 16 17 -1.4641 -0.1702
2 16 18 5.5834 0.0847
2 16 19 2.3837 -0.1128
2 16 20 1.8360 -0.0183
2 16 21 5.6218 -0.4132
2 16 22 -3.0449 -0.4372
2 16 23 2.3968 -0.0734
2 16 24 1.0420 -0.3018
2 16 25 2.6930 0.0125
2 17 0 3.5020 0.2096
2 17 1 5.0211 -0.2698
2 17 2 -0.6863 -1.3856
2 17 3 -0.6826 -0.3850
2 17 4 1.3445 -1.0804
2 17 5 1.6780 0.1120
2 17 6 2.3743 -0.4361
2 17 7 5.9671 0.3032
2 17 8 1.3378 -0.4704
2 17 9 3.3763 0.1323
2 17 10 1.1311 -0.7080
2 17 11 7.7134 -0.2324
2 17 12 0.0337 -0.5195
2 17 13 1.0700 -0.1147
2 17 14 2.7080 -0.6404
2 17 15 -5.2541 0.1608
2 17 16 -2.0929 -0.4071
2 17 17 3.9371 0.0057
2 17 18 -0.0318 -0.3718
2 17 19 -1.8541 0.1895
2 17 20 -0.1351 -0.6337
2 17 21 -1.8726 -0.0127
2 17 22 0.3148 -0.5179
2 17 23 3.1634 0.0249
2 17 24 3.7534 0.1450
2 18 0 9.1803 1.0187
2 18 1 1.0117 0.2841
2 18 2 0.8156 -0.1288
2 18 3 5.3750 0.3738
2 18 4 -2.4365 -0.2415
2 18 5 3.4066 0.1783
2 18 6 -4.2073 -0.2852
2 18 7 9.4995 -0.1696
2 18 8 -4.1310 0.1733
2 18 9 6.3352 -0.0617
2 18 10 1.7360 0.3134
2 18 11 -1.1252 0.1432
2 18 12 6.2168 -0.0388
2 18 13 2.9131 0.0868
2 18 14 8.9334 -0.3347
2 18 15 1.3116 0.1311
2 18 16 3.2229 -0.2087
2 18 17 -2.9915 0.1121
2 18 18 -0.8915 0.0239
2 18 19 6.2302 0.1653
2 18 20 -1.5167 0.1771
2 18 21 -2.0343 0.0690
2 18 22 -3.1545 -0.2767
2 18 23 -0.0809 -0.1150
2 18 24 -2.2425 -0.0459
2 19 0 -6.6550 0.0779
2 19 1 -3.7237 0.9770
2 19 2 -0.2653 -0.9035
2 19 3 0.4751 -0.2611
2 19 4 -8.4899 -0.6465
2 19 5 -3.6890 -0.4349
2 19 6 10.7537 -0.1344
2 19 7 1.9140 -0.4119
2 19 8 -4.6593 -0.2389
2 19 9 3.5414 -0.3009
2 19 10 -1.5139 -0.3796
2 19 11 -3.9975 -0.0506
2 19 12 0.5160 -0.2669
2 19 13 4.0651 -0.1737
2 19 14 -5.9182 -0.6252
2 19 15 1.2930 -0.0461
2 19 16 -1.0711 -0.2735
2 19 17 -0.8668 -0.0803
2 19 18 3.4327 -0.0975
2 19 19 3.4731 -0.0628
2 19 20 3.7096 -0.1357
2 19 21 2.6296 -0.3484
2 19 22 6.9540 0.0982
2 19 23 -0.0535 0.2355
2 20 0 -0.4073 2.9213
2 20 1 -9.9539 1.2010
2 20 2 -2.7820 0.7709
2 20 3 2.0009 -0.2344
2 20 4 -3.7340 -0.5844
2 20 5 -1.3205 -0.2730
2 20 6 -8.3992 -0.2965
2 20 7 -5.7314 0.0414
2 20 8 -3.7962 0.1069
2 20 9 2.3614 0.3802
2 20 10 0.9516 0.2866
2 20 11 -3.2950 0.2726
2 20 12 -2.1646 0.3630
2 20 13 -5.6166 0.0940
2 20 14 -2.6324 0.3963
2 20 15 0.3877 -0.4563
2 20 16 5.0961 0.1324
2 20 17 -5.8489 -0.2772
2 20 18 -0.0785 0.0244
2 20 19 1.0877 -0.1189
2 20 20 -1.6489 0.5639
2 20 21 1.2176 0.0797
2 20 22 2.1223 1.5362
2 21 0 2.6744 0.9739
2 21 1 4.0713 -0.2028
2 21 2 -11.5141 0.9577
2 21 3 -0.3465 -0.6406
2 21 4 -9.1055 -0.3035
2 21 5 0.8347 -0.2756
2 21 6 -11.1396 -0.7093
2 21 7 -1.7352 -0.0683
2 21 8 -6.5966 -0.4305
2 21 9 0.2498 -0.1271
2 21 10 1.0001 -0.0468
2 21 11 0.5727 -0.0972
2 21 12 -4.5361 0.2653
2 21 13 -0.5968 -0.2669
2 21 14 3.4104 -0.1225
2 21 15 -2.2570 -0.1376
2 21 16 1.2745 -0.2673
2 21 17 -5.1939 0.2655
2 21 18 -1.8826 -0.4000
2 21 19 1.0199 0.0392
2 21 20 -0.4238 -0.2018
2 21 21 -1.7079 -0.2982
2 22 0 9.7237 -2.8850
2 22 1 -2.4265 -1.0578
2 22 2 6.9039 -0.7086
2 22 3 2.1594 -0.3657
2 22 4 5.5980 -0.2335
2 22 5 1.4831 -0.2172
2 22 6 -2.0515 -0.1661
2 22 7 9.5474 -0.4348
2 22 8 2.8105 -0.3212
2 22 9 -2.6320 -0.4182
2 22 10 2.0041 -0.5450
2 22 11 4.5002 -0.2457
2 22 12 7.7420 -0.7856
2 22 13 -0.2191 -0.0091
2 22 14 2.4340 -0.5761
2 22 15 2.2369 -0.1320
2 22 16 6.2257 -0.4208
2 22 17 1.0031 -0.1862
2 22 18 -0.0498 -0.4587
2 22 19 0.4396 -0.1259
2 22 20 -0.1945 -0.7707
2 23 0 -7.0710 -1.9160
2 23 1 -11.2735 0.7298
2 23 2 -6.0411 0.4979
2 23 3 1.9981 -0.0400
2 23 4 -3.9361 1.0342
2 23 5 -4.5415 -0.1933
2 23 6 -3.1148 1.0136
2 23 7 -1.6039 -0.1521
2 23 8 -4.5053 0.8687
2 23 9 -11.4389 -0.1749
2 23 10 1.8420 0.6366
2 23 11 0.8194 -0.1526
2 23 12 -3.0451 0.4773
2 23 13 -7.0575 -0.1903
2 23 14 0.3524 0.5396
2 23 15 -1.4315 0.1033
2 23 16 1.7994 0.4545
2 23 17 -5.1620 0.3745
2 23 18 -3.3366 0.0337
2 23 19 1.6986 0.9163
2 24 0 2.7757 1.1079
2 24 1 -1.0986 -0.0260
2 24 2 -2.3382 0.8321
2 24 3 0.4003 -0.8465
2 24 4 -4.1348 -0.1026
2 24 5 -2.6067 -0.1554
2 24 6 -1.2033 -0.1054
2 24 7 -1.1184 -0.0759
2 24 8 1.2956 0.1233
2 24 9 -0.7934 -0.2992
2 24 10 -0.0885 -0.1808
2 24 11 -5.0107 -0.5646
2 24 12 -0.4564 -0.0525
2 24 13 6.5391 -0.4918
2 24 14 1.2762 -0.3683
2 24 15 -6.6894 -0.2767
2 24 16 0.9368 -0.1170
2 24 17 -0.1943 0.8015
2 25 0 -2.1388 0.4516
2 25 1 -8.2928 -1.8386
2 25 2 1.6986 0.1068
2 25 3 -5.0653 1.2060
2 25 4 -0.9345 0.1208
2 25 5 -8.6473 1.4662
2 25 6 -2.9206 -0.1439
2 25 7 -6.7179 1.0211
2 25 8 0.7369 -0.5154
2 25 9 -1.6602 0.9007
2 25 10 2.2222 -0.0125
2 25 11 -5.5486 0.7456
2 25 12 0.4663 0.2833
2 25 13 -2.0495 0.4452
2 25 14 3.5173 0.2165
2 25 15 -2.3978 -0.1998
2 25 16 0.0288 0.0516
2 26 0 -4.3555 0.4205
2 26 1 2.6224 1.7435
2 26 2 -2.0203 0.2928
2 26 3 -0.2926 0.4430
2 26 4 -2.5804 0.1697
2 26 5 -0.5024 0.1726
2 26 6 -4.7552 0.1576
2 26 7 0.1145 0.0432
2 26 8 -0.5156 0.4636
2 26 9 -1.9870 0.8200
2 26 10 -3.5240 0.0694
2 26 11 -4.8146 0.6751
2 26 12 -1.9929 -0.0886
2 26 13 0.2656 1.0293
2 26 14 0.7626 0.1790
2 27 0 5.4002 -0.2210
2 27 1 1.7278 0.7122
2 27 2 5.3782 -0.0941
2 27 3 2.2907 0.9504
2 27 4 5.7669 0.0735
2 27 5 3.5340 0.3228
2 27 6 1.4770 0.0039
2 27 7 3.6369 -0.2897
2 27 8 -1.3458 0.2530
2 27 9 0.1991 -0.0901
2 27 10 4.3755 0.1846
2 27 11 1.1014 -0.1256
2 27 12 -2.2323 -0.0945
2 28 0 -0.1212 -0.9433
2 28 1 -0.0397 -2.1407
2 28 2 1.2071 -0.5354
2 28 3 -0.1087 -0.3497
2 28 4 -1.1471 0.1036
2 28 5 -0.6384 -0.5530
2 28 6 2.2086 0.0261
2 28 7 -0.1956 -0.5742
2 28 8 -0.3317 -0.4989
2 28 9 -2.7185 -1.5548
2 28 10 -3.6270 -0.2373
2 29 0 2.4847 -0.1966
2 29 1 -0.5490 0.3932
2 29 2 -2.3310 0.5169
2 29 3 3.2892 -0.9519
2 29 4 -2.3888 0.2418
2 29 5 -0.4336 -0.4760
2 29 6 -2.1584 -0.2022
2 29 7 -1.9420 0.0713
3 1 0 -183.6907 -0.1483
3 1 1 16.3125 0.4712
3 1 2 -27.1605 0.3657
3 1 3 89.1622 0.5409
3 1 4 7.4464 1.2702
3 1 5 -11.3270 0.0545
3 1 6 -32.3488 0.8866
3 1 7 26.3539 0.0518
3 1 8 -18.6847 1.2709
3 1 9 15.0440 0.5556
3 1 10 -10.5450 -0.0100
3 1 11 1.5644 0.6833
3 1 12 11.7362 1.8887
3 1 13 -19.9711 0.1722
3 1 14 -2.6635 0.2544
3 1 15 -11.0596 0.5718
3 1 16 2.5007 1.2606
3 1 17 -12.9351 0.2721
3 1 18 -8.5546 0.3770
3 1 19 5.8537 0.4561
3 1 20 4.4861 0.6184
3 1 21 -12.9763 0.3179
3 1 22 -4.4557 0.8162
3 1 23 12.3756 0.1481
3 1 24 -26.2617 0.5922
3 1 25 2.9420 0.1380
3 1 26 -7.8546 0.7040
3 1 27 17.5547 0.1167
3 1 28 -0.5617 0.3505
3 1 29 -0.7173 0.2983
3 1 30 -3.7381 0.1050
3 2 0 -326.1569 1.8056
3 2 1 37.1197 -0.8867
3 2 2 109.4556 -1.0930
3 2 3 3.2853 -1.3038
3 2 4 48.3010 -1.4275
3 2 5 -37.9362 -0.1181
3 2 6 18.1248 -1.4130
3 2 7 -1.8844 0.7994
3 2 8 10.4099 -1.4358
3 2 9 8.2332 0.5326
3 2 10 27.4503 -1.1927
3 2 11 15.7336 -0.0462
3 2 12 -13.2008 -0.9327
3 2 13 9.9119 -0.3512
3 2 14 -4.5061 -0.9688
3 2 15 -3.9469 -0.0492
3 2 16 -6.7806 -0.9866
3 2 17 7.9963 0.2734
3 2 18 1.1619 -1.0907
3 2 19 2.8900 0.4248
3 2 20 -0.4509 -1.1563
3 2 21 -2.2027 0.1444
3 2 22 5.8301 -0.8423
3 2 23 -5.5189 -0.1438
3 2 24 4.0598 -0.6908
3 2 25 -6.1160 -0.1205
3 2 26 4.7386 -0.4638
3 2 27 5.8815 -0.1452
3 2 28 8.4621 -0.5495
3 2 29 5.3145 0.0357
3 3 0 -22.1406 -1.2104
3 3 1 -22.9981 -0.1008
3 3 2 72.8584 -0.3787
3 3 3 100.5785 -0.2093
3 3 4 42.8648 -0.3338
3 3 5 9.3478 -0.4352
3 3 6 98.9646 -0.5147
3 3 7 20.4301 -0.8389
3 3 8 -7.8270 -0.4276
3 3 9 6.0561 -0.6206
3 3 10 -19.4266 -0.7631
3 3 11 -2.2791 -0.5819
3 3 12 35.5078 -1.0360
3 3 13 -8.5688 -0.3163
3 3 14 8.8742 -0.8708
3 3 15 7.0630 -0.3121
3 3 16 21.7567 -0.7167
3 3 17 -2.5698 -0.4544
3 3 18 -5.7065 -0.3233
3 3 19 6.8219 -0.4537
3 3 20 0.7140 -0.1289
3 3 21 7.9816 -0.3618
3 3 22 -5.9658 -0.4210
3 3 23 9.5344 -0.1150
3 3 24 -6.5830 -0.5985
3 3 25 8.6763 -0.3132
3 3 26 -4.8581 -0.3380
3 3 27 -1.0764 -0.2897
3 3 28 -2.6506 -0.1167
3 3 29 3.0790 -0.1704
3 4 0 15.9331 1.8008
3 4 1 -4.5784 1.1053
3 4 2 23.7583 2.3837
3 4 3 -6.5335 -0.2083
3 4 4 3.1673 0.7028
3 4 5 -9.9790 -0.0580
3 4 6 17.8257 0.3172
3 4 7 -41.3668 -0.5197
3 4 8 -21.3541 0.4357
3 4 9 -2.9302 -0.4761
3 4 10 3.7615 0.7037
3 4 11 -15.8200 0.0572
3 4 12 3.0631 0.5645
3 4 13 -7.4131 0.2410
3 4 14 8.2558 0.5184
3 4 15 4.5221 0.1551
3 4 16 -0.0826 0.4318
3 4 17 6.4113 -0.3561
3 4 18 -3.6353 0.6375
3 4 19 -1.0324 -0.6208
3 4 20 7.9819 0.4553
3 4 21 -0.1193 -0.3545
3 4 22 3.5952 0.6215
3 4 23 -0.1090 -0.0028
3 4 24 -7.1974 0.0882
3 4 25 -1.7981 0.3767
3 4 26 2.2031 0.5068
3 4 27 9.3197 -0.0534
3 4 28 1.4968 0.2547
3 4 29 -4.0161 -0.0521
3 5 0 194.7148 1.1525
3 5 1 -0.5744 -2.4282
3 5 2 -28.6256 0.5291
3 5 3 -26.8176 -0.1547
3 5 4 10.6861 0.3214
3 5 5 0.2992 0.6742
3 5 6 -7.3430 -0.1153
3 5 7 35.7290 1.0209
3 5 8 -6.1478 0.5709
3 5 9 13.6512 0.4902
3 5 10 20.4332 0.5663
3 5 11 19.1904 0.0642
3 5 12 12.0062 0.5838
3 5 13 6.2022 0.0488
3 5 14 14.2007 0.3598
3 5 15 -3.3897 0.1440
3 5 16 8.7752 0.3148
3 5 17 3.9525 0.2851
3 5 18 0.4748 0.0203
3 5 19 4.4946 0.4949
3 5 20 -1.6654 0.1664
3 5 21 -0.0142 0.2466
3 5 22 -0.7843 0.1403
3 5 23 9.0627 0.2085
3 5 24 -4.5949 0.3784
3 5 25 2.8851 0.2095
3 5 26 -2.4632 0.2235
3 5 27 -7.2561 0.1319
3 5 28 -0.2082 0.2589
3 5 29 2.7757 0.0804
3 6 0 -10.9634 0.4776
3 6 1 -19.4168 1.9927
3 6 2 -0.1442 0.3578
3 6 3 -51.0962 -2.0361
3 6 4 -13.1220 0.0327
3 6 5 -7.7215 -1.7555
3 6 6 -1.6155 -0.1117
3 6 7 -7.2603 -1.2254
3 6 8 19.0926 0.1892
3 6 9 -14.1953 -0.6554
3 6 10 18.4519 0.0444
3 6 11 20.6723 -0.8535
3 6 12 -16.4227 0.1281
3 6 13 -1.5709 -1.1849
3 6 14 6.0701 -0.0740
3 6 15 0.9121 -0.8165
3 6 16 3.8579 -0.0800
3 6 17 -2.7752 -0.6512
3 6 18 -2.4518 -0.0542
3 6 19 2.5778 -0.2929
3 6 20 2.3728 -0.0762
3 6 21 5.8477 -0.5748
3 6 22 -0.0455 -0.0742
3 6 23 -1.2762 -0.7426
3 6 24 1.9300 0.0891
3 6 25 0.6852 -0.7369
3 6 26 -1.3887 -0.0364
3 6 27 -1.3304 -0.3982
3 6 28 2.7097 -0.0389
3 6 29 -0.9934 0.5520
3 7 0 9.5731 -0.2049
3 7 1 -50.4342 3.8310
3 7 2 13.8463 -0.4197
3 7 3 11.2806 0.5061
3 7 4 0.7206 -0.0951
3 7 5 -23.2999 -1.4426
3 7 6 18.5173 -0.7800
3 7 7 -14.2341 -1.6506
3 7 8 -27.4654 -0.6598
3 7 9 36.2081 -0.7039
3 7 10 -12.7179 -0.5262
3 7 11 -12.9383 -0.1768
3 7 12 2.3509 -0.6734
3 7 13 -6.6559 -0.0381
3 7 14 0.8151 -0.5700
3 7 15 1.7547 -0.2706
3 7 16 10.1542 -0.5304
3 7 17 1.3749 -0.4548
3 7 18 0.9667 -0.4951
3 7 19 2.4748 -0.3138
3 7 20 -0.5945 -0.4902
3 7 21 5.3241 -0.4506
3 7 22 -4.9126 -0.3652
3 7 23 2.4596 -0.4095
3 7 24 -3.1347 -0.2143
3 7 25 0.1154 -0.2721
3 7 26 -1.4623 -0.2765
3 7 27 -2.0177 -0.0136
3 7 28 4.2402 -0.2372
3 7 29 -1.2792 0.3150
3 8 0 -16.6263 -1.2371
3 8 1 45.2835 -0.7157
3 8 2 -20.6848 -0.8100
3 8 3 -86.7601 -0.2376
3 8 4 -2.3973 0.4458
3 8 5 2.2207 0.4583
3 8 6 16.5590 -0.0128
3 8 7 -20.8959 0.6702
3 8 8 -9.3185 -0.2188
3 8 9 -7.4026 0.8691
3 8 10 -18.9409 -0.2989
3 8 11 4.8546 0.5833
3 8 12 2.9632 -0.1860
3 8 13 7.4284 0.3140
3 8 14 -3.5774 -0.1655
3 8 15 -7.4565 0.3872
3 8 16 -4.0988 0.0027
3 8 17 -0.7873 0.1233
3 8 18 4.0199 -0.0207
3 8 19 1.1184 0.2889
3 8 20 -4.4259 0.1202
3 8 21 -3.6239 0.1790
3 8 22 -0.4340 -0.0389
3 8 23 1.6561 0.2516
3 8 24 -1.1315 0.1680
3 8 25 -0.3758 0.1609
3 8 26 0.6242 -0.1134
3 8 27 -0.7790 0.1511
3 8 28 -0.4817 -0.3465
3 9 0 16.6581 -0.7769
3 9 1 -11.9831 -1.4712
3 9 2 6.6033 0.5324
3 9 3 14.9088 -0.0143
3 9 4 12.3436 0.7332
3 9 5 26.9861 1.4299
3 9 6 -31.4347 0.5872
3 9 7 21.0681 1.6049
3 9 8 -2.6670 0.3323
3 9 9 6.3794 0.8141
3 9 10 5.1262 0.3899
3 9 11 -8.9400 0.4503
3 9 12 -5.1945 0.2988
3 9 13 -1.9559 0.6678
3 9 14 10.1372 0.6472
3 9 15 -3.5412 0.5434
3 9 16 5.7171 0.4563
3 9 17 -6.3068 0.7017
3 9 18 3.2102 0.3457
3 9 19 5.2762 0.5691
3 9 20 5.1526 0.1392
3 9 21 -3.3235 0.6214
3 9 22 1.6369 0.1761
3 9 23 4.2658 0.6540
3 9 24 -1.7602 0.3800
3 9 25 2.8840 0.6528
3 9 26 1.5986 0.3439
3 9 27 -0.2273 0.3650
3 9 28 -3.1122 -0.0981
3 10 0 -2.6225 -0.4606
3 10 1 -32.4327 -3.7959
3 10 2 9.2691 -0.5127
3 10 3 16.7737 2.4049
3 10 4 -1.9328 -0.3034
3 10 5 10.0599 2.4776
3 10 6 -11.1975 -0.0684
3 10 7 -9.1590 0.7255
3 10 8 1.7528 -0.2205
3 10 9 -6.5944 0.3055
3 10 10 -3.3433 -0.2834
3 10 11 -11.7601 0.6512
3 10 12 -11.2501 -0.2647
3 10 13 -4.4543 1.2830
3 10 14 -8.3253 -0.1385
3 10 15 -6.4117 1.3281
3 10 16 -1.0712 -0.1496
3 10 17 4.1695 0.6422
3 10 18 -0.6678 -0.2479
3 10 19 -1.7423 0.4695
3 10 20 -0.6186 -0.2761
3 10 21 -0.5639 0.4567
3 10 22 1.0844 -0.1176
3 10 23 -2.7649 0.7970
3 10 24 0.9889 -0.0167
3 10 25 -0.5557 0.9046
3 10 26 0.6755 0.0005
3 10 27 0.8019 -0.4714
3 10 28 2.0569 -0.3750
3 11 0 32.1780 -0.2091
3 11 1 -34.6630 -2.3469
3 11 2 7.8594 -0.2104
3 11 3 -7.0029 0.2245
3 11 4 -12.3480 -0.2018
3 11 5 -33.2582 0.0960
3 11 6 12.5917 -0.2840
3 11 7 12.9901 -0.3279
3 11 8 -32.6372 -0.1599
3 11 9 21.4739 -0.7681
3 11 10 -12.4876 -0.1162
3 11 11 0.5099 -0.5037
3 11 12 3.0247 -0.1863
3 11 13 -0.1388 -0.4929
3 11 14 4.4342 -0.0954
3 11 15 -2.8656 -0.5064
3 11 16 1.6082 -0.1651
3 11 17 -4.6839 -0.3051
3 11 18 -0.7183 -0.2043
3 11 19 1.4410 -0.3745
3 11 20 -1.4936 -0.0759
3 11 21 2.5290 -0.3472
3 11 22 -0.8194 -0.0830
3 11 23 -0.2806 -0.3061
3 11 24 -2.7018 0.0894
3 11 25 -0.1076 -0.3382
3 11 26 2.8226 -0.3063
3 11 27 0.2102 -0.6904
3 12 0 -15.4595 -0.3014
3 12 1 22.7152 0.9125
3 12 2 20.1002 0.3474
3 12 3 -10.3886 0.6095
3 12 4 12.7014 0.7241
3 12 5 -7.0366 -0.0581
3 12 6 -28.0768 0.9725
3 12 7 5.8791 0.1692
3 12 8 -1.4466 0.4268
3 12 9 12.2359 0.5084
3 12 10 0.8601 0.3719
3 12 11 5.0569 0.5887
3 12 12 -5.1886 0.4835
3 12 13 0.1613 0.2330
3 12 14 4.9287 0.7625
3 12 15 0.6734 -0.0129
3 12 16 -0.2478 0.7199
3 12 17 1.5157 0.1277
3 12 18 -0.4066 0.6121
3 12 19 2.5507 0.3432
3 12 20 -1.5395 0.4310
3 12 21 2.1486 0.1784
3 12 22 0.5519 0.5855
3 12 23 2.4231 -0.0794
3 12 24 -0.1079 0.2027
3 12 25 0.3185 0.2412
3 12 26 -0.1100 0.2593
3 12 27 -0.1395 0.3088
3 13 0 12.1021 1.2648
3 13 1 -26.4715 3.7784
3 13 2 4.9045 0.2686
3 13 3 -20.2596 -0.0989
3 13 4 -6.8019 -0.2407
3 13 5 -6.3198 -1.4243
3 13 6 -15.7318 0.0939
3 13 7 5.1613 -0.6831
3 13 8 -17.6846 0.1072
3 13 9 -16.1076 0.1270
3 13 10 -15.9083 0.1473
3 13 11 -2.1382 0.3551
3 13 12 -4.6906 0.2042
3 13 13 -6.9335 0.0311
3 13 14 -7.7877 -0.0669
3 13 15 -9.0791 -0.2065
3 13 16 -1.4160 -0.1955
3 13 17 -4.4061 -0.2225
3 13 18 -4.5599 0.0273
3 13 19 -6.3008 -0.0815
3 13 20 -7.2143 0.0367
3 13 21 -1.5752 -0.1077
3 13 22 -2.6878 0.1611
3 13 23 -3.4168 -0.0185
3 13 24 -3.6527 -0.0554
3 13 25 -1.5677 0.2229
3 13 26 -1.0150 0.0171
3 13 27 0.0702 0.5673
3 14 0 21.5803 -1.3466
3 14 1 3.6841 -0.9363
3 14 2 -3.5519 0.8389
3 14 3 -2.0316 -1.1177
3 14 4 11.1695 0.5010
3 14 5 9.7888 -0.7335
3 14 6 10.6522 0.2925
3 14 7 9.5126 -0.4950
3 14 8 6.0903 0.0905
3 14 9 -1.1998 -0.6833
3 14 10 -4.0365 0.2626
3 14 11 6.8819 -0.5686
3 14 12 0.4799 0.2186
3 14 13 4.1142 -0.5235
3 14 14 3.0074 0.1337
3 14 15 1.5182 -0.4690
3 14 16 -0.9330 -0.0746
3 14 17 1.0618 -0.2871
3 14 18 -0.0563 0.0385
3 14 19 -0.0696 -0.5318
3 14 20 3.0836 0.2229
3 14 21 0.5766 -0.3829
3 14 22 -2.3146 0.1854
3 14 23 3.3599 -0.4241
3 14 24 -3.0905 -0.3827
3 14 25 -0.3357 -0.1749
3 14 26 -0.8158 -0.2171
3 15 0 19.3617 1.3482
3 15 1 -7.1736 -3.4189
3 15 2 14.9476 -0.3403
3 15 3 8.6659 -0.3076
3 15 4 2.5274 -0.3300
3 15 5 -2.5079 1.1246
3 15 6 -2.6873 0.1771
3 15 7 5.6914 0.6347
3 15 8 -8.6241 0.1106
3 15 9 4.2849 0.0241
3 15 10 1.8512 0.2033
3 15 11 -3.0407 -0.6004
3 15 12 8.0721 0.1016
3 15 13 -2.4212 -0.3850
3 15 14 3.9974 0.1227
3 15 15 -6.7414 0.1905
3 15 16 6.4927 -0.0964
3 15 17 -3.5948 0.2691
3 15 18 1.2271 -0.0442
3 15 19 5.4498 0.1710
3 15 20 -0.2805 -0.0534
3 15 21 -10.5918 -0.0678
3 15 22 2.6613 -0.0239
3 15 23 -0.1088 -0.0824
3 15 24 0.6888 0.3722
3 15 25 -1.1100 -0.2170
3 16 0 14.8691 -0.3809
3 16 1 4.0003 1.1868
3 16 2 2.0293 -0.0093
3 16 3 -3.8601 -0.1334
3 16 4 2.1407 -0.1314
3 16 5 6.3580 -0.5196
3 16 6 -3.8755 -0.1656
3 16 7 6.1376 -0.2182
3 16 8 -2.6530 -0.1996
3 16 9 -1.5833 -0.2082
3 16 10 8.6655 -0.1338
3 16 11 0.9198 -0.1707
3 16 12 8.6681 -0.1532
3 16 13 3.0556 -0.2018
3 16 14 -2.4538 -0.0686
3 16 15 -3.9510 -0.3032
3 16 16 -0.2205 -0.0282
3 16 17 -4.0628 -0.1549
3 16 18 0.6862 0.0834
3 16 19 2.2537 -0.0122
3 16 20 1.0000 0.0653
3 16 21 -2.0698 0.0488
3 16 22 -0.4296 -0.2815
3 16 23 -1.1994 -0.0262
3 16 24 5.0081 -0.0930
3 16 25 2.1025 0.0953
3 17 0 8.9847 -4.5241
3 17 1 -5.1162 1.9490
3 17 2 6.1042 -0.9027
3 17 3 4.6404 0.4249
3 17 4 6.6950 0.6925
3 17 5 7.1029 -0.1939
3 17 6 0.6052 0.5726
3 17 7 13.3208 -0.0868
3 17 8 -4.6100 -0.1684
3 17 9 8.8681 0.3134
3 17 10 0.2923 -0.7273
3 17 11 -1.2999 0.3470
3 17 12 -0.4540 -0.6621
3 17 13 4.5620 0.3468
3 17 14 3.5047 -0.1190
3 17 15 -3.2201 0.1297
3 17 16 6.7952 0.2739
3 17 17 -2.5834 -0.0142
3 17 18 1.8080 0.3573
3 17 19 -0.8083 0.0239
3 17 20 2.4781 0.0490
3 17 21 0.3668 -0.0529
3 17 22 1.0355 -0.6844
3 17 23 -3.0972 0.3184
3 17 24 -0.6694 -1.1234
3 18 0 -12.0155 3.9718
3 18 1 -0.2692 1.0191
3 18 2 10.3900 -1.3040
3 18 3 4.4728 -0.0310
3 18 4 4.2205 -1.7255
3 18 5 0.7528 -0.4628
3 18 6 -11.7420 -1.2816
3 18 7 2.9882 -0.0299
3 18 8 -1.2344 -0.5214
3 18 9 4.4639 0.1094
3 18 10 1.1814 -0.5727
3 18 11 -4.4644 0.2094
3 18 12 -1.4843 -0.9068
3 18 13 1.7490 0.1423
3 18 14 6.3311 -1.0391
3 18 15 -1.4603 0.1315
3 18 16 3.5202 -0.9959
3 18 17 -0.0671 -0.1180
3 18 18 1.1578 -0.8008
3 18 19 1.1284 0.0526
3 18 20 -3.1278 -0.7443
3 18 21 2.2578 -0.2097
3 18 22 -0.7008 0.0330
3 18 23 3.3430 -0.0204
3 19 0 9.8122 5.4960
3 19 1 4.1569 -0.9596
3 19 2 4.3786 0.9100
3 19 3 7.0587 -0.1150
3 19 4 3.8465 -0.9331
3 19 5 9.1061 -0.0594
3 19 6 1.6247 -0.9948
3 19 7 12.3662 -0.3263
3 19 8 -2.7030 0.1131
3 19 9 11.1115 -0.4493
3 19 10 -1.7243 0.9255
3 19 11 0.3705 -0.2748
3 19 12 -2.5805 0.5898
3 19 13 2.1222 -0.1769
3 19 14 1.3361 -0.0480
3 19 15 -0.7060 -0.1898
3 19 16 -1.9700 -0.4924
3 19 17 -4.5676 -0.3213
3 19 18 -1.2698 -0.1923
3 19 19 3.6398 -0.0997
3 19 20 -0.5637 0.0759
3 19 21 -0.1197 -0.4496
3 19 22 1.1726 0.7581
3 19 23 2.2257 -0.0950
3 20 0 5.8365 -1.2537
3 20 1 -4.1402 0.6293
3 20 2 10.4077 -0.4679
3 20 3 -3.8638 -0.3168
3 20 4 -0.0059 0.2499
3 20 5 3.6082 -0.4196
3 20 6 -5.8470 -0.1448
3 20 7 1.8981 -0.2822
3 20 8 -4.9035 -0.3173
3 20 9 0.2457 -0.3499
3 20 10 -1.2439 -0.2910
3 20 11 -7.3520 -0.3110
3 20 12 0.1954 -0.1046
3 20 13 -4.3436 -0.2924
3 20 14 -4.2074 -0.0394
3 20 15 -1.7258 -0.1883
3 20 16 1.8959 -0.0454
3 20 17 1.5063 0.0980
3 20 18 -3.9440 -0.0320
3 20 19 -0.7237 0.0756
3 20 20 -2.1275 -0.3034
3 20 21 3.0329 -0.0115
3 20 22 -6.4824 -0.1751
3 21 0 0.4988 -2.4855
3 21 1 1.1442 1.2874
3 21 2 3.3635 0.1320
3 21 3 1.7414 0.0770
3 21 4 8.6876 0.5152
3 21 5 4.3177 -0.3609
3 21 6 -1.3400 0.1766
3 21 7 7.9161 -0.0214
3 21 8 -0.0967 -0.2001
3 21 9 6.6541 0.2002
3 21 10 -0.6463 -0.2890
3 21 11 6.1711 0.3577
3 21 12 -11.4260 -0.2118
3 21 13 0.5363 0.2541
3 21 14 0.8470 0.1551
3 21 15 1.5932 0.1436
3 21 16 4.8383 0.3233
3 21 17 -1.3163 -0.3254
3 21 18 -0.2854 0.3020
3 21 19 1.6133 0.2704
3 21 20 -2.1729 -0.1654
3 21 21 1.2646 0.4180
3 22 0 -1.1141 -0.9057
3 22 1 -9.2256 -0.6033
3 22 2 6.9451 0.7645
3 22 3 -8.1491 -0.3716
3 22 4 -0.2811 0.6491
3 22 5 -11.7260 -0.0370
3 22 6 3.0439 0.6162
3 22 7 6.5584 0.2171
3 22 8 -0.5517 0.6767
3 22 9 -1.6076 -0.0061
3 22 10 -0.9471 0.6762
3 22 11 -3.9139 -0.1147
3 22 12 -1.8954 0.2189
3 22 13 -0.1077 -0.0377
3 22 14 4.0374 0.2510
3 22 15 1.9448 0.0619
3 22 16 -0.0664 -0.1151
3 22 17 1.2524 0.2072
3 22 18 0.6297 -0.1122
3 22 19 2.1531 0.0833
3 22 20 -2.2103 -0.0908
3 23 0 9.5781 -1.0014
3 23 1 -2.3640 -2.2826
3 23 2 -1.2196 -0.2027
3 23 3 0.6180 0.3031
3 23 4 2.0880 0.2575
3 23 5 -1.2346 0.7823
3 23 6 -2.9985 0.2265
3 23 7 10.9985 0.3543
3 23 8 -5.2013 0.1875
3 23 9 1.1072 -0.1757
3 23 10 -3.4231 0.0092
3 23 11 2.9445 -0.0998
3 23 12 1.8387 -0.1309
3 23 13 1.1478 -0.0979
3 23 14 -3.9458 -0.2060
3 23 15 -1.5552 -0.2586
3 23 16 -0.8719 0.0155
3 23 17 -3.7004 -0.2027
3 23 18 0.2277 0.0584
3 23 19 -0.1523 -0.8110
3 24 0 3.9363 -0.0714
3 24 1 -2.6470 0.5126
3 24 2 2.3764 0.3880
3 24 3 -2.2075 0.2589
3 24 4 -1.8110 0.3804
3 24 5 0.6432 -0.4065
3 24 6 -1.1510 0.4505
3 24 7 -0.5386 -0.0652
3 24 8 0.7129 0.0701
3 24 9 -0.3302 -0.3615
3 24 10 0.6588 0.3778
3 24 11 -2.1000 -0.0212
3 24 12 2.0736 0.5030
3 24 13 5.8756 -0.1308
3 24 14 1.3256 0.5038
3 24 15 -5.9682 -0.0510
3 24 16 0.4344 0.1265
3 24 17 -1.6085 0.0826
3 25 0 -2.1698 1.0746
3 25 1 -6.4437 2.2449
3 25 2 -0.4626 0.3805
3 25 3 -7.3825 -0.5169
3 25 4 -2.1252 -0.2389
3 25 5 -1.2046 -0.9932
3 25 6 -6.7734 -0.2798
3 25 7 -1.8916 -0.2637
3 25 8 -6.3790 -0.1089
3 25 9 1.1457 -0.0721
3 25 10 -2.7004 -0.1871
3 25 11 -1.7189 -0.0136
3 25 12 -3.2312 -0.0228
3 25 13 -3.4875 -0.2260
3 25 14 0.1042 0.0567
3 25 15 -0.5589 1.1031
3 25 16 1.3803 0.5542
3 26 0 -7.3546 -0.4416
3 26 1 1.4374 -2.5291
3 26 2 2.2577 -0.4541
3 26 3 1.9684 1.9946
3 26 4 -3.6222 -0.3267
3 26 5 -0.5616 1.9829
3 26 6 2.1680 0.2520
3 26 7 1.1084 1.3113
3 26 8 -3.6433 0.1663
3 26 9 3.2754 0.8622
3 26 10 0.8336 -0.1195
3 26 11 1.8357 1.0179
3 26 12 2.6549 0.1382
3 26 13 -3.5884 -0.3173
3 26 14 5.1699 -0.2000
3 27 0 4.0187 -0.6232
3 27 1 -6.4058 -0.1681
3 27 2 0.1574 0.0428
3 27 3 -1.7945 0.2592
3 27 4 -0.7385 0.2667
3 27 5 -5.1081 -0.2475
3 27 6 -3.6865 -0.1966
3 27 7 -2.8475 -0.1222
3 27 8 -0.7808 -0.3511
3 27 9 0.2093 0.0770
3 27 10 -0.9089 -0.3051
3 27 11 1.8223 -0.5398
3 27 12 1.3864 -0.4913
3 28 0 4.3340 -0.7498
3 28 1 -2.3742 0.3448
3 28 2 -3.6249 -0.2852
3 28 3 4.5245 -0.9161
3 28 4 1.8584 -0.0267
3 28 5 4.3108 -1.1585
3 28 6 -3.5744 0.0690
3 28 7 1.4719 -0.4969
3 28 8 5.4569 -0.1229
3 28 9 -3.7705 -0.0250
3 28 10 0.7050 -0.2961
3 29 0 8.2800 -0.2094
3 29 1 2.5090 -1.4307
3 29 2 0.7723 0.0860
3 29 3 1.1036 -0.6688
3 29 4 4.3133 0.2249
3 29 5 7.4386 -0.1302
3 29 6 3.5555 0.3395
4 0 0 -30.8328 0.1703
4 0 1 -122.4862 0.7074
4 0 2 -203.4101 -0.3014
4 0 3 74.3715 0.2373
4 0 4 -47.3793 -0.1173
4 0 5 -73.2785 0.6875
4 0 6 -111.0200 0.7985
4 0 7 -6.0670 0.3450
4 0 8 -5.1830 0.3578
4 0 9 -3.6406 0.5466
4 0 10 -33.8881 -0.2171
4 0 11 -8.7192 0.0761
4 0 12 11.0060 -0.1750
4 0 13 -29.0139 0.1430
4 0 14 -8.2339 0.0519
4 0 15 -8.7874 0.4460
4 0 16 3.3811 0.0382
4 0 17 0.0479 0.2403
4 0 18 -7.4554 0.2426
4 0 19 3.0502 0.2946
4 0 20 -24.2853 -0.1770
4 0 21 15.5524 0.0857
4 0 22 -2.1767 0.2375
4 0 23 3.6842 0.1732
4 0 24 3.8144 -0.1512
4 0 25 -17.2744 0.1761
4 0 26 9.0061 0.3639
4 0 27 -13.2902 0.0217
4 0 28 -0.0796 -0.0392
4 0 29 -5.3764 0.3490
4 1 0 -106.1627 0.8456
4 1 1 -0.5633 -0.5725
4 1 2 3.6687 -0.1709
4 1 3 -7.8406 0.0807
4 1 4 -123.8378 0.4773
4 1 5 8.9717 0.3158
4 1 6 -55.6969 0.6908
4 1 7 -0.8495 0.4790
4 1 8 -45.0782 0.4275
4 1 9 -1.3498 0.5361
4 1 10 -7.2459 -0.6975
4 1 11 -2.6898 0.5057
4 1 12 -3.1660 0.0197
4 1 13 2.5588 0.0449
4 1 14 -6.0224 -0.6907
4 1 15 -9.2160 0.3031
4 1 16 2.3967 0.5393
4 1 17 -9.6565 0.3359
4 1 18 -5.8772 -0.1435
4 1 19 3.7216 0.2924
4 1 20 -14.9165 -0.1146
4 1 21 -6.1910 0.3712
4 1 22 1.8793 -0.0758
4 1 23 0.8543 0.1604
4 1 24 0.3839 -0.1482
4 1 25 -14.6517 0.1889
4 1 26 4.1630 0.1198
4 1 27 -4.2382 -0.1472
4 1 28 -0.7424 -0.0644
4 1 29 -8.9151 0.1994
4 2 0 143.6486 1.8788
4 2 1 -53.6972 0.6632
4 2 2 -106.1959 0.4186
4 2 3 -22.2461 0.2384
4 2 4 -92.8997 0.5483
4 2 5 -16.7067 -0.2784
4 2 6 -40.2916 0.3187
4 2 7 9.8748 -0.2174
4 2 8 -58.6668 0.3809
4 2 9 -4.1605 0.0367
4 2 10 -3.4357 0.7243
4 2 11 -1.0135 0.5384
4 2 12 11.0921 0.8575
4 2 13 -18.8174 0.4146
4 2 14 3.4170 0.4815
4 2 15 -9.8400 0.1575
4 2 16 1.0245 0.2419
4 2 17 -1.9993 0.1959
4 2 18 -3.9962 0.2486
4 2 19 -2.2702 -0.0123
4 2 20 -3.1319 0.2914
4 2 21 4.1913 0.2696
4 2 22 -8.7336 0.2708
4 2 23 2.6163 0.3066
4 2 24 -7.6840 0.2144
4 2 25 -1.1012 0.3764
4 2 26 12.5891 0.2156
4 2 27 -4.2846 0.1855
4 2 28 4.9961 0.6307
4 2 29 -8.1164 -0.0220
4 3 0 71.2258 1.6490
4 3 1 -13.2700 -0.7218
4 3 2 -77.7547 -0.0283
4 3 3 12.5608 -0.1674
4 3 4 -118.2199 -0.1878
4 3 5 37.4170 0.6053
4 3 6 1.4100 -0.5432
4 3 7 2.8102 0.4484
4 3 8 -32.8197 -0.3567
4 3 9 -7.3426 -0.0821
4 3 10 -6.5063 0.1455
4 3 11 -15.8403 -0.2799
4 3 12 -22.5187 -0.0939
4 3 13 -3.2123 -0.0779
4 3 14 -0.1675 -0.2114
4 3 15 -1.2118 0.1169
4 3 16 -9.6586 -0.3962
4 3 17 -13.4308 0.1224
4 3 18 2.0660 -0.2898
4 3 19 1.4009 0.0268
4 3 20 -7.1238 -0.1312
4 3 21 -1.5005 -0.0655
4 3 22 -6.8391 -0.1940
4 3 23 -1.4682 -0.0581
4 3 24 19.5812 -0.1887
4 3 25 0.8602 0.1415
4 3 26 -11.4758 -0.1336
4 3 27 -13.1666 0.1963
4 3 28 -2.9421 0.1853
4 3 29 -0.1274 0.1593
4 4 0 137.7249 -0.7364
4 4 1 -15.3996 0.6372
4 4 2 -36.0925 -0.4839
4 4 3 39.7007 -0.2578
4 4 4 -12.6569 0.1175
4 4 5 38.2421 -0.9042
4 4 6 24.2607 0.1648
4 4 7 41.8093 -0.8236
4 4 8 -1.0796 0.3279
4 4 9 19.0964 -0.8873
4 4 10 -1.2445 0.0236
4 4 11 0.5651 -0.6647
4 4 12 15.5202 -0.6085
4 4 13 -17.4464 -0.5712
4 4 14 12.2216 -0.3192
4 4 15 -2.7769 -0.5057
4 4 16 7.4288 -0.2237
4 4 17 -8.2505 -0.3147
4 4 18 1.8304 0.0471
4 4 19 2.6332 -0.4565
4 4 20 -3.4452 0.0893
4 4 21 4.8600 -0.3719
4 4 22 0.1562 0.0387
4 4 23 4.1821 -0.6194
4 4 24 -5.3416 -0.1617
4 4 25 1.2199 -0.5482
4 4 26 1.4021 -0.0174
4 4 27 -3.7072 -0.3118
4 4 28 3.9922 -0.1322
4 4 29 -2.0550 0.1601
4 5 0 25.5492 1.3824
4 5 1 94.3461 2.9965
4 5 2 -10.9221 1.0388
4 5 3 11.9994 -0.0128
4 5 4 52.1592 0.1625
4 5 5 25.4467 -0.5399
4 5 6 10.7869 -0.3249
4 5 7 -0.9031 0.1003
4 5 8 3.8004 -0.3077
4 5 9 -0.1473 0.4790
4 5 10 17.3625 0.4601
4 5 11 14.4952 0.7329
4 5 12 -3.5728 0.2298
4 5 13 6.1736 0.5916
4 5 14 17.0478 0.3976
4 5 15 -3.8691 0.2735
4 5 16 0.5318 0.0860
4 5 17 -6.3166 0.2840
4 5 18 -6.3952 0.1979
4 5 19 2.8288 0.0516
4 5 20 2.2082 0.2004
4 5 21 1.6962 0.3292
4 5 22 -1.3421 0.0064
4 5 23 0.3757 0.2918
4 5 24 3.4843 0.0372
4 5 25 3.7500 0.2045
4 5 26 -0.2934 0.2868
4 5 27 -0.7278 0.0263
4 5 28 2.2773 0.4688
4 5 29 4.8725 0.5714
4 6 0 85.6912 0.1128
4 6 1 55.5986 -2.8799
4 6 2 18.8647 0.5024
4 6 3 -3.3324 0.5258
4 6 4 30.7255 0.4529
4 6 5 30.2360 1.2221
4 6 6 25.0242 0.1459
4 6 7 25.3725 1.1704
4 6 8 -5.8428 -0.0101
4 6 9 9.9082 0.9200
4 6 10 10.3853 0.3938
4 6 11 -11.9158 0.6319
4 6 12 18.6823 0.5345
4 6 13 -1.4379 0.4493
4 6 14 5.5894 0.4810
4 6 15 -7.7600 0.4010
4 6 16 9.0733 0.2865
4 6 17 -9.1654 0.5843
4 6 18 6.4512 0.2315
4 6 19 9.5488 0.6251
4 6 20 -6.5760 -0.0674
4 6 21 0.9974 0.7156
4 6 22 0.7922 0.1944
4 6 23 6.4009 0.4503
4 6 24 -4.1786 0.3631
4 6 25 0.4470 0.3172
4 6 26 3.5705 0.4111
4 6 27 0.7420 -0.1952
4 6 28 0.9039 0.0312
4 6 29 -5.2660 -0.2585
4 7 0 -77.9542 -2.6438
4 7 1 -23.7699 2.5898
4 7 2 23.5706 -0.7553
4 7 3 15.9706 -1.1635
4 7 4 -1.2065 0.7603
4 7 5 43.1623 -1.5336
4 7 6 -2.4011 0.4952
4 7 7 9.4454 -0.4822
4 7 8 21.5160 0.1954
4 7 9 -11.7825 -0.3759
4 7 10 -7.2089 -0.1957
4 7 11 -25.8979 -0.4875
4 7 12 2.0979 -0.0519
4 7 13 0.1656 -0.9262
4 7 14 12.3505 -0.2094
4 7 15 2.7700 -0.7038
4 7 16 0.5589 0.0653
4 7 17 -2.5845 -0.4426
4 7 18 -4.3610 0.0995
4 7 19 8.7711 -0.3317
4 7 20 -1.9847 0.1643
4 7 21 -0.9091 -0.4247
4 7 22 -8.5323 0.0204
4 7 23 -9.6411 -0.6493
4 7 24 1.6977 0.0806
4 7 25 -0.7748 -0.4485
4 7 26 -2.2193 -0.0700
4 7 27 0.9687 0.0495
4 7 28 2.3181 -0.4896
4 8 0 16.1742 -1.9637
4 8 1 -67.0191 1.3177
4 8 2 27.3041 -0.5500
4 8 3 60.0380 0.2830
4 8 4 1.1988 0.2447
4 8 5 -17.8808 -0.0252
4 8 6 -9.1967 -0.0410
4 8 7 4.3278 -0.4833
4 8 8 -0.8432 -0.3779
4 8 9 27.5455 -0.1953
4 8 10 -3.3271 -0.5235
4 8 11 -4.2725 0.0943
4 8 12 10.9231 -0.4238
4 8 13 -8.8124 0.4790
4 8 14 12.0006 -0.3087
4 8 15 0.6732 0.2745
4 8 16 6.3931 -0.1694
4 8 17 -0.1446 -0.2372
4 8 18 1.5104 -0.2934
4 8 19 -2.8721 -0.2762
4 8 20 0.4215 -0.2907
4 8 21 0.9917 -0.0913
4 8 22 -1.5648 -0.1129
4 8 23 7.1777 0.0901
4 8 24 0.6746 -0.2908
4 8 25 1.9066 -0.0512
4 8 26 -0.5022 -0.2949
4 8 27 1.9938 0.0755
4 8 28 -0.7112 -0.4579
4 9 0 37.9084 0.3021
4 9 1 16.9756 -7.0350
4 9 2 1.7843 -0.1184
4 9 3 -14.4959 0.2711
4 9 4 6.4546 -0.3967
4 9 5 -12.9755 2.1106
4 9 6 -31.6394 -0.0554
4 9 7 1.8795 1.0328
4 9 8 0.2768 0.0616
4 9 9 1.5638 0.0565
4 9 10 11.3116 -0.0691
4 9 11 8.9644 0.0498
4 9 12 11.7086 0.2128
4 9 13 -6.2755 0.5156
4 9 14 -0.3675 0.0051
4 9 15 -15.8448 0.7377
4 9 16 -3.8524 0.1368
4 9 17 -5.4181 0.2753
4 9 18 -1.4352 0.0392
4 9 19 -2.0459 0.0367
4 9 20 -0.8531 -0.0618
4 9 21 -1.5240 0.3989
4 9 22 -2.0293 0.1465
4 9 23 1.4779 0.5949
4 9 24 0.0002 0.0061
4 9 25 -0.1950 0.2483
4 9 26 -0.0813 0.4142
4 9 27 -0.7924 -1.2420
4 9 28 -6.9117 0.0848
4 10 0 15.1975 0.6512
4 10 1 -30.2421 -3.0774
4 10 2 -7.4071 0.2247
4 10 3 -3.0295 -0.2916
4 10 4 -0.7409 -0.0460
4 10 5 -28.0491 0.7823
4 10 6 -27.6375 -0.4112
4 10 7 2.1170 0.1990
4 10 8 2.4199 -0.2477
4 10 9 8.9750 -0.2256
4 10 10 5.4996 -0.0278
4 10 11 -11.1551 -0.4636
4 10 12 3.5176 0.1728
4 10 13 -1.5451 -0.1777
4 10 14 2.0009 0.1639
4 10 15 -3.5040 -0.0306
4 10 16 6.6710 0.0540
4 10 17 -7.7980 0.0519
4 10 18 -2.0959 -0.1089
4 10 19 3.5763 0.1772
4 10 20 -8.1684 -0.2255
4 10 21 4.3405 -0.0262
4 10 22 1.7611 -0.1875
4 10 23 1.2924 0.0374
4 10 24 -4.4084 -0.1240
4 10 25 1.6743 -0.2338
4 10 26 1.9883 0.4521
4 10 27 -1.0680 -0.3175
4 10 28 -0.2692 0.2882
4 11 0 -36.9909 -0.9032
4 11 1 0.2081 1.9806
4 11 2 -6.2193 -0.4323
4 11 3 4.8572 1.1677
4 11 4 12.7774 -0.0620
4 11 5 6.4899 -0.6847
4 11 6 7.4259 0.1774
4 11 7 1.8538 -0.8362
4 11 8 5.8343 -0.3203
4 11 9 -1.6435 0.2411
4 11 10 -1.2611 -0.6704
4 11 11 7.1103 0.8420
4 11 12 4.9860 -0.4124
4 11 13 3.8600 0.8831
4 11 14 2.4694 -0.1420
4 11 15 5.7715 0.3134
4 11 16 16.5429 -0.0986
4 11 17 -2.4218 0.0019
4 11 18 7.5448 -0.2463
4 11 19 -0.8381 0.0296
4 11 20 -1.2341 -0.0443
4 11 21 1.6903 0.1205
4 11 22 3.2521 -0.1161
4 11 23 1.8371 0.0366
4 11 24 -1.3025 -0.2512
4 11 25 0.8144 0.3513
4 11 26 0.7916 -0.3011
4 11 27 1.6192 0.6769
4 12 0 13.9729 -1.2959
4 12 1 -14.8252 2.8351
4 12 2 -5.3032 0.5854
4 12 3 1.3143 0.2415
4 12 4 -8.7538 0.7170
4 12 5 -1.6570 -0.6251
4 12 6 1.6709 0.8222
4 12 7 8.7235 -0.2227
4 12 8 -14.0971 1.0040
4 12 9 -7.7464 0.6049
4 12 10 -12.1922 0.6119
4 12 11 -4.9535 0.4631
4 12 12 0.8649 0.6055
4 12 13 -10.9970 0.1001
4 12 14 -2.4347 0.5123
4 12 15 -8.1409 -0.0540
4 12 16 -2.2494 0.4344
4 12 17 -1.8215 -0.1555
4 12 18 -3.4800 0.5592
4 12 19 -3.2110 0.1427
4 12 20 2.9288 0.6799
4 12 21 -0.3814 0.0461
4 12 22 -3.5889 0.5628
4 12 23 1.6920 0.0493
4 12 24 -2.4329 0.1940
4 12 25 -2.6036 0.1277
4 12 26 -2.3470 -0.1172
4 12 27 -0.7587 0.2683
4 13 0 2.3343 0.6246
4 13 1 -6.9562 -1.8617
4 13 2 5.0810 -0.0496
4 13 3 -11.7868 -0.8667
4 13 4 -9.2708 -0.1474
4 13 5 13.4749 -0.0512
4 13 6 -17.2623 -0.3553
4 13 7 9.9940 0.0531
4 13 8 8.4193 -0.2384
4 13 9 -0.8638 -0.4991
4 13 10 14.9398 0.0906
4 13 11 1.2137 -0.9647
4 13 12 -0.0413 0.2822
4 13 13 0.3410 -0.8881
4 13 14 -2.9580 0.2016
4 13 15 -6.5256 -0.4920
4 13 16 0.5990 0.0695
4 13 17 -3.0464 -0.1890
4 13 18 -5.9148 -0.1493
4 13 19 0.8446 -0.1290
4 13 20 -0.2886 0.0363
4 13 21 -0.7044 -0.4484
4 13 22 -0.6420 0.0613
4 13 23 0.2423 -0.6039
4 13 24 2.5224 0.2031
4 13 25 -0.5292 -0.5035
4 13 26 -3.6620 0.4039
4 14 0 22.1490 2.9393
4 14 1 -10.2151 0.1678
4 14 2 -9.5001 -0.1020
4 14 3 -3.7311 -0.4496
4 14 4 -21.7297 -1.2471
4 14 5 4.9189 -0.1703
4 14 6 -4.3458 -0.8856
4 14 7 3.8139 -0.3504
4 14 8 -19.1682 -0.1057
4 14 9 -1.1930 -0.3918
4 14 10 -2.4588 -0.0079
4 14 11 -6.0437 -0.6807
4 14 12 5.9365 0.0819
4 14 13 1.4754 -0.5316
4 14 14 -4.7777 -0.4164
4 14 15 -4.8891 -0.1370
4 14 16 4.3851 -0.5225
4 14 17 -3.8374 -0.1396
4 14 18 -0.2390 -0.1986
4 14 19 6.6597 -0.0748
4 14 20 -7.5358 -0.1687
4 14 21 -0.8787 -0.4462
4 14 22 -1.5248 -0.1696
4 14 23 0.1993 -0.2961
4 14 24 -1.0671 0.0363
4 14 25 1.7317 0.0967
4 14 26 0.5646 0.5504
4 15 0 -6.2862 -4.3152
4 15 1 -7.9676 0.7394
4 15 2 -11.2678 0.3344
4 15 3 -10.3627 0.2104
4 15 4 -3.9903 1.6085
4 15 5 -4.0183 0.2771
4 15 6 -9.7164 1.2324
4 15 7 -7.8971 0.1308
4 15 8 -6.6486 0.5660
4 15 9 -0.3666 0.0700
4 15 10 -11.4129 0.1412
4 15 11 -11.9444 0.1721
4 15 12 -6.4110 0.0653
4 15 13 -4.8134 0.3251
4 15 14 3.4267 0.3792
4 15 15 -1.9205 0.3138
4 15 16 0.8825 0.4469
4 15 17 -7.1857 0.1921
4 15 18 -1.7650 0.4579
4 15 19 1.4520 0.1774
4 15 20 -0.7088 0.3804
4 15 21 -1.1881 0.0998
4 15 22 -7.9757 0.4322
4 15 23 -2.8142 0.1221
4 15 24 -1.6174 -0.6240
4 15 25 0.2325 0.4217
4 16 0 0.7947 -0.5166
4 16 1 -5.7625 0.7649
4 16 2 11.6240 0.2866
4 16 3 5.0650 -0.0340
4 16 4 7.9584 0.3387
4 16 5 5.0721 -0.2847
4 16 6 -11.9973 0.5495
4 16 7 6.3442 -0.0724
4 16 8 5.5204 0.1797
4 16 9 7.7547 0.4147
4 16 10 2.6235 -0.6297
4 16 11 -2.3753 0.2411
4 16 12 -1.7825 -0.3801
4 16 13 -1.8164 0.1545
4 16 14 1.4074 -0.1388
4 16 15 -0.7271 0.2099
4 16 16 1.5950 0.1681
4 16 17 1.7270 0.1074
4 16 18 4.6999 0.0163
4 16 19 0.3690 0.2759
4 16 20 -7.1336 -0.1987
4 16 21 4.0707 0.0786
4 16 22 -2.2759 -0.2152
4 16 23 2.6675 0.1813
4 16 24 0.1658 -0.3233
4 16 25 0.9115 0.1073
4 17 0 5.0983 4.7469
4 17 1 -2.6083 1.5370
4 17 2 9.0371 0.1018
4 17 3 -5.1073 -0.0104
4 17 4 -0.4684 -1.3944
4 17 5 1.9233 -0.5394
4 17 6 -3.6395 -1.3101
4 17 7 3.1258 -0.1985
4 17 8 -2.1702 -0.3038
4 17 9 -3.9174 0.0614
4 17 10 7.2180 0.1064
4 17 11 -6.5770 0.2084
4 17 12 -0.2590 -0.1738
4 17 13 5.3446 0.1162
4 17 14 3.0833 -0.5111
4 17 15 0.2648 -0.1727
4 17 16 -1.4514 -0.5387
4 17 17 0.6009 -0.1720
4 17 18 3.9000 -0.4147
4 17 19 -0.1078 -0.0513
4 17 20 -0.8253 -0.0733
4 17 21 1.6237 0.0555
4 17 22 -0.7090 0.3825
4 17 23 0.5302 -0.2544
4 17 24 -0.2916 1.2573
4 18 0 -0.8019 0.4339
4 18 1 -10.8989 -0.2080
4 18 2 3.0273 -0.1035
4 18 3 11.3442 0.4080
4 18 4 -6.8417 -0.4702
4 18 5 6.3567 0.2336
4 18 6 2.1837 -0.4380
4 18 7 6.5535 0.0224
4 18 8 -4.1435 -0.2322
4 18 9 10.7240 0.0409
4 18 10 4.8072 0.0226
4 18 11 -1.7366 0.0932
4 18 12 6.0539 0.0064
4 18 13 1.2351 0.1232
4 18 14 3.5193 -0.2410
4 18 15 1.6882 0.0808
4 18 16 3.8888 -0.1643
4 18 17 -3.8482 -0.0325
4 18 18 -2.7995 -0.1407
4 18 19 4.2129 0.3006
4 18 20 -0.6183 -0.0222
4 18 21 2.8787 -0.0006
4 18 22 2.8069 0.0451
4 18 23 1.3213 -0.1111
4 19 0 1.5347 3.0072
4 19 1 -2.5193 0.6880
4 19 2 -4.0877 0.1097
4 19 3 1.3598 -0.0994
4 19 4 -6.6164 -0.6666
4 19 5 1.6846 -0.1891
4 19 6 2.5680 -0.7630
4 19 7 1.7999 0.3521
4 19 8 2.1405 -0.0752
4 19 9 3.3656 0.2574
4 19 10 0.0065 0.0818
4 19 11 -0.2082 0.2505
4 19 12 1.3347 -0.0748
4 19 13 -1.3772 0.1452
4 19 14 9.3084 -0.5242
4 19 15 1.2851 -0.1092
4 19 16 0.2414 -0.3027
4 19 17 1.5124 0.2011
4 19 18 -0.5809 -0.3540
4 19 19 0.4189 0.2437
4 19 20 -1.6105 -0.3301
4 19 21 0.0534 0.4569
4 19 22 2.3795 0.0962
4 20 0 24.4357 -0.0767
4 20 1 2.2406 -0.2664
4 20 2 0.5778 0.0201
4 20 3 -3.9457 -0.1902
4 20 4 -5.7837 0.0907
4 20 5 5.7873 0.0466
4 20 6 -3.8427 0.0083
4 20 7 3.3001 -0.0364
4 20 8 -5.1030 0.4587
4 20 9 1.8567 -0.3890
4 20 10 5.2453 0.5759
4 20 11 2.0998 -0.2535
4 20 12 5.7179 0.3531
4 20 13 1.9126 -0.0862
4 20 14 -1.6731 0.2488
4 20 15 -1.4696 -0.1714
4 20 16 1.2603 0.3162
4 20 17 0.6157 -0.2529
4 20 18 -3.1236 0.3149
4 20 19 4.9572 -0.2261
4 20 20 1.4862 -0.0818
4 20 21 0.3838 -0.1929
4 21 0 1.8321 -3.8859
4 21 1 -1.6641 -0.2973
4 21 2 -3.2757 0.1112
4 21 3 -4.0944 0.0756
4 21 4 -2.6446 1.2997
4 21 5 -1.0555 0.2049
4 21 6 0.7547 1.1816
4 21 7 3.9631 -0.0298
4 21 8 -7.5542 0.6751
4 21 9 -3.8094 -0.2202
4 21 10 9.0026 0.1637
4 21 11 3.2627 -0.0529
4 21 12 -2.6079 0.0496
4 21 13 -0.7848 -0.0164
4 21 14 -9.2506 0.2712
4 21 15 -2.1084 0.1416
4 21 16 0.4191 0.7610
4 21 17 -3.8540 0.0968
4 21 18 -0.4282 0.5354
4 21 19 1.6551 -0.3608
4 21 20 -0.0790 -0.3897
4 22 0 8.0901 -2.2157
4 22 1 5.7209 -1.0742
4 22 2 9.3603 -0.1514
4 22 3 7.3106 0.1261
4 22 4 -1.8071 0.6205
4 22 5 8.7256 0.1252
4 22 6 -4.5295 0.0889
4 22 7 1.3435 -0.1831
4 22 8 -4.0671 -0.2945
4 22 9 2.7643 -0.0229
4 22 10 -1.2772 -0.3208
4 22 11 2.7837 0.1745
4 22 12 1.1171 -0.2234
4 22 13 3.3012 0.0987
4 22 14 1.3015 -0.0667
4 22 15 1.0224 -0.2405
4 22 16 0.1738 0.1211
4 22 17 -1.7050 0.0008
4 22 18 0.7880 0.0660
4 22 19 2.9013 -0.4405
4 23 0 10.7718 1.4606
4 23 1 -2.4550 0.2665
4 23 2 -0.3129 0.3793
4 23 3 4.1673 -0.1467
4 23 4 5.7742 -0.5185
4 23 5 5.1742 -0.0873
4 23 6 -1.8367 -0.5742
4 23 7 8.0015 -0.1056
4 23 8 -1.1241 -0.0479
4 23 9 3.7023 -0.1867
4 23 10 -6.7841 0.0745
4 23 11 1.8575 -0.5089
4 23 12 -1.2163 0.0307
4 23 13 2.3721 -0.3416
4 23 14 -2.1271 -0.1465
4 23 15 0.8258 0.1735
4 23 16 -1.2574 -0.2740
4 23 17 3.9005 0.5035
4 23 18 -1.4880 0.1145
4 24 0 -4.2256 0.5917
4 24 1 -10.7979 -0.5004
4 24 2 -3.1213 -0.0314
4 24 3 0.7190 -0.0699
4 24 4 -3.5708 -0.1602
4 24 5 0.3408 0.2737
4 24 6 -0.4179 -0.0625
4 24 7 0.0584 0.2150
4 24 8 -6.6453 -0.1259
4 24 9 -3.0787 -0.0537
4 24 10 -3.7556 -0.0815
4 24 11 -1.9220 -0.0617
4 24 12 -1.5160 0.0695
4 24 13 -0.2495 0.0457
4 24 14 -2.6016 0.2521
4 24 15 -3.4864 0.2049
4 24 16 -1.7016 -0.0512
4 24 17 5.2977 0.1860
4 25 0 4.6603 -0.4550
4 25 1 0.6457 -0.1835
4 25 2 8.4378 -0.3574
4 25 3 -0.2528 0.3185
4 25 4 2.4004 0.0922
4 25 5 5.5244 -0.2248
4 25 6 -0.0716 0.3254
4 25 7 2.2334 -0.4276
4 25 8 1.4697 0.2786
4 25 9 3.5944 0.0454
4 25 10 1.2666 0.1804
4 25 11 1.9430 0.3472
4 25 12 -3.0240 0.1506
4 25 13 0.6621 -0.1073
4 25 14 0.9305 -0.3802
4 25 15 -2.2230 -0.5485
4 26 0 1.4137 0.0567
4 26 1 -5.6023 1.0175
4 26 2 -2.2481 -0.0200
4 26 3 -1.4710 0.0752
4 26 4 -3.5825 0.1680
4 26 5 -6.0607 -0.3971
4 26 6 -6.1244 -0.0103
4 26 7 -3.2591 -0.0036
4 26 8 4.6108 -0.0133
4 26 9 -0.1677 0.0402
4 26 10 -0.6581 0.1534
4 26 11 -1.4055 0.1506
4 26 12 0.6313 0.1759
4 26 13 -3.0107 0.2658
4 26 14 -0.0568 -0.1633
4 27 0 -2.0839 -1.1002
4 27 1 -8.2557 -3.5998
4 27 2 -2.0993 -0.4581
4 27 3 -2.7510 0.5147
4 27 4 0.7633 -0.2835
4 27 5 -3.4176 0.9614
4 27 6 -4.7143 -0.0747
4 27 7 -4.2502 0.3208
4 27 8 -1.7739 -0.2158
4 27 9 -1.3006 -0.6714
4 27 10 1.0208 -0.2323
4 27 11 -2.8331 -1.0780
4 27 12 1.9901 -0.5117
4 28 0 4.7408 0.2666
4 28 1 0.1548 -0.2337
4 28 2 -3.4202 0.2633
4 28 3 -2.3324 -0.2432
4 28 4 1.3143 0.2250
4 28 5 1.9662 -0.0256
4 28 6 -1.8762 0.0997
4 28 7 1.9012 0.3778
4 28 8 -0.0382 0.0330
4 28 9 -1.0346 -0.2517
4 29 0 3.5796 0.2745
4 29 1 1.2231 2.7001
4 29 2 2.2625 0.1070
4 29 3 -0.6480 0.4444
4 29 4 -1.1582 0.2671
4 29 5 -0.2359 0.2858
5 1 0 60.7409 0.3954
5 1 1 15.5072 -0.0745
5 1 2 113.5492 -0.2461
5 1 3 40.5268 -0.4154
5 1 4 47.6638 -0.8859
5 1 5 23.2984 -0.1677
5 1 6 4.6985 -0.2618
5 1 7 10.4538 -0.2417
5 1 8 -23.3482 -1.0943
5 1 9 1.8324 -0.3865
5 1 10 -10.5982 0.5037
5 1 11 -13.8884 -0.4824
5 1 12 7.3928 -1.1034
5 1 13 -10.6572 -0.1390
5 1 14 11.1744 0.4250
5 1 15 -7.2771 -0.5019
5 1 16 11.1891 -1.0962
5 1 17 -6.6275 0.0928
5 1 18 13.4772 -0.1468
5 1 19 3.0428 -0.3950
5 1 20 0.4155 -0.5037
5 1 21 -8.3176 -0.1921
5 1 22 -2.0639 -0.1824
5 1 23 15.1083 -0.2579
5 1 24 -9.7878 0.2229
5 1 25 4.2072 -0.2028
5 1 26 -7.2721 0.0778
5 1 27 10.8815 0.0568
5 1 28 -1.2253 -0.0328
5 1 29 -4.9399 -0.1126
5 2 0 -189.0992 1.8480
5 2 1 29.1265 0.1228
5 2 2 6.2144 -0.5659
5 2 3 -48.6398 -0.5536
5 2 4 -7.2045 -0.2667
5 2 5 -12.3207 0.0804
5 2 6 -11.3305 -0.5299
5 2 7 -14.3694 1.1962
5 2 8 -24.7117 -0.5687
5 2 9 -5.5372 1.0409
5 2 10 -10.2866 -0.1840
5 2 11 -13.4028 0.8989
5 2 12 -12.8050 -0.6029
5 2 13 -4.8176 0.5621
5 2 14 -9.3229 -0.3404
5 2 15 -3.7916 0.5229
5 2 16 2.1391 -0.2221
5 2 17 -3.8906 0.9452
5 2 18 -4.3215 -0.2236
5 2 19 -5.4407 0.6271
5 2 20 -3.4454 -0.3849
5 2 21 3.1404 0.6372
5 2 22 4.3803 -0.5090
5 2 23 -6.7355 0.2251
5 2 24 -8.5760 -0.3729
5 2 25 2.8537 0.1822
5 2 26 -4.1128 -0.2340
5 2 27 -1.4986 0.4302
5 2 28 4.2130 0.3483
5 2 29 2.4373 0.4674
5 3 0 4.3895 3.0575
5 3 1 -41.6575 1.9480
5 3 2 -51.0030 0.0107
5 3 3 4.3167 0.0526
5 3 4 -13.0123 -0.8059
5 3 5 -43.9987 -0.3645
5 3 6 2.0033 -0.8173
5 3 7 12.0336 -0.5024
5 3 8 -22.1841 0.1589
5 3 9 13.8470 -0.0106
5 3 10 -6.4212 0.3802
5 3 11 7.4397 0.2420
5 3 12 3.0984 0.2051
5 3 13 -10.8989 0.2106
5 3 14 -9.3861 -0.2008
5 3 15 -3.3603 0.2112
5 3 16 -0.8906 -0.2827
5 3 17 -11.7954 -0.1062
5 3 18 -4.5471 0.0134
5 3 19 -3.0547 0.1062
5 3 20 6.6869 -0.0264
5 3 21 -4.8772 -0.0430
5 3 22 -4.2711 -0.0281
5 3 23 4.4836 0.1178
5 3 24 -3.6833 -0.4205
5 3 25 -0.2193 0.2117
5 3 26 -4.2335 -0.3100
5 3 27 -4.7251 0.0438
5 3 28 4.3750 0.4426
5 3 29 2.4028 0.0784
5 4 0 -85.0213 0.3152
5 4 1 18.2238 -1.3095
5 4 2 15.5998 0.6970
5 4 3 -27.5297 -0.0346
5 4 4 -5.9835 0.6732
5 4 5 10.6363 0.7098
5 4 6 6.0913 0.1238
5 4 7 -13.5896 0.5121
5 4 8 2.7704 0.1322
5 4 9 -14.1801 -0.1345
5 4 10 0.3748 0.4790
5 4 11 -0.3036 0.1030
5 4 12 -14.8339 0.3428
5 4 13 -7.4390 0.2812
5 4 14 8.8533 0.2165
5 4 15 -4.2058 0.2188
5 4 16 1.2250 0.2011
5 4 17 7.9118 0.2935
5 4 18 -5.4664 0.2217
5 4 19 0.6977 -0.0016
5 4 20 -3.9441 0.3486
5 4 21 1.3672 0.2263
5 4 22 -6.7907 0.2953
5 4 23 1.0956 0.2103
5 4 24 2.3896 0.2420
5 4 25 -2.9884 0.2039
5 4 26 -3.8749 0.3108
5 4 27 5.5166 0.0094
5 4 28 3.6073 0.2121
5 4 29 -5.9332 -0.3101
5 5 0 30.9979 -3.4800
5 5 1 -21.7435 0.3580
5 5 2 2.4736 -0.2267
5 5 3 -17.5178 0.0516
5 5 4 36.6077 1.0966
5 5 5 -3.1801 -0.2028
5 5 6 -2.5901 0.9070
5 5 7 23.4377 -0.4718
5 5 8 -6.4235 -0.0802
5 5 9 -5.8655 -0.0181
5 5 10 -22.7473 -0.2357
5 5 11 1.4223 -0.4045
5 5 12 6.3826 -0.1309
5 5 13 0.1210 -0.5171
5 5 14 12.0185 0.5121
5 5 15 -8.3665 -0.3630
5 5 16 11.0520 0.1709
5 5 17 0.0097 -0.2946
5 5 18 0.9064 0.2020
5 5 19 4.4969 0.0972
5 5 20 1.0791 -0.1237
5 5 21 4.1931 -0.2496
5 5 22 -3.4479 0.2054
5 5 23 1.0717 -0.3958
5 5 24 -6.7372 0.3592
5 5 25 3.4694 -0.3595
5 5 26 3.1186 0.2013
5 5 27 1.7026 -0.1224
5 5 28 -4.2626 -0.6189
5 5 29 -3.9837 -0.2908
5 6 0 -37.2851 -1.5847
5 6 1 14.6586 4.1117
5 6 2 33.8267 -0.0352
5 6 3 -2.2324 -0.3205
5 6 4 -12.2906 0.3183
5 6 5 5.9092 -1.1665
5 6 6 -19.8573 -0.2406
5 6 7 5.3320 -0.1975
5 6 8 5.8813 -0.6105
5 6 9 24.8074 0.3348
5 6 10 7.1795 -0.3436
5 6 11 6.5025 0.2813
5 6 12 1.4360 -0.0236
5 6 13 1.0927 -0.0539
5 6 14 5.1691 0.0621
5 6 15 0.7803 -0.2744
5 6 16 1.6288 0.0407
5 6 17 -2.0582 -0.2526
5 6 18 1.3706 -0.1539
5 6 19 3.5266 -0.1388
5 6 20 -1.6027 -0.1103
5 6 21 7.1505 -0.0494
5 6 22 -1.3733 -0.1601
5 6 23 -0.3469 0.0089
5 6 24 -0.6326 0.0525
5 6 25 2.4390 -0.3251
5 6 26 -0.8809 0.1162
5 6 27 -3.7069 0.3409
5 6 28 -2.4188 -0.2738
5 7 0 44.2237 -0.3641
5 7 1 -44.0515 -5.6606
5 7 2 12.0080 -0.1208
5 7 3 35.0233 -0.0923
5 7 4 -0.0952 0.3909
5 7 5 3.8853 1.7258
5 7 6 -7.2805 0.2004
5 7 7 35.9785 0.4035
5 7 8 4.2464 -0.2502
5 7 9 15.5814 -0.4637
5 7 10 9.4847 0.0014
5 7 11 18.1710 -0.5309
5 7 12 31.3656 0.0362
5 7 13 5.8153 0.2934
5 7 14 -2.5246 0.0537
5 7 15 -3.7256 0.4068
5 7 16 9.0498 -0.2948
5 7 17 3.3100 0.1010
5 7 18 5.9417 -0.2410
5 7 19 -2.1092 -0.0426
5 7 20 -6.9296 -0.1036
5 7 21 -1.5853 0.0155
5 7 22 0.4765 0.0366
5 7 23 3.7501 0.3279
5 7 24 -4.2464 0.0422
5 7 25 0.5449 0.1795
5 7 26 0.9397 -0.0850
5 7 27 1.7574 -0.5467
5 7 28 5.7533 -0.0963
5 8 0 -21.6959 0.2643
5 8 1 11.2679 -1.4304
5 8 2 29.1028 -0.2504
5 8 3 21.3044 -0.1141
5 8 4 13.8854 -0.1235
5 8 5 -8.9617 0.3368
5 8 6 0.3864 -0.1607
5 8 7 3.4217 0.0275
5 8 8 18.4802 -0.0208
5 8 9 0.2740 -0.4819
5 8 10 -9.0375 -0.2011
5 8 11 12.1460 -0.6350
5 8 12 -12.0317 -0.1575
5 8 13 10.2749 -0.3324
5 8 14 7.8220 -0.3241
5 8 15 -2.3183 -0.0690
5 8 16 4.4125 -0.0890
5 8 17 2.2802 -0.1137
5 8 18 -2.4702 -0.0535
5 8 19 4.9214 -0.2616
5 8 20 0.7740 0.0829
5 8 21 5.3186 -0.2359
5 8 22 -2.2845 -0.2949
5 8 23 -2.4577 0.0048
5 8 24 2.7618 -0.0838
5 8 25 0.3729 -0.1923
5 8 26 0.3422 0.1628
5 8 27 1.9680 -0.6232
5 8 28 3.8985 0.1609
5 9 0 6.5185 -0.3220
5 9 1 8.4208 1.6432
5 9 2 -5.4382 -0.4766
5 9 3 -16.4687 -0.2486
5 9 4 -3.3643 -0.0321
5 9 5 -17.5726 -1.3481
5 9 6 -2.9358 -0.0668
5 9 7 3.4673 -1.3401
5 9 8 -14.7614 -0.1165
5 9 9 18.3485 -0.6421
5 9 10 -9.9218 -0.3282
5 9 11 2.3338 -0.0445
5 9 12 -0.5998 -0.3133
5 9 13 -6.6531 0.0312
5 9 14 -2.4327 -0.1337
5 9 15 -10.9269 -0.4132
5 9 16 11.4719 0.0896
5 9 17 -0.7737 -0.6318
5 9 18 -0.5397 -0.0148
5 9 19 -2.3682 -0.5960
5 9 20 -8.8348 -0.0668
5 9 21 -0.4771 -0.4527
5 9 22 -3.0091 -0.0878
5 9 23 1.6031 -0.4102
5 9 24 -5.1566 -0.1467
5 9 25 -3.2717 -0.4347
5 9 26 3.3713 -0.1099
5 9 27 -0.7049 0.0005
5 9 28 -3.9268 -0.0586
5 10 0 -20.0798 0.0330
5 10 1 38.9622 -3.7418
5 10 2 2.7421 -0.0892
5 10 3 -23.1859 0.3029
5 10 4 -1.6446 0.0072
5 10 5 46.2443 0.6839
5 10 6 -3.3531 0.2269
5 10 7 25.7879 -0.0795
5 10 8 3.1146 0.3995
5 10 9 -6.9734 -0.1326
5 10 10 3.1514 -0.0218
5 10 11 -1.7043 0.0364
5 10 12 7.2617 -0.0748
5 10 13 -4.7211 0.2434
5 10 14 -0.1384 0.0670
5 10 15 -1.9528 0.0978
5 10 16 7.4219 0.1373
5 10 17 5.1077 -0.2035
5 10 18 2.9733 0.0565
5 10 19 5.0360 -0.0360
5 10 20 5.6939 0.1631
5 10 21 0.2349 0.1741
5 10 22 3.6395 0.1167
5 10 23 1.4646 0.3571
5 10 24 1.8627 0.0758
5 10 25 0.2422 0.0576
5 10 26 0.7342 -0.0453
5 10 27 -2.3849 -0.6376
5 11 0 12.2232 -0.3966
5 11 1 -38.9640 -0.3763
5 11 2 -3.8872 0.3694
5 11 3 -4.8856 0.1963
5 11 4 -6.1451 -0.0131
5 11 5 5.8243 0.2225
5 11 6 -16.9530 -0.1262
5 11 7 -4.0571 0.7510
5 11 8 -17.9430 -0.2720
5 11 9 -5.7248 0.5982
5 11 10 -1.1283 -0.0279
5 11 11 -26.2078 0.2203
5 11 12 -7.1921 0.3114
5 11 13 -3.2182 -0.0474
5 11 14 -3.5772 0.2246
5 11 15 -9.9870 0.0001
5 11 16 8.7837 -0.0586
5 11 17 -2.8901 0.5200
5 11 18 -1.2878 -0.1136
5 11 19 1.4448 0.3743
5 11 20 -0.9800 -0.0921
5 11 21 0.9274 0.3093
5 11 22 5.9178 0.0591
5 11 23 1.8421 -0.0037
5 11 24 -2.6664 -0.1391
5 11 25 0.0095 0.1808
5 11 26 -0.4192 0.3227
5 11 27 -0.0357 0.1034
5 12 0 22.0234 0.1593
5 12 1 -1.4186 2.3981
5 12 2 2.3435 -0.0755
5 12 3 -7.4973 0.1882
5 12 4 -0.2835 -0.2234
5 12 5 7.2251 -1.0245
5 12 6 -2.3847 0.2372
5 12 7 8.3828 -0.4471
5 12 8 -2.5345 0.2565
5 12 9 -7.5349 0.0951
5 12 10 0.9734 0.0776
5 12 11 9.0888 0.1576
5 12 12 9.1977 0.1055
5 12 13 -0.3183 0.0084
5 12 14 5.0050 0.0277
5 12 15 -5.2978 0.0513
5 12 16 0.9127 -0.1375
5 12 17 0.8847 0.0843
5 12 18 5.3855 0.1353
5 12 19 2.3553 -0.0202
5 12 20 2.1779 0.1262
5 12 21 0.3698 -0.2136
5 12 22 -0.8035 0.1400
5 12 23 -1.6579 -0.3968
5 12 24 2.6332 -0.0478
5 12 25 -2.0610 0.1469
5 12 26 0.4646 0.1280
5 13 0 9.9864 -0.9323
5 13 1 -7.4015 1.5476
5 13 2 3.4169 0.0277
5 13 3 -1.3427 0.2064
5 13 4 -12.0262 0.2972
5 13 5 -7.0818 -0.0375
5 13 6 4.2821 0.4143
5 13 7 10.6805 0.6639
5 13 8 -12.9413 0.7774
5 13 9 7.5675 0.4534
5 13 10 -2.5108 0.6254
5 13 11 3.9668 0.2056
5 13 12 2.0886 0.2467
5 13 13 0.5468 0.0938
5 13 14 12.8705 0.1547
5 13 15 -5.5043 0.0707
5 13 16 -0.3453 0.2347
5 13 17 -3.2764 0.3356
5 13 18 1.1973 0.4441
5 13 19 3.2498 0.0997
5 13 20 2.2920 0.6185
5 13 21 2.2895 0.2810
5 13 22 -2.3854 0.1328
5 13 23 -0.5265 0.1527
5 13 24 -0.6121 -0.2183
5 13 25 3.3186 0.2123
5 13 26 2.3116 0.0798
5 14 0 -24.5044 -0.8301
5 14 1 -2.2569 -1.4868
5 14 2 8.3480 0.3750
5 14 3 -14.6685 -0.3493
5 14 4 7.2909 0.0695
5 14 5 -6.3600 0.5622
5 14 6 -18.8592 -0.3055
5 14 7 -7.9549 0.3228
5 14 8 -9.0801 -0.7873
5 14 9 -2.4871 -0.3617
5 14 10 -1.3367 -0.6936
5 14 11 -8.9843 -0.6817
5 14 12 -9.4333 -0.5324
5 14 13 -3.6774 -0.4102
5 14 14 -0.6423 -0.3058
5 14 15 -1.0662 -0.0526
5 14 16 2.4347 -0.2536
5 14 17 -3.1008 -0.0090
5 14 18 0.1802 -0.2280
5 14 19 2.1888 -0.2657
5 14 20 -1.1834 -0.3952
5 14 21 -1.3650 -0.2804
5 14 22 -3.2213 -0.1816
5 14 23 0.3940 -0.5545
5 14 24 4.1352 -0.2998
5 14 25 1.1471 -0.1673
5 15 0 -4.1541 2.9209
5 15 1 -5.0874 1.8824
5 15 2 -1.5989 0.4289
5 15 3 3.5228 -0.2138
5 15 4 5.3900 -0.3359
5 15 5 7.2534 -0.6794
5 15 6 -3.0129 -0.1223
5 15 7 12.0053 -0.3942
5 15 8 -2.4779 0.3844
5 15 9 2.3633 0.1338
5 15 10 -1.0001 0.4574
5 15 11 -1.1686 0.3240
5 15 12 -3.3681 0.1613
5 15 13 1.1223 0.1451
5 15 14 -0.6690 -0.0112
5 15 15 -2.7144 0.0293
5 15 16 0.7205 -0.0547
5 15 17 -4.9203 0.0669
5 15 18 -0.5239 0.1401
5 15 19 1.7860 0.1142
5 15 20 -4.4359 0.0797
5 15 21 2.3409 0.1237
5 15 22 -2.0826 -0.0413
5 15 23 2.8840 0.1249
5 15 24 -2.5238 0.4320
5 15 25 0.8649 0.1843
5 16 0 4.5298 -2.2558
5 16 1 -7.2441 2.1427
5 16 2 2.8666 -0.1426
5 16 3 -4.9965 0.3533
5 16 4 2.2777 0.8856
5 16 5 0.9941 -0.3431
5 16 6 -11.6337 0.8204
5 16 7 -3.0096 -0.0779
5 16 8 -1.0513 0.5166
5 16 9 -6.0150 0.4789
5 16 10 4.8107 0.3461
5 16 11 -5.7817 0.7665
5 16 12 -1.4680 0.3705
5 16 13 -4.5379 0.6947
5 16 14 2.3133 0.4406
5 16 15 0.1185 0.1972
5 16 16 -1.4755 0.4433
5 16 17 -3.1856 0.1132
5 16 18 -3.0991 0.3957
5 16 19 -3.0359 0.3668
5 16 20 0.9944 0.3622
5 16 21 0.3462 0.3421
5 16 22 -0.5602 0.2727
5 16 23 -0.3243 0.3010
5 16 24 0.9304 -0.1163
5 17 0 4.7846 1.0832
5 17 1 -0.9200 0.4541
5 17 2 5.8180 0.3283
5 17 3 1.6961 -0.0249
5 17 4 -11.1006 0.0232
5 17 5 -2.0994 -0.1667
5 17 6 -0.6859 0.0145
5 17 7 -5.7577 -0.1021
5 17 8 -10.0839 0.1082
5 17 9 -2.1422 0.2739
5 17 10 4.6611 0.1218
5 17 11 -2.3348 0.0157
5 17 12 2.6006 0.0379
5 17 13 4.0340 -0.1020
5 17 14 -2.5050 0.2708
5 17 15 -4.2159 -0.0999
5 17 16 3.5945 0.1107
5 17 17 0.7573 -0.0190
5 17 18 -0.8476 0.0976
5 17 19 -0.0110 0.1706
5 17 20 -4.4245 -0.0230
5 17 21 -1.6443 0.1035
5 17 22 4.2415 0.2593
5 17 23 0.3414 -0.0476
5 17 24 -6.7343 -0.3198
5 18 0 6.8616 6.0791
5 18 1 -4.1164 -1.1561
5 18 2 -0.1985 0.3097
5 18 3 -8.2478 -0.1854
5 18 4 5.3020 -1.3466
5 18 5 2.1671 0.4067
5 18 6 3.2863 -1.1485
5 18 7 10.5648 0.3078
5 18 8 -7.4588 0.1094
5 18 9 0.3142 -0.0398
5 18 10 0.5688 0.7768
5 18 11 -3.7596 -0.0748
5 18 12 -0.5944 0.3762
5 18 13 -1.1271 0.0138
5 18 14 0.2390 -0.6609
5 18 15 -6.0782 0.0664
5 18 16 5.0255 -0.6189
5 18 17 -1.1606 -0.0552
5 18 18 1.0582 -0.4103
5 18 19 -0.2215 0.2160
5 18 20 1.2269 -0.0298
5 18 21 0.5524 -0.1712
5 18 22 -0.0483 0.8319
5 18 23 -2.0975 -0.2145
5 19 0 0.4826 -1.7578
5 19 1 8.1109 -1.4381
5 19 2 9.1534 -0.5918
5 19 3 10.9129 0.0353
5 19 4 2.5533 0.1157
5 19 5 0.7557 0.5871
5 19 6 6.8164 -0.0493
5 19 7 12.1644 0.2146
5 19 8 2.6625 -0.0674
5 19 9 -1.5016 -0.1824
5 19 10 5.0915 -0.2253
5 19 11 2.0340 -0.2703
5 19 12 -6.5737 -0.3231
5 19 13 2.8166 0.0953
5 19 14 1.7495 -0.2950
5 19 15 0.7669 0.2002
5 19 16 10.7462 -0.1094
5 19 17 3.1442 0.2560
5 19 18 1.2710 -0.0015
5 19 19 1.6695 0.2174
5 19 20 -2.3207 -0.1495
5 19 21 1.9679 -0.3030
5 19 22 -1.0109 -0.1132
5 20 0 -5.8708 -2.8897
5 20 1 -0.0609 1.5032
5 20 2 6.8832 -0.3948
5 20 3 -10.6506 0.1071
5 20 4 -1.9077 0.7617
5 20 5 3.7551 -0.3219
5 20 6 -7.5357 0.6297
5 20 7 8.4081 -0.1964
5 20 8 -4.6992 0.1217
5 20 9 -0.2968 0.1894
5 20 10 3.3251 -0.2445
5 20 11 3.4922 0.3547
5 20 12 1.7773 -0.0162
5 20 13 -0.2754 0.1908
5 20 14 2.9296 0.3129
5 20 15 -1.4557 0.1620
5 20 16 4.4574 0.5112
5 20 17 -2.1895 -0.0370
5 20 18 0.2417 0.4697
5 20 19 -0.0823 0.0294
5 20 20 -0.2777 -0.1274
5 20 21 2.9441 0.2914
5 21 0 2.3659 -1.9723
5 21 1 -0.2338 -0.1593
5 21 2 -15.7735 -0.4424
5 21 3 -2.2169 0.1339
5 21 4 3.0931 0.1200
5 21 5 8.9903 -0.1501
5 21 6 -0.1463 0.0046
5 21 7 8.2341 -0.3363
5 21 8 0.4369 -0.1490
5 21 9 -3.7316 -0.3458
5 21 10 2.9962 -0.1730
5 21 11 -3.4415 -0.2006
5 21 12 0.6185 0.0367
5 21 13 2.1967 -0.2027
5 21 14 -0.6092 0.2003
5 21 15 -1.9740 -0.4191
5 21 16 1.6176 0.2202
5 21 17 1.0044 -0.2755
5 21 18 1.3623 -0.0961
5 21 19 4.5868 -0.0943
5 21 20 -1.6213 -0.6472
5 22 0 8.4964 -0.4943
5 22 1 3.7312 -1.0442
5 22 2 9.5681 0.4590
5 22 3 10.7464 -0.1701
5 22 4 2.0544 0.2481
5 22 5 2.3439 0.5206
5 22 6 0.7804 -0.0310
5 22 7 2.5943 0.2315
5 22 8 -5.0736 -0.0465
5 22 9 7.0426 -0.1090
5 22 10 1.5571 -0.0146
5 22 11 5.8820 -0.4526
5 22 12 3.2917 0.0948
5 22 13 -4.9607 -0.4492
5 22 14 3.9841 0.1151
5 22 15 1.7396 -0.0766
5 22 16 -0.8784 -0.0206
5 22 17 -1.0628 0.3306
5 22 18 2.7426 -0.1536
5 22 19 0.8371 -0.0974
5 23 0 -14.7966 1.0131
5 23 1 -7.2392 -1.4851
5 23 2 -0.6536 0.2205
5 23 3 -9.9067 -0.0700
5 23 4 -2.6427 -0.4479
5 23 5 -5.0942 0.0041
5 23 6 -4.1149 -0.4092
5 23 7 -3.3997 -0.2956
5 23 8 2.7383 -0.3820
5 23 9 0.4273 -0.2795
5 23 10 -1.9878 -0.3059
5 23 11 -4.2075 -0.0153
5 23 12 -0.4801 0.0159
5 23 13 -0.0390 0.0504
5 23 14 0.1600 0.1168
5 23 15 -3.7255 -0.1147
5 23 16 -1.9095 0.0174
5 23 17 0.1533 -0.3320
5 23 18 -5.4481 0.1487
5 24 0 1.6377 0.4986
5 24 1 5.0027 1.6195
5 24 2 5.1782 0.1074
5 24 3 4.3009 -0.1205
5 24 4 2.4248 -0.3812
5 24 5 1.4383 -0.7809
5 24 6 -1.0089 -0.0583
5 24 7 11.4733 -0.2950
5 24 8 2.7978 0.0626
5 24 9 2.4631 -0.0993
5 24 10 -0.4896 0.1931
5 24 11 2.2386 -0.2032
5 24 12 0.7669 0.2610
5 24 13 3.1604 0.2774
5 24 14 3.3150 -0.0864
5 24 15 0.8912 0.3859
5 24 16 -0.1684 0.0208
5 25 0 1.3947 -0.9681
5 25 1 -0.7066 0.3014
5 25 2 2.2204 -0.2963
5 25 3 -2.7034 -0.1198
5 25 4 4.0659 0.5748
5 25 5 -0.3513 -0.1730
5 25 6 -0.1910 0.8500
5 25 7 1.3106 -0.0693
5 25 8 -4.1489 0.8335
5 25 9 -0.4132 0.1115
5 25 10 3.2048 -0.1080
5 25 11 0.7343 -0.1952
5 25 12 -0.0636 -0.1485
5 25 13 1.5934 0.4376
5 25 14 1.7560 -0.4477
5 25 15 -1.5618 0.3852
5 26 0 3.4471 -0.3005
5 26 1 -1.7192 -3.1257
5 26 2 -3.1265 0.3343
5 26 3 -0.8846 0.1380
5 26 4 -1.5140 0.0727
5 26 5 4.1914 0.8813
5 26 6 -0.1021 -0.0474
5 26 7 -0.4927 -0.0777
5 26 8 -8.3056 -0.1722
5 26 9 -2.1087 -0.2363
5 26 10 -0.4783 -0.4293
5 26 11 -0.8559 -0.7463
5 26 12 -7.0957 -0.2881
5 26 13 -4.7679 -1.1930
5 27 0 4.1559 1.4795
5 27 1 -3.2436 -0.3125
5 27 2 1.0953 -0.0576
5 27 3 -1.8350 0.3178
5 27 4 2.2744 -0.4391
5 27 5 2.8862 0.5634
5 27 6 0.0317 -0.1794
5 27 7 -1.4811 0.4339
5 27 8 -3.9764 0.5239
5 27 9 2.4911 0.3001
5 27 10 0.5780 0.8650
5 27 11 -4.7908 -0.0638
5 28 0 3.1457 -0.2124
5 28 1 -1.1308 0.1666
5 28 2 -0.1008 -0.2924
5 28 3 -4.1844 -0.0252
5 28 4 -0.5872 -0.0324
5 28 5 -0.3806 -0.0025
5 28 6 -2.4711 0.3253
5 28 7 -2.9811 -0.1455
5 28 8 -0.7640 0.3524
5 29 0 8.0500 0.1564
5 29 1 -2.1816 2.9918
5 29 2 0.8351 0.3264
5 29 3 -4.4258 1.4004
5 29 4 0.2362 0.1758
6 0 0 72.3932 -1.9593
6 0 1 -62.0790 2.1683
6 0 2 61.4478 -0.4401
6 0 3 -42.6867 1.3694
6 0 4 125.5470 -1.6510
6 0 5 -31.5837 0.9850
6 0 6 33.8143 -1.3141
6 0 7 29.4321 1.8321
6 0 8 32.6526 -1.2169
6 0 9 10.3114 1.2829
6 0 10 24.7442 -1.1795
6 0 11 9.7359 1.4424
6 0 12 0.3225 -0.9586
6 0 13 6.2042 1.2244
6 0 14 6.3589 -1.0473
6 0 15 8.4792 1.1132
6 0 16 -4.1297 -0.6526
6 0 17 0.3069 1.4856
6 0 18 -9.3327 -1.0209
6 0 19 -4.5980 0.8377
6 0 20 -3.1840 -1.1034
6 0 21 18.0142 1.2155
6 0 22 6.2150 -0.8546
6 0 23 9.1738 0.7496
6 0 24 -4.6065 -0.9110
6 0 25 11.5451 0.9231
6 0 26 8.0843 -0.2793
6 0 27 4.2940 0.7234
6 0 28 -4.8827 -0.4940
6 0 29 8.9426 0.6339
6 1 0 16.2693 4.9507
6 1 1 16.6129 -0.4633
6 1 2 17.6087 0.8527
6 1 3 7.0743 -0.4938
6 1 4 -34.9952 0.9842
6 1 5 23.6133 -0.0718
6 1 6 -5.1212 3.0097
6 1 7 -16.1287 -0.3071
6 1 8 3.7347 2.8512
6 1 9 -22.8002 -0.2259
6 1 10 20.5329 3.1398
6 1 11 -3.0658 0.0605
6 1 12 7.2911 2.1954
6 1 13 -2.3093 -0.0502
6 1 14 -9.4729 2.3269
6 1 15 -2.3501 -0.3858
6 1 16 -3.6165 1.7814
6 1 17 0.6442 -0.1035
6 1 18 -3.5793 2.1817
6 1 19 1.6636 -0.0499
6 1 20 5.5054 1.7656
6 1 21 2.7150 0.1099
6 1 22 0.5865 1.7778
6 1 23 7.4717 -0.0084
6 1 24 6.8623 1.5919
6 1 25 2.7943 -0.0412
6 1 26 -7.2616 1.1517
6 1 27 -1.5100 -0.1829
6 1 28 3.1164 1.3358
6 1 29 1.9918 0.0250
6 2 0 87.0764 2.7101
6 2 1 -56.5840 -0.2140
6 2 2 -11.3262 -0.5704
6 2 3 10.3740 0.7973
6 2 4 -20.7853 -0.9990
6 2 5 -14.4340 0.9527
6 2 6 20.2294 -0.5784
6 2 7 2.6073 0.1112
6 2 8 -11.5900 -0.2147
6 2 9 25.2817 -0.4450
6 2 10 6.5057 0.3719
6 2 11 15.7363 -0.1764
6 2 12 16.7747 0.3512
6 2 13 -1.1303 0.2806
6 2 14 7.1143 -0.1195
6 2 15 3.3539 0.3342
6 2 16 -1.8818 -0.2851
6 2 17 7.6893 0.1293
6 2 18 -2.0221 0.0225
6 2 19 2.1039 -0.0123
6 2 20 -1.6057 0.2497
6 2 21 4.3396 -0.1172
6 2 22 -4.2877 -0.0367
6 2 23 2.9767 0.0460
6 2 24 2.7565 -0.1592
6 2 25 2.3836 0.1246
6 2 26 -0.9623 -0.2760
6 2 27 1.5512 0.2622
6 2 28 1.9103 0.3887
6 2 29 0.7774 -0.2971
6 3 0 -1.2484 -1.6690
6 3 1 -17.8664 0.1492
6 3 2 -26.8264 -0.2556
6 3 3 7.0648 -0.8059
6 3 4 -75.3189 -0.5274
6 3 5 -32.9442 -0.7480
6 3 6 18.3344 -1.0581
6 3 7 0.1664 0.0064
6 3 8 -29.9916 -1.4099
6 3 9 -15.7174 0.3942
6 3 10 -20.6987 -1.2256
6 3 11 -12.2464 0.1445
6 3 12 -2.5370 -1.0873
6 3 13 -11.1633 0.0098
6 3 14 4.6845 -1.0879
6 3 15 0.3921 0.0165
6 3 16 0.5217 -0.7685
6 3 17 -14.0656 0.1414
6 3 18 -1.5771 -0.7411
6 3 19 6.8815 0.1385
6 3 20 0.8861 -0.8572
6 3 21 2.2574 -0.0266
6 3 22 -4.6896 -0.6732
6 3 23 -8.0282 -0.2452
6 3 24 2.1485 -0.7515
6 3 25 -1.4960 -0.1667
6 3 26 4.3052 -0.5272
6 3 27 0.1266 0.2231
6 3 28 -5.2442 -0.5463
6 3 29 7.3621 0.1932
6 4 0 52.6234 -2.3962
6 4 1 -31.9911 3.1830
6 4 2 -43.2891 0.2837
6 4 3 -16.6840 -0.7968
6 4 4 -47.0507 0.9094
6 4 5 16.0843 -2.0292
6 4 6 -7.6179 0.3208
6 4 7 41.5455 -1.0800
6 4 8 -33.8563 -0.0231
6 4 9 -10.0762 -0.4865
6 4 10 -13.2277 -0.0759
6 4 11 -16.3644 -0.4703
6 4 12 -5.3734 -0.0395
6 4 13 -9.6245 -0.7292
6 4 14 6.6102 0.0985
6 4 15 -0.8226 -0.9660
6 4 16 -5.7623 -0.0196
6 4 17 -6.4370 -0.6763
6 4 18 -0.4924 -0.1869
6 4 19 6.5448 -0.6475
6 4 20 8.6488 -0.1088
6 4 21 -2.0091 -0.3232
6 4 22 -4.5419 0.1417
6 4 23 -2.3433 -0.6284
6 4 24 -3.3012 0.1536
6 4 25 5.2269 -0.4263
6 4 26 -0.4525 0.2067
6 4 27 -4.1758 0.2535
6 4 28 -2.7896 -0.5260
6 4 29 1.1058 0.3154
6 5 0 -36.0644 -1.5653
6 5 1 -8.5637 -3.2697
6 5 2 -40.2117 0.4692
6 5 3 -22.8789 -0.0823
6 5 4 -24.3143 0.7664
6 5 5 14.3849 1.4976
6 5 6 -39.6959 -0.1004
6 5 7 -6.8564 0.5709
6 5 8 -3.3688 -0.4654
6 5 9 -9.9125 -0.2555
6 5 10 3.5419 -0.5519
6 5 11 -5.0172 -0.2031
6 5 12 -9.4346 0.1884
6 5 13 -2.1436 0.3282
6 5 14 -6.9007 -0.0390
6 5 15 -7.0995 0.5738
6 5 16 1.1975 0.0992
6 5 17 -0.2722 0.0665
6 5 18 -5.9382 -0.1759
6 5 19 -3.9088 0.1546
6 5 20 -0.8152 -0.1237
6 5 21 -9.1872 -0.0089
6 5 22 3.5856 0.1714
6 5 23 -2.0092 0.3911
6 5 24 4.3592 0.2372
6 5 25 3.7365 0.1894
6 5 26 -3.0755 0.2169
6 5 27 -3.0686 -0.4231
6 5 28 -0.7656 -0.3258
6 6 0 -4.5980 -1.2175
6 6 1 20.4241 -3.9838
6 6 2 0.0114 0.4364
6 6 3 46.8550 0.5277
6 6 4 4.7676 0.7316
6 6 5 -28.8973 1.3630
6 6 6 -25.8164 0.8669
6 6 7 -16.1890 0.4023
6 6 8 -7.3841 0.0855
6 6 9 17.4869 -0.1794
6 6 10 -8.0258 -0.2191
6 6 11 5.8566 -0.1406
6 6 12 4.9193 0.0914
6 6 13 5.9961 0.2186
6 6 14 3.8999 0.4516
6 6 15 -7.2480 0.2689
6 6 16 2.9162 0.2211
6 6 17 -11.0822 0.1833
6 6 18 1.2202 0.1214
6 6 19 3.4580 0.0753
6 6 20 -2.6575 0.0740
6 6 21 3.0031 -0.0481
6 6 22 4.4592 0.2726
6 6 23 4.3478 0.0308
6 6 24 -1.2132 0.2457
6 6 25 2.0996 0.2008
6 6 26 -0.1109 0.2307
6 6 27 4.7985 -0.3746
6 6 28 -3.5552 -0.3705
6 7 0 -8.0772 0.7310
6 7 1 38.6841 4.9344
6 7 2 31.7805 0.2352
6 7 3 20.9963 -0.1888
6 7 4 18.2357 -0.1153
6 7 5 7.0338 -1.5959
6 7 6 2.8486 -0.0475
6 7 7 -4.3141 -1.0163
6 7 8 14.4061 0.0553
6 7 9 -1.1692 -0.2898
6 7 10 8.3287 0.0492
6 7 11 -10.1221 -0.2156
6 7 12 3.9589 -0.0507
6 7 13 -3.2358 -0.4126
6 7 14 4.6608 -0.0203
6 7 15 -0.3253 -0.6414
6 7 16 -0.8020 0.1117
6 7 17 1.4686 -0.7094
6 7 18 1.7365 0.0758
6 7 19 -1.0929 -0.4491
6 7 20 2.4392 0.0546
6 7 21 0.4066 -0.4042
6 7 22 3.0052 -0.0077
6 7 23 4.0842 -0.3026
6 7 24 2.5458 -0.0976
6 7 25 -1.5656 -0.2276
6 7 26 1.5569 0.1443
6 7 27 0.7481 0.6364
6 7 28 -2.3329 0.1643
6 8 0 -0.3916 0.2961
6 8 1 0.8899 -3.0226
6 8 2 -10.4072 -0.3367
6 8 3 9.3787 -0.6737
6 8 4 8.1345 -0.3279
6 8 5 2.6795 -0.0808
6 8 6 2.5767 0.1533
6 8 7 11.3206 -0.9940
6 8 8 -7.2842 0.0300
6 8 9 -14.3810 -1.4650
6 8 10 -10.3113 -0.1739
6 8 11 -15.7216 -1.1541
6 8 12 2.2725 -0.2192
6 8 13 -9.3170 -0.6232
6 8 14 -0.0440 -0.1942
6 8 15 0.1481 -0.4769
6 8 16 8.2996 -0.1948
6 8 17 9.9003 -0.7482
6 8 18 -3.0327 -0.2086
6 8 19 9.3091 -0.7796
6 8 20 -3.2721 -0.1420
6 8 21 -0.7337 -0.5134
6 8 22 0.4579 0.0039
6 8 23 5.9477 -0.2350
6 8 24 -3.3960 -0.0186
6 8 25 -0.7149 -0.3754
6 8 26 -2.1369 -0.2043
6 8 27 2.4132 -0.7376
6 8 28 -0.0203 -0.2736
6 9 0 -7.1626 1.3883
6 9 1 -0.1579 -2.5687
6 9 2 9.8824 0.3493
6 9 3 -5.5068 -0.0012
6 9 4 29.2469 -0.1783
6 9 5 18.4395 0.7715
6 9 6 -2.2501 -0.3769
6 9 7 1.8761 0.1166
6 9 8 14.3566 0.1716
6 9 9 20.4197 -0.1229
6 9 10 19.7915 0.0607
6 9 11 10.6703 -0.0368
6 9 12 -0.0683 0.0272
6 9 13 8.8458 0.0867
6 9 14 13.3120 0.0341
6 9 15 0.9511 0.0557
6 9 16 9.6226 0.0371
6 9 17 -0.3692 0.1409
6 9 18 0.6682 -0.0303
6 9 19 0.6746 0.1467
6 9 20 1.3513 0.0334
6 9 21 0.1337 0.1082
6 9 22 0.5581 -0.1523
6 9 23 -1.6296 0.1823
6 9 24 0.4734 -0.1493
6 9 25 -0.6141 -0.0795
6 9 26 0.1924 0.2424
6 9 27 -0.9269 -0.4596
6 10 0 51.7320 -0.2151
6 10 1 -6.0704 1.5893
6 10 2 0.6260 0.1936
6 10 3 7.6660 0.1072
6 10 4 -4.1112 0.3184
6 10 5 -3.6287 -0.2990
6 10 6 -7.2664 0.1362
6 10 7 3.7747 -0.3357
6 10 8 -11.3339 0.2096
6 10 9 9.3112 0.4108
6 10 10 10.3755 0.1839
6 10 11 1.9083 0.4230
6 10 12 11.3707 0.3182
6 10 13 -7.8647 0.1792
6 10 14 -7.0740 0.2268
6 10 15 -11.7772 -0.0094
6 10 16 -3.4378 0.2056
6 10 17 -5.5077 -0.0224
6 10 18 -1.0896 0.1398
6 10 19 0.6316 0.1040
6 10 20 -7.2067 0.0496
6 10 21 -0.3117 0.0826
6 10 22 0.3785 0.0209
6 10 23 3.5252 -0.0722
6 10 24 -2.9147 0.1280
6 10 25 -0.8077 0.2087
6 10 26 -1.4291 0.2828
6 10 27 0.0433 0.5559
6 11 0 15.1619 -1.0154
6 11 1 2.7620 -1.0106
6 11 2 10.2291 -0.3027
6 11 3 -11.5495 0.2062
6 11 4 -1.1220 -0.1503
6 11 5 -1.6628 0.4536
6 11 6 13.4412 0.2039
6 11 7 -0.2036 0.3423
6 11 8 -0.5801 0.2696
6 11 9 -1.6189 0.4290
6 11 10 4.0752 -0.2678
6 11 11 4.5716 0.1264
6 11 12 0.3133 -0.4444
6 11 13 8.0900 0.0164
6 11 14 2.0912 -0.3845
6 11 15 2.3959 0.0578
6 11 16 -3.7287 -0.3431
6 11 17 -2.9215 -0.0191
6 11 18 -4.5878 -0.0396
6 11 19 2.1942 -0.0091
6 11 20 2.2410 0.0970
6 11 21 1.5686 0.0547
6 11 22 -1.0285 0.0482
6 11 23 -0.9684 0.0662
6 11 24 -0.3768 -0.0817
6 11 25 1.5367 0.1973
6 11 26 -1.5350 -0.3691
6 11 27 1.8037 0.2569
6 12 0 -5.6112 -1.0446
6 12 1 8.6362 0.4675
6 12 2 -4.0822 0.0553
6 12 3 16.0064 0.1778
6 12 4 15.3590 0.0683
6 12 5 4.0955 0.5492
6 12 6 10.6044 -0.5077
6 12 7 6.6717 0.7859
6 12 8 2.4996 -0.5616
6 12 9 14.2383 0.5320
6 12 10 -0.8230 -0.4498
6 12 11 -5.0197 0.0626
6 12 12 -4.2456 -0.1809
6 12 13 4.3410 0.0570
6 12 14 15.1312 -0.3311
6 12 15 -0.7254 0.5247
6 12 16 8.9080 -0.4092
6 12 17 -0.2736 0.5429
6 12 18 4.3868 -0.2478
6 12 19 3.2372 0.5178
6 12 20 1.0629 -0.0580
6 12 21 -0.3702 0.0152
6 12 22 -2.4199 -0.1317
6 12 23 0.0698 -0.0563
6 12 24 -0.4557 -0.3273
6 12 25 0.7874 0.0651
6 12 26 0.3598 0.1433
6 13 0 -22.8606 1.4539
6 13 1 -1.4046 1.9776
6 13 2 2.6354 0.5516
6 13 3 -15.3245 -0.0582
6 13 4 3.7990 -0.2952
6 13 5 -1.9204 -0.6081
6 13 6 -6.6228 0.0619
6 13 7 -2.3823 -0.2732
6 13 8 -0.0663 0.3409
6 13 9 -10.4460 0.1423
6 13 10 -5.5357 0.4427
6 13 11 14.3994 0.0678
6 13 12 -5.4810 0.3256
6 13 13 -7.7259 -0.0339
6 13 14 -3.0628 0.2175
6 13 15 1.5053 0.0017
6 13 16 0.5021 0.1594
6 13 17 -4.8681 0.1345
6 13 18 -1.0228 0.3038
6 13 19 2.2748 0.0182
6 13 20 -2.1389 0.1421
6 13 21 -2.2667 -0.1725
6 13 22 0.5941 0.1497
6 13 23 -0.6206 -0.2314
6 13 24 0.4346 -0.0039
6 13 25 1.5054 0.3123
6 13 26 0.3715 0.3888
6 14 0 13.0824 0.6187
6 14 1 -6.7154 2.1894
6 14 2 10.0303 0.2084
6 14 3 4.4799 -0.3550
6 14 4 -9.7533 -0.2386
6 14 5 0.1409 -0.5851
6 14 6 -5.5192 0.0231
6 14 7 6.3780 0.0099
6 14 8 0.5390 0.5520
6 14 9 7.5269 0.5046
6 14 10 8.5918 0.6011
6 14 11 -3.7125 0.5330
6 14 12 5.2177 0.3001
6 14 13 0.1026 0.1210
6 14 14 0.9435 -0.0982
6 14 15 3.2355 -0.0695
6 14 16 6.2460 0.1420
6 14 17 0.0383 -0.1954
6 14 18 -1.7748 0.4127
6 14 19 3.3288 0.0574
6 14 20 -0.5912 0.1882
6 14 21 0.0278 0.1264
6 14 22 2.4138 0.2504
6 14 23 1.7417 0.2760
6 14 24 2.2710 -0.1946
6 14 25 0.2977 0.2598
6 15 0 -1.1825 -2.3052
6 15 1 -6.6272 0.9027
6 15 2 1.3990 -0.0940
6 15 3 1.4519 -0.0414
6 15 4 -4.9227 0.8584
6 15 5 7.4225 -0.4055
6 15 6 -9.2616 0.6209
6 15 7 11.5949 -0.1816
6 15 8 -3.9885 -0.1607
6 15 9 -1.7110 -0.0485
6 15 10 2.2483 -0.3603
6 15 11 4.0490 0.0946
6 15 12 0.2104 -0.1320
6 15 13 -3.3227 0.1013
6 15 14 -1.7721 0.1501
6 15 15 -3.8279 -0.1902
6 15 16 2.5724 0.0859
6 15 17 -0.8314 -0.2547
6 15 18 -1.3453 -0.1662
6 15 19 -3.7389 -0.1779
6 15 20 -3.3123 -0.0428
6 15 21 0.0235 -0.1381
6 15 22 1.2948 -0.0028
6 15 23 -1.1741 0.0525
6 15 24 -1.4112 -0.3579
6 15 25 -4.7584 -0.0532
6 16 0 12.4961 3.0316
6 16 1 -8.1158 1.0375
6 16 2 -5.6045 0.7252
6 16 3 -6.4852 -0.1328
6 16 4 -6.1253 -0.5444
6 16 5 -3.9382 -0.3907
6 16 6 2.3953 0.1447
6 16 7 4.8572 -0.4329
6 16 8 -14.2656 0.6810
6 16 9 -5.1143 0.0112
6 16 10 -0.0757 0.7781
6 16 11 -5.0996 0.2073
6 16 12 0.2661 0.4495
6 16 13 5.0838 0.0829
6 16 14 0.2008 0.1659
6 16 15 -8.5328 -0.1735
6 16 16 4.2417 0.0416
6 16 17 -1.6653 0.0373
6 16 18 0.2324 0.1400
6 16 19 1.0591 0.1911
6 16 20 -7.5029 0.0944
6 16 21 -1.2532 0.4408
6 16 22 1.6224 0.5039
6 16 23 0.6699 0.0463
6 16 24 0.2664 0.3815
6 17 0 -3.6092 1.0265
6 17 1 0.4281 -1.8659
6 17 2 -0.8388 -0.3998
6 17 3 -10.6339 -0.0306
6 17 4 -11.5682 -0.5793
6 17 5 -8.1518 0.5683
6 17 6 -0.9708 -0.3948
6 17 7 -1.1144 0.2327
6 17 8 -8.9350 -0.1520
6 17 9 0.3597 -0.2234
6 17 10 -5.8209 0.1375
6 17 11 -0.6654 -0.2009
6 17 12 -3.4125 -0.1133
6 17 13 -5.1930 0.1571
6 17 14 0.3385 -0.2246
6 17 15 -7.2496 0.2587
6 17 16 2.4103 -0.3616
6 17 17 -1.9009 0.2588
6 17 18 2.7613 -0.1760
6 17 19 0.1416 0.1646
6 17 20 -1.5728 0.0036
6 17 21 0.7557 -0.2055
6 17 22 -0.0447 0.2725
6 17 23 -0.3364 -0.2910
6 18 0 0.7017 0.1975
6 18 1 -6.6749 -1.1480
6 18 2 13.4635 0.3230
6 18 3 -1.5207 -0.0045
6 18 4 -3.7294 0.0380
6 18 5 -4.1177 0.2605
6 18 6 -0.0236 0.1213
6 18 7 -0.8085 0.1398
6 18 8 -1.1235 0.2860
6 18 9 -4.0876 -0.1544
6 18 10 1.1586 0.2204
6 18 11 0.3090 -0.2949
6 18 12 1.3995 0.1458
6 18 13 -4.6550 -0.2226
6 18 14 -4.5770 0.2366
6 18 15 -4.0133 0.0547
6 18 16 -0.2799 0.4259
6 18 17 -4.6717 0.1087
6 18 18 -1.0139 0.3048
6 18 19 -0.8674 -0.0359
6 18 20 -2.2050 -0.0251
6 18 21 0.6763 -0.3842
6 18 22 2.8887 -0.2863
6 19 0 1.8374 0.6119
6 19 1 -4.3401 0.5989
6 19 2 -2.7337 -0.3325
6 19 3 -3.1379 0.2695
6 19 4 -4.2165 -0.2509
6 19 5 -1.2723 0.1530
6 19 6 -6.1500 -0.0787
6 19 7 -0.3428 0.0542
6 19 8 -0.5321 0.1323
6 19 9 -3.9145 0.0436
6 19 10 -4.6081 0.1548
6 19 11 -1.5213 0.1435
6 19 12 -5.5743 -0.0512
6 19 13 1.5948 0.2209
6 19 14 2.8383 0.0810
6 19 15 -3.7329 -0.0246
6 19 16 1.7486 0.1219
6 19 17 -5.1546 -0.0548
6 19 18 -0.2736 0.1128
6 19 19 -0.8364 -0.1320
6 19 20 -0.6824 -0.2864
6 19 21 -4.1858 0.1566
6 19 22 -3.8642 0.4889
6 20 0 -5.2385 -3.6565
6 20 1 -12.3289 0.4323
6 20 2 -1.6063 -0.8929
6 20 3 -0.6863 0.0897
6 20 4 -12.8549 0.3400
6 20 5 3.3459 -0.1170
6 20 6 -4.4663 -0.0881
6 20 7 -5.0035 -0.0515
6 20 8 -1.2986 -0.8327
6 20 9 0.3582 -0.1828
6 20 10 0.4423 -1.1902
6 20 11 -2.1898 -0.0893
6 20 12 1.7331 -0.7519
6 20 13 -5.1291 -0.1556
6 20 14 2.1962 -0.3540
6 20 15 -0.0304 -0.1821
6 20 16 2.6354 0.2042
6 20 17 -2.8006 -0.3120
6 20 18 0.6784 0.0638
6 20 19 3.3746 0.0718
6 20 20 -2.8631 -0.9354
6 20 21 -4.2903 -0.0671
6 21 0 8.3093 -1.0309
6 21 1 4.6220 -0.1571
6 21 2 3.4413 0.1297
6 21 3 -1.0862 -0.3540
6 21 4 7.4148 0.5323
6 21 5 8.3582 -0.2818
6 21 6 3.3539 0.0752
6 21 7 5.2308 -0.3288
6 21 8 -5.6630 -0.1548
6 21 9 4.9367 -0.1033
6 21 10 -2.0001 -0.0168
6 21 11 3.2351 -0.1236
6 21 12 4.8054 0.2173
6 21 13 0.1915 -0.2491
6 21 14 1.0630 0.1072
6 21 15 -0.8199 -0.0407
6 21 16 1.5160 -0.1302
6 21 17 0.3754 0.0214
6 21 18 2.2262 0.0006
6 21 19 2.7132 0.0360
6 21 20 4.4897 -0.6691
6 22 0 6.9847 0.9369
6 22 1 -3.0457 -1.9733
6 22 2 6.6946 0.1430
6 22 3 -1.8763 0.2754
6 22 4 -4.2270 -0.0057
6 22 5 -6.4637 0.6372
6 22 6 -2.9436 -0.1672
6 22 7 -7.8985 0.1142
6 22 8 -8.1603 0.0967
6 22 9 -1.7868 -0.1521
6 22 10 5.2322 0.2928
6 22 11 -0.9643 -0.0935
6 22 12 1.0014 0.1700
6 22 13 2.1483 0.2308
6 22 14 4.1049 0.0770
6 22 15 -4.9010 0.5763
6 22 16 -2.7625 -0.3833
6 22 17 -4.2008 0.2854
6 22 18 2.2986 -0.0239
6 22 19 -0.2861 -0.7507
6 23 0 2.5931 -0.5029
6 23 1 1.5731 1.2340
6 23 2 3.7596 -0.0937
6 23 3 4.9426 0.0228
6 23 4 2.5643 -0.0228
6 23 5 5.8576 -0.1850
6 23 6 -1.2395 0.3466
6 23 7 8.6537 0.1966
6 23 8 0.2984 0.1750
6 23 9 4.0416 0.1349
6 23 10 4.5075 0.3442
6 23 11 3.6093 -0.2758
6 23 12 -4.2862 0.2329
6 23 13 -0.8547 -0.0552
6 23 14 3.7302 0.1196
6 23 15 -1.4227 0.5887
6 23 16 3.6084 -0.1643
6 23 17 -0.0915 0.4970
6 24 0 9.4810 -0.5708
6 24 1 -1.2215 0.0011
6 24 2 6.2067 -0.4094
6 24 3 3.5950 -0.2009
6 24 4 5.1093 0.1338
6 24 5 3.0799 -0.5671
6 24 6 1.7760 0.5194
6 24 7 4.4622 -0.5480
6 24 8 -0.5733 0.3977
6 24 9 1.2544 -0.4933
6 24 10 -0.7161 0.2095
6 24 11 4.5990 -0.1955
6 24 12 -0.7246 -0.1053
6 24 13 -0.0380 -0.4671
6 24 14 0.8121 0.0946
6 24 15 0.1403 0.0158
6 24 16 4.7377 -0.3513
6 25 0 -1.0581 0.4321
6 25 1 -0.9881 -1.2964
6 25 2 -1.4735 0.4361
6 25 3 -2.1709 -0.2174
6 25 4 -1.8048 -0.0214
6 25 5 3.9728 0.2551
6 25 6 -2.7554 -0.1691
6 25 7 -0.6019 0.3871
6 25 8 0.0687 -0.3191
6 25 9 7.9435 0.1278
6 25 10 -4.6011 -0.0237
6 25 11 0.9764 -0.1118
6 25 12 0.6498 -0.1197
6 25 13 -2.4094 -0.2393
6 25 14 -0.8989 0.1032
6 26 0 4.6484 0.4571
6 26 1 4.5808 -0.8282
6 26 2 8.1497 0.1375
6 26 3 2.9865 0.6421
6 26 4 0.8391 0.1608
6 26 5 5.3523 0.2910
6 26 6 1.6678 -0.2422
6 26 7 5.4671 0.2805
6 26 8 -0.7207 -0.2086
6 26 9 3.9506 -0.0210
6 26 10 -1.0876 0.3657
6 26 11 0.8342 -0.3502
6 26 12 0.8828 0.8027
6 27 0 -5.2744 0.4316
6 27 1 -3.4006 -0.4188
6 27 2 -5.7069 0.0145
6 27 3 -4.6303 -0.1390
6 27 4 -1.7473 0.0032
6 27 5 5.1404 -0.2549
6 27 6 -2.8379 0.0940
6 27 7 -0.4764 0.1563
6 27 8 -5.5354 0.4044
6 27 9 1.3680 0.3354
6 27 10 1.6502 0.3812
6 28 0 0.0368 0.3499
6 28 1 -0.7796 2.3191
6 28 2 -3.4877 -0.3987
6 28 3 3.3403 0.6803
6 28 4 1.5226 -0.1033
6 28 5 0.8057 0.7834
6 28 6 -1.0288 0.0447
6 28 7 -2.6397 1.7069
7 1 0 -4.1261 2.0630
7 1 1 -15.9344 0.2901
7 1 2 43.2748 -0.2419
7 1 3 22.1280 -0.2350
7 1 4 -20.0342 0.3425
7 1 5 3.0874 0.6194
7 1 6 -9.2939 0.2963
7 1 7 22.3715 0.0711
7 1 8 -5.1564 0.8425
7 1 9 7.9605 0.3384
7 1 10 5.6983 -0.1913
7 1 11 0.9892 0.1460
7 1 12 13.8644 1.1405
7 1 13 2.4501 0.0367
7 1 14 4.6121 -0.2353
7 1 15 9.3850 0.5669
7 1 16 11.2008 0.7223
7 1 17 -0.7569 -0.1030
7 1 18 3.3264 0.0646
7 1 19 5.6266 0.4073
7 1 20 -1.1394 0.2820
7 1 21 -5.2056 -0.2141
7 1 22 -1.8222 0.3107
7 1 23 5.3640 0.1733
7 1 24 -6.7817 0.2259
7 1 25 -3.8798 0.1951
7 1 26 -5.4937 0.3306
7 1 27 -0.9680 0.0934
7 1 28 -4.8809 0.5995
7 2 0 -9.1822 1.9149
7 2 1 16.6527 0.2662
7 2 2 71.2786 -1.4219
7 2 3 -28.9956 0.3758
7 2 4 14.1543 -1.8374
7 2 5 23.8987 0.8418
7 2 6 40.0673 -0.9070
7 2 7 10.8788 1.2679
7 2 8 -13.8052 -0.6786
7 2 9 -11.3866 1.3639
7 2 10 -13.0207 -0.3119
7 2 11 -2.1417 0.8009
7 2 12 6.9906 -0.6467
7 2 13 3.4264 0.5032
7 2 14 1.8231 -0.6417
7 2 15 1.8533 0.3920
7 2 16 2.2605 -0.7956
7 2 17 1.6990 0.5929
7 2 18 -2.4106 -0.5048
7 2 19 4.8052 0.9376
7 2 20 2.8705 -0.2705
7 2 21 0.7039 0.5822
7 2 22 -5.7606 -0.3543
7 2 23 -0.7401 0.4217
7 2 24 -3.4273 -0.2742
7 2 25 4.8966 0.3322
7 2 26 -3.8637 -0.3902
7 2 27 -2.7525 0.2610
7 2 28 5.9907 0.5571
7 3 0 18.2833 -1.3396
7 3 1 -2.6161 0.5087
7 3 2 -2.1371 -0.0651
7 3 3 5.9988 0.4176
7 3 4 24.4900 0.6533
7 3 5 -23.6922 0.3445
7 3 6 11.2494 -0.1964
7 3 7 -3.1743 0.3642
7 3 8 -21.4232 -0.4375
7 3 9 -0.6113 -0.2315
7 3 10 -17.3435 0.3334
7 3 11 -3.7799 -0.1600
7 3 12 -16.7053 0.2434
7 3 13 -12.9760 0.3915
7 3 14 6.4044 0.0402
7 3 15 -6.6138 0.3778
7 3 16 -2.8971 -0.1391
7 3 17 -8.0802 0.1675
7 3 18 -0.0976 -0.1456
7 3 19 0.6118 -0.1491
7 3 20 2.2263 0.1412
7 3 21 0.5630 0.0805
7 3 22 -4.6814 0.0345
7 3 23 7.1531 0.1007
7 3 24 0.0321 0.0251
7 3 25 1.7917 -0.0711
7 3 26 -1.3110 -0.1010
7 3 27 6.2066 -0.1641
7 3 28 -3.8554 -0.3168
7 4 0 -66.4809 -5.0569
7 4 1 11.9600 -2.1326
7 4 2 24.1511 0.3866
7 4 3 -22.2422 -0.5937
7 4 4 5.0485 2.1372
7 4 5 -8.4892 -0.2790
7 4 6 -39.0149 1.2791
7 4 7 7.3475 -0.8951
7 4 8 3.6133 0.1082
7 4 9 1.2984 -1.1528
7 4 10 9.7303 0.1635
7 4 11 2.7652 -0.9744
7 4 12 -6.4829 0.4165
7 4 13 0.5130 -0.5757
7 4 14 -4.4942 0.8496
7 4 15 -6.1278 -0.5950
7 4 16 -2.2927 0.6914
7 4 17 -1.7573 -0.7197
7 4 18 -4.0228 0.2528
7 4 19 -5.8427 -0.5548
7 4 20 -2.7265 0.2041
7 4 21 5.2458 -0.5912
7 4 22 1.3647 0.3152
7 4 23 1.2486 -0.2905
7 4 24 4.4030 0.5908
7 4 25 -3.0010 -0.2338
7 4 26 -1.3086 -0.0119
7 4 27 1.4342 -0.5262
7 4 28 5.7632 -0.8245
7 5 0 -4.8987 -2.4664
7 5 1 -20.4889 1.2095
7 5 2 -18.6431 -0.3598
7 5 3 -27.0851 -0.1428
7 5 4 7.5347 0.7267
7 5 5 -17.1131 -0.8319
7 5 6 -49.1185 0.6725
7 5 7 11.6486 -0.4149
7 5 8 -4.1368 0.2631
7 5 9 -15.7957 0.0749
7 5 10 2.3184 -0.1638
7 5 11 -13.6239 0.1034
7 5 12 -8.0016 -0.1106
7 5 13 2.1083 -0.2442
7 5 14 -8.8389 0.2251
7 5 15 -5.8785 -0.4257
7 5 16 0.8911 0.2207
7 5 17 3.7137 -0.3170
7 5 18 -1.9687 -0.0814
7 5 19 0.8956 -0.1657
7 5 20 -5.4595 0.0070
7 5 21 -6.9604 0.0767
7 5 22 -3.3551 0.0276
7 5 23 0.3111 -0.0618
7 5 24 -7.6410 0.2931
7 5 25 2.5385 -0.0892
7 5 26 1.3851 0.1107
7 5 27 0.2078 0.2116
7 5 28 1.5343 -0.2372
7 6 0 -43.0771 1.3228
7 6 1 -0.0232 -2.1769
7 6 2 18.0449 0.1545
7 6 3 -0.8693 -0.6675
7 6 4 8.9190 -0.1629
7 6 5 -0.2205 0.1440
7 6 6 0.3830 -0.1040
7 6 7 -5.0250 -0.2330
7 6 8 4.5942 0.0786
7 6 9 4.9953 -1.0683
7 6 10 -4.7426 0.1014
7 6 11 1.6524 -0.8810
7 6 12 -5.2157 -0.1059
7 6 13 -9.3076 -0.0996
7 6 14 -1.1193 -0.1499
7 6 15 -6.6916 -0.0038
7 6 16 10.9048 -0.2140
7 6 17 4.1315 -0.1273
7 6 18 3.0619 0.0138
7 6 19 -4.4348 -0.4619
7 6 20 -8.3643 0.0569
7 6 21 2.3943 -0.4245
7 6 22 1.0509 0.1082
7 6 23 1.0976 -0.3930
7 6 24 -2.9441 0.0014
7 6 25 0.5483 -0.1771
7 6 26 0.9124 0.0646
7 6 27 0.1522 -0.3023
7 6 28 4.4036 0.2440
7 7 0 -1.1303 1.3414
7 7 1 -26.9740 -3.1434
7 7 2 -27.3336 0.4061
7 7 3 2.7330 0.0639
7 7 4 -12.4314 0.3276
7 7 5 0.0905 0.8420
7 7 6 -12.5401 0.7170
7 7 7 12.8025 -0.1918
7 7 8 -17.8847 0.9268
7 7 9 16.9789 -0.4005
7 7 10 -26.1986 0.8055
7 7 11 -5.3078 -0.3002
7 7 12 -0.1231 0.6994
7 7 13 -13.5341 -0.0480
7 7 14 -1.5292 0.6332
7 7 15 -11.0190 0.1557
7 7 16 1.9489 0.4878
7 7 17 -4.8770 -0.0909
7 7 18 -2.2408 0.5578
7 7 19 -2.5931 -0.0856
7 7 20 -5.6585 0.4887
7 7 21 0.9436 -0.0281
7 7 22 -4.2754 0.3167
7 7 23 1.1278 -0.0762
7 7 24 -2.4282 0.3805
7 7 25 -3.7756 -0.1687
7 7 26 -0.9207 0.3820
7 7 27 2.7216 -0.4902
7 7 28 -0.0020 0.3722
7 8 0 -8.2253 0.6633
7 8 1 14.2810 5.2005
7 8 2 10.7493 0.2068
7 8 3 -4.2053 0.6075
7 8 4 4.0419 -0.3033
7 8 5 33.8500 -1.2490
7 8 6 -5.7016 -0.4209
7 8 7 10.0408 0.0586
7 8 8 6.2562 -0.3063
7 8 9 7.8615 1.5615
7 8 10 11.5531 -0.4240
7 8 11 6.2315 1.4822
7 8 12 9.0764 -0.6125
7 8 13 8.1896 0.4258
7 8 14 6.4308 -0.4286
7 8 15 -0.1071 -0.0165
7 8 16 5.0930 -0.1465
7 8 17 7.8135 0.1196
7 8 18 3.0951 -0.0676
7 8 19 0.6002 0.6323
7 8 20 -1.1469 -0.2812
7 8 21 2.1839 0.5375
7 8 22 2.3716 -0.4664
7 8 23 4.8555 0.2570
7 8 24 1.5242 -0.2420
7 8 25 -2.4003 0.2471
7 8 26 1.3015 0.0770
7 8 27 2.0353 0.9360
7 9 0 9.0387 -0.7444
7 9 1 -0.7176 -1.9657
7 9 2 6.9507 -0.4248
7 9 3 -4.1992 -0.3286
7 9 4 2.9752 -0.2544
7 9 5 0.5405 -0.0128
7 9 6 -1.0187 0.1794
7 9 7 7.3171 -0.6938
7 9 8 -13.0011 -0.0938
7 9 9 -2.5997 -0.9726
7 9 10 6.0273 -0.5804
7 9 11 7.8400 -0.7350
7 9 12 9.0943 -0.5823
7 9 13 7.8859 -0.5972
7 9 14 -4.9439 -0.3159
7 9 15 -2.0448 -0.4699
7 9 16 5.0506 -0.1085
7 9 17 -4.5374 -0.6101
7 9 18 -0.1513 -0.1657
7 9 19 1.3114 -0.6880
7 9 20 -1.0221 -0.2415
7 9 21 -0.6609 -0.3961
7 9 22 2.4948 -0.0922
7 9 23 0.1096 -0.3015
7 9 24 -2.2237 -0.1430
7 9 25 1.7709 -0.3256
7 9 26 1.8073 -0.3129
7 9 27 0.4652 -0.4192
7 10 0 2.5917 0.6823
7 10 1 20.4665 -3.8591
7 10 2 2.3033 0.2186
7 10 3 -14.5131 -0.2820
7 10 4 5.5406 -0.2759
7 10 5 2.2897 0.7257
7 10 6 0.5582 -0.5635
7 10 7 5.5238 -0.0471
7 10 8 4.2487 -0.2233
7 10 9 -3.5764 -0.6347
7 10 10 -3.3464 0.0137
7 10 11 -2.2776 -0.6839
7 10 12 -12.2460 0.1550
7 10 13 2.9390 -0.2218
7 10 14 4.2285 0.0093
7 10 15 -0.8580 0.0560
7 10 16 2.9662 -0.1699
7 10 17 -4.3721 -0.0640
7 10 18 -4.9583 -0.0871
7 10 19 4.4680 -0.3965
7 10 20 -0.3966 0.0174
7 10 21 2.4227 -0.3777
7 10 22 -3.2522 -0.0302
7 10 23 -0.9597 -0.1350
7 10 24 -0.2324 -0.0815
7 10 25 1.0623 -0.2409
7 10 26 -0.1054 -0.0673
7 10 27 -2.8499 -0.6339
7 11 0 4.4165 -0.0442
7 11 1 14.4299 0.9454
7 11 2 -7.2803 0.6532
7 11 3 10.4602 0.5948
7 11 4 -0.2271 0.2870
7 11 5 11.1276 0.1073
7 11 6 1.1845 -0.2414
7 11 7 17.8634 0.6328
7 11 8 -0.9302 -0.2111
7 11 9 8.2604 0.6516
7 11 10 1.6763 0.0218
7 11 11 3.5033 0.4861
7 11 12 5.6782 0.3661
7 11 13 -1.1908 0.4108
7 11 14 5.5860 0.1035
7 11 15 -1.1184 0.5707
7 11 16 5.3832 -0.0424
7 11 17 0.9035 0.6870
7 11 18 3.2455 -0.0937
7 11 19 7.0683 0.5291
7 11 20 1.1430 0.1482
7 11 21 2.1937 0.2036
7 11 22 1.3099 0.1261
7 11 23 0.9523 -0.1298
7 11 24 -0.5107 -0.1144
7 11 25 3.2457 0.2448
7 11 26 0.4115 0.0111
7 12 0 -18.0571 -0.0596
7 12 1 -9.6142 2.2298
7 12 2 9.5238 -0.1683
7 12 3 -20.6075 -0.1261
7 12 4 0.2724 -0.4339
7 12 5 4.4385 -0.7946
7 12 6 -18.2912 0.0391
7 12 7 1.6279 -0.1248
7 12 8 -1.8821 0.3968
7 12 9 -8.2965 0.6898
7 12 10 -2.5483 0.1112
7 12 11 -7.0033 0.3071
7 12 12 -5.4554 -0.2814
7 12 13 -6.6636 -0.0659
7 12 14 6.6400 -0.2312
7 12 15 -4.3899 -0.2201
7 12 16 -2.2503 -0.1052
7 12 17 -3.7999 0.1153
7 12 18 -4.0903 0.0901
7 12 19 -2.2071 0.1225
7 12 20 0.6065 0.0869
7 12 21 -1.6547 0.2068
7 12 22 -3.2205 -0.0414
7 12 23 -2.7783 0.0626
7 12 24 4.2359 -0.3210
7 12 25 -0.9611 0.2762
7 12 26 -0.4945 -0.1197
7 13 0 13.9937 0.1205
7 13 1 -10.2756 2.9424
7 13 2 13.7411 0.1841
7 13 3 7.6232 -0.1836
7 13 4 1.4130 -0.0136
7 13 5 5.2490 -1.0712
7 13 6 0.5605 -0.3975
7 13 7 12.2204 -0.1225
7 13 8 0.0974 -0.4516
7 13 9 6.6804 0.2749
7 13 10 5.8285 -0.2524
7 13 11 -0.7052 0.2631
7 13 12 5.2497 -0.2037
7 13 13 -2.3073 -0.0378
7 13 14 1.9272 -0.2906
7 13 15 -3.6259 -0.2130
7 13 16 7.6089 -0.2180
7 13 17 -0.6367 -0.0665
7 13 18 0.6677 -0.1283
7 13 19 -0.2785 0.1085
7 13 20 -2.8657 -0.1146
7 13 21 -0.0779 0.2440
7 13 22 0.1256 -0.2301
7 13 23 3.9263 0.0715
7 13 24 -1.4627 -0.3342
7 13 25 -0.5546 0.1648
7 14 0 4.4544 0.3245
7 14 1 0.8867 1.8376
7 14 2 12.2656 0.1662
7 14 3 -3.5036 0.0775
7 14 4 1.0760 0.0685
7 14 5 2.5244 -0.3981
7 14 6 -2.6499 0.0516
7 14 7 10.0353 -0.1281
7 14 8 -7.4242 0.1753
7 14 9 -2.2479 0.1839
7 14 10 3.6312 0.2575
7 14 11 1.4324 0.2847
7 14 12 3.6918 0.3178
7 14 13 3.2200 -0.0166
7 14 14 -4.6796 0.2285
7 14 15 -4.1789 -0.2172
7 14 16 6.9677 0.0493
7 14 17 1.1462 -0.2257
7 14 18 5.6927 0.0053
7 14 19 1.9208 -0.0374
7 14 20 -0.3993 0.1813
7 14 21 -1.4455 -0.0372
7 14 22 1.4602 0.0891
7 14 23 1.5695 0.1714
7 14 24 2.7752 0.2246
7 14 25 -2.1457 0.0978
7 15 0 -4.0917 1.7271
7 15 1 -4.5734 -0.5164
7 15 2 6.8621 0.0754
7 15 3 0.7153 -0.5139
7 15 4 5.9596 -0.8971
7 15 5 -2.1134 -0.1430
7 15 6 -0.8290 -0.5632
7 15 7 0.9633 -0.2983
7 15 8 -4.6032 0.3279
7 15 9 5.6749 -0.5290
7 15 10 -1.7852 0.5636
7 15 11 -6.2841 -0.2965
7 15 12 4.6416 0.0385
7 15 13 -1.1642 -0.2262
7 15 14 4.9033 -0.3076
7 15 15 -3.8469 -0.3649
7 15 16 3.5427 -0.2782
7 15 17 -3.9554 -0.4109
7 15 18 2.0699 -0.1974
7 15 19 1.4237 -0.2354
7 15 20 -1.1596 0.1241
7 15 21 -0.8185 -0.1299
7 15 22 0.1720 0.3397
7 15 23 0.3126 -0.3128
7 15 24 -0.0494 0.2651
7 16 0 -23.1587 -1.1823
7 16 1 -1.3467 -1.8747
7 16 2 2.4525 -0.1673
7 16 3 -5.0804 -0.0647
7 16 4 -1.2244 0.5176
7 16 5 4.7911 0.6144
7 16 6 -6.8099 0.4571
7 16 7 6.9134 0.0395
7 16 8 -4.7310 0.0096
7 16 9 2.1776 -0.4978
7 16 10 -5.7698 -0.2265
7 16 11 2.1003 -0.6025
7 16 12 -0.7523 0.0755
7 16 13 -0.6893 -0.0251
7 16 14 1.6088 0.2029
7 16 15 0.4988 0.2394
7 16 16 2.3193 0.2038
7 16 17 0.6941 0.1423
7 16 18 0.7440 0.1101
7 16 19 0.5181 -0.1103
7 16 20 -3.6018 -0.0117
7 16 21 4.7553 -0.3513
7 16 22 -0.1768 0.1358
7 16 23 1.2542 -0.5049
7 17 0 8.8727 1.2444
7 17 1 -1.4276 -0.4445
7 17 2 -1.5198 0.2098
7 17 3 1.6462 0.3036
7 17 4 -2.3934 -0.1615
7 17 5 3.8339 0.1923
7 17 6 1.1335 0.1910
7 17 7 5.9502 -0.2669
7 17 8 0.1971 0.4619
7 17 9 3.2198 -0.2953
7 17 10 2.2578 0.4543
7 17 11 -8.1788 -0.0141
7 17 12 -0.2512 0.0990
7 17 13 0.9491 -0.0830
7 17 14 3.2091 0.1125
7 17 15 -5.2097 -0.0168
7 17 16 5.0642 0.3133
7 17 17 -2.3670 0.0178
7 17 18 -2.3251 0.2670
7 17 19 2.2066 0.0493
7 17 20 -0.1921 0.0674
7 17 21 1.0356 -0.1623
7 17 22 -0.9305 0.1462
7 17 23 1.0120 -0.2496
7 18 0 3.4987 0.3984
7 18 1 0.6004 -0.9620
7 18 2 -1.0664 -0.1205
7 18 3 2.8375 0.1002
7 18 4 6.5243 -0.2450
7 18 5 4.6624 0.4741
7 18 6 -13.1178 -0.0901
7 18 7 3.0805 0.2232
7 18 8 -3.5577 -0.1124
7 18 9 -1.5280 -0.1364
7 18 10 3.3027 -0.1201
7 18 11 -0.3690 -0.2344
7 18 12 0.7761 -0.2995
7 18 13 -1.3593 0.0700
7 18 14 5.6360 -0.4141
7 18 15 -5.3212 -0.0025
7 18 16 -3.3813 -0.1762
7 18 17 -0.9063 0.0680
7 18 18 -3.0169 0.0130
7 18 19 0.0223 -0.1785
7 18 20 -0.7203 -0.0214
7 18 21 4.7179 -0.1081
7 18 22 -2.1678 0.0434
7 19 0 4.5015 -1.0373
7 19 1 -6.3179 0.6502
7 19 2 1.2435 -0.0652
7 19 3 -7.2008 -0.1352
7 19 4 3.0781 0.2424
7 19 5 0.6305 -0.2687
7 19 6 -0.8085 0.0824
7 19 7 2.2234 0.1379
7 19 8 -7.7400 -0.2139
7 19 9 2.3770 0.2947
7 19 10 3.6984 -0.2588
7 19 11 -5.0475 0.1344
7 19 12 -0.5954 -0.2628
7 19 13 -1.4892 0.0293
7 19 14 0.8077 -0.0040
7 19 15 -3.9237 0.0138
7 19 16 4.3151 0.0145
7 19 17 -0.2826 0.0377
7 19 18 -0.8496 -0.0466
7 19 19 -0.0717 0.0421
7 19 20 3.4032 -0.5322
7 19 21 1.3331 0.1164
7 20 0 -2.1157 -0.1813
7 20 1 6.0950 0.1310
7 20 2 5.1491 0.0294
7 20 3 -3.4986 0.1783
7 20 4 -0.5308 0.1210
7 20 5 6.9146 0.0334
7 20 6 -0.0065 -0.0476
7 20 7 2.4148 -0.0964
7 20 8 1.0605 -0.2698
7 20 9 4.2270 -0.0102
7 20 10 3.6722 -0.1975
7 20 11 1.8241 0.2756
7 20 12 2.7567 0.0995
7 20 13 -1.1705 0.1687
7 20 14 1.4361 -0.0950
7 20 15 -1.0744 0.1817
7 20 16 1.8277 -0.0569
7 20 17 -2.4752 0.1315
7 20 18 4.8496 -0.5454
7 20 19 1.9185 0.2416
7 20 20 -3.3175 -0.1572
7 21 0 -1.9355 -1.9127
7 21 1 -7.4279 -0.2085
7 21 2 1.1416 -0.1246
7 21 3 -7.8717 0.1636
7 21 4 6.2838 0.5873
7 21 5 -3.0369 0.2017
7 21 6 -0.7106 0.2865
7 21 7 0.1352 0.1000
7 21 8 -3.6793 -0.2889
7 21 9 2.0538 -0.0128
7 21 10 -1.9070 -0.2106
7 21 11 -4.5818 -0.1388
7 21 12 -1.8307 0.1344
7 21 13 -4.0068 -0.3780
7 21 14 2.8480 0.2715
7 21 15 -1.7421 -0.1703
7 21 16 6.5530 0.3012
7 21 17 -5.6856 0.6688
7 21 18 0.0713 -0.4153
7 21 19 2.1097 -0.2788
7 22 0 8.1397 0.2989
7 22 1 1.6779 0.0844
7 22 2 -19.8763 0.2816
7 22 3 1.8375 -0.0886
7 22 4 2.9130 0.0850
7 22 5 7.0049 0.1546
7 22 6 -2.2611 0.0294
7 22 7 3.8813 0.0348
7 22 8 -0.4299 0.3547
7 22 9 -2.0167 -0.1240
7 22 10 0.4910 0.3149
7 22 11 3.1535 -0.2712
7 22 12 5.5010 0.3132
7 22 13 -5.0235 -0.1487
7 22 14 1.7824 0.0042
7 22 15 6.2594 -0.2445
7 22 16 4.7727 0.2696
7 22 17 -3.9138 0.0308
7 22 18 2.9960 0.3162
7 23 0 -2.3360 0.5579
7 23 1 0.0532 -2.1420
7 23 2 5.5530 -0.0114
7 23 3 3.9508 0.0804
7 23 4 -4.7954 -0.2523
7 23 5 5.1826 0.7953
7 23 6 0.8251 0.2145
7 23 7 4.0588 0.3128
7 23 8 -1.7744 0.3167
7 23 9 2.3162 -0.1000
7 23 10 -1.4278 0.0367
7 23 11 -3.0692 -0.1513
7 23 12 1.8919 0.0294
7 23 13 -0.1213 -0.1146
7 23 14 5.1352 -0.0477
7 23 15 -6.0793 -0.0587
7 23 16 5.5316 0.2051
7 23 17 4.7856 -0.4231
7 24 0 -6.4011 -0.9321
7 24 1 -4.2056 1.6052
7 24 2 1.1753 -0.5430
7 24 3 -3.0367 -0.0678
7 24 4 -4.3317 -0.2498
7 24 5 -5.0444 -0.4255
7 24 6 -5.3861 0.0920
7 24 7 -1.5802 -0.3999
7 24 8 -2.2042 0.1699
7 24 9 -6.5917 0.0195
7 24 10 0.5806 -0.1385
7 24 11 -1.7753 0.1349
7 24 12 -2.0697 -0.4097
7 24 13 -1.9953 0.2860
7 24 14 1.7373 -0.4324
7 24 15 -3.7839 0.4417
7 25 0 -6.5461 0.0968
7 25 1 5.4479 0.3003
7 25 2 3.4508 -0.0417
7 25 3 3.2261 -0.0898
7 25 4 2.4254 0.1557
7 25 5 1.5467 -0.2418
7 25 6 2.3415 0.1414
7 25 7 6.0855 -0.3427
7 25 8 -2.1930 -0.1695
7 25 9 5.9053 -0.1016
7 25 10 0.3337 -0.0792
7 25 11 -1.0696 0.0876
7 25 12 6.8348 0.0040
7 25 13 1.2271 0.2740
7 25 14 3.5287 0.3996
7 26 0 2.8920 1.9214
7 26 1 -1.3635 -2.0819
7 26 2 2.4823 0.3801
7 26 3 -3.6851 -0.0412
7 26 4 -0.8113 -0.5345
7 26 5 -2.4405 0.2566
7 26 6 0.1384 -0.2287
7 26 7 -8.3740 0.0056
7 26 8 -0.0230 0.4723
7 26 9 2.1317 -0.6643
7 26 10 0.5881 0.9627
7 26 11 2.2759 -0.5373
7 26 12 2.9879 1.2102
7 27 0 -3.1185 0.3424
7 27 1 -1.1329 0.9263
7 27 2 -0.1954 0.2189
7 27 3 1.3102 -0.1020
7 27 4 -4.8967 -0.0561
7 27 5 2.5989 -0.2315
7 27 6 1.1550 -0.1842
7 27 7 2.1530 -0.2007
7 27 8 -1.9482 -0.0480
7 27 9 0.4719 0.3473
7 28 0 7.4156 -0.8266
7 28 1 1.9256 2.6901
7 28 2 -3.4003 -0.3667
7 28 3 -0.2155 0.7585
7 28 4 7.2315 -0.1996
7 28 5 0.6213 0.9218
8 0 0 -36.7612 5.8719
8 0 1 -7.2415 0.5940
8 0 2 6.5942 2.4732
8 0 3 -5.3592 0.3511
8 0 4 30.1171 4.2213
8 0 5 -8.4541 0.5013
8 0 6 28.9515 4.9800
8 0 7 47.3256 0.3599
8 0 8 8.3675 5.0957
8 0 9 4.1919 0.6847
8 0 10 -22.4443 4.3010
8 0 11 3.8117 0.4070
8 0 12 1.2558 3.7780
8 0 13 -12.5772 0.3660
8 0 14 4.6243 3.9483
8 0 15 -2.4140 0.3421
8 0 16 9.9520 3.7160
8 0 17 -6.1261 0.2049
8 0 18 -1.3771 3.3840
8 0 19 -1.6646 0.6816
8 0 20 2.6934 3.4374
8 0 21 5.9954 0.1042
8 0 22 -6.1729 2.4980
8 0 23 -10.1368 0.4994
8 0 24 -3.4958 2.9499
8 0 25 -0.6685 0.0724
8 0 26 4.4450 1.7662
8 0 27 -1.7836 0.2865
8 0 28 5.9277 2.2673
8 1 0 31.7068 3.4448
8 1 1 -2.0427 -1.2601
8 1 2 16.2353 1.2169
8 1 3 -4.5137 -0.0748
8 1 4 15.8017 1.1501
8 1 5 -4.2710 -0.3581
8 1 6 45.0388 1.6155
8 1 7 1.7441 -0.9581
8 1 8 11.8326 1.5599
8 1 9 9.1404 -1.3114
8 1 10 -11.0676 1.3003
8 1 11 -3.1870 -0.6976
8 1 12 8.7767 1.6079
8 1 13 5.7059 -0.4286
8 1 14 3.1996 1.2866
8 1 15 3.7980 -0.4826
8 1 16 -0.9894 1.2961
8 1 17 -5.0536 -0.7696
8 1 18 0.8486 1.0179
8 1 19 1.6621 -0.8634
8 1 20 4.5439 1.1924
8 1 21 3.5615 -0.7565
8 1 22 -2.3712 0.9113
8 1 23 -3.8971 -0.5492
8 1 24 -0.9037 0.9508
8 1 25 -0.1001 -0.1314
8 1 26 -2.0898 0.6850
8 1 27 -1.6037 -0.3771
8 1 28 -4.2857 1.2986
8 2 0 44.4598 0.0574
8 2 1 18.7232 -0.7678
8 2 2 41.8590 0.8334
8 2 3 -5.7279 -1.2894
8 2 4 -0.3294 0.9250
8 2 5 20.3324 -1.2019
8 2 6 8.0194 0.1271
8 2 7 -0.1268 -0.5810
8 2 8 -5.7087 -0.1581
8 2 9 0.4534 -0.6670
8 2 10 44.7242 0.3852
8 2 11 10.7310 -0.9589
8 2 12 6.4550 0.5196
8 2 13 -0.8134 -0.7922
8 2 14 3.7325 0.2913
8 2 15 2.9490 -0.6298
8 2 16 1.4758 -0.0330
8 2 17 -0.8129 -0.5425
8 2 18 -1.4061 -0.0330
8 2 19 -2.7372 -0.5661
8 2 20 -1.6887 -0.0255
8 2 21 4.2168 -0.5200
8 2 22 1.2322 0.1869
8 2 23 1.2390 -0.4398
8 2 24 3.2705 0.2231
8 2 25 0.9577 -0.4328
8 2 26 -3.3630 0.1114
8 2 27 -5.1004 -0.5056
8 2 28 -3.3073 -0.1916
8 3 0 41.7493 -3.9391
8 3 1 6.5147 0.3809
8 3 2 7.8762 0.1083
8 3 3 5.1442 -0.4276
8 3 4 3.0730 0.9014
8 3 5 5.8845 -0.7424
8 3 6 18.5088 0.2140
8 3 7 7.0595 -0.1136
8 3 8 19.5512 -0.1944
8 3 9 2.4484 0.3261
8 3 10 22.4962 -0.2877
8 3 11 5.1201 0.1387
8 3 12 5.4698 -0.2168
8 3 13 12.3337 -0.1793
8 3 14 2.2435 -0.1024
8 3 15 3.9008 -0.2749
8 3 16 1.3630 -0.1319
8 3 17 4.3162 -0.0473
8 3 18 -2.3896 -0.2362
8 3 19 4.2658 0.0958
8 3 20 2.8271 -0.2122
8 3 21 0.7438 0.1499
8 3 22 -1.6385 0.0952
8 3 23 -4.4843 -0.2228
8 3 24 2.3879 0.1814
8 3 25 1.5838 -0.1659
8 3 26 1.5550 -0.3087
8 3 27 0.5940 0.0684
8 3 28 -1.2694 -0.9829
8 4 0 25.9118 -3.7448
8 4 1 -33.0838 0.6711
8 4 2 -12.7441 -0.2638
8 4 3 13.5246 0.8008
8 4 4 6.0773 1.3462
8 4 5 -17.7098 0.9193
8 4 6 -3.2167 0.6580
8 4 7 4.3637 0.7620
8 4 8 -3.8879 0.3071
8 4 9 3.8484 0.5985
8 4 10 0.3910 0.5392
8 4 11 -8.2495 0.5968
8 4 12 4.3487 0.4771
8 4 13 -2.8515 1.0109
8 4 14 5.1815 0.5450
8 4 15 -0.1208 1.2352
8 4 16 7.1018 0.4114
8 4 17 -3.8626 0.6627
8 4 18 0.5706 0.3298
8 4 19 -1.3271 0.5894
8 4 20 -2.4422 0.4161
8 4 21 0.7295 0.3519
8 4 22 3.3515 0.3330
8 4 23 -2.8396 0.5877
8 4 24 -3.6666 0.3124
8 4 25 0.5471 0.4182
8 4 26 3.7416 -0.0231
8 4 27 -5.1195 0.1101
8 4 28 1.1127 -0.4237
8 5 0 3.5767 -0.4615
8 5 1 -17.3767 -4.2834
8 5 2 1.5133 0.2470
8 5 3 -17.2910 0.2031
8 5 4 5.9510 -0.0070
8 5 5 12.8300 1.4395
8 5 6 -3.3996 0.0779
8 5 7 2.9946 0.9367
8 5 8 1.4322 -0.1046
8 5 9 -3.1583 -0.1852
8 5 10 -6.2458 -0.1268
8 5 11 0.1789 0.0661
8 5 12 4.1453 -0.1190
8 5 13 -8.1092 0.3605
8 5 14 -4.2898 0.1552
8 5 15 -0.1205 0.3593
8 5 16 1.5591 -0.0192
8 5 17 5.5818 0.2307
8 5 18 0.3514 -0.0452
8 5 19 6.0382 0.0250
8 5 20 -1.9017 -0.0287
8 5 21 -2.7297 0.4107
8 5 22 0.2236 -0.1085
8 5 23 0.1476 0.3863
8 5 24 -2.5443 0.0610
8 5 25 -2.1131 0.1539
8 5 26 -0.5585 -0.0789
8 5 27 -0.6293 -0.8920
8 5 28 -2.5715 0.0470
8 6 0 -3.6128 1.5472
8 6 1 -25.8768 0.5760
8 6 2 -29.0285 0.2542
8 6 3 -28.1550 -0.3881
8 6 4 -8.9974 -0.4198
8 6 5 1.0588 -0.8721
8 6 6 -23.8368 -0.0373
8 6 7 -16.4811 -0.8154
8 6 8 -18.7777 0.4781
8 6 9 2.0817 -0.1036
8 6 10 -2.9095 0.1876
8 6 11 -6.4466 -0.0393
8 6 12 -8.6411 0.0006
8 6 13 -8.0797 -0.5352
8 6 14 -0.6830 0.1319
8 6 15 -10.8491 -0.7212
8 6 16 -5.6858 0.2081
8 6 17 -8.8803 -0.4802
8 6 18 -0.8612 0.1361
8 6 19 -3.8055 -0.1472
8 6 20 -1.1038 -0.0211
8 6 21 -3.5124 -0.0603
8 6 22 -0.2502 -0.0524
8 6 23 1.2068 -0.3430
8 6 24 0.5325 0.0895
8 6 25 -5.7779 -0.4055
8 6 26 2.0259 0.3393
8 6 27 -1.7969 0.1676
8 7 0 -2.5599 0.2925
8 7 1 -5.0332 2.8550
8 7 2 -3.9821 0.0874
8 7 3 -2.2458 0.1487
8 7 4 -5.5521 0.0243
8 7 5 -14.9094 -0.9231
8 7 6 -28.3582 0.2920
8 7 7 -16.2175 -0.3603
8 7 8 -8.8057 0.4507
8 7 9 6.9728 0.2264
8 7 10 -3.4596 0.2392
8 7 11 9.0052 -0.0773
8 7 12 -0.7160 0.1225
8 7 13 -1.1724 -0.4195
8 7 14 -7.7022 0.0952
8 7 15 -5.0300 -0.2074
8 7 16 0.8171 0.3428
8 7 17 1.5196 -0.1991
8 7 18 -0.5938 0.3878
8 7 19 -4.9235 -0.0441
8 7 20 -0.4803 0.1936
8 7 21 0.1706 -0.2951
8 7 22 1.1921 -0.0326
8 7 23 0.0193 -0.3623
8 7 24 1.9159 0.1094
8 7 25 -0.3505 -0.0471
8 7 26 -2.0869 0.1137
8 7 27 2.0020 0.4669
8 8 0 22.4025 -0.5557
8 8 1 5.6012 -1.6297
8 8 2 -2.4372 -0.2932
8 8 3 -0.1423 0.0475
8 8 4 -3.1274 0.1052
8 8 5 -5.9155 0.6061
8 8 6 -9.5005 0.3822
8 8 7 14.8134 0.0048
8 8 8 -7.4949 0.3189
8 8 9 -9.5768 -0.1478
8 8 10 1.6188 0.1756
8 8 11 -12.9676 0.1505
8 8 12 -1.8512 0.1027
8 8 13 1.7901 0.2867
8 8 14 1.1848 0.2921
8 8 15 -0.0697 0.1970
8 8 16 0.5052 0.3326
8 8 17 -6.8549 0.1396
8 8 18 -3.6224 0.3546
8 8 19 3.8637 -0.1022
8 8 20 3.2592 0.2829
8 8 21 2.5292 0.0847
8 8 22 -0.0608 0.1487
8 8 23 1.5005 0.1308
8 8 24 -2.3152 0.0010
8 8 25 1.0949 0.0745
8 8 26 -3.0477 -0.0989
8 8 27 -3.6042 -0.2264
8 9 0 -14.2139 0.0393
8 9 1 3.6641 -0.4268
8 9 2 -5.7709 0.1396
8 9 3 -26.2817 -0.3443
8 9 4 3.4900 0.2054
8 9 5 2.4471 -0.2996
8 9 6 -5.6956 -0.4511
8 9 7 -2.6635 -0.3180
8 9 8 -5.3620 -0.2930
8 9 9 -11.1337 0.0647
8 9 10 -3.1553 -0.1710
8 9 11 -11.1951 0.1013
8 9 12 -8.5299 -0.2267
8 9 13 -1.1882 0.1094
8 9 14 -3.2216 -0.3201
8 9 15 -0.9971 0.0335
8 9 16 0.7538 -0.2864
8 9 17 -4.5318 -0.0178
8 9 18 -3.5925 -0.1883
8 9 19 5.0675 0.1781
8 9 20 -2.1667 -0.2268
8 9 21 -3.1188 -0.0289
8 9 22 -1.9140 -0.3268
8 9 23 -2.7262 0.0078
8 9 24 0.1195 -0.1641
8 9 25 1.7373 -0.0166
8 9 26 -0.8607 0.0545
8 9 27 -2.0450 -0.2286
8 10 0 7.8711 0.2110
8 10 1 -1.8123 -2.7834
8 10 2 12.1662 -0.0719
8 10 3 12.1997 -0.0619
8 10 4 8.5930 -0.1914
8 10 5 15.5779 0.5946
8 10 6 -2.2763 -0.3318
8 10 7 15.6449 0.0228
8 10 8 -5.1970 -0.2123
8 10 9 15.7406 -0.7992
8 10 10 7.4334 -0.3247
8 10 11 7.1099 -0.7079
8 10 12 5.5560 -0.2710
8 10 13 3.8650 -0.3283
8 10 14 5.5682 -0.2972
8 10 15 -0.5165 0.1296
8 10 16 6.9836 -0.1977
8 10 17 -3.8599 -0.0097
8 10 18 2.9421 -0.3770
8 10 19 5.2275 -0.2258
8 10 20 2.9724 -0.0566
8 10 21 3.1429 -0.3456
8 10 22 -7.3081 -0.1248
8 10 23 0.8844 -0.2313
8 10 24 -1.9674 -0.0036
8 10 25 1.9520 -0.3456
8 10 26 2.9340 -0.3146
8 11 0 1.3436 0.5385
8 11 1 -10.6340 1.3279
8 11 2 12.3690 -0.2047
8 11 3 -8.5943 0.0367
8 11 4 -2.5076 -0.5897
8 11 5 -1.0124 -0.5257
8 11 6 -5.1623 -0.7877
8 11 7 -5.8590 -0.1196
8 11 8 4.8399 -0.3913
8 11 9 3.1010 0.3538
8 11 10 -7.7247 -0.3094
8 11 11 4.6861 0.4104
8 11 12 -2.6501 -0.3497
8 11 13 -2.9339 0.1888
8 11 14 6.4348 -0.4685
8 11 15 -2.4266 0.1443
8 11 16 -2.5017 -0.4895
8 11 17 -0.7942 0.1799
8 11 18 -1.8226 -0.3264
8 11 19 -2.0188 0.1617
8 11 20 0.4748 -0.0132
8 11 21 -1.0919 0.0271
8 11 22 -2.6548 -0.1437
8 11 23 0.2680 0.0082
8 11 24 -0.3590 -0.3078
8 11 25 -0.4462 0.3743
8 11 26 -1.0867 -0.0416
8 12 0 11.4930 -1.0263
8 12 1 -9.5781 4.6270
8 12 2 10.6734 0.1167
8 12 3 7.5518 0.0739
8 12 4 -0.3064 0.5467
8 12 5 -2.7269 -1.7295
8 12 6 4.0091 0.0930
8 12 7 12.1920 -0.3351
8 12 8 -7.3162 -0.1319
8 12 9 4.5905 0.7917
8 12 10 -0.0035 -0.0138
8 12 11 -1.3843 0.6653
8 12 12 7.4648 0.1658
8 12 13 6.8349 0.0391
8 12 14 -0.9669 0.2413
8 12 15 -2.3501 -0.4590
8 12 16 4.3670 0.2220
8 12 17 -0.5976 -0.0882
8 12 18 1.0831 0.1297
8 12 19 -0.4763 0.2196
8 12 20 -1.8224 0.1133
8 12 21 2.4554 0.2648
8 12 22 -0.8426 0.1858
8 12 23 1.8409 0.0273
8 12 24 -0.6559 0.0064
8 12 25 1.4427 0.5918
8 13 0 -3.7295 1.6303
8 13 1 8.2743 2.0092
8 13 2 0.8225 0.2839
8 13 3 1.9721 -0.0749
8 13 4 6.8654 -0.6764
8 13 5 4.3895 -0.9037
8 13 6 -4.4102 -0.4201
8 13 7 5.3067 -0.1338
8 13 8 -2.4455 0.3014
8 13 9 -0.5648 0.1728
8 13 10 0.8257 0.4032
8 13 11 1.8578 0.1114
8 13 12 -3.2047 0.0691
8 13 13 -0.7901 -0.3900
8 13 14 -2.6101 -0.1511
8 13 15 0.7557 -0.5514
8 13 16 6.8906 -0.0275
8 13 17 -0.9312 -0.1991
8 13 18 -0.5050 0.2503
8 13 19 3.0097 -0.1792
8 13 20 0.1603 0.1730
8 13 21 0.2282 -0.0253
8 13 22 0.2905 -0.0299
8 13 23 1.7222 -0.0369
8 13 24 0.4311 0.1774
8 13 25 0.7201 -0.0301
8 14 0 2.9079 1.4992
8 14 1 -0.4293 -0.7134
8 14 2 -0.7524 0.0804
8 14 3 -2.7836 -0.2843
8 14 4 -3.9746 -0.4565
8 14 5 -2.6326 0.0467
8 14 6 -0.8054 -0.3437
8 14 7 4.8376 0.1816
8 14 8 -6.1040 -0.2149
8 14 9 3.4429 -0.4825
8 14 10 -0.6440 0.1648
8 14 11 0.5336 -0.4218
8 14 12 -4.6865 -0.0156
8 14 13 0.4512 -0.1494
8 14 14 -6.0132 -0.1166
8 14 15 -5.2049 -0.1290
8 14 16 3.2405 -0.3274
8 14 17 2.6700 -0.0041
8 14 18 1.4505 -0.2133
8 14 19 -4.2688 -0.1689
8 14 20 -3.3770 -0.1716
8 14 21 1.4916 0.1000
8 14 22 0.7209 -0.0507
8 14 23 2.2077 -0.2326
8 14 24 -1.0563 0.2359
8 15 0 -1.8383 -1.4990
8 15 1 3.4489 -1.5378
8 15 2 4.0449 -0.0476
8 15 3 -9.2376 0.1077
8 15 4 -3.2234 0.3985
8 15 5 3.8384 0.5331
8 15 6 -0.6506 0.5083
8 15 7 4.0234 0.0022
8 15 8 -1.2084 0.1029
8 15 9 3.6258 -0.5720
8 15 10 1.5248 -0.1867
8 15 11 3.9567 -0.4440
8 15 12 3.2609 0.1375
8 15 13 0.9591 -0.2268
8 15 14 0.9987 0.3727
8 15 15 0.6904 -0.1245
8 15 16 3.3817 0.3421
8 15 17 -2.1922 0.0014
8 15 18 -0.7792 0.1930
8 15 19 -0.1615 -0.2351
8 15 20 1.9655 0.0754
8 15 21 5.2556 -0.0115
8 15 22 0.9094 0.0431
8 15 23 0.9046 -0.3121
8 15 24 -1.6315 -0.3931
8 16 0 12.7693 -0.0499
8 16 1 -7.2539 -1.4309
8 16 2 10.7995 -0.2747
8 16 3 6.6176 -0.0657
8 16 4 -2.1097 -0.4135
8 16 5 5.4592 0.2602
8 16 6 0.2715 -0.0163
8 16 7 14.5177 -0.1331
8 16 8 -4.0693 0.1487
8 16 9 8.3157 -0.5897
8 16 10 5.0503 -0.0026
8 16 11 -0.4207 -0.3027
8 16 12 3.0887 -0.4529
8 16 13 4.1209 -0.0837
8 16 14 2.9223 -0.3873
8 16 15 0.1600 0.0834
8 16 16 2.1488 -0.2647
8 16 17 0.2765 0.0338
8 16 18 0.2550 -0.0516
8 16 19 5.2239 -0.3511
8 16 20 -1.9425 0.1576
8 16 21 -1.4411 -0.3157
8 16 22 -0.9286 0.0988
8 16 23 -1.4976 -0.3627
8 17 0 4.4401 0.2103
8 17 1 -3.7919 -1.2053
8 17 2 -1.4970 -0.0025
8 17 3 -4.0875 0.2375
8 17 4 -5.1309 0.2441
8 17 5 11.6081 0.6356
8 17 6 -2.4040 0.4396
8 17 7 6.8752 0.4369
8 17 8 -5.1458 0.1972
8 17 9 -0.0929 0.1914
8 17 10 -2.1340 0.0767
8 17 11 2.9867 0.0638
8 17 12 -1.1894 0.1292
8 17 13 1.0445 0.2548
8 17 14 2.1868 -0.0195
8 17 15 -0.5129 0.4825
8 17 16 3.7269 0.1639
8 17 17 0.1223 0.4706
8 17 18 3.2626 0.0031
8 17 19 -1.5240 0.0869
8 17 20 1.8146 -0.0945
8 17 21 -0.4150 -0.1128
8 17 22 -2.6620 -0.1436
8 18 0 12.9463 0.3842
8 18 1 -1.9152 0.5767
8 18 2 1.0834 -0.0408
8 18 3 -7.5081 0.0180
8 18 4 -1.8416 -0.0952
8 18 5 -3.4669 -0.1993
8 18 6 -6.3178 0.0917
8 18 7 1.8449 -0.1981
8 18 8 -9.5032 0.1980
8 18 9 -6.5289 0.2098
8 18 10 -0.7218 0.2102
8 18 11 0.5580 0.2431
8 18 12 6.7314 0.0962
8 18 13 -0.3592 0.0349
8 18 14 3.0161 0.2234
8 18 15 -8.3242 -0.3455
8 18 16 5.5829 0.0477
8 18 17 -2.8549 -0.0668
8 18 18 -1.1431 -0.1061
8 18 19 4.7981 0.0430
8 18 20 -1.2181 -0.3655
8 18 21 -0.4208 0.2615
8 19 0 1.2277 -0.8098
8 19 1 4.6380 0.2136
8 19 2 2.6697 -0.1914
8 19 3 1.0529 0.1458
8 19 4 3.5531 0.5045
8 19 5 0.5867 0.0038
8 19 6 -6.5557 0.4367
8 19 7 1.2100 -0.0197
8 19 8 -4.6309 -0.0236
8 19 9 8.2673 0.0075
8 19 10 -0.3716 -0.1357
8 19 11 1.4417 0.0980
8 19 12 -2.6836 0.0212
8 19 13 2.3596 0.1676
8 19 14 3.0578 -0.0142
8 19 15 -1.1202 0.0615
8 19 16 -0.8593 0.1384
8 19 17 -3.3531 -0.0702
8 19 18 0.1314 0.2236
8 19 19 0.8914 0.2524
8 19 20 4.3970 -0.2046
8 19 21 -5.0352 0.2885
8 20 0 11.9249 -0.9616
8 20 1 -5.8666 0.9334
8 20 2 -8.1443 -0.0948
8 20 3 -4.7997 -0.0336
8 20 4 -9.5729 0.4096
8 20 5 -1.4396 -0.3122
8 20 6 -7.9775 0.1198
8 20 7 -12.6984 0.1168
8 20 8 -5.9423 -0.2921
8 20 9 -2.0208 0.2118
8 20 10 -0.7661 -0.1243
8 20 11 -6.5033 -0.1019
8 20 12 -3.1992 -0.0006
8 20 13 -12.1615 -0.4166
8 20 14 1.8217 0.0042
8 20 15 -0.1318 -0.0758
8 20 16 -1.5364 -0.0799
8 20 17 -6.5701 0.1720
8 20 18 -0.9201 -0.3319
8 20 19 -5.5988 0.1614
8 20 20 -4.3635 -0.6298
8 21 0 -11.1769 -0.3418
8 21 1 -0.7173 -2.1573
8 21 2 5.1161 -0.1293
8 21 3 6.7766 0.0685
8 21 4 -13.4453 -0.0243
8 21 5 -0.3744 0.9882
8 21 6 -1.5843 -0.1607
8 21 7 3.8126 0.3087
8 21 8 -0.5683 -0.1078
8 21 9 -1.8199 -0.3317
8 21 10 -7.0118 -0.1523
8 21 11 -4.9909 -0.3415
8 21 12 -0.2913 -0.1038
8 21 13 -0.3303 0.0417
8 21 14 -8.0302 0.0419
8 21 15 -5.0838 0.0843
8 21 16 -0.6883 -0.2582
8 21 17 -0.0963 -0.0719
8 21 18 1.4264 -0.2210
8 21 19 -3.6812 -0.9084
8 22 0 -16.0677 -1.1330
8 22 1 -5.6393 -0.6679
8 22 2 5.3058 0.0925
8 22 3 0.9472 0.2129
8 22 4 -7.9280 0.5049
8 22 5 -2.1554 0.2479
8 22 6 -3.6864 0.2771
8 22 7 6.0740 0.0677
8 22 8 -4.2433 0.0200
8 22 9 0.2818 0.1044
8 22 10 2.6019 0.0393
8 22 11 2.9979 0.0109
8 22 12 0.1414 0.1554
8 22 13 -0.1340 -0.0705
8 22 14 1.0408 0.1015
8 22 15 -0.3159 0.6336
8 22 16 2.0797 0.0239
8 22 17 -4.7366 0.0585
8 23 0 -3.5301 0.4703
8 23 1 -3.7042 2.4364
8 23 2 2.2113 -0.0412
8 23 3 -2.7671 -0.1292
8 23 4 -3.1679 -0.4969
8 23 5 -7.3019 -0.7875
8 23 6 -3.7015 -0.2485
8 23 7 -1.0603 -0.3970
8 23 8 -4.4934 -0.0589
8 23 9 -5.8765 -0.1152
8 23 10 -3.5235 -0.0807
8 23 11 -1.1316 0.0705
8 23 12 4.7634 -0.1105
8 23 13 -0.1588 0.0308
8 23 14 0.4739 0.1760
8 23 15 -4.5031 0.3315
8 23 16 -5.1646 0.3243
8 24 0 -3.2358 1.7047
8 24 1 0.8046 -1.7422
8 24 2 4.6252 0.0400
8 24 3 3.2379 -0.2594
8 24 4 -1.5004 -0.5659
8 24 5 7.8039 0.6058
8 24 6 1.2992 -0.2387
8 24 7 3.5145 0.2480
8 24 8 -0.3706 -0.0395
8 24 9 3.9988 -0.2517
8 24 10 0.9053 -0.0906
8 24 11 -0.6343 -0.8243
8 24 12 -4.8368 0.0521
8 24 13 2.1945 -0.2753
8 24 14 2.8894 0.4274
8 25 0 2.8292 1.3824
8 25 1 -2.9149 -0.0613
8 25 2 -1.3572 0.2616
8 25 3 -2.1659 0.2499
8 25 4 3.9199 -0.4082
8 25 5 6.9802 -0.1410
8 25 6 -0.9076 -0.4836
8 25 7 3.5003 -0.0795
8 25 8 1.8204 -0.1448
8 25 9 4.1190 -0.1331
8 25 10 0.4805 -0.0968
8 25 11 -2.8245 -0.4112
8 25 12 -1.2454 0.4303
8 25 13 1.5790 -0.2963
8 26 0 5.3600 0.0622
8 26 1 1.1969 1.5388
8 26 2 0.0282 -0.0391
8 26 3 2.7300 0.0093
8 26 4 2.5708 -0.1364
8 26 5 -1.2907 -0.2859
8 26 6 -3.1982 0.2861
8 26 7 1.0474 -0.0063
8 26 8 -3.8379 0.1312
8 26 9 3.5637 0.2907
8 26 10 0.5034 0.4489
8 26 11 0.4592 0.7881
8 27 0 11.5476 -0.2584
8 27 1 0.4356 -0.2058
8 27 2 7.2195 -0.4840
8 27 3 5.4506 -0.3467
8 27 4 -0.1427 -0.2839
8 27 5 6.7980 -0.1331
8 27 6 -2.3220 -0.1875
8 27 7 6.9266 0.1949
8 27 8 3.2546 -0.1429
8 28 0 -0.3259 -1.1710
8 28 1 -1.3144 0.6841
8 28 2 -2.0895 -0.4119
8 28 3 -1.9408 0.3412
9 1 0 -10.3882 1.7215
9 1 1 -8.9565 -1.1355
9 1 2 -5.4443 -0.7224
9 1 3 3.5773 -0.2066
9 1 4 -28.2563 -0.9901
9 1 5 -7.0959 -0.4470
9 1 6 -12.5247 0.2454
9 1 7 8.3395 0.2698
9 1 8 -8.1185 0.1769
9 1 9 -1.2417 -0.6308
9 1 10 -6.6583 0.6687
9 1 11 -2.5117 -0.4489
9 1 12 5.2761 0.0739
9 1 13 5.0968 -0.4467
9 1 14 -1.3247 0.2361
9 1 15 -3.4022 -0.3993
9 1 16 1.1099 -0.0790
9 1 17 -5.9040 0.3328
9 1 18 2.0680 0.1243
9 1 19 1.0007 -0.2721
9 1 20 8.3900 0.2922
9 1 21 3.2286 0.0876
9 1 22 5.0663 0.2846
9 1 23 0.5459 -0.4778
9 1 24 4.1047 0.3026
9 1 25 0.1529 -0.3516
9 1 26 9.8334 0.0368
9 1 27 0.9406 -0.3271
9 2 0 2.4639 -0.5634
9 2 1 8.2880 0.2879
9 2 2 13.3804 0.8803
9 2 3 -8.7445 1.6095
9 2 4 -13.4583 0.5554
9 2 5 15.3549 1.3633
9 2 6 -3.9583 0.1149
9 2 7 11.8386 0.9361
9 2 8 5.8864 0.0019
9 2 9 5.4657 0.8866
9 2 10 17.4730 -0.1042
9 2 11 3.3686 1.1038
9 2 12 8.9516 0.4507
9 2 13 6.2359 1.0944
9 2 14 6.2401 -0.0087
9 2 15 -0.8903 1.2005
9 2 16 -3.9629 0.2554
9 2 17 6.1799 0.8987
9 2 18 1.3070 -0.0620
9 2 19 2.3727 0.6872
9 2 20 -0.9381 0.0909
9 2 21 1.0036 0.6128
9 2 22 -3.1436 0.3425
9 2 23 1.7316 0.5495
9 2 24 -1.3633 0.1970
9 2 25 1.3096 0.7063
9 2 26 -2.9138 -0.0763
9 2 27 -3.7434 0.3417
9 3 0 11.2051 -3.4664
9 3 1 -10.4224 0.7400
9 3 2 9.3990 1.0104
9 3 3 1.9190 -0.7559
9 3 4 25.6290 2.1999
9 3 5 9.7991 -0.5319
9 3 6 5.6775 1.1678
9 3 7 10.9272 -0.2845
9 3 8 -11.5024 0.2628
9 3 9 -7.6828 -0.1781
9 3 10 5.3220 0.6361
9 3 11 2.6176 -0.5235
9 3 12 -6.3973 1.0854
9 3 13 -4.9272 -0.5196
9 3 14 0.5698 0.7926
9 3 15 1.0781 -0.2999
9 3 16 10.4167 0.6875
9 3 17 2.9310 -0.4158
9 3 18 0.6516 0.5344
9 3 19 0.4514 -0.3640
9 3 20 -4.3587 0.3920
9 3 21 -0.3129 -0.2732
9 3 22 -1.5027 0.6227
9 3 23 5.4027 -0.1536
9 3 24 -0.2849 0.6126
9 3 25 -8.1275 -0.0780
9 3 26 2.2596 0.1632
9 3 27 1.4681 0.0148
9 4 0 5.1421 -1.8056
9 4 1 28.2911 -1.8004
9 4 2 8.8882 -0.2718
9 4 3 -3.8224 -0.0389
9 4 4 41.5667 0.2437
9 4 5 10.3737 0.5311
9 4 6 16.2485 0.4661
9 4 7 7.3673 0.3023
9 4 8 -2.2012 0.2600
9 4 9 3.8483 0.0159
9 4 10 -5.3537 0.0323
9 4 11 1.8088 0.2227
9 4 12 -3.5121 0.1520
9 4 13 11.5796 0.0134
9 4 14 4.0022 0.1651
9 4 15 -3.1994 -0.1432
9 4 16 6.3885 0.3708
9 4 17 1.0963 -0.0670
9 4 18 1.8920 0.2128
9 4 19 2.4134 0.0723
9 4 20 0.4982 0.0863
9 4 21 3.5071 0.3950
9 4 22 -0.0928 0.2370
9 4 23 0.9143 0.0225
9 4 24 -2.9363 0.1188
9 4 25 2.7587 -0.1400
9 4 26 -3.2267 0.0470
9 4 27 -2.8465 -0.4127
9 5 0 20.9488 1.4029
9 5 1 7.0320 -0.0677
9 5 2 8.5156 0.4342
9 5 3 -3.6448 -0.0404
9 5 4 27.9829 -0.2359
9 5 5 1.6993 -0.2434
9 5 6 -28.1741 -0.1495
9 5 7 2.9171 -0.4773
9 5 8 -1.1433 0.2462
9 5 9 4.4838 -0.3461
9 5 10 8.8174 0.1799
9 5 11 1.1179 -0.0582
9 5 12 5.5144 -0.1020
9 5 13 -0.5047 0.3744
9 5 14 -3.7315 -0.2346
9 5 15 0.2959 0.4335
9 5 16 4.4913 -0.0828
9 5 17 4.9124 0.2304
9 5 18 -1.8142 0.0882
9 5 19 -0.4589 0.0487
9 5 20 -6.7593 -0.0318
9 5 21 -2.4407 -0.0685
9 5 22 -2.1000 -0.0865
9 5 23 5.4115 -0.1170
9 5 24 2.9104 -0.3342
9 5 25 5.6486 0.0756
9 5 26 2.0217 0.2919
9 5 27 -2.0935 0.3250
9 6 0 -34.0970 1.5651
9 6 1 4.6568 -0.3227
9 6 2 14.5807 0.4192
9 6 3 -9.8684 0.2962
9 6 4 -4.5665 -0.2839
9 6 5 -2.6961 0.0044
9 6 6 -12.3111 0.0141
9 6 7 -4.2373 0.2055
9 6 8 7.0768 0.4571
9 6 9 0.7809 0.1075
9 6 10 2.2589 -0.0105
9 6 11 0.7611 0.0637
9 6 12 3.4792 0.0917
9 6 13 10.1796 -0.1824
9 6 14 -2.7615 -0.1204
9 6 15 1.2013 -0.0338
9 6 16 -4.2514 0.1205
9 6 17 3.1315 -0.0645
9 6 18 -4.0188 0.0430
9 6 19 -2.9543 0.0016
9 6 20 2.5251 0.1547
9 6 21 1.6247 0.0065
9 6 22 1.1928 0.0022
9 6 23 -1.0653 -0.1252
9 6 24 3.8764 -0.1423
9 6 25 -1.6488 -0.0794
9 6 26 0.6609 0.0922
9 6 27 0.5437 0.0387
9 7 0 18.5261 0.3664
9 7 1 -15.2006 1.3270
9 7 2 3.2555 -0.0708
9 7 3 -8.7007 0.0376
9 7 4 5.7269 -0.3457
9 7 5 -5.9915 -0.3861
9 7 6 0.7831 -0.0608
9 7 7 17.5254 0.0021
9 7 8 4.0188 -0.0775
9 7 9 -1.9425 0.6297
9 7 10 -0.6685 -0.1945
9 7 11 -11.3096 0.7001
9 7 12 0.3620 -0.3448
9 7 13 0.9725 -0.0387
9 7 14 -0.4657 -0.0815
9 7 15 -2.4191 -0.2206
9 7 16 3.7969 0.0667
9 7 17 -1.3855 0.0226
9 7 18 0.3391 -0.0006
9 7 19 2.0688 0.2931
9 7 20 -2.6357 0.0034
9 7 21 4.1299 0.2913
9 7 22 -3.3775 -0.1039
9 7 23 -0.5081 0.0508
9 7 24 -8.1099 -0.0291
9 7 25 -1.2474 0.0060
9 7 26 2.7176 0.0436
9 7 27 -2.0710 0.0650
9 8 0 -29.9823 -1.0154
9 8 1 -13.3087 0.4954
9 8 2 -7.4091 0.0968
9 8 3 -8.3888 0.5347
9 8 4 -10.2799 0.4356
9 8 5 -3.4982 0.3501
9 8 6 -16.2554 0.2855
9 8 7 8.3017 0.7030
9 8 8 -10.3723 0.0471
9 8 9 -6.3577 0.4734
9 8 10 -12.1211 0.0405
9 8 11 -5.3650 0.4363
9 8 12 -9.4425 0.0860
9 8 13 -2.3737 0.6498
9 8 14 -7.0063 0.0131
9 8 15 -5.9972 0.6794
9 8 16 2.1764 0.1754
9 8 17 -6.3979 0.6843
9 8 18 -6.6685 0.2631
9 8 19 -1.3433 0.3371
9 8 20 1.9079 0.0318
9 8 21 -1.9690 0.3297
9 8 22 -3.1257 -0.0271
9 8 23 -3.5938 0.2190
9 8 24 -3.1334 -0.0580
9 8 25 -0.2524 0.4026
9 8 26 1.8050 0.0812
9 9 0 -5.2355 0.5186
9 9 1 12.4827 -3.0034
9 9 2 -0.8307 -0.2057
9 9 3 -6.1915 -0.2544
9 9 4 -7.1761 -0.3751
9 9 5 7.9086 0.8768
9 9 6 -1.6155 -0.3245
9 9 7 10.5416 -0.2073
9 9 8 -9.5526 0.0631
9 9 9 9.7614 -1.0377
9 9 10 -3.6139 0.2394
9 9 11 -7.9588 -0.8246
9 9 12 0.9186 0.1223
9 9 13 1.3403 -0.2044
9 9 14 6.3171 -0.0358
9 9 15 -2.5391 0.0178
9 9 16 7.6314 -0.0505
9 9 17 -5.5567 -0.4066
9 9 18 -0.9273 0.0300
9 9 19 5.9041 -0.5659
9 9 20 6.1245 0.1529
9 9 21 0.5837 -0.3876
9 9 22 -0.9223 0.1171
9 9 23 2.7604 0.1242
9 9 24 2.1859 0.0154
9 9 25 2.7732 -0.1653
9 9 26 0.0054 -0.0418
9 10 0 -5.8524 0.7278
9 10 1 -0.1070 0.1699
9 10 2 7.6338 0.1636
9 10 3 -14.8274 -0.3670
9 10 4 -4.8381 -0.0399
9 10 5 -0.4128 -0.9604
9 10 6 -8.8487 -0.4177
9 10 7 -6.0190 -0.5833
9 10 8 -4.7561 -0.2977
9 10 9 0.1293 -0.4287
9 10 10 -2.7002 -0.0044
9 10 11 -2.7286 -0.4484
9 10 12 -6.1439 -0.1091
9 10 13 1.4468 -0.5168
9 10 14 -2.3401 -0.1829
9 10 15 -3.6874 -0.6958
9 10 16 -0.9304 -0.3586
9 10 17 3.9809 -0.5496
9 10 18 3.3871 -0.3072
9 10 19 -2.3570 -0.4099
9 10 20 0.4615 -0.0672
9 10 21 0.3732 -0.2047
9 10 22 -2.2370 -0.0982
9 10 23 -0.2580 -0.5497
9 10 24 0.8749 -0.1789
9 10 25 -0.5644 -0.2760
9 10 26 0.1089 0.0782
9 11 0 6.7278 -0.6609
9 11 1 -1.8647 1.9091
9 11 2 2.8943 0.0202
9 11 3 6.3687 -0.1120
9 11 4 1.0339 0.2495
9 11 5 2.7912 -0.5919
9 11 6 0.6341 0.1148
9 11 7 0.9802 -0.1105
9 11 8 -4.5067 0.2583
9 11 9 -2.7703 0.5336
9 11 10 3.2787 0.0350
9 11 11 0.1335 0.2085
9 11 12 -1.5154 0.2422
9 11 13 -3.4234 -0.2548
9 11 14 0.2730 0.2364
9 11 15 -0.9635 -0.1564
9 11 16 -0.3668 0.1499
9 11 17 0.8535 0.1333
9 11 18 -1.5631 -0.0337
9 11 19 -4.2561 0.2831
9 11 20 -3.5566 0.1149
9 11 21 0.3605 0.1937
9 11 22 -0.9623 0.2884
9 11 23 0.6837 -0.1180
9 11 24 -1.8252 0.1816
9 11 25 0.5312 0.3824
9 12 0 -2.1805 1.8384
9 12 1 14.7340 4.2646
9 12 2 0.3810 0.3664
9 12 3 2.4524 -0.0380
9 12 4 5.5364 -0.3953
9 12 5 8.8089 -1.4561
9 12 6 -0.9856 -0.4214
9 12 7 14.4782 -0.3412
9 12 8 2.6515 0.3466
9 12 9 -1.6580 0.6746
9 12 10 3.6619 0.4270
9 12 11 0.9437 0.7860
9 12 12 3.3229 0.2434
9 12 13 4.1939 0.0767
9 12 14 -0.0474 -0.1485
9 12 15 1.1784 -0.2663
9 12 16 4.2349 -0.0513
9 12 17 0.4444 -0.0045
9 12 18 -1.2539 0.0884
9 12 19 2.6256 0.2740
9 12 20 -2.1526 0.3163
9 12 21 1.3754 0.4620
9 12 22 0.7900 -0.0523
9 12 23 3.3397 0.4640
9 12 24 -0.1309 0.1758
9 12 25 0.9922 0.3290
9 13 0 6.3871 -1.6010
9 13 1 -2.1197 1.5620
9 13 2 2.7811 -0.3466
9 13 3 -4.6757 0.0065
9 13 4 4.0573 0.2606
9 13 5 -1.8679 -0.6298
9 13 6 -1.4068 0.1134
9 13 7 -1.6575 -0.2178
9 13 8 -18.6949 -0.4278
9 13 9 4.3043 0.1713
9 13 10 4.0925 -0.5600
9 13 11 -2.2764 0.0792
9 13 12 2.9913 -0.2199
9 13 13 2.4313 0.0004
9 13 14 -1.5406 -0.2125
9 13 15 -2.5658 -0.1177
9 13 16 5.5062 -0.0939
9 13 17 -4.3475 -0.2524
9 13 18 -3.7946 -0.1284
9 13 19 0.7741 -0.0710
9 13 20 -4.9057 -0.1537
9 13 21 -0.1759 0.0117
9 13 22 -1.5355 -0.3610
9 13 23 1.0600 -0.1167
9 13 24 -3.2438 -0.3485
9 14 0 -5.1881 0.7762
9 14 1 -7.8830 -2.8194
9 14 2 9.7829 0.0585
9 14 3 -12.6525 0.2500
9 14 4 2.1144 -0.4807
9 14 5 3.7486 1.3926
9 14 6 -3.2407 -0.4850
9 14 7 1.0905 0.6300
9 14 8 2.7011 -0.0317
9 14 9 0.2563 -0.2433
9 14 10 0.3346 -0.1614
9 14 11 -2.6981 -0.3031
9 14 12 0.7721 -0.3247
9 14 13 -0.1809 0.2306
9 14 14 2.0649 -0.2079
9 14 15 -1.7964 0.5081
9 14 16 2.6144 -0.2666
9 14 17 -1.3217 0.3170
9 14 18 0.2860 -0.0812
9 14 19 -0.8273 -0.1196
9 14 20 -2.7396 0.1777
9 14 21 -0.8505 -0.1995
9 14 22 -3.7835 0.1398
9 14 23 2.4529 -0.1806
9 14 24 4.5531 -0.2466
9 15 0 11.4710 1.5950
9 15 1 -4.7139 -2.9610
9 15 2 6.0475 0.3823
9 15 3 -3.8213 -0.0170
9 15 4 1.3946 -0.1813
9 15 5 7.3076 1.0656
9 15 6 -1.8051 0.2055
9 15 7 0.0254 0.4546
9 15 8 0.0182 0.3896
9 15 9 6.6759 -0.4920
9 15 10 -3.4930 0.5702
9 15 11 -2.9096 -0.5444
9 15 12 0.7657 0.4492
9 15 13 -1.2146 0.1456
9 15 14 1.7655 0.3593
9 15 15 -5.2501 0.5048
9 15 16 -0.3446 0.3353
9 15 17 -0.3799 0.2691
9 15 18 4.7404 0.2059
9 15 19 3.3733 -0.1997
9 15 20 0.8115 0.2019
9 15 21 2.2290 -0.3419
9 15 22 0.6389 0.3990
9 15 23 -0.0635 -0.5826
9 16 0 7.8780 -2.6522
9 16 1 -1.3606 -0.1891
9 16 2 10.6877 -0.4392
9 16 3 -3.3566 -0.0702
9 16 4 9.4664 0.4702
9 16 5 -2.3887 -0.2151
9 16 6 4.5868 0.5318
9 16 7 1.9380 -0.2994
9 16 8 -3.3517 0.0190
9 16 9 -5.3893 -0.1683
9 16 10 9.5732 -0.3465
9 16 11 2.0785 0.0831
9 16 12 -1.0159 -0.2276
9 16 13 2.1678 -0.1107
9 16 14 0.3842 0.3022
9 16 15 -6.7925 -0.0831
9 16 16 -1.5808 0.5221
9 16 17 -7.1775 -0.0183
9 16 18 -0.8190 0.0989
9 16 19 1.8914 -0.0367
9 16 20 1.2831 -0.3155
9 16 21 -0.1978 -0.1930
9 16 22 -1.1208 -0.4161
9 17 0 -4.1316 0.0875
9 17 1 -8.0372 0.9869
9 17 2 -14.8419 0.0016
9 17 3 -1.0661 -0.0662
9 17 4 0.2725 -0.2391
9 17 5 -1.3536 -0.4878
9 17 6 -9.2992 0.2638
9 17 7 1.8866 -0.3608
9 17 8 -5.4021 0.3219
9 17 9 4.3259 0.1567
9 17 10 0.6831 0.0415
9 17 11 -6.0280 0.2095
9 17 12 -4.3955 -0.2113
9 17 13 -3.1276 0.0283
9 17 14 2.5917 -0.3022
9 17 15 -4.3886 -0.2569
9 17 16 -1.2021 -0.1401
9 17 17 -2.2847 -0.1508
9 17 18 0.8346 -0.1242
9 17 19 2.1583 -0.0920
9 17 20 -0.4675 0.0091
9 17 21 -2.2263 0.2410
9 17 22 -1.2875 -0.3923
9 18 0 4.0852 1.3446
9 18 1 3.5976 -0.4240
9 18 2 3.1845 0.0956
9 18 3 -1.5240 0.1081
9 18 4 17.3637 0.1117
9 18 5 11.1017 0.1505
9 18 6 -2.2676 0.4234
9 18 7 -1.6874 0.0869
9 18 8 17.5972 0.4966
9 18 9 9.7316 0.0693
9 18 10 0.7557 0.6070
9 18 11 0.2663 -0.1463
9 18 12 5.3535 0.4366
9 18 13 -6.5793 -0.1111
9 18 14 5.6787 0.1650
9 18 15 6.3202 0.0623
9 18 16 0.7153 0.0407
9 18 17 0.5449 0.1871
9 18 18 -0.3475 0.0691
9 18 19 -2.6694 0.1799
9 18 20 -2.7555 0.0195
9 18 21 9.8794 0.1640
9 19 0 -10.1071 0.0934
9 19 1 -3.3008 -0.4073
9 19 2 -1.5601 -0.0061
9 19 3 2.4700 -0.0961
9 19 4 -3.8823 0.0320
9 19 5 4.2094 0.1227
9 19 6 -1.0494 -0.2404
9 19 7 7.5648 0.1875
9 19 8 -5.2004 -0.3169
9 19 9 9.9346 0.0499
9 19 10 -3.4977 -0.1125
9 19 11 -7.6852 -0.0417
9 19 12 5.7281 0.0585
9 19 13 0.5314 -0.0278
9 19 14 4.7310 -0.0922
9 19 15 0.2339 0.2046
9 19 16 4.2165 -0.0953
9 19 17 0.3927 0.3202
9 19 18 -1.2209 -0.4341
9 19 19 2.3856 0.0152
9 19 20 -1.3441 0.4787
9 20 0 -1.9817 -3.4482
9 20 1 -0.0809 -0.6493
9 20 2 12.4032 -0.6213
9 20 3 2.6247 0.0081
9 20 4 -3.4833 0.5217
9 20 5 4.3731 0.3217
9 20 6 5.7212 0.4759
9 20 7 2.4813 0.0239
9 20 8 -5.9252 -0.1741
9 20 9 1.7651 -0.0819
9 20 10 4.8225 -0.4765
9 20 11 -2.7271 -0.0393
9 20 12 2.5017 -0.1117
9 20 13 -1.4490 0.1985
9 20 14 0.9665 0.4492
9 20 15 7.1504 0.2831
9 20 16 0.2492 0.3400
9 20 17 -2.8827 0.2209
9 20 18 -0.3150 -0.1991
9 20 19 6.4685 -0.5052
9 21 0 12.4594 -1.5597
9 21 1 -1.1939 1.6787
9 21 2 0.3638 -0.2033
9 21 3 4.8370 0.1119
9 21 4 3.8323 0.4310
9 21 5 7.3015 -0.4334
9 21 6 4.2537 -0.0862
9 21 7 6.9789 -0.0137
9 21 8 -4.4741 -0.3022
9 21 9 5.2051 0.1510
9 21 10 1.0781 -0.3251
9 21 11 1.6420 -0.1177
9 21 12 4.5736 -0.0894
9 21 13 1.4493 -0.3170
9 21 14 -1.0512 -0.3291
9 21 15 -2.1173 0.1388
9 21 16 2.3250 -0.1568
9 21 17 4.4061 0.3522
9 21 18 -0.3335 -0.9647
9 22 0 -4.5046 1.2834
9 22 1 -5.6154 -1.6874
9 22 2 -4.3609 -0.0617
9 22 3 -6.6209 0.0983
9 22 4 4.7642 -0.6253
9 22 5 -5.7707 0.6902
9 22 6 -7.0179 -0.5552
9 22 7 4.0748 0.4428
9 22 8 -1.9909 -0.3257
9 22 9 -2.8397 -0.0622
9 22 10 -3.4239 -0.3052
9 22 11 5.7362 -0.1912
9 22 12 -1.0981 -0.3221
9 22 13 2.3547 -0.6022
9 22 14 2.1413 -0.0859
9 22 15 -2.2868 0.2880
9 22 16 0.5593 0.1927
9 22 17 1.5838 -0.4842
9 23 0 6.1832 1.2152
9 23 1 9.8882 -1.0539
9 23 2 2.4431 0.1456
9 23 3 -0.5758 -0.0584
9 23 4 0.8980 -0.1628
9 23 5 3.5845 0.3713
9 23 6 -1.1320 -0.1502
9 23 7 0.8276 -0.2330
9 23 8 -1.8654 0.2248
9 23 9 1.4274 -0.4318
9 23 10 -0.0449 0.5583
9 23 11 -3.3746 -0.1104
9 23 12 -0.9308 0.4274
9 23 13 0.7298 -0.2085
9 23 14 4.8145 0.0803
9 23 15 -1.0925 -0.5166
9 24 0 3.2001 1.4044
9 24 1 0.2557 3.2214
9 24 2 -6.8119 0.1542
9 24 3 0.7616 -0.2992
9 24 4 -2.0953 -0.3750
9 24 5 3.7968 -1.1789
9 24 6 -3.5157 -0.5066
9 24 7 -0.8251 -0.2933
9 24 8 -3.8421 -0.1863
9 24 9 4.6834 0.6721
9 24 10 -3.9006 0.0713
9 24 11 -0.0656 0.8024
9 24 12 1.5962 0.3374
9 24 13 -1.6987 0.7711
9 25 0 -2.0044 0.7995
9 25 1 -3.9891 -0.7513
9 25 2 -2.6254 -0.1345
9 25 3 0.5644 0.3173
9 25 4 -5.9568 -0.2911
9 25 5 0.6616 0.3248
9 25 6 -3.7575 0.1783
9 25 7 -5.4868 -0.0141
9 25 8 -0.1163 -0.1035
9 25 9 2.8958 -0.4770
9 25 10 -1.9071 0.0186
9 25 11 -3.2376 -0.7607
9 25 12 4.7615 -0.1313
9 26 0 2.5675 0.0869
9 26 1 1.6054 -0.6568
9 26 2 -1.7780 0.0799
9 26 3 4.0448 -0.3159
9 26 4 2.2372 0.2585
9 26 5 0.7839 -0.1931
9 26 6 -3.4371 -0.2753
9 26 7 -2.2410 -0.6548
9 26 8 0.2115 -0.4175
9 26 9 5.9030 -0.7107
9 27 0 -2.6984 -0.8043
9 27 1 -3.3274 1.1915
9 27 2 0.9913 -0.3416
9 27 3 1.8494 0.1177
9 27 4 -2.7339 -0.0631
9 27 5 -1.7200 -0.1122
9 27 6 1.3387 -0.4165
10 0 0 -23.6616 -0.2866
10 0 1 -0.9321 -2.5583
10 0 2 -11.3175 0.6845
10 0 3 -29.0599 -2.3563
10 0 4 -21.6356 -0.5059
10 0 5 11.5728 -1.9579
10 0 6 -28.9308 0.8097
10 0 7 11.2167 -2.5604
10 0 8 -12.8658 0.4461
10 0 9 -9.8629 -2.3453
10 0 10 -4.3840 0.3213
10 0 11 -9.0493 -2.0687
10 0 12 -1.9914 0.3367
10 0 13 -6.2602 -1.7405
10 0 14 0.4564 0.2710
10 0 15 -3.2189 -1.6462
10 0 16 2.2971 0.2199
10 0 17 -3.5314 -1.6759
10 0 18 -2.5033 0.4740
10 0 19 5.3957 -1.6000
10 0 20 -5.6666 -0.2238
10 0 21 2.9868 -1.3102
10 0 22 -9.3695 0.5683
10 0 23 -3.0041 -1.3449
10 0 24 -1.1136 -0.2026
10 0 25 1.8510 -0.8302
10 0 26 -0.2597 0.6002
10 0 27 -8.1234 -1.0755
10 1 0 -32.2090 -0.6411
10 1 1 -4.9652 -0.4397
10 1 2 -16.7937 0.6508
10 1 3 3.7571 0.1817
10 1 4 1.6478 -0.3146
10 1 5 17.3867 0.2215
10 1 6 5.3864 -0.9277
10 1 7 2.0895 0.5677
10 1 8 3.2975 -1.0458
10 1 9 9.3731 0.0703
10 1 10 -11.4955 -0.5804
10 1 11 1.2874 0.1258
10 1 12 -7.9745 -0.1786
10 1 13 -1.9195 0.1089
10 1 14 -3.7232 -0.3351
10 1 15 -0.0830 0.2235
10 1 16 3.0435 -0.4322
10 1 17 -2.4779 0.3684
10 1 18 6.4317 -0.5411
10 1 19 2.4312 0.1299
10 1 20 -6.1610 -0.3466
10 1 21 1.3031 0.1728
10 1 22 5.4446 -0.1502
10 1 23 -0.2918 0.2898
10 1 24 -0.7877 -0.1348
10 1 25 -0.2461 0.2502
10 1 26 4.3797 -0.0896
10 1 27 5.1364 -0.0613
10 2 0 1.2358 -0.9856
10 2 1 -4.3131 -1.1510
10 2 2 0.1593 0.0625
10 2 3 -23.1578 -1.2959
10 2 4 5.2548 0.5722
10 2 5 -7.2818 -0.6546
10 2 6 -4.6176 0.3028
10 2 7 13.7338 -0.3181
10 2 8 -16.9732 0.1497
10 2 9 -7.0297 -0.4116
10 2 10 -6.8387 0.0429
10 2 11 -5.0553 -0.8355
10 2 12 1.7497 0.0829
10 2 13 -3.3474 -1.0380
10 2 14 -4.4425 -0.0865
10 2 15 -6.6359 -0.7602
10 2 16 5.6321 -0.0398
10 2 17 -3.5065 -0.5392
10 2 18 1.1053 -0.0204
10 2 19 3.2383 -0.3092
10 2 20 -6.9792 0.1163
10 2 21 1.1410 -0.4753
10 2 22 -2.8393 0.1652
10 2 23 -0.9848 -0.5267
10 2 24 -4.3604 0.2565
10 2 25 2.8049 -0.5430
10 2 26 -0.4273 -0.3723
10 2 27 -2.8674 -0.5534
10 3 0 23.3343 -2.5485
10 3 1 22.9018 0.3774
10 3 2 -9.7054 -0.3328
10 3 3 4.4250 1.3636
10 3 4 5.2528 0.4223
10 3 5 3.3767 1.1994
10 3 6 -2.0067 0.3964
10 3 7 -0.7975 0.4537
10 3 8 -3.9773 -0.1469
10 3 9 14.4341 0.4696
10 3 10 16.1566 -0.3703
10 3 11 7.9286 0.8112
10 3 12 5.3311 -0.2273
10 3 13 3.5521 0.8739
10 3 14 -3.8508 -0.0197
10 3 15 0.7870 0.7456
10 3 16 0.7069 0.0671
10 3 17 6.4764 0.4729
10 3 18 -1.4202 0.0161
10 3 19 2.0652 0.3124
10 3 20 2.9724 0.0048
10 3 21 0.5747 0.2808
10 3 22 -0.6434 -0.0130
10 3 23 -0.2868 0.5182
10 3 24 4.9626 0.0314
10 3 25 4.1204 0.5386
10 3 26 -3.9805 -0.2163
10 3 27 0.1875 0.3959
10 4 0 22.7661 -0.6292
10 4 1 7.0384 1.8128
10 4 2 7.3792 -0.2053
10 4 3 15.3724 0.0576
10 4 4 0.4326 -0.0828
10 4 5 5.0176 -0.4103
10 4 6 -3.9319 -0.2543
10 4 7 2.4579 -0.0665
10 4 8 4.4253 -0.5698
10 4 9 10.3953 0.1850
10 4 10 14.1883 -0.1719
10 4 11 -1.0350 0.1786
10 4 12 0.2602 -0.3565
10 4 13 -0.2344 0.1209
10 4 14 -2.8564 -0.1263
10 4 15 0.0911 -0.0004
10 4 16 5.9934 -0.3221
10 4 17 -0.0687 0.1177
10 4 18 -2.7790 -0.2335
10 4 19 -2.1555 0.0870
10 4 20 -3.5112 -0.2331
10 4 21 1.5245 0.1562
10 4 22 -3.1177 -0.2503
10 4 23 -0.5604 -0.0453
10 4 24 -2.0176 -0.0302
10 4 25 -0.7584 0.1586
10 4 26 2.4640 0.0629
10 4 27 -0.5679 0.2033
10 5 0 2.8743 1.1298
10 5 1 -0.5389 -1.9195
10 5 2 13.3035 -0.2969
10 5 3 6.1251 0.1244
10 5 4 7.6933 -0.9107
10 5 5 8.0564 1.1000
10 5 6 -4.7861 -0.5740
10 5 7 6.0762 0.5675
10 5 8 21.8677 -0.0581
10 5 9 0.4912 0.2732
10 5 10 -5.0080 -0.1849
10 5 11 -6.8088 0.2033
10 5 12 -1.9307 -0.2221
10 5 13 5.9868 0.1684
10 5 14 8.6743 -0.1129
10 5 15 1.1934 0.1653
10 5 16 0.5163 -0.0950
10 5 17 3.2016 0.2401
10 5 18 -1.5456 -0.1858
10 5 19 3.7585 0.4979
10 5 20 0.3832 -0.2290
10 5 21 0.5481 0.3911
10 5 22 0.8964 -0.1900
10 5 23 1.1935 0.3317
10 5 24 3.5020 -0.2710
10 5 25 2.3742 -0.3401
10 5 26 2.1511 0.4264
10 6 0 -23.8214 1.2190
10 6 1 -6.3720 0.9959
10 6 2 21.7865 0.3660
10 6 3 8.8177 -0.1234
10 6 4 12.2968 0.0497
10 6 5 7.8180 -0.5347
10 6 6 -2.4310 0.2398
10 6 7 10.6284 -0.6784
10 6 8 11.0731 0.4245
10 6 9 0.1464 -0.4055
10 6 10 5.2902 0.5168
10 6 11 2.5797 -0.2124
10 6 12 12.4611 -0.1265
10 6 13 0.0781 -0.1302
10 6 14 0.8994 0.1160
10 6 15 -1.0528 -0.1500
10 6 16 3.9002 0.0786
10 6 17 -4.6763 -0.1337
10 6 18 -0.0293 0.2222
10 6 19 7.8583 -0.2295
10 6 20 3.5743 0.1661
10 6 21 5.5837 -0.2674
10 6 22 2.5730 -0.1335
10 6 23 2.3391 -0.3808
10 6 24 -0.2251 -0.0765
10 6 25 -1.5591 0.0883
10 6 26 1.7174 0.2793
10 7 0 -0.1809 -0.3047
10 7 1 -5.6755 1.7692
10 7 2 0.7020 0.0387
10 7 3 -8.9691 0.2366
10 7 4 -3.8514 0.3032
10 7 5 -11.8689 -0.4407
10 7 6 5.2251 0.5386
10 7 7 -1.6967 0.1131
10 7 8 -5.2547 0.5603
10 7 9 0.2173 0.5644
10 7 10 -7.3434 0.2976
10 7 11 -2.6759 0.5080
10 7 12 -2.0710 0.0455
10 7 13 -1.9992 0.2627
10 7 14 -2.2304 0.0214
10 7 15 0.4043 0.1887
10 7 16 -3.7623 0.0771
10 7 17 -4.8136 0.1355
10 7 18 -4.1771 0.4120
10 7 19 1.3646 0.0208
10 7 20 -2.0794 0.3858
10 7 21 0.2630 0.0933
10 7 22 -1.4830 0.1016
10 7 23 -2.8508 0.0553
10 7 24 -3.0441 -0.1662
10 7 25 1.2082 0.3962
10 7 26 -0.9923 -0.1798
10 8 0 24.4556 0.6910
10 8 1 -6.1512 -1.0519
10 8 2 -11.6727 0.2039
10 8 3 -4.7521 -0.3866
10 8 4 -0.4749 0.1012
10 8 5 -2.0850 0.2667
10 8 6 -0.2231 0.1243
10 8 7 7.8514 0.1096
10 8 8 0.4964 0.2091
10 8 9 -1.9912 -0.3010
10 8 10 2.3973 0.2255
10 8 11 -2.8072 -0.1534
10 8 12 0.7610 0.2124
10 8 13 4.9888 -0.1535
10 8 14 1.9035 -0.0437
10 8 15 -3.1081 -0.1494
10 8 16 5.5633 0.0582
10 8 17 -3.2713 -0.2256
10 8 18 2.2321 0.0273
10 8 19 0.1852 0.0651
10 8 20 -1.3693 0.1750
10 8 21 -0.4750 0.1867
10 8 22 0.4184 0.1067
10 8 23 3.3514 0.1114
10 8 24 0.1238 0.0612
10 8 25 0.0237 -0.2656
10 8 26 1.2594 0.1163
10 9 0 -17.9670 1.2754
10 9 1 -1.9864 -2.0685
10 9 2 1.8422 0.5439
10 9 3 -9.2032 -0.0544
10 9 4 -6.0863 0.2632
10 9 5 1.4558 0.5803
10 9 6 -14.7841 -0.1727
10 9 7 -1.0113 0.2754
10 9 8 -4.7170 -0.2475
10 9 9 -4.9005 -0.3601
10 9 10 2.7199 0.4767
10 9 11 -0.7402 -0.6264
10 9 12 -3.0553 0.4169
10 9 13 -0.6678 -0.0863
10 9 14 -6.9251 0.3566
10 9 15 -1.2928 0.2726
10 9 16 -2.5719 0.0375
10 9 17 2.2143 0.0807
10 9 18 -2.7354 0.0614
10 9 19 1.2765 -0.1668
10 9 20 -0.1154 0.1511
10 9 21 -0.9068 -0.1792
10 9 22 -0.9063 0.2184
10 9 23 1.4184 -0.1773
10 9 24 -0.2505 0.4118
10 9 25 0.1719 -0.3721
10 10 0 -9.3728 1.2732
10 10 1 -7.8688 1.1831
10 10 2 -1.1905 -0.0542
10 10 3 -23.0556 0.2650
10 10 4 -8.6150 -0.4826
10 10 5 -4.5485 -0.2710
10 10 6 -3.8765 -0.4234
10 10 7 -1.7322 -0.0560
10 10 8 -7.5977 -0.0520
10 10 9 -9.5139 0.2933
10 10 10 3.4484 0.2486
10 10 11 -6.1866 0.2453
10 10 12 6.1403 -0.1533
10 10 13 -3.8398 -0.0748
10 10 14 -0.6299 -0.2575
10 10 15 0.1760 -0.1729
10 10 16 -1.6344 -0.4641
10 10 17 -2.4411 -0.2109
10 10 18 1.1447 -0.2690
10 10 19 -0.6467 -0.1857
10 10 20 -2.9633 0.0918
10 10 21 -0.1523 -0.0499
10 10 22 -4.9385 0.0961
10 10 23 -1.5663 -0.0521
10 10 24 -1.7252 0.2329
10 10 25 0.9177 0.2349
10 11 0 2.8921 -0.8494
10 11 1 -4.5199 5.2239
10 11 2 -7.9891 0.2021
10 11 3 -0.5291 -0.1519
10 11 4 -2.6040 0.4239
10 11 5 8.9189 -2.1640
10 11 6 -5.6957 0.3241
10 11 7 -2.0846 -0.8505
10 11 8 -4.6748 0.1729
10 11 9 1.5944 0.8547
10 11 10 -1.4787 0.0641
10 11 11 6.1859 0.7055
10 11 12 1.9578 -0.1752
10 11 13 -4.4047 -0.1406
10 11 14 -4.2782 0.0904
10 11 15 1.1675 -0.7430
10 11 16 5.0997 0.1831
10 11 17 -0.7925 -0.5055
10 11 18 4.8613 0.1328
10 11 19 -0.2107 0.1517
10 11 20 -1.0033 -0.1218
10 11 21 -0.4293 0.2688
10 11 22 -1.0434 -0.1252
10 11 23 3.6212 0.2273
10 11 24 -1.4356 -0.2171
10 11 25 -0.0414 0.6190
10 12 0 5.4478 -1.8797
10 12 1 -9.3289 0.8378
10 12 2 1.5528 -0.2536
10 12 3 4.9540 0.2220
10 12 4 4.9225 0.4403
10 12 5 -3.8647 -0.3339
10 12 6 2.2178 0.4120
10 12 7 -0.1928 0.1183
10 12 8 -9.1284 -0.0342
10 12 9 1.1648 0.2103
10 12 10 0.4601 -0.2078
10 12 11 -1.9939 0.0839
10 12 12 2.5206 0.0479
10 12 13 1.5399 -0.0689
10 12 14 -0.4658 0.3638
10 12 15 -6.1913 0.0887
10 12 16 7.1040 0.3973
10 12 17 -1.4527 0.2121
10 12 18 -0.6959 0.2319
10 12 19 1.7495 0.1537
10 12 20 -0.4891 0.3474
10 12 21 1.8003 0.0540
10 12 22 -0.4755 -0.0546
10 12 23 -0.4194 -0.1996
10 12 24 -0.7446 -0.4661
10 13 0 -0.3173 3.1900
10 13 1 -1.5405 -1.7794
10 13 2 15.2065 0.2295
10 13 3 -11.2495 0.2443
10 13 4 13.8137 -1.1286
10 13 5 -0.0433 0.9584
10 13 6 -0.1908 -0.8682
10 13 7 3.6924 0.6075
10 13 8 6.0484 0.1055
10 13 9 -1.9087 -0.1145
10 13 10 -1.0583 0.4347
10 13 11 -1.8694 -0.1359
10 13 12 -0.7049 0.2019
10 13 13 4.2723 0.3362
10 13 14 3.2359 -0.3366
10 13 15 -1.4012 0.5340
10 13 16 2.7420 -0.4141
10 13 17 -3.1340 0.4862
10 13 18 1.9409 -0.1546
10 13 19 1.9012 0.1365
10 13 20 -4.2255 0.1964
10 13 21 -2.1265 0.0425
10 13 22 0.0346 0.3673
10 13 23 -0.1796 -0.3648
10 13 24 -2.2377 0.5414
10 14 0 -3.4749 -0.7943
10 14 1 -0.3022 -2.4947
10 14 2 -0.3814 0.0224
10 14 3 -0.1039 0.0415
10 14 4 -7.0003 0.3821
10 14 5 1.9170 0.8330
10 14 6 0.4322 0.3152
10 14 7 3.3251 0.3744
10 14 8 -5.3151 -0.0917
10 14 9 1.7203 -0.3764
10 14 10 0.2827 -0.2689
10 14 11 -2.8439 -0.3907
10 14 12 4.4197 -0.1179
10 14 13 -5.5575 0.1158
10 14 14 -3.7633 0.0921
10 14 15 0.4417 0.4227
10 14 16 -0.0084 0.2098
10 14 17 -2.7203 0.1959
10 14 18 1.4093 -0.1519
10 14 19 -2.0738 -0.2071
10 14 20 -0.4401 -0.2174
10 14 21 1.8481 -0.2321
10 14 22 -1.7873 -0.4741
10 14 23 -1.1598 -0.2079
10 15 0 14.4413 -2.4788
10 15 1 7.6732 -0.8576
10 15 2 4.6657 -0.2796
10 15 3 -2.7826 -0.0437
10 15 4 0.4770 0.4160
10 15 5 0.7974 0.3319
10 15 6 -2.8673 0.5120
10 15 7 -4.6221 0.2218
10 15 8 4.5849 0.2379
10 15 9 0.3975 -0.0864
10 15 10 0.7307 -0.3141
10 15 11 -0.1320 0.1770
10 15 12 -2.5647 -0.3467
10 15 13 4.5688 0.3242
10 15 14 -3.3079 0.0870
10 15 15 3.2313 0.2942
10 15 16 0.2256 0.3741
10 15 17 -3.9768 0.1108
10 15 18 1.9137 0.2300
10 15 19 1.3391 0.0621
10 15 20 -0.8820 -0.0118
10 15 21 1.4812 0.0179
10 15 22 0.4796 -0.6772
10 16 0 -1.8173 2.0425
10 16 1 -1.5487 -0.0681
10 16 2 -0.4927 0.2287
10 16 3 -6.1178 0.0041
10 16 4 2.1640 -0.4739
10 16 5 -3.1270 0.0280
10 16 6 -4.7130 -0.0890
10 16 7 -1.3445 -0.1796
10 16 8 -9.1866 0.2784
10 16 9 -2.9145 -0.1206
10 16 10 -4.8817 0.4714
10 16 11 -2.3930 -0.1299
10 16 12 -2.2498 0.2851
10 16 13 2.1031 -0.0366
10 16 14 0.1146 0.1590
10 16 15 -6.2028 -0.0043
10 16 16 3.4128 -0.0114
10 16 17 -0.5664 -0.2137
10 16 18 -3.8454 -0.0213
10 16 19 0.6272 -0.2411
10 16 20 0.0264 0.3840
10 16 21 5.3375 -0.1433
10 16 22 1.4863 0.4908
10 17 0 3.3299 0.0140
10 17 1 0.5283 -0.0686
10 17 2 1.8447 -0.2691
10 17 3 -7.9370 -0.1220
10 17 4 3.6416 -0.1353
10 17 5 -2.1902 -0.3133
10 17 6 5.9103 -0.1068
10 17 7 6.4362 -0.4532
10 17 8 -5.1881 -0.2797
10 17 9 5.5042 -0.2481
10 17 10 0.3097 -0.2036
10 17 11 -0.9923 -0.1908
10 17 12 -1.3853 -0.1533
10 17 13 2.1605 -0.4515
10 17 14 -0.8961 -0.2041
10 17 15 5.6889 -0.1940
10 17 16 1.9790 -0.2626
10 17 17 1.8796 -0.0148
10 17 18 -4.2353 -0.1522
10 17 19 -0.3007 -0.0399
10 17 20 5.0789 -0.1042
10 17 21 -1.2580 -0.1333
10 18 0 4.6073 0.0556
10 18 1 -8.8894 -0.1977
10 18 2 7.6583 0.0648
10 18 3 5.5507 0.0847
10 18 4 -5.8731 0.1926
10 18 5 -11.6733 0.0733
10 18 6 5.4355 0.2158
10 18 7 9.0201 0.0319
10 18 8 -4.5075 0.1591
10 18 9 7.9453 0.0803
10 18 10 -4.7991 0.1937
10 18 11 0.8894 0.1685
10 18 12 0.4347 0.0727
10 18 13 -1.2808 0.1428
10 18 14 -1.5165 0.0032
10 18 15 0.4290 0.3070
10 18 16 -0.7248 0.2089
10 18 17 -1.7179 0.1638
10 18 18 1.6198 -0.0559
10 18 19 0.3566 0.0637
10 18 20 -1.4411 0.2018
10 19 0 10.6383 -0.8935
10 19 1 -10.0421 -0.0946
10 19 2 5.2017 -0.1209
10 19 3 -4.1858 -0.0611
10 19 4 -0.6854 0.3365
10 19 5 0.6949 0.1336
10 19 6 0.8367 0.3331
10 19 7 -4.3521 0.1771
10 19 8 -3.8786 -0.0551
10 19 9 1.3051 0.0662
10 19 10 -3.8657 0.0175
10 19 11 -0.6046 -0.2464
10 19 12 0.8566 0.3442
10 19 13 1.3912 -0.1505
10 19 14 1.6666 0.4382
10 19 15 -6.2331 0.1977
10 19 16 2.5047 0.1015
10 19 17 -0.6101 0.2644
10 19 18 -1.0849 -0.0457
10 19 19 -0.2500 -0.0278
10 20 0 16.8638 -1.4228
10 20 1 2.9554 0.2459
10 20 2 9.0890 -0.1714
10 20 3 -7.3274 -0.0037
10 20 4 4.9993 0.4641
10 20 5 -0.2416 0.1714
10 20 6 -2.9101 0.0224
10 20 7 5.2603 0.2552
10 20 8 -0.5361 -0.3528
10 20 9 -2.3810 0.2295
10 20 10 0.9793 -0.3160
10 20 11 5.1218 -0.0292
10 20 12 4.2554 -0.0577
10 20 13 6.5691 0.0282
10 20 14 -0.0622 -0.2380
10 20 15 -5.6538 -0.0973
10 20 16 2.1995 -0.1353
10 20 17 -2.4189 0.4118
10 20 18 2.7707 -0.2738
10 21 0 -4.0277 -1.3614
10 21 1 -6.6310 -1.3109
10 21 2 7.0184 -0.1840
10 21 3 -12.0586 0.0400
10 21 4 0.9459 0.3684
10 21 5 -1.7803 0.3420
10 21 6 2.1548 -0.0141
10 21 7 -2.0437 0.0445
10 21 8 -6.6139 -0.2567
10 21 9 -0.5485 -0.1017
10 21 10 -1.8162 -0.0776
10 21 11 -3.3299 -0.1906
10 21 12 5.6625 -0.2053
10 21 13 -5.1280 -0.2714
10 21 14 -0.7151 -0.0436
10 21 15 -4.8083 0.0334
10 21 16 2.0977 -0.3006
10 21 17 -1.5326 -0.5356
10 22 0 0.0444 1.3716
10 22 1 0.9381 1.9826
10 22 2 0.1072 0.0423
10 22 3 2.6575 -0.0890
10 22 4 7.1057 -0.3732
10 22 5 0.0393 -0.5535
10 22 6 1.1450 -0.4060
10 22 7 4.1052 -0.2765
10 22 8 0.5376 -0.1679
10 22 9 2.9943 0.2507
10 22 10 -0.9947 0.0245
10 22 11 0.2685 0.3203
10 22 12 -3.5076 0.3878
10 22 13 -3.7641 0.2984
10 22 14 1.8298 -0.0799
10 22 15 -0.2356 0.3442
10 22 16 1.3376 0.2038
10 23 0 3.3538 2.6025
10 23 1 -7.8701 0.1172
10 23 2 4.7531 -0.0750
10 23 3 2.4092 0.0682
10 23 4 -3.2511 -0.9906
10 23 5 -8.4298 0.2477
10 23 6 -0.8053 -0.6123
10 23 7 2.5290 0.4211
10 23 8 -1.9199 0.2189
10 23 9 1.1185 0.0824
10 23 10 -2.4514 0.3790
10 23 11 -0.2509 0.1325
10 23 12 3.8461 0.5909
10 23 13 -3.2572 0.0070
10 23 14 -0.5207 0.8435
10 24 0 1.3560 0.5794
10 24 1 -9.4263 -0.9281
10 24 2 -1.1065 0.0610
10 24 3 -4.8546 0.0973
10 24 4 4.0450 -0.0010
10 24 5 -4.0144 0.4883
10 24 6 1.1147 0.0391
10 24 7 -3.0993 0.1552
10 24 8 0.7615 0.1678
10 24 9 3.1223 -0.4997
10 24 10 -0.5526 0.1654
10 24 11 -4.0592 -0.8906
10 24 12 -1.8954 0.3253
10 25 0 3.8111 -0.6350
10 25 1 0.0201 2.2391
10 25 2 3.0335 -0.0361
10 25 3 -3.0374 0.3100
10 25 4 3.1094 0.1312
10 25 5 2.4514 -0.2968
10 25 6 1.6704 -0.1774
10 25 7 -0.5246 -0.1330
10 25 8 -3.7470 -0.3340
10 25 9 0.8665 0.6024
10 25 10 3.3560 -0.3849
10 26 0 -1.1816 -1.0175
10 26 1 -2.3423 -0.6006
10 26 2 2.7426 -0.3840
10 26 3 -9.4048 -0.4295
10 26 4 7.5468 0.2269
10 26 5 -2.4218 -0.1164
10 26 6 1.0367 0.1310
10 26 7 0.5852 -0.4550
10 27 0 3.2537 -0.4173
10 27 1 -2.0636 -0.9495
10 27 2 -0.3528 -0.0462
11 1 0 11.9809 -0.4972
11 1 1 -5.9324 -1.0521
11 1 2 1.1765 -0.5558
11 1 3 -1.0415 -0.5694
11 1 4 2.3296 -1.0075
11 1 5 -2.2030 0.2696
11 1 6 1.4111 -0.6411
11 1 7 0.8442 -0.6804
11 1 8 -10.6557 -0.6547
11 1 9 -1.3103 -0.6385
11 1 10 -8.4994 -0.8017
11 1 11 -0.3728 -0.7120
11 1 12 -8.1038 -1.1063
11 1 13 4.0653 -0.4588
11 1 14 -1.0069 -0.8106
11 1 15 -6.1493 -0.2920
11 1 16 -3.2458 -0.9126
11 1 17 -8.6265 -0.5765
11 1 18 1.3468 -0.4873
11 1 19 -4.8048 -0.3915
11 1 20 0.6145 -0.5398
11 1 21 4.2054 -0.7066
11 1 22 0.8656 -0.3718
11 1 23 -1.1786 -0.2906
11 1 24 1.8968 -0.3032
11 1 25 -1.9306 -0.1771
11 1 26 -0.0953 -0.7565
11 2 0 -0.6197 -0.8331
11 2 1 -5.6102 1.5972
11 2 2 0.8854 -0.3595
11 2 3 0.1008 -0.2390
11 2 4 -13.4954 -0.1830
11 2 5 2.7308 -0.2683
11 2 6 -0.3511 -0.1887
11 2 7 -10.1835 -0.0346
11 2 8 -17.8836 -0.7122
11 2 9 -5.1975 0.2787
11 2 10 1.1583 -0.5291
11 2 11 1.2974 0.0689
11 2 12 1.2142 -0.2477
11 2 13 1.5271 -0.1722
11 2 14 -0.6095 -0.1217
11 2 15 0.5995 -0.1039
11 2 16 6.5977 -0.2940
11 2 17 4.1228 0.1089
11 2 18 1.1617 -0.2249
11 2 19 -4.3835 0.0866
11 2 20 -1.8327 -0.3313
11 2 21 -0.6184 0.0175
11 2 22 4.4650 -0.2447
11 2 23 3.4428 -0.0518
11 2 24 -0.3721 -0.1517
11 2 25 1.9958 0.2306
11 2 26 2.0085 -0.3555
11 3 0 -15.9102 0.0013
11 3 1 -8.9222 -0.0490
11 3 2 -5.5942 -0.3484
11 3 3 -3.7722 -0.0815
11 3 4 -7.7303 -0.1652
11 3 5 -4.6371 -0.2093
11 3 6 -23.7660 0.0837
11 3 7 11.2953 0.2561
11 3 8 -1.6136 -0.0925
11 3 9 6.0632 0.2175
11 3 10 13.0645 -0.1077
11 3 11 -2.8916 0.0913
11 3 12 0.7284 -0.2168
11 3 13 5.5742 -0.1520
11 3 14 3.6767 -0.1850
11 3 15 -9.3321 -0.1929
11 3 16 4.9301 -0.2179
11 3 17 -3.2154 0.1396
11 3 18 -2.6681 -0.1822
11 3 19 3.9856 0.2915
11 3 20 0.1070 -0.1778
11 3 21 3.4062 0.3423
11 3 22 -3.8580 -0.1437
11 3 23 0.2933 -0.3308
11 3 24 3.9898 0.0995
11 3 25 0.7915 -0.3778
11 3 26 0.0692 -0.0327
11 4 0 -18.4012 -1.1721
11 4 1 -3.5659 -1.4353
11 4 2 -1.6452 -0.2587
11 4 3 -1.3932 0.7129
11 4 4 10.2020 -0.0353
11 4 5 -4.2768 0.9522
11 4 6 -9.7423 -0.1647
11 4 7 6.6999 -0.0619
11 4 8 1.3169 -0.1301
11 4 9 -1.5975 -0.4584
11 4 10 -4.6982 -0.3875
11 4 11 -2.7771 0.1395
11 4 12 -2.8549 -0.2073
11 4 13 -0.1704 0.4565
11 4 14 1.5400 -0.0787
11 4 15 -3.1579 0.3761
11 4 16 2.2736 0.1191
11 4 17 0.9415 -0.0655
11 4 18 -4.4917 -0.1064
11 4 19 0.2758 -0.1249
11 4 20 -2.2749 -0.1695
11 4 21 7.8337 -0.0427
11 4 22 -2.3456 -0.1876
11 4 23 -1.9553 0.2254
11 4 24 -3.7159 -0.1082
11 4 25 -2.7988 -0.2088
11 4 26 -1.5808 0.1905
11 5 0 4.3622 -0.2699
11 5 1 7.2315 2.9328
11 5 2 5.7697 0.1612
11 5 3 13.2503 -0.0411
11 5 4 16.8589 -0.0336
11 5 5 3.3655 -1.1383
11 5 6 -0.0519 0.0414
11 5 7 12.3576 -0.3734
11 5 8 3.2839 0.1774
11 5 9 3.9844 0.3583
11 5 10 -5.1474 0.3045
11 5 11 1.4765 0.2596
11 5 12 -0.8010 -0.1387
11 5 13 0.5095 0.0326
11 5 14 6.6389 -0.0046
11 5 15 0.0451 -0.0909
11 5 16 12.9613 -0.0522
11 5 17 0.0173 0.0623
11 5 18 5.3048 0.1136
11 5 19 0.7896 -0.0556
11 5 20 -2.4129 0.1060
11 5 21 2.1923 0.0659
11 5 22 -2.1849 -0.2468
11 5 23 2.6668 -0.0277
11 5 24 -3.1586 -0.2654
11 5 25 1.0243 0.2706
11 5 26 1.5840 0.3739
11 6 0 1.7649 0.5287
11 6 1 17.4203 -0.7577
11 6 2 1.9247 -0.2633
11 6 3 -3.1724 -0.1409
11 6 4 -2.4128 -0.6699
11 6 5 -1.2458 0.2427
11 6 6 -3.8381 -0.0970
11 6 7 3.3470 0.4549
11 6 8 -0.3899 0.0073
11 6 9 4.0243 0.5628
11 6 10 -4.6665 -0.0542
11 6 11 -2.7880 0.2838
11 6 12 1.9273 -0.3963
11 6 13 4.0887 0.0506
11 6 14 4.6721 -0.0293
11 6 15 -2.8553 0.0409
11 6 16 -1.0929 -0.2483
11 6 17 1.2229 0.1643
11 6 18 -1.4993 -0.0804
11 6 19 3.1547 0.3699
11 6 20 0.1900 -0.2004
11 6 21 -0.9803 0.4237
11 6 22 -1.7440 -0.1990
11 6 23 -0.7142 0.2062
11 6 24 -2.8805 -0.2661
11 6 25 -2.5134 0.0010
11 6 26 -0.7011 0.2347
11 7 0 -2.0928 1.1869
11 7 1 19.4237 -1.1208
11 7 2 13.8296 0.4482
11 7 3 5.9551 -0.1706
11 7 4 13.0460 0.1959
11 7 5 0.2131 0.0510
11 7 6 0.6788 0.3032
11 7 7 14.9011 -0.4724
11 7 8 -0.4484 0.2912
11 7 9 3.5658 -0.9496
11 7 10 9.5755 0.5520
11 7 11 1.0987 -0.7139
11 7 12 10.2567 0.4661
11 7 13 4.9946 -0.3600
11 7 14 -3.4348 0.2106
11 7 15 -2.5299 -0.1619
11 7 16 6.2173 0.1942
11 7 17 3.6215 -0.3316
11 7 18 -0.4437 0.2302
11 7 19 3.5118 -0.3615
11 7 20 -1.6563 0.2416
11 7 21 2.6358 -0.3768
11 7 22 4.8414 0.1746
11 7 23 1.8220 -0.4342
11 7 24 -3.0744 0.2993
11 7 25 1.8320 -0.4649
11 8 0 18.1613 0.8398
11 8 1 -7.1368 0.8043
11 8 2 7.1900 0.2048
11 8 3 -10.8802 0.0135
11 8 4 11.2064 -0.0770
11 8 5 6.6854 -0.1652
11 8 6 9.2354 -0.0314
11 8 7 5.6333 -0.1207
11 8 8 0.5154 0.1268
11 8 9 -3.1305 0.1903
11 8 10 11.3741 0.4058
11 8 11 -1.7227 0.0343
11 8 12 2.3686 0.3636
11 8 13 1.4784 0.0673
11 8 14 -2.7001 0.1627
11 8 15 -1.5688 0.0876
11 8 16 2.1859 -0.0428
11 8 17 -1.7712 -0.1068
11 8 18 0.3805 0.1732
11 8 19 1.1793 -0.0561
11 8 20 1.0428 0.3198
11 8 21 3.5315 -0.0869
11 8 22 -0.9685 0.3451
11 8 23 0.1914 -0.0168
11 8 24 0.2920 0.2667
11 8 25 -1.4845 0.2198
11 9 0 1.2184 0.9020
11 9 1 -1.5586 1.4790
11 9 2 -4.2371 0.3039
11 9 3 -6.4290 0.1867
11 9 4 1.9444 0.2951
11 9 5 6.8830 -0.0898
11 9 6 2.1921 0.2628
11 9 7 2.8680 0.3304
11 9 8 -5.9980 0.3892
11 9 9 5.9621 0.5153
11 9 10 -1.2850 0.3809
11 9 11 1.6994 0.6097
11 9 12 -0.6397 0.2074
11 9 13 0.9005 0.2646
11 9 14 1.7458 0.1227
11 9 15 -4.4768 -0.0148
11 9 16 -0.1780 0.2113
11 9 17 -2.5988 -0.0784
11 9 18 -2.1344 0.0536
11 9 19 1.8031 0.1055
11 9 20 -4.0891 0.2215
11 9 21 -1.1263 0.2854
11 9 22 -1.1234 0.1121
11 9 23 4.2524 0.2465
11 9 24 -1.1942 0.2008
11 9 25 0.8935 0.1690
11 10 0 -7.9506 -1.0940
11 10 1 5.5525 0.6577
11 10 2 8.2009 0.0131
11 10 3 -2.0308 -0.1208
11 10 4 3.2923 0.4944
11 10 5 5.5832 -0.3709
11 10 6 -0.2766 0.0957
11 10 7 -6.5776 -0.3588
11 10 8 -11.1972 -0.2879
11 10 9 10.2336 -0.0273
11 10 10 1.6636 -0.2462
11 10 11 2.1017 -0.2297
11 10 12 -0.1164 -0.0155
11 10 13 -2.5433 -0.2946
11 10 14 7.6812 0.1680
11 10 15 -1.7124 -0.1448
11 10 16 -0.1311 0.1774
11 10 17 -2.3552 -0.1125
11 10 18 1.2792 -0.1069
11 10 19 -2.0350 -0.0314
11 10 20 -2.3196 0.0233
11 10 21 2.6910 -0.3275
11 10 22 0.1832 0.1031
11 10 23 -0.6438 -0.2219
11 10 24 2.6953 -0.2262
11 11 0 3.1920 0.8002
11 11 1 -10.8791 1.3613
11 11 2 -7.2183 -0.0551
11 11 3 -9.9680 -0.1150
11 11 4 -1.2618 -0.3580
11 11 5 -12.3546 -0.6210
11 11 6 -5.6996 -0.3698
11 11 7 1.1947 -0.2870
11 11 8 -9.8741 -0.1524
11 11 9 3.7390 0.3186
11 11 10 -5.2056 -0.0529
11 11 11 -10.3441 0.3528
11 11 12 -11.2645 -0.1859
11 11 13 0.5920 -0.0925
11 11 14 -0.7582 -0.2936
11 11 15 -2.9682 -0.1603
11 11 16 1.5361 -0.3898
11 11 17 -0.5680 -0.0014
11 11 18 0.7088 -0.2979
11 11 19 0.3086 0.2588
11 11 20 0.9692 0.1193
11 11 21 -4.4563 -0.1082
11 11 22 0.6406 0.0578
11 11 23 4.0677 0.1497
11 11 24 0.1790 0.1637
11 12 0 -1.7703 -0.2636
11 12 1 -0.0947 1.6575
11 12 2 -7.8242 0.0246
11 12 3 -6.9106 -0.0845
11 12 4 3.2671 0.0398
11 12 5 5.6974 -0.6160
11 12 6 -0.0711 0.0811
11 12 7 1.2494 -0.1556
11 12 8 0.7405 0.1868
11 12 9 -2.2765 0.3249
11 12 10 1.4866 0.1412
11 12 11 -1.4114 0.2431
11 12 12 1.0254 -0.2358
11 12 13 -1.7400 0.1447
11 12 14 -3.5938 -0.0321
11 12 15 -3.7208 -0.0249
11 12 16 5.2692 0.1794
11 12 17 2.1196 -0.0368
11 12 18 1.6432 0.4150
11 12 19 -0.3018 0.1186
11 12 20 -0.1121 0.1409
11 12 21 1.1190 0.2071
11 12 22 -0.4601 -0.5546
11 12 23 0.1145 -0.1171
11 13 0 -2.4676 -1.9996
11 13 1 1.1501 -2.9839
11 13 2 2.2724 -0.2312
11 13 3 -3.0069 -0.0022
11 13 4 -1.9142 0.5365
11 13 5 0.3631 1.1446
11 13 6 -3.0991 0.4521
11 13 7 0.4801 0.5563
11 13 8 -4.1936 -0.0872
11 13 9 3.6189 -0.3265
11 13 10 5.2623 -0.5210
11 13 11 -2.3421 -0.5342
11 13 12 -0.8996 -0.2346
11 13 13 5.7823 -0.0196
11 13 14 2.9492 0.1138
11 13 15 -4.8190 0.6197
11 13 16 -0.0831 0.2031
11 13 17 -1.4233 0.2898
11 13 18 1.6003 0.0765
11 13 19 3.5384 -0.0972
11 13 20 -0.4314 -0.2888
11 13 21 2.8548 -0.4327
11 13 22 0.4985 -0.8099
11 13 23 0.2397 -0.4121
11 14 0 -13.3169 2.4649
11 14 1 4.4548 -2.5339
11 14 2 5.9953 0.2292
11 14 3 0.7118 -0.1650
11 14 4 -4.3611 -0.8192
11 14 5 -0.2719 0.8652
11 14 6 -1.9748 -0.6213
11 14 7 7.0080 0.4598
11 14 8 -5.7399 0.0580
11 14 9 5.5904 -0.4292
11 14 10 3.0718 0.3220
11 14 11 -1.3179 -0.3143
11 14 12 6.1939 -0.0059
11 14 13 4.1811 0.1329
11 14 14 2.5223 -0.3903
11 14 15 -6.1460 0.3677
11 14 16 0.9163 -0.4415
11 14 17 0.4359 0.2554
11 14 18 2.2824 -0.4002
11 14 19 0.0732 0.0082
11 14 20 -0.1635 0.0674
11 14 21 0.6342 -0.2216
11 14 22 -0.0663 0.4978
11 15 0 10.1436 -0.8688
11 15 1 -2.8098 -0.2519
11 15 2 0.2074 -0.2556
11 15 3 -1.8589 0.0660
11 15 4 3.7386 -0.0621
11 15 5 -3.9223 0.1339
11 15 6 7.7799 0.3061
11 15 7 -0.9644 -0.0090
11 15 8 -4.6213 0.0897
11 15 9 6.0442 -0.1209
11 15 10 0.5441 -0.2243
11 15 11 -6.7056 -0.0633
11 15 12 -1.1173 -0.0585
11 15 13 -0.7766 -0.0836
11 15 14 3.9674 0.1113
11 15 15 1.7451 -0.0642
11 15 16 3.1027 0.3773
11 15 17 -2.1576 -0.0935
11 15 18 -1.4401 0.4164
11 15 19 -2.5053 -0.1169
11 15 20 1.6640 0.0368
11 15 21 -0.3482 -0.1024
11 15 22 -3.8083 -0.0899
11 16 0 3.1085 -2.2193
11 16 1 -2.2342 1.3746
11 16 2 5.9787 -0.3860
11 16 3 2.9818 0.0081
11 16 4 5.4663 0.2493
11 16 5 0.3436 -0.3569
11 16 6 1.3246 0.3127
11 16 7 1.9840 -0.2380
11 16 8 0.3475 -0.0499
11 16 9 8.5731 0.1333
11 16 10 -7.3377 -0.3788
11 16 11 0.9899 0.2628
11 16 12 0.3437 -0.2975
11 16 13 1.4453 0.0208
11 16 14 4.8906 0.0569
11 16 15 -6.4911 -0.1915
11 16 16 3.0030 0.2141
11 16 17 -1.1546 -0.0145
11 16 18 2.9568 0.2973
11 16 19 0.7755 -0.0314
11 16 20 -4.2848 -0.5221
11 16 21 2.4851 0.4264
11 17 0 11.0746 2.1080
11 17 1 -2.0222 -0.6362
11 17 2 0.4738 0.0494
11 17 3 -1.3237 0.0023
11 17 4 6.8067 -0.6647
11 17 5 1.6300 0.1280
11 17 6 -2.5592 -0.4243
11 17 7 -7.0879 -0.1897
11 17 8 0.2249 -0.1666
11 17 9 -0.2406 -0.3221
11 17 10 -1.5123 0.2086
11 17 11 4.4961 -0.2661
11 17 12 2.3889 0.1565
11 17 13 -0.1445 -0.2736
11 17 14 2.0833 -0.1490
11 17 15 -6.8435 -0.0991
11 17 16 1.3461 -0.4485
11 17 17 -1.9771 -0.3253
11 17 18 -0.2814 -0.4267
11 17 19 0.2848 -0.1116
11 17 20 0.6005 0.4193
11 18 0 -1.6713 0.6525
11 18 1 -0.1738 -1.1282
11 18 2 0.0273 0.2986
11 18 3 -4.9665 0.0276
11 18 4 2.5818 0.2054
11 18 5 -1.3104 0.4666
11 18 6 -3.1041 0.1594
11 18 7 2.3767 0.1458
11 18 8 -4.4758 -0.2493
11 18 9 -3.4623 -0.0745
11 18 10 -3.1016 0.0230
11 18 11 -4.2907 -0.2796
11 18 12 -3.6367 0.2505
11 18 13 -3.4680 -0.1904
11 18 14 -0.5137 0.1544
11 18 15 1.3608 0.2279
11 18 16 -1.2247 -0.3799
11 18 17 -3.2181 0.3532
11 18 18 3.0751 -0.2386
11 18 19 -2.3398 -0.4058
11 19 0 0.0014 -2.3346
11 19 1 -1.4408 0.2673
11 19 2 3.5646 -0.0625
11 19 3 9.6111 0.0406
11 19 4 6.1389 0.8557
11 19 5 -5.1559 0.0958
11 19 6 5.3477 0.7067
11 19 7 3.6152 0.3795
11 19 8 1.1181 0.2638
11 19 9 2.6394 0.2886
11 19 10 4.5294 0.0967
11 19 11 1.9652 0.3298
11 19 12 1.5976 0.1550
11 19 13 -1.0587 0.4162
11 19 14 -0.8538 0.2929
11 19 15 -0.3434 0.4674
11 19 16 2.2855 0.4845
11 19 17 1.2828 0.1079
11 19 18 1.9151 -0.0552
11 20 0 -9.4840 -1.5055
11 20 1 -5.7703 1.3061
11 20 2 -7.0573 -0.1927
11 20 3 -8.5760 -0.0433
11 20 4 -2.2849 0.3063
11 20 5 -4.5300 -0.5232
11 20 6 -4.4673 0.2967
11 20 7 -1.8502 -0.3299
11 20 8 -1.8052 -0.0789
11 20 9 0.4013 -0.0184
11 20 10 -0.6018 -0.0521
11 20 11 -1.2566 -0.0424
11 20 12 -0.2488 -0.1493
11 20 13 -4.6294 -0.0977
11 20 14 2.4131 0.0269
11 20 15 -1.6543 -0.0470
11 20 16 2.9465 -0.3309
11 20 17 -3.0170 0.4144
11 21 0 3.1314 1.4594
11 21 1 -1.2403 0.9751
11 21 2 1.2665 0.2544
11 21 3 0.0205 0.1078
11 21 4 1.5036 -0.0743
11 21 5 0.9920 -0.0592
11 21 6 4.5117 -0.4128
11 21 7 4.2214 -0.1399
11 21 8 -1.7719 -0.2221
11 21 9 1.5720 0.0024
11 21 10 -2.8088 0.0938
11 21 11 -0.1927 0.0908
11 21 12 2.0350 0.0525
11 21 13 -4.9419 0.1310
11 21 14 1.2378 0.0983
11 21 15 1.5963 0.3253
11 21 16 -3.1866 -0.1403
11 22 0 2.5073 2.1935
11 22 1 -1.0681 -1.9475
11 22 2 3.9425 0.1227
11 22 3 1.5485 0.2653
11 22 4 3.4284 -0.5850
11 22 5 1.2871 1.0286
11 22 6 -0.9425 -0.6246
11 22 7 -3.0286 0.5501
11 22 8 -3.5575 -0.1367
11 22 9 5.5949 -0.1064
11 22 10 -1.8194 0.3867
11 22 11 1.0547 -0.4231
11 22 12 0.3300 0.3545
11 22 13 -2.5387 -0.1719
11 22 14 1.7752 0.4588
11 23 0 0.6892 1.7833
11 23 1 -8.5308 1.6734
11 23 2 1.2698 -0.0790
11 23 3 -4.9984 -0.0989
11 23 4 -1.3805 -0.4811
11 23 5 -2.7626 -0.1893
11 23 6 -3.1919 -0.2457
11 23 7 -2.0259 0.2451
11 23 8 -6.0140 0.2220
11 23 9 4.4032 0.7591
11 23 10 0.7654 0.3989
11 23 11 0.0738 0.4577
11 23 12 -1.7596 0.6430
11 23 13 0.2172 0.5261
11 24 0 0.5263 -0.4593
11 24 1 1.3086 1.3330
11 24 2 4.8089 -0.2213
11 24 3 -1.1639 0.3317
11 24 4 -0.1353 0.1277
11 24 5 3.6371 -0.2093
11 24 6 0.5960 0.0963
11 24 7 4.3545 -0.0648
11 24 8 -3.2293 0.0911
11 24 9 3.6613 0.1512
11 24 10 -0.1766 -0.0421
11 24 11 -0.6398 0.5052
11 25 0 3.7983 -1.4285
11 25 1 -0.0983 -1.6898
11 25 2 0.3018 -0.0920
11 25 3 1.2558 -0.3934
11 25 4 -2.8542 0.1601
11 25 5 -3.3208 0.1926
11 25 6 -6.4166 -0.1664
11 25 7 -1.2811 -0.4278
11 25 8 -3.5681 -0.6848
11 26 0 2.5435 -0.3338
11 26 1 -4.9007 0.4591
11 26 2 -2.4029 0.0351
11 26 3 3.0082 0.2529
11 26 4 0.5377 0.0924
11 26 5 -1.1257 -0.0660
12 0 0 18.2484 -1.2657
12 0 1 -5.0655 0.4769
12 0 2 9.8149 -0.9090
12 0 3 -19.6418 0.8774
12 0 4 -1.8199 -1.0990
12 0 5 -2.9815 0.4821
12 0 6 -1.6243 -1.7363
12 0 7 0.1983 0.9394
12 0 8 2.8415 -1.2705
12 0 9 -10.4365 0.3600
12 0 10 5.5756 -1.4654
12 0 11 -6.9386 0.7341
12 0 12 18.3107 -1.2629
12 0 13 -5.7129 0.4841
12 0 14 -9.1543 -1.2212
12 0 15 -1.6835 0.4114
12 0 16 11.3031 -0.9712
12 0 17 -1.5020 0.7123
12 0 18 1.0907 -1.3552
12 0 19 6.0021 0.3171
12 0 20 -4.4373 -0.7594
12 0 21 -1.4192 0.5129
12 0 22 1.8848 -1.1565
12 0 23 0.4710 0.3185
12 0 24 -5.1248 -0.3610
12 0 25 -1.5043 0.2271
12 0 26 3.2594 -0.8751
12 1 0 -18.0849 1.7688
12 1 1 -2.9482 0.0383
12 1 2 -4.4757 0.2402
12 1 3 3.6365 -0.1328
12 1 4 2.6775 0.4634
12 1 5 -4.8361 0.7499
12 1 6 -12.6465 0.9213
12 1 7 3.9137 0.6541
12 1 8 -1.0473 0.8410
12 1 9 5.0271 0.7181
12 1 10 9.0973 0.9868
12 1 11 -3.0527 0.2137
12 1 12 -1.5633 0.7294
12 1 13 -2.8325 0.2163
12 1 14 -2.9371 0.7966
12 1 15 1.7800 0.3430
12 1 16 -2.6328 0.4098
12 1 17 -0.2297 0.4123
12 1 18 -2.0476 0.6576
12 1 19 -2.1777 0.4821
12 1 20 1.5267 0.7255
12 1 21 -1.7826 0.1648
12 1 22 -1.6634 0.7279
12 1 23 -2.2376 -0.1036
12 1 24 1.2851 0.5289
12 1 25 -3.8464 -0.0299
12 1 26 -2.1443 0.2690
12 2 0 -4.5026 -0.8751
12 2 1 -3.8379 -1.5715
12 2 2 -5.1748 -0.4601
12 2 3 -2.2638 0.3465
12 2 4 13.6622 -0.6312
12 2 5 2.5211 0.6474
12 2 6 -7.6929 -0.3839
12 2 7 6.5934 0.0130
12 2 8 -4.4477 -0.6826
12 2 9 -6.5830 -0.2603
12 2 10 5.4042 -0.8299
12 2 11 -8.1950 0.0284
12 2 12 -1.2079 -0.6960
12 2 13 -0.6564 0.2421
12 2 14 -2.0076 -0.5819
12 2 15 -3.8116 0.2661
12 2 16 10.5846 -0.5850
12 2 17 2.9233 0.1144
12 2 18 1.6423 -0.4671
12 2 19 -6.0017 -0.0041
12 2 20 -0.7880 -0.5223
12 2 21 3.2015 0.0737
12 2 22 0.4255 -0.4189
12 2 23 -0.0284 -0.0291
12 2 24 -1.7530 -0.4100
12 2 25 -0.0649 -0.1294
12 2 26 2.4167 -0.6192
12 3 0 -12.8756 -1.9339
12 3 1 -11.5100 2.4197
12 3 2 -0.4407 -0.5972
12 3 3 -11.8050 -0.5726
12 3 4 -0.0178 -0.0138
12 3 5 -7.5549 -1.4226
12 3 6 -7.5326 -0.3086
12 3 7 -11.9615 -1.1018
12 3 8 -4.8845 -0.8319
12 3 9 0.6274 -0.5222
12 3 10 -6.9073 -0.8066
12 3 11 -1.0283 -0.2146
12 3 12 -3.2012 -0.4639
12 3 13 -3.2152 -0.5363
12 3 14 -10.3866 -0.4053
12 3 15 -10.3025 -0.6654
12 3 16 0.8467 -0.2712
12 3 17 -1.6286 -0.5667
12 3 18 1.0129 -0.4477
12 3 19 -4.0520 -0.4552
12 3 20 -1.8568 -0.4388
12 3 21 -3.2098 -0.4222
12 3 22 5.6882 -0.4443
12 3 23 -2.7755 -0.3635
12 3 24 3.9906 -0.4479
12 3 25 -1.0303 0.2071
12 4 0 3.8337 -0.1035
12 4 1 5.9954 0.4624
12 4 2 2.4175 0.2601
12 4 3 -3.3294 -0.1590
12 4 4 1.5353 0.6940
12 4 5 -1.0568 -0.0662
12 4 6 -6.1304 0.5049
12 4 7 3.6796 0.0923
12 4 8 4.5137 0.5737
12 4 9 9.4867 0.3802
12 4 10 -1.8209 0.5170
12 4 11 -4.7696 0.0078
12 4 12 2.6596 0.4474
12 4 13 2.4823 -0.1253
12 4 14 7.7313 0.0866
12 4 15 5.1327 0.1553
12 4 16 0.7917 0.4721
12 4 17 -5.9933 0.0274
12 4 18 -1.3773 0.4177
12 4 19 8.7845 0.2392
12 4 20 0.9803 0.4461
12 4 21 -1.6327 0.1659
12 4 22 -1.5174 0.2570
12 4 23 3.0838 -0.0342
12 4 24 0.0108 0.1898
12 4 25 -2.7099 -0.1460
12 5 0 -5.3612 0.8234
12 5 1 -5.3397 -3.1794
12 5 2 -0.3626 -0.1140
12 5 3 -4.3539 0.4662
12 5 4 -7.1299 -0.3858
12 5 5 -7.3071 1.4871
12 5 6 -7.6448 -0.4161
12 5 7 6.3586 0.5854
12 5 8 -2.6676 0.0268
12 5 9 -5.4296 -0.4432
12 5 10 -7.6671 0.0381
12 5 11 -5.4231 -0.1418
12 5 12 -2.9294 -0.0280
12 5 13 0.1566 0.4852
12 5 14 -3.4076 -0.0435
12 5 15 -0.2214 0.3263
12 5 16 -1.2405 0.1216
12 5 17 -0.3321 0.1017
12 5 18 0.6066 -0.0904
12 5 19 -2.9817 -0.0577
12 5 20 -1.3541 -0.1224
12 5 21 -9.4050 0.2348
12 5 22 5.3219 -0.2342
12 5 23 -1.6127 0.0646
12 5 24 0.4293 -0.1659
12 5 25 -1.1539 -0.4951
12 6 0 -0.5906 1.2300
12 6 1 -3.7836 2.5275
12 6 2 1.7398 -0.1018
12 6 3 7.0120 -0.0846
12 6 4 -8.5279 -0.5416
12 6 5 13.2545 -1.1719
12 6 6 -8.5353 -0.3668
12 6 7 6.1667 -0.5543
12 6 8 0.2361 0.2102
12 6 9 -0.6049 0.1293
12 6 10 5.4461 0.3412
12 6 11 0.1167 0.2073
12 6 12 4.7416 0.1399
12 6 13 7.9541 -0.1624
12 6 14 0.1325 -0.2383
12 6 15 1.2059 -0.1997
12 6 16 2.8174 -0.0212
12 6 17 -2.9487 -0.1074
12 6 18 -2.3478 -0.0581
12 6 19 3.2991 0.0388
12 6 20 -4.7191 0.1710
12 6 21 2.7999 -0.1564
12 6 22 -0.0774 0.0474
12 6 23 0.0107 -0.0154
12 6 24 -0.1499 -0.1073
12 6 25 2.8111 0.5348
12 7 0 5.6010 0.9679
12 7 1 7.4096 1.1282
12 7 2 4.2082 -0.1968
12 7 3 0.7567 -0.2717
12 7 4 0.6754 -0.5384
12 7 5 6.9612 -0.8054
12 7 6 9.1634 -0.0185
12 7 7 3.3881 -0.3872
12 7 8 1.9223 0.0034
12 7 9 2.3978 0.0310
12 7 10 5.6479 -0.1109
12 7 11 0.4112 0.0259
12 7 12 1.8744 -0.2289
12 7 13 2.2072 -0.1613
12 7 14 1.4210 -0.1954
12 7 15 -4.7113 -0.3531
12 7 16 -1.2614 -0.1563
12 7 17 -1.4814 -0.1947
12 7 18 0.4920 -0.0783
12 7 19 4.2449 -0.1308
12 7 20 0.6783 0.0736
12 7 21 0.2230 -0.0552
12 7 22 2.7179 0.1161
12 7 23 0.9162 -0.0696
12 7 24 0.9704 -0.0912
12 7 25 -2.6126 -0.0923
12 8 0 7.7796 0.8774
12 8 1 4.7490 -0.8865
12 8 2 -11.5013 0.4087
12 8 3 -1.9958 0.1929
12 8 4 -4.5654 0.3723
12 8 5 6.4265 0.5012
12 8 6 -2.7047 0.1829
12 8 7 -1.6646 0.2995
12 8 8 -13.3693 -0.0734
12 8 9 -1.4919 -0.1383
12 8 10 5.5093 0.3424
12 8 11 1.5928 -0.0058
12 8 12 -4.4432 0.3173
12 8 13 -4.0188 0.3306
12 8 14 -2.9787 0.2202
12 8 15 1.3687 0.4779
12 8 16 0.2405 0.0161
12 8 17 -1.3631 0.2389
12 8 18 4.2622 0.0813
12 8 19 1.1667 -0.1113
12 8 20 -4.3163 0.1751
12 8 21 -0.3635 -0.0312
12 8 22 -7.2708 0.2516
12 8 23 -1.5972 -0.1268
12 8 24 1.2764 0.4113
12 9 0 4.0532 -0.1648
12 9 1 4.5821 0.1732
12 9 2 3.7948 -0.0510
12 9 3 4.6445 0.0568
12 9 4 11.8068 0.1881
12 9 5 6.3688 -0.1186
12 9 6 3.8009 0.0435
12 9 7 3.4189 -0.0060
12 9 8 11.5604 -0.1003
12 9 9 1.2646 0.2846
12 9 10 2.5861 0.1960
12 9 11 -3.8022 0.0970
12 9 12 1.7598 0.2656
12 9 13 0.8834 -0.0688
12 9 14 2.4719 -0.0078
12 9 15 7.0116 -0.0299
12 9 16 5.1128 -0.1042
12 9 17 1.8691 -0.0656
12 9 18 3.5735 -0.0712
12 9 19 2.5662 0.1029
12 9 20 2.0502 0.1426
12 9 21 -1.9416 0.1132
12 9 22 -2.6836 0.3886
12 9 23 3.6057 0.1650
12 9 24 3.1767 -0.0524
12 10 0 -8.6526 -0.3271
12 10 1 8.9698 2.1819
12 10 2 2.1377 0.0323
12 10 3 5.9904 -0.2074
12 10 4 -4.0543 0.1849
12 10 5 16.4575 -0.9135
12 10 6 -3.6794 0.3041
12 10 7 1.1487 -0.3075
12 10 8 -1.1638 0.4203
12 10 9 -2.5913 0.3637
12 10 10 -6.7288 0.1169
12 10 11 -7.1264 0.3827
12 10 12 3.8275 0.0299
12 10 13 0.8044 -0.1617
12 10 14 -3.3435 0.1139
12 10 15 -3.4329 -0.4388
12 10 16 -1.9263 0.4224
12 10 17 -0.7421 -0.2568
12 10 18 -0.5603 0.2413
12 10 19 1.9207 0.0946
12 10 20 -4.1019 0.0690
12 10 21 -1.7785 0.1621
12 10 22 -1.3315 -0.0900
12 10 23 -0.5391 0.5393
12 10 24 -3.4623 -0.0405
12 11 0 -2.1584 -2.3814
12 11 1 -8.4776 0.1208
12 11 2 2.6492 -0.3379
12 11 3 -3.2776 -0.0317
12 11 4 -5.0428 0.3963
12 11 5 -1.1472 -0.2110
12 11 6 -3.5590 0.0736
12 11 7 -1.5282 -0.2378
12 11 8 0.1100 -0.5641
12 11 9 -1.6364 -0.2913
12 11 10 9.7725 -0.9358
12 11 11 1.3944 -0.5292
12 11 12 0.5485 -0.6737
12 11 13 3.2835 -0.3421
12 11 14 -0.5697 -0.1997
12 11 15 1.0415 -0.1244
12 11 16 -1.1155 0.0722
12 11 17 -4.2566 -0.1042
12 11 18 -1.2687 0.0115
12 11 19 1.5941 -0.3004
12 11 20 -1.2263 -0.2992
12 11 21 -3.1771 -0.3222
12 11 22 1.7474 -0.9161
12 11 23 2.6267 -0.3798
12 12 0 -5.0015 1.0670
12 12 1 3.7188 -1.8130
12 12 2 -5.4038 0.0744
12 12 3 7.1406 -0.0387
12 12 4 -12.1237 -0.3373
12 12 5 2.7785 0.3919
12 12 6 -7.6469 -0.3302
12 12 7 5.2306 0.0291
12 12 8 -5.9129 -0.0357
12 12 9 2.1523 -0.1881
12 12 10 3.8643 0.0207
12 12 11 -5.4082 -0.2694
12 12 12 13.2636 0.0837
12 12 13 -0.2678 -0.0082
12 12 14 -3.1881 -0.4035
12 12 15 -0.9064 0.3204
12 12 16 2.4053 -0.5503
12 12 17 -1.2538 0.2352
12 12 18 -1.6726 -0.3219
12 12 19 -0.5649 -0.0918
12 12 20 -1.4981 0.0063
12 12 21 3.9893 -0.4220
12 12 22 -0.5906 0.2540
12 12 23 -1.3774 -0.4495
12 13 0 -1.1458 1.8555
12 13 1 1.0613 -1.0051
12 13 2 2.1300 0.1656
12 13 3 -4.9796 -0.1248
12 13 4 -2.7195 -0.4787
12 13 5 -1.1838 0.4474
12 13 6 -8.4168 -0.2784
12 13 7 3.1690 0.3239
12 13 8 -8.9854 0.2865
12 13 9 2.3870 0.1048
12 13 10 -9.8697 0.3383
12 13 11 2.6356 -0.1197
12 13 12 -3.9473 0.0586
12 13 13 3.6669 0.0353
12 13 14 -4.8290 -0.0883
12 13 15 4.2001 0.2723
12 13 16 3.0859 0.0034
12 13 17 -4.6473 0.0504
12 13 18 3.1438 0.0993
12 13 19 -2.4219 0.0407
12 13 20 1.0389 0.2377
12 13 21 1.8052 -0.0768
12 13 22 0.9842 0.4887
12 14 0 0.9865 -2.9992
12 14 1 -9.5701 -1.0496
12 14 2 2.0025 -0.5489
12 14 3 3.1496 0.0318
12 14 4 -2.4418 0.3037
12 14 5 -1.6936 0.5588
12 14 6 4.3444 0.5440
12 14 7 0.1489 0.4023
12 14 8 -0.7198 -0.2207
12 14 9 2.5901 0.0056
12 14 10 -0.7689 -0.9036
12 14 11 -6.4224 -0.1334
12 14 12 0.3456 -0.5369
12 14 13 -0.2185 0.0448
12 14 14 1.2749 -0.0049
12 14 15 -1.7204 0.1761
12 14 16 3.0062 0.2827
12 14 17 -0.5393 0.1811
12 14 18 -0.6211 0.1548
12 14 19 1.3696 0.0710
12 14 20 -3.5903 -0.5486
12 14 21 1.4492 0.0346
12 15 0 3.9602 0.8454
12 15 1 -1.9245 0.3531
12 15 2 -1.0905 0.0481
12 15 3 -10.3502 -0.1055
12 15 4 -3.2688 -0.3866
12 15 5 7.9168 -0.1708
12 15 6 -7.5557 -0.3848
12 15 7 5.3719 -0.2206
12 15 8 6.2563 -0.1115
12 15 9 5.2999 -0.1823
12 15 10 -0.7380 -0.0495
12 15 11 -2.3219 0.0827
12 15 12 -3.6413 -0.0229
12 15 13 2.3387 0.0645
12 15 14 -1.4145 -0.2170
12 15 15 2.5695 -0.1434
12 15 16 0.6853 -0.2761
12 15 17 1.4276 -0.2419
12 15 18 3.4086 -0.2437
12 15 19 0.0388 -0.3330
12 15 20 0.1413 -0.0077
12 15 21 -6.3157 -0.0382
12 16 0 5.0703 0.4778
12 16 1 0.8725 -0.5994
12 16 2 -7.2507 -0.0876
12 16 3 -0.9875 0.1470
12 16 4 6.3031 -0.1713
12 16 5 -1.0957 0.3307
12 16 6 -2.9496 -0.0126
12 16 7 7.8439 -0.0859
12 16 8 0.2240 -0.0110
12 16 9 0.6741 0.0276
12 16 10 2.5592 0.0435
12 16 11 2.8336 0.0538
12 16 12 5.5608 0.1516
12 16 13 3.0369 -0.1299
12 16 14 -1.3469 0.0805
12 16 15 7.2150 -0.0997
12 16 16 0.2021 0.2675
12 16 17 -0.6219 -0.1320
12 16 18 -1.8624 0.2007
12 16 19 -0.5710 -0.0746
12 16 20 1.4623 0.5798
12 17 0 4.6811 -0.8867
12 17 1 -7.4053 -0.2536
12 17 2 -5.3058 0.0829
12 17 3 1.6072 -0.0118
12 17 4 0.8335 0.4789
12 17 5 -6.1794 0.2049
12 17 6 -3.2138 0.3998
12 17 7 -2.5257 0.0468
12 17 8 -8.2138 0.0072
12 17 9 -9.0623 0.0134
12 17 10 -1.6628 0.0832
12 17 11 0.2120 -0.0348
12 17 12 3.1594 0.0640
12 17 13 -0.8147 0.0705
12 17 14 -0.2259 0.1668
12 17 15 -2.8587 0.0522
12 17 16 -1.1704 0.0198
12 17 17 -2.1091 0.1622
12 17 18 -1.2531 -0.4006
12 17 19 -2.2558 -0.1156
12 18 0 -8.6306 -0.0496
12 18 1 -0.5820 0.0234
12 18 2 7.7740 -0.1068
12 18 3 6.0672 -0.1900
12 18 4 -0.8037 -0.1432
12 18 5 -0.4546 -0.1502
12 18 6 8.7863 -0.1697
12 18 7 6.5851 -0.1273
12 18 8 -0.7664 -0.0564
12 18 9 -3.1561 -0.3201
12 18 10 -2.8321 0.0295
12 18 11 0.7592 -0.3336
12 18 12 0.7351 0.0456
12 18 13 1.7541 0.0011
12 18 14 -3.4941 -0.1393
12 18 15 2.7966 -0.0400
12 18 16 0.4871 -0.1578
12 18 17 0.9826 -0.2033
12 18 18 -0.2828 0.0174
12 19 0 2.3179 -1.0859
12 19 1 4.4843 1.4385
12 19 2 1.4994 -0.0086
12 19 3 -1.1168 0.0301
12 19 4 -5.3742 0.3871
12 19 5 1.3223 -0.2594
12 19 6 -1.1872 0.3064
12 19 7 -0.2155 -0.0907
12 19 8 -1.3912 0.0014
12 19 9 13.5965 0.2472
12 19 10 -2.5904 0.2039
12 19 11 -4.0880 0.1527
12 19 12 -0.8068 0.0908
12 19 13 1.3070 0.0316
12 19 14 -1.2752 0.0102
12 19 15 1.7053 0.2287
12 19 16 -2.2203 -0.1308
12 19 17 -0.7851 0.4353
12 20 0 1.7712 -0.5275
12 20 1 3.4893 0.6599
12 20 2 -0.0081 0.1837
12 20 3 0.3677 0.0168
12 20 4 1.5761 0.4266
12 20 5 -3.2477 0.0091
12 20 6 -2.5897 -0.0397
12 20 7 -0.7757 0.1205
12 20 8 2.7722 -0.1742
12 20 9 2.2097 0.0276
12 20 10 -0.4658 0.2181
12 20 11 -2.1518 0.0615
12 20 12 -0.7977 -0.0660
12 20 13 1.1742 0.0693
12 20 14 -0.1622 0.0103
12 20 15 -2.2670 0.6124
12 20 16 2.8374 -0.1198
12 21 0 6.8340 1.5875
12 21 1 -0.5088 -0.4910
12 21 2 5.2378 0.1151
12 21 3 2.3709 0.1957
12 21 4 3.2411 -0.6068
12 21 5 8.1289 0.4704
12 21 6 1.2720 -0.4317
12 21 7 1.9598 0.1887
12 21 8 -2.3481 0.0144
12 21 9 2.6597 -0.2056
12 21 10 -2.2486 0.2909
12 21 11 1.5474 -0.1729
12 21 12 2.8419 0.3103
12 21 13 5.8450 -0.1327
12 21 14 0.8070 0.0515
12 21 15 -2.4330 -0.3794
12 22 0 -1.2940 2.4425
12 22 1 -1.8984 0.7114
12 22 2 -3.2153 0.1360
12 22 3 0.9703 -0.0054
12 22 4 1.7319 -0.5892
12 22 5 -3.6810 -0.1492
12 22 6 -1.7003 -0.2631
12 22 7 0.3316 -0.1100
12 22 8 -2.0059 0.2132
12 22 9 -4.4055 -0.0104
12 22 10 1.1697 0.4372
12 22 11 -2.7766 0.3103
12 22 12 0.3791 0.8474
12 22 13 -1.5383 0.2392
12 23 0 2.5055 -0.0681
12 23 1 -0.7949 -0.5341
12 23 2 -3.1301 -0.0340
12 23 3 4.0138 -0.1284
12 23 4 1.1955 0.1287
12 23 5 -0.0043 0.0702
12 23 6 1.9497 0.1024
12 23 7 1.9845 -0.1380
12 23 8 -1.6016 -0.2363
12 23 9 1.8836 -0.0042
12 23 10 1.9183 -0.1876
12 23 11 -3.2379 -0.4829
12 24 0 -0.7712 -0.8113
12 24 1 2.8639 0.5684
12 24 2 -6.1048 -0.3022
12 24 3 3.1492 0.3317
12 24 4 2.5244 -0.1357
12 24 5 3.2012 0.2277
12 24 6 -2.1742 -0.1464
12 24 7 2.8240 0.0963
12 24 8 -0.7308 -0.4367
12 24 9 4.6212 0.1916
12 25 0 2.7773 -0.7730
12 25 1 2.7095 0.2766
12 25 2 -1.1260 -0.2357
12 25 3 -1.5577 0.0605
12 25 4 -1.7210 0.1775
12 25 5 -0.0134 -0.0355
12 25 6 -1.1406 -0.0070
13 1 0 0.3007 -0.4779
13 1 1 -3.5941 0.0005
13 1 2 5.7195 -0.5239
13 1 3 -1.3115 0.5252
13 1 4 1.0064 0.2296
13 1 5 -10.2465 0.5298
13 1 6 3.7935 0.5060
13 1 7 0.2702 0.6302
13 1 8 -2.0165 0.8668
13 1 9 -3.9470 0.2995
13 1 10 9.4400 0.0456
13 1 11 1.8743 0.6449
13 1 12 -1.3779 0.5213
13 1 13 -1.4025 0.5414
13 1 14 -3.3271 0.0531
13 1 15 0.9411 0.5115
13 1 16 -0.7582 0.4939
13 1 17 -5.1676 0.4866
13 1 18 -3.5437 0.1023
13 1 19 -3.5572 0.3711
13 1 20 -3.0280 0.4066
13 1 21 2.5433 0.1441
13 1 22 -1.0400 0.1903
13 1 23 1.6017 0.0503
13 1 24 -2.0476 0.3457
13 1 25 -0.4802 0.5370
13 2 0 6.3270 -0.1283
13 2 1 -2.9843 0.9718
13 2 2 7.3247 -0.6400
13 2 3 3.4207 -0.0461
13 2 4 2.6269 -0.6220
13 2 5 -1.5405 -0.4357
13 2 6 2.6780 -0.6199
13 2 7 -5.0862 0.0578
13 2 8 -0.0387 -0.5929
13 2 9 2.0889 0.2703
13 2 10 3.3178 -0.5411
13 2 11 -9.5798 0.0373
13 2 12 -11.4461 -0.4168
13 2 13 0.4308 -0.2314
13 2 14 2.0578 -0.4465
13 2 15 0.6541 -0.1324
13 2 16 0.7504 -0.4537
13 2 17 -3.5632 0.1819
13 2 18 -1.2817 -0.3910
13 2 19 0.3110 0.1451
13 2 20 0.5644 -0.1879
13 2 21 -0.4878 -0.1204
13 2 22 0.8028 -0.2529
13 2 23 -0.6612 -0.3220
13 2 24 -0.8504 -0.0107
13 2 25 1.7531 0.0405
13 3 0 8.7498 -1.5894
13 3 1 -2.0157 -2.3251
13 3 2 -2.1733 0.1682
13 3 3 0.5119 0.2888
13 3 4 2.7380 0.6297
13 3 5 2.1634 0.5605
13 3 6 3.7705 0.0595
13 3 7 7.0354 0.0554
13 3 8 -2.5003 -0.4694
13 3 9 -2.2619 -0.3904
13 3 10 3.3500 -0.4181
13 3 11 -0.7718 -0.1829
13 3 12 -13.3927 -0.3731
13 3 13 2.7527 0.1032
13 3 14 -2.6532 -0.1555
13 3 15 -7.2768 0.1753
13 3 16 2.9571 -0.0075
13 3 17 -3.4755 -0.0476
13 3 18 0.3233 -0.0432
13 3 19 0.4718 -0.1024
13 3 20 -0.9572 -0.2133
13 3 21 -0.8624 0.0173
13 3 22 -3.6739 -0.3339
13 3 23 -4.0576 -0.0096
13 3 24 1.3841 -0.0253
13 3 25 1.5919 -0.6223
13 4 0 -3.4684 -0.7983
13 4 1 -10.8152 1.4920
13 4 2 -0.6898 0.2940
13 4 3 -2.6999 0.0524
13 4 4 -5.5819 0.6526
13 4 5 -0.8416 -0.4941
13 4 6 -4.8145 0.3435
13 4 7 -7.1045 -0.6230
13 4 8 4.6863 0.1451
13 4 9 -6.4046 -0.4331
13 4 10 1.3026 0.3914
13 4 11 1.2509 -0.2535
13 4 12 5.7141 0.1680
13 4 13 -4.8280 -0.2101
13 4 14 7.3177 0.3019
13 4 15 -2.7084 -0.5175
13 4 16 -3.2517 0.3528
13 4 17 -0.2442 -0.6372
13 4 18 0.4132 0.4691
13 4 19 3.6384 -0.4555
13 4 20 -2.4101 0.2506
13 4 21 2.7743 -0.1561
13 4 22 -1.4532 -0.0862
13 4 23 -2.2913 0.1547
13 4 24 -0.1787 0.0639
13 5 0 -3.1214 1.4933
13 5 1 -2.0701 1.4838
13 5 2 -5.6795 -0.2561
13 5 3 -3.8792 -0.0895
13 5 4 -3.4319 -0.5895
13 5 5 -1.7521 -0.4406
13 5 6 -6.1177 -0.5188
13 5 7 -1.5935 0.2192
13 5 8 -0.4461 0.1639
13 5 9 0.0659 0.6238
13 5 10 -2.7175 0.3024
13 5 11 -7.2448 0.4017
13 5 12 -3.6372 -0.0056
13 5 13 2.5206 0.1375
13 5 14 -7.4238 -0.3023
13 5 15 -2.7397 0.1973
13 5 16 0.8223 -0.1110
13 5 17 -2.2871 0.3103
13 5 18 -0.2676 -0.0835
13 5 19 -0.1405 0.4358
13 5 20 2.2396 0.0617
13 5 21 -0.1190 0.1739
13 5 22 -1.3072 0.1020
13 5 23 0.8291 0.1645
13 5 24 -1.1717 0.4054
13 6 0 8.4682 2.6109
13 6 1 -1.4376 -2.4816
13 6 2 1.9676 -0.0331
13 6 3 -10.8075 -0.2062
13 6 4 4.5548 -0.6935
13 6 5 -1.2520 0.6001
13 6 6 2.6149 -0.6036
13 6 7 -3.4564 -0.1398
13 6 8 -3.8250 0.2081
13 6 9 -7.1645 -0.7019
13 6 10 2.8980 0.3018
13 6 11 0.0641 -0.4849
13 6 12 2.8541 0.0567
13 6 13 1.4845 0.1577
13 6 14 -1.3263 0.0233
13 6 15 1.3944 0.2772
13 6 16 3.1817 -0.1262
13 6 17 -2.8864 0.0393
13 6 18 3.9472 -0.2315
13 6 19 1.3304 -0.2374
13 6 20 -0.8037 0.0498
13 6 21 2.0868 -0.4673
13 6 22 -0.1973 0.0522
13 6 23 -1.7608 -0.4400
13 6 24 2.0601 0.6286
13 7 0 -11.7132 0.8992
13 7 1 9.6364 1.9088
13 7 2 -7.8701 0.0202
13 7 3 0.8340 0.0293
13 7 4 1.4335 -0.1624
13 7 5 -4.7640 -0.8064
13 7 6 -8.9512 -0.1832
13 7 7 -3.1979 -0.2534
13 7 8 -10.4549 0.0379
13 7 9 0.3617 0.3420
13 7 10 2.8187 0.2289
13 7 11 -2.9733 0.2845
13 7 12 -6.4053 0.1472
13 7 13 -0.1085 -0.0908
13 7 14 -0.7311 -0.1695
13 7 15 -0.7246 -0.2081
13 7 16 3.3856 -0.2334
13 7 17 -5.7455 -0.0306
13 7 18 -3.5026 -0.0143
13 7 19 -1.5866 -0.0106
13 7 20 -0.7626 0.3274
13 7 21 -1.7988 -0.0639
13 7 22 1.3757 0.4397
13 7 23 -1.8594 0.0242
13 7 24 -0.4399 0.1353
13 8 0 6.8406 -0.8272
13 8 1 6.7303 1.5528
13 8 2 -0.2641 -0.2372
13 8 3 -0.1463 -0.2094
13 8 4 -0.5268 0.2823
13 8 5 5.2931 -0.6923
13 8 6 4.4686 0.1982
13 8 7 1.8468 -0.0864
13 8 8 -5.1835 -0.2194
13 8 9 7.0451 0.6147
13 8 10 1.0282 -0.3630
13 8 11 4.1636 0.3764
13 8 12 3.3471 -0.3848
13 8 13 3.1525 -0.1297
13 8 14 5.2918 -0.1333
13 8 15 3.4008 -0.2898
13 8 16 1.4824 -0.1349
13 8 17 -0.1277 -0.1349
13 8 18 1.4040 -0.1198
13 8 19 1.2118 0.1731
13 8 20 1.5579 -0.1574
13 8 21 -2.5833 0.4499
13 8 22 1.2648 -0.1904
13 8 23 -0.4435 0.6232
13 9 0 5.7942 -1.0066
13 9 1 -6.3283 -0.9414
13 9 2 2.5230 0.0136
13 9 3 1.2396 -0.0506
13 9 4 5.0859 0.5139
13 9 5 4.4971 0.3926
13 9 6 5.4088 0.3274
13 9 7 2.9643 0.1101
13 9 8 -0.9272 -0.1269
13 9 9 -1.1201 -0.1576
13 9 10 10.7364 -0.0424
13 9 11 -1.4110 -0.0573
13 9 12 0.0371 0.0272
13 9 13 -3.9802 0.1372
13 9 14 -3.1839 0.2478
13 9 15 0.3510 0.3678
13 9 16 1.0675 0.2821
13 9 17 -0.6724 0.1353
13 9 18 0.5749 0.1595
13 9 19 1.1643 -0.0265
13 9 20 3.3853 -0.1175
13 9 21 -0.2521 -0.0822
13 9 22 1.8360 -0.3544
13 9 23 1.5684 -0.0973
13 10 0 -4.7038 -0.7335
13 10 1 5.0008 -1.0103
13 10 2 7.3524 0.0167
13 10 3 2.8999 0.1425
13 10 4 0.3254 0.2476
13 10 5 6.2216 0.5007
13 10 6 -6.2261 0.0873
13 10 7 4.4749 0.0504
13 10 8 -5.0285 -0.2278
13 10 9 5.3040 -0.0762
13 10 10 -5.6005 0.0079
13 10 11 4.5316 -0.2772
13 10 12 1.4345 0.0256
13 10 13 1.7349 -0.1969
13 10 14 -1.9194 -0.0002
13 10 15 -1.1095 0.0374
13 10 16 -2.7958 -0.1214
13 10 17 -2.5926 0.0290
13 10 18 -1.8811 0.1171
13 10 19 0.7697 -0.1110
13 10 20 -0.9966 0.1291
13 10 21 0.3757 -0.3324
13 10 22 -0.4731 -0.1483
13 10 23 -2.7131 -0.2460
13 11 0 5.2020 0.8495
13 11 1 2.2237 0.7022
13 11 2 -3.0227 -0.0413
13 11 3 -0.3683 -0.0895
13 11 4 0.7973 -0.3502
13 11 5 -2.2408 -0.4113
13 11 6 -1.8438 -0.2364
13 11 7 6.8865 -0.2042
13 11 8 -1.2283 0.1939
13 11 9 3.1634 0.1632
13 11 10 -1.7651 0.1298
13 11 11 0.3930 0.1693
13 11 12 -7.3417 -0.3725
13 11 13 6.6072 -0.0305
13 11 14 2.4384 -0.2868
13 11 15 -4.4502 -0.1678
13 11 16 1.4714 -0.1207
13 11 17 -1.4463 -0.0046
13 11 18 1.3900 0.0297
13 11 19 3.8612 0.1111
13 11 20 -1.6351 -0.0560
13 11 21 3.8957 0.0428
13 11 22 3.3408 0.0737
13 12 0 4.2138 -0.9188
13 12 1 -5.3943 -0.3460
13 12 2 0.3170 -0.0991
13 12 3 4.1052 -0.0024
13 12 4 2.3393 0.2398
13 12 5 0.6925 0.1595
13 12 6 -0.3083 0.2225
13 12 7 1.1099 0.0797
13 12 8 -3.7290 0.0231
13 12 9 6.7059 0.0411
13 12 10 -2.9446 -0.3470
13 12 11 -3.1234 -0.3487
13 12 12 -3.8750 -0.1592
13 12 13 -3.8612 -0.2873
13 12 14 -3.7882 0.0719
13 12 15 1.0957 -0.0118
13 12 16 2.7353 0.4754
13 12 17 1.4532 -0.2333
13 12 18 -0.6570 0.0487
13 12 19 -2.5929 -0.0899
13 12 20 -3.3978 -0.5205
13 12 21 3.0305 -0.4830
13 12 22 2.4588 -0.3778
13 13 0 4.7871 0.3336
13 13 1 -1.2488 -1.2813
13 13 2 -6.4263 0.0631
13 13 3 -3.2623 0.0656
13 13 4 1.1332 -0.0631
13 13 5 -6.1721 0.4354
13 13 6 -0.7364 -0.0718
13 13 7 4.6029 0.0628
13 13 8 -4.8454 -0.0304
13 13 9 -0.5689 -0.3061
13 13 10 -0.9631 0.1573
13 13 11 -5.4707 -0.3401
13 13 12 -6.7062 0.1342
13 13 13 3.3125 -0.0178
13 13 14 -4.1958 0.2343
13 13 15 -1.6942 0.0775
13 13 16 -0.8492 -0.1950
13 13 17 -1.3159 0.1764
13 13 18 -0.4654 -0.0917
13 13 19 -0.3538 -0.0689
13 13 20 -0.9920 0.2396
13 13 21 -3.1461 -0.2866
13 14 0 -2.7903 1.3176
13 14 1 1.8231 -0.7374
13 14 2 -0.2689 -0.0190
13 14 3 -2.5048 0.1934
13 14 4 -0.0610 -0.5855
13 14 5 3.2596 0.3590
13 14 6 -4.4481 -0.4539
13 14 7 7.3880 0.3108
13 14 8 0.5976 0.0157
13 14 9 -1.8027 -0.0461
13 14 10 2.8290 0.0176
13 14 11 -1.2642 0.1387
13 14 12 8.1381 -0.0819
13 14 13 1.0776 0.3339
13 14 14 -1.9232 -0.4767
13 14 15 -3.4948 0.3303
13 14 16 -4.2395 -0.2179
13 14 17 0.6774 0.0489
13 14 18 -0.7889 0.0368
13 14 19 1.1646 0.0654
13 14 20 0.9640 0.2397
13 15 0 3.9764 -2.1399
13 15 1 3.4924 -0.5903
13 15 2 -10.1198 -0.2987
13 15 3 0.5512 -0.0174
13 15 4 -1.7633 0.5588
13 15 5 7.2122 0.3797
13 15 6 -7.6919 0.5290
13 15 7 -8.8281 0.1953
13 15 8 0.3491 -0.0061
13 15 9 6.0632 0.0386
13 15 10 -3.4539 -0.5196
13 15 11 0.1553 0.1293
13 15 12 1.1745 -0.4206
13 15 13 4.1925 0.2417
13 15 14 6.3148 0.1265
13 15 15 -4.6557 0.2226
13 15 16 0.3072 0.3196
13 15 17 1.1385 0.0336
13 15 18 -0.3462 0.1088
13 15 19 -0.6472 -0.2326
13 15 20 4.0807 -0.9449
13 16 0 -4.3211 0.3371
13 16 1 -2.3823 0.3237
13 16 2 -0.5476 0.0362
13 16 3 14.2615 0.1102
13 16 4 -1.2702 -0.0161
13 16 5 -4.9294 -0.0452
13 16 6 -3.5274 -0.0432
13 16 7 7.5050 0.0009
13 16 8 -8.0138 -0.0645
13 16 9 -0.0957 -0.0909
13 16 10 -2.5979 0.1961
13 16 11 -1.5151 0.2515
13 16 12 -0.0377 0.2297
13 16 13 0.7616 0.2100
13 16 14 -2.1897 0.0240
13 16 15 -2.4195 -0.0385
13 16 16 -0.6758 -0.2177
13 16 17 1.7480 -0.3468
13 16 18 -1.4191 -0.2333
13 16 19 0.5835 -0.0491
13 17 0 7.0761 0.4696
13 17 1 -0.5573 -0.2985
13 17 2 2.4740 -0.0911
13 17 3 8.6432 0.1691
13 17 4 4.0895 -0.4378
13 17 5 -8.4121 0.2870
13 17 6 4.2610 -0.4471
13 17 7 7.6457 0.0756
13 17 8 -3.2212 -0.3640
13 17 9 4.8346 -0.0533
13 17 10 3.9526 -0.1478
13 17 11 4.6291 -0.0778
13 17 12 1.7384 0.2030
13 17 13 -6.0023 -0.1280
13 17 14 1.6327 -0.0942
13 17 15 -0.8563 0.0004
13 17 16 3.5320 -0.4189
13 17 17 -0.1214 0.3836
13 17 18 1.1361 0.1336
13 18 0 -5.4617 -1.0937
13 18 1 -3.9941 1.1669
13 18 2 3.5403 -0.1729
13 18 3 -2.1418 -0.3586
13 18 4 -4.9572 0.4041
13 18 5 3.0549 -0.6868
13 18 6 -4.6002 0.2124
13 18 7 3.5120 -0.2888
13 18 8 -0.8413 -0.0716
13 18 9 7.8439 -0.2175
13 18 10 -0.4490 -0.0395
13 18 11 1.0684 -0.3733
13 18 12 -2.7227 0.0245
13 18 13 4.5062 -0.5670
13 18 14 4.0943 0.0349
13 18 15 2.6066 -0.2306
13 18 16 0.1279 -0.1301
13 18 17 -0.2283 0.2067
13 19 0 8.3888 -0.0639
13 19 1 0.0341 0.8046
13 19 2 0.1989 -0.0026
13 19 3 -1.7146 -0.1829
13 19 4 2.8061 0.1808
13 19 5 -0.9323 -0.4575
13 19 6 -3.1295 0.1541
13 19 7 -3.6357 -0.2136
13 19 8 -1.1349 -0.0353
13 19 9 2.2293 0.0450
13 19 10 -0.5038 -0.0060
13 19 11 0.8524 -0.0422
13 19 12 -0.6943 -0.0525
13 19 13 -0.3524 0.0010
13 19 14 1.1111 0.3333
13 19 15 -3.0021 0.1150
13 19 16 -1.1114 0.1166
13 20 0 1.7658 0.4146
13 20 1 -0.3392 0.5174
13 20 2 6.6380 0.2602
13 20 3 2.9582 0.1158
13 20 4 2.9180 0.2130
13 20 5 1.0882 -0.0956
13 20 6 1.7177 0.1052
13 20 7 1.3367 -0.1426
13 20 8 -0.7028 0.0948
13 20 9 -0.9730 0.0403
13 20 10 6.7756 0.2596
13 20 11 -0.9275 0.5702
13 20 12 -4.7936 0.3426
13 20 13 -0.4207 0.2402
13 20 14 -2.0022 -0.0295
13 20 15 1.9411 0.3290
13 21 0 -7.6143 1.3082
13 21 1 -0.4782 -0.3858
13 21 2 0.2874 0.1298
13 21 3 0.0638 -0.3057
13 21 4 1.2075 -0.2482
13 21 5 -2.1041 -0.1767
13 21 6 3.0759 -0.4820
13 21 7 1.1924 -0.1680
13 21 8 -2.0510 -0.1216
13 21 9 -0.5950 -0.3079
13 21 10 1.4510 0.1776
13 21 11 3.6758 -0.1450
13 21 12 4.7520 0.5239
13 21 13 -2.4119 -0.1528
13 22 0 3.0587 1.1100
13 22 1 -0.0471 -1.1735
13 22 2 0.4603 -0.2009
13 22 3 3.2123 0.0564
13 22 4 1.8396 -0.5179
13 22 5 0.9202 0.5199
13 22 6 4.9286 -0.0816
13 22 7 -3.3395 0.0184
13 22 8 2.6231 0.0407
13 22 9 3.0749 -0.1623
13 22 10 2.3775 0.1357
13 22 11 -3.5097 -0.4356
13 22 12 1.2574 0.3267
13 23 0 1.4609 -0.2739
13 23 1 1.2853 1.1438
13 23 2 0.9773 -0.4159
13 23 3 -0.6887 0.4072
13 23 4 0.1150 -0.2499
13 23 5 -2.8925 0.0670
13 23 6 -1.2996 -0.2266
13 23 7 -4.7375 0.0135
13 23 8 -0.4994 -0.1350
13 23 9 0.3890 0.2335
13 23 10 3.3681 -0.3557
13 24 0 0.8978 -1.4767
13 24 1 -4.1534 0.2532
13 24 2 2.9395 -0.2627
13 24 3 -3.1090 0.0828
13 24 4 -2.3311 0.0181
13 24 5 -3.1419 -0.0842
13 24 6 -0.7136 -0.1476
13 24 7 2.7978 -0.0805
13 25 0 2.0173 -0.1849
13 25 1 0.9141 -0.4516
14 0 0 8.0172 1.7255
14 0 1 1.2173 0.4742
14 0 2 10.1261 0.9484
14 0 3 10.3043 0.3848
14 0 4 2.1066 1.4632
14 0 5 3.4743 0.9191
14 0 6 -2.4670 2.2134
14 0 7 0.3011 0.1421
14 0 8 -4.5172 1.8882
14 0 9 2.7938 0.6016
14 0 10 -0.2190 1.6192
14 0 11 -1.7811 0.4227
14 0 12 8.2101 1.4663
14 0 13 -1.2226 0.4315
14 0 14 -6.5331 1.6789
14 0 15 -3.1256 0.5068
14 0 16 8.4743 1.2490
14 0 17 -1.7417 0.1493
14 0 18 -1.9156 1.4687
14 0 19 -2.8125 0.6262
14 0 20 1.5639 1.1006
14 0 21 1.5550 0.0999
14 0 22 -3.1850 1.2606
14 0 23 0.2928 0.4213
14 0 24 -2.8036 0.9894
14 1 0 -2.9284 0.2887
14 1 1 -4.9715 -1.3050
14 1 2 1.4269 -0.3796
14 1 3 -7.7072 -0.5950
14 1 4 4.9217 0.4018
14 1 5 -12.0279 -0.2386
14 1 6 -2.3627 0.3458
14 1 7 1.5265 -0.3895
14 1 8 1.9747 0.4384
14 1 9 -4.5647 -0.5285
14 1 10 2.7812 0.1659
14 1 11 -3.6294 -0.5652
14 1 12 -0.9228 0.5032
14 1 13 3.6011 -0.6005
14 1 14 10.1803 0.0614
14 1 15 -3.1694 -0.3717
14 1 16 -2.1206 0.2837
14 1 17 -0.2972 -0.2526
14 1 18 0.7977 0.2375
14 1 19 6.4677 -0.2853
14 1 20 -0.4469 0.4127
14 1 21 -0.0577 -0.4605
14 1 22 -1.6398 0.3028
14 1 23 -1.5603 -0.2922
14 1 24 2.8936 0.0236
14 2 0 -9.5359 -1.7730
14 2 1 2.4386 0.2564
14 2 2 -1.9082 -0.2142
14 2 3 3.6235 -0.2407
14 2 4 11.1594 0.2190
14 2 5 5.7831 -0.4381
14 2 6 -2.8975 -0.0370
14 2 7 6.5236 -0.1458
14 2 8 -3.6097 -0.2761
14 2 9 4.8882 -0.1105
14 2 10 9.7691 -0.5298
14 2 11 0.8073 0.0262
14 2 12 3.6952 -0.6097
14 2 13 1.7813 0.0281
14 2 14 15.6349 -0.4246
14 2 15 -1.0002 -0.2028
14 2 16 1.3880 -0.1967
14 2 17 2.4046 -0.1369
14 2 18 -0.1959 -0.1411
14 2 19 5.1140 -0.2244
14 2 20 -1.7776 -0.1995
14 2 21 1.7804 -0.0397
14 2 22 0.6485 -0.4571
14 2 23 2.5672 0.2289
14 2 24 -2.9640 -0.6320
14 3 0 -7.8929 -0.9020
14 3 1 -1.6400 2.7862
14 3 2 2.5793 -0.0035
14 3 3 -7.8550 -0.0244
14 3 4 1.6241 0.5829
14 3 5 2.3679 -0.9597
14 3 6 -5.7829 -0.0453
14 3 7 -13.9424 -0.5385
14 3 8 1.4770 -0.2157
14 3 9 1.4064 -0.0522
14 3 10 -3.1886 0.0556
14 3 11 -7.1503 0.0244
14 3 12 7.3405 -0.0041
14 3 13 1.6102 -0.2976
14 3 14 -1.9483 -0.0033
14 3 15 -2.8557 -0.4356
14 3 16 0.6380 0.2215
14 3 17 -2.2383 -0.4297
14 3 18 1.0642 0.2534
14 3 19 -6.5667 -0.1559
14 3 20 0.0399 0.0150
14 3 21 0.0667 -0.0848
14 3 22 -0.8405 -0.2718
14 3 23 0.5683 0.2017
14 3 24 1.2227 -0.0218
14 4 0 10.9541 0.9501
14 4 1 2.5915 -2.1919
14 4 2 -4.5847 -0.0396
14 4 3 -5.3205 0.4997
14 4 4 -1.8068 -0.2189
14 4 5 -5.8110 1.1415
14 4 6 3.2674 -0.1808
14 4 7 4.5735 0.6316
14 4 8 1.9598 -0.2003
14 4 9 -2.7560 0.1543
14 4 10 2.5432 0.1131
14 4 11 1.4862 0.3429
14 4 12 9.6843 0.0090
14 4 13 -6.0927 0.5912
14 4 14 -2.3801 0.0137
14 4 15 -0.9692 0.6150
14 4 16 4.0625 -0.0221
14 4 17 -1.9965 0.4771
14 4 18 -2.2240 0.0189
14 4 19 3.5459 0.2035
14 4 20 4.1640 -0.0544
14 4 21 -0.1261 0.2122
14 4 22 -1.8328 -0.1678
14 4 23 2.1321 -0.2643
14 4 24 2.4079 0.6649
14 5 0 0.7414 2.7686
14 5 1 -1.5283 -0.0737
14 5 2 0.6963 0.2029
14 5 3 0.8852 0.1844
14 5 4 13.8774 -0.7318
14 5 5 -4.3093 0.3558
14 5 6 5.1062 -0.6206
14 5 7 9.6965 0.3188
14 5 8 2.2383 -0.1588
14 5 9 4.9186 0.0891
14 5 10 -1.9008 0.2556
14 5 11 -3.8974 0.1931
14 5 12 1.4485 -0.1098
14 5 13 -1.8418 0.3874
14 5 14 -0.4527 -0.2421
14 5 15 -7.7352 0.3129
14 5 16 1.6653 -0.4181
14 5 17 0.1749 0.1144
14 5 18 -0.3755 -0.1682
14 5 19 2.4443 0.0123
14 5 20 0.0750 -0.0711
14 5 21 -5.4026 0.0524
14 5 22 0.7332 0.2217
14 5 23 -0.4029 0.0331
14 6 0 -2.7699 0.9955
14 6 1 -7.4367 2.4551
14 6 2 -3.4596 -0.2685
14 6 3 -8.1135 -0.1421
14 6 4 -5.9574 -0.9200
14 6 5 2.0225 -1.1077
14 6 6 -2.9935 -0.4584
14 6 7 1.0968 -0.5702
14 6 8 -8.6419 -0.1092
14 6 9 -5.3641 0.2194
14 6 10 -2.7656 -0.1169
14 6 11 -10.1308 0.0670
14 6 12 -1.6542 -0.3439
14 6 13 -1.8346 -0.4827
14 6 14 -1.2350 -0.4722
14 6 15 2.6424 -0.4680
14 6 16 -0.6284 -0.4220
14 6 17 -1.8131 -0.1581
14 6 18 1.6532 -0.3010
14 6 19 4.5873 0.0002
14 6 20 -0.0097 -0.0838
14 6 21 -0.7879 -0.0373
14 6 22 0.3143 0.2851
14 6 23 0.3273 0.2218
14 7 0 -3.8240 -0.6758
14 7 1 -1.9455 -0.5425
14 7 2 -0.4803 -0.2596
14 7 3 -1.6465 -0.1052
14 7 4 -2.2381 0.1648
14 7 5 4.2561 0.0105
14 7 6 0.1891 0.3123
14 7 7 6.0770 -0.1040
14 7 8 -1.9085 0.3406
14 7 9 0.9384 -0.0884
14 7 10 -2.1943 0.1380
14 7 11 2.3557 -0.1869
14 7 12 1.6310 0.0818
14 7 13 -4.5068 0.0053
14 7 14 3.9149 0.3394
14 7 15 2.2171 0.1059
14 7 16 1.5068 0.2166
14 7 17 0.4155 0.0096
14 7 18 -0.8608 0.0528
14 7 19 2.9113 -0.1213
14 7 20 -1.3529 -0.1314
14 7 21 1.2715 0.0329
14 7 22 0.5192 -0.2176
14 7 23 -1.9982 -0.0799
14 8 0 5.9025 -1.2724
14 8 1 -5.2919 0.0222
14 8 2 -1.0225 0.0486
14 8 3 0.0981 0.1728
14 8 4 -4.4902 0.5317
14 8 5 2.0349 0.3259
14 8 6 -5.4169 0.2356
14 8 7 -1.2001 0.3150
14 8 8 0.9195 -0.2171
14 8 9 -4.6651 0.4813
14 8 10 1.3381 -0.3218
14 8 11 4.6484 0.4290
14 8 12 2.3740 0.0804
14 8 13 0.8450 0.3323
14 8 14 -0.7051 -0.0822
14 8 15 2.3967 0.4193
14 8 16 1.6124 -0.0474
14 8 17 -3.4020 0.2848
14 8 18 -2.3221 -0.1410
14 8 19 3.1900 0.3795
14 8 20 -1.1178 -0.1922
14 8 21 1.9605 0.1672
14 8 22 -0.5906 -0.0737
14 8 23 -0.8595 0.0986
14 9 0 10.1907 -1.0368
14 9 1 0.3527 -0.8422
14 9 2 -6.7438 0.0736
14 9 3 -2.6259 -0.2314
14 9 4 -0.5406 0.5521
14 9 5 -6.3234 -0.0817
14 9 6 -3.2432 0.5751
14 9 7 1.8047 -0.1340
14 9 8 3.1708 0.0992
14 9 9 -3.8686 -0.2378
14 9 10 -2.8517 0.0231
14 9 11 1.7228 -0.3303
14 9 12 0.8402 0.1559
14 9 13 -0.8509 -0.3385
14 9 14 -5.7540 0.3596
14 9 15 -2.3121 -0.2676
14 9 16 0.0311 0.2910
14 9 17 -4.7605 -0.1795
14 9 18 0.9433 0.2669
14 9 19 3.6299 -0.0605
14 9 20 -0.9447 0.1973
14 9 21 -1.0205 0.0328
14 9 22 -0.2830 -0.2136
14 10 0 2.5435 0.1211
14 10 1 1.9872 -0.4693
14 10 2 2.3565 -0.0135
14 10 3 4.7603 0.0719
14 10 4 5.0214 -0.1545
14 10 5 0.6995 0.3190
14 10 6 6.9386 -0.1071
14 10 7 -1.1500 0.1412
14 10 8 2.1110 0.0367
14 10 9 3.6097 -0.0888
14 10 10 4.0598 -0.0076
14 10 11 -2.3345 -0.0650
14 10 12 6.6562 -0.2444
14 10 13 5.3116 0.1404
14 10 14 -0.3132 -0.1257
14 10 15 3.5285 0.3142
14 10 16 4.3293 0.3284
14 10 17 3.9867 -0.0127
14 10 18 -1.1057 0.1951
14 10 19 -3.4750 -0.0337
14 10 20 -6.0690 -0.3240
14 10 21 -0.4088 -0.1665
14 10 22 0.3330 -0.0555
14 11 0 -1.9694 -0.5059
14 11 1 0.5625 0.2548
14 11 2 0.9662 0.0384
14 11 3 1.7429 0.3828
14 11 4 5.0174 0.3610
14 11 5 -0.1966 0.4146
14 11 6 1.7248 0.2084
14 11 7 0.4738 0.3359
14 11 8 4.2257 0.1710
14 11 9 2.6895 0.5984
14 11 10 -5.2997 0.0934
14 11 11 -2.6458 0.4866
14 11 12 -0.2084 0.1060
14 11 13 4.0971 0.2237
14 11 14 -2.3253 0.2211
14 11 15 0.7690 0.2293
14 11 16 2.5455 0.1491
14 11 17 -1.4671 0.0863
14 11 18 -0.7221 0.0565
14 11 19 -0.8056 0.2840
14 11 20 2.0392 0.2562
14 11 21 -0.0509 0.0690
14 12 0 6.9870 1.2083
14 12 1 -0.0736 0.2856
14 12 2 3.3851 0.2493
14 12 3 0.5654 -0.2546
14 12 4 2.2738 -0.2799
14 12 5 -1.6417 -0.3872
14 12 6 4.6262 -0.2181
14 12 7 0.6977 -0.3379
14 12 8 5.6781 0.1273
14 12 9 -0.4793 -0.0555
14 12 10 5.7446 0.1825
14 12 11 -3.9323 -0.1340
14 12 12 5.0031 -0.0007
14 12 13 0.8857 -0.2233
14 12 14 -1.6197 0.0053
14 12 15 -1.1809 -0.4012
14 12 16 0.9186 -0.0490
14 12 17 1.5228 -0.2697
14 12 18 -0.7043 0.1148
14 12 19 1.7314 -0.0110
14 12 20 0.3329 0.3360
14 12 21 3.1051 -0.0496
14 13 0 -0.8226 -0.1051
14 13 1 3.8485 -1.2027
14 13 2 -1.4041 -0.2364
14 13 3 -1.7599 0.0025
14 13 4 -4.0570 -0.1904
14 13 5 -0.1747 0.5462
14 13 6 -6.6540 -0.0977
14 13 7 -1.0378 0.4047
14 13 8 -4.4660 -0.0246
14 13 9 1.9408 -0.0814
14 13 10 -0.7068 -0.3230
14 13 11 -1.7464 -0.2784
14 13 12 -7.1023 -0.1406
14 13 13 -0.7045 0.0613
14 13 14 0.2095 -0.0663
14 13 15 -0.3396 0.3396
14 13 16 -0.1164 0.0192
14 13 17 -1.7199 0.1278
14 13 18 -0.9459 -0.0109
14 13 19 -0.5039 -0.0496
14 13 20 -0.9529 -0.1515
14 14 0 6.3632 -0.7288
14 14 1 -0.2254 -1.1381
14 14 2 -1.4971 -0.0991
14 14 3 2.2825 -0.0689
14 14 4 4.5691 0.1890
14 14 5 0.3810 0.5442
14 14 6 3.0990 0.0621
14 14 7 1.1625 0.2585
14 14 8 -4.8218 0.0449
14 14 9 2.4306 -0.0932
14 14 10 -0.8145 -0.1393
14 14 11 0.5601 -0.0137
14 14 12 3.7359 -0.0297
14 14 13 0.5315 0.3824
14 14 14 -1.9564 -0.1298
14 14 15 2.1901 0.4391
14 14 16 3.7885 -0.0242
14 14 17 -2.7580 0.1308
14 14 18 -0.4536 -0.1150
14 14 19 0.2767 -0.1564
14 15 0 -0.4112 0.4536
14 15 1 -7.4832 -0.4328
14 15 2 -0.2900 -0.0089
14 15 3 -4.9953 0.2245
14 15 4 -2.5519 -0.0857
14 15 5 -2.6568 0.3178
14 15 6 0.7585 -0.1032
14 15 7 -1.3876 0.0264
14 15 8 -4.4580 0.1769
14 15 9 -4.1464 -0.0843
14 15 10 -8.7499 0.2504
14 15 11 0.9983 0.1643
14 15 12 -3.2497 0.1708
14 15 13 -4.4317 0.1109
14 15 14 -0.3958 0.1082
14 15 15 2.0507 -0.0103
14 15 16 2.5109 -0.0599
14 15 17 -0.9013 -0.2051
14 15 18 1.6054 0.0005
14 15 19 -0.9871 -0.0713
14 16 0 1.5521 -0.8888
14 16 1 -4.0842 0.2558
14 16 2 0.5136 -0.1508
14 16 3 0.6186 -0.0185
14 16 4 0.8478 0.1890
14 16 5 -1.4582 0.0362
14 16 6 3.8459 0.0024
14 16 7 1.0239 0.0908
14 16 8 -5.1256 -0.2564
14 16 9 6.0675 -0.0115
14 16 10 2.0504 -0.3612
14 16 11 -5.0286 -0.0594
14 16 12 -6.6138 0.0133
14 16 13 1.6047 -0.3389
14 16 14 1.7470 0.0068
14 16 15 -1.3650 -0.0185
14 16 16 0.5097 -0.1806
14 16 17 -0.9349 0.2205
14 16 18 -0.7856 -0.2700
14 17 0 -5.0231 0.6295
14 17 1 0.6260 1.3507
14 17 2 5.2760 0.0330
14 17 3 -4.8840 -0.0738
14 17 4 -5.7869 -0.1244
14 17 5 0.1550 -0.5059
14 17 6 0.4501 -0.2386
14 17 7 -0.7039 -0.2528
14 17 8 -0.0068 -0.1954
14 17 9 5.1609 -0.1270
14 17 10 1.9959 -0.2252
14 17 11 0.6883 0.0554
14 17 12 1.6336 -0.0778
14 17 13 -0.4937 -0.0148
14 17 14 0.4614 -0.0791
14 17 15 0.2287 -0.1335
14 17 16 1.6192 0.0458
14 17 17 1.1066 0.3869
14 18 0 -17.2021 -0.0771
14 18 1 -7.3381 0.5810
14 18 2 3.7873 -0.0297
14 18 3 -6.1309 0.0101
14 18 4 -1.0835 0.0205
14 18 5 3.1478 -0.3749
14 18 6 -0.4410 0.0153
14 18 7 -2.4490 -0.2731
14 18 8 -5.6873 0.0486
14 18 9 -4.5183 0.0197
14 18 10 0.3565 0.0495
14 18 11 -3.6205 0.1477
14 18 12 2.6581 -0.0560
14 18 13 1.4399 0.1059
14 18 14 0.7868 0.1268
14 18 15 1.4634 0.1191
14 18 16 1.4610 -0.2217
14 19 0 3.8265 -0.4534
14 19 1 0.0835 1.2935
14 19 2 -1.5270 0.1494
14 19 3 0.1906 -0.2889
14 19 4 3.1353 0.2514
14 19 5 -3.0565 -0.8145
14 19 6 2.1865 0.0524
14 19 7 0.8365 -0.4765
14 19 8 -1.4552 -0.2205
14 19 9 0.3373 -0.0218
14 19 10 -0.4088 -0.0116
14 19 11 -1.4964 0.1131
14 19 12 1.2821 -0.0244
14 19 13 -0.1496 -0.0164
14 19 14 2.0710 -0.0370
14 19 15 -1.9052 0.2453
14 20 0 2.6553 1.0332
14 20 1 -1.6953 -0.9014
14 20 2 -6.5894 0.0651
14 20 3 -2.1468 -0.0055
14 20 4 -2.0007 -0.1988
14 20 5 -1.1197 0.3301
14 20 6 -2.2622 -0.1985
14 20 7 0.9201 0.2786
14 20 8 -0.4229 0.0416
14 20 9 1.8083 -0.2760
14 20 10 -1.8129 0.2546
14 20 11 -1.1125 -0.1930
14 20 12 -4.1801 0.4197
14 20 13 0.7900 -0.0959
14 21 0 -1.1541 0.9216
14 21 1 -0.0152 -1.4878
14 21 2 -0.6465 0.2543
14 21 3 -1.4428 -0.0110
14 21 4 2.3284 -0.1580
14 21 5 3.1943 0.2997
14 21 6 0.4475 -0.1427
14 21 7 -3.4638 0.0072
14 21 8 -4.5686 0.0661
14 21 9 6.8998 -0.4083
14 21 10 0.3990 0.2647
14 21 11 -0.5600 -0.6432
14 21 12 2.5172 0.2401
14 22 0 6.6348 -0.1175
14 22 1 -0.6467 1.0414
14 22 2 1.9753 -0.0890
14 22 3 1.8623 0.1958
14 22 4 2.8184 -0.1652
14 22 5 0.7354 -0.0956
14 22 6 -1.7560 -0.1380
14 22 7 5.7183 -0.1253
14 22 8 2.2351 0.0209
14 22 9 0.9288 0.4781
14 22 10 -6.3550 0.1240
14 23 0 9.2616 -0.3414
14 23 1 0.4376 0.0493
14 23 2 1.0732 -0.2725
14 23 3 -0.8493 0.1630
14 23 4 0.9203 0.1233
14 23 5 -1.8474 0.0578
14 23 6 2.4916 0.1055
14 23 7 1.0334 0.0825
14 24 0 8.4175 -0.2180
14 24 1 -3.5254 -0.2675
14 24 2 -2.7445 -0.1065
15 1 0 0.1999 -0.4447
15 1 1 5.5162 0.7683
15 1 2 -1.4008 -0.1603
15 1 3 5.3386 0.2896
15 1 4 4.6071 -0.2693
15 1 5 -4.1675 -0.0454
15 1 6 0.0352 0.3810
15 1 7 11.1270 0.0215
15 1 8 -3.3812 -0.1167
15 1 9 -0.1973 -0.0472
15 1 10 0.6469 0.2300
15 1 11 1.8856 0.1731
15 1 12 -1.5774 -0.6119
15 1 13 4.4253 0.4363
15 1 14 -1.1548 0.1093
15 1 15 6.6397 0.1655
15 1 16 5.4223 -0.1157
15 1 17 2.0047 0.0476
15 1 18 1.9710 0.2608
15 1 19 5.8934 -0.2674
15 1 20 3.6338 -0.0585
15 1 21 -0.4836 0.1059
15 1 22 0.0022 0.0154
15 1 23 -0.0302 0.5318
15 2 0 5.3787 -0.6563
15 2 1 -0.1870 0.4871
15 2 2 -3.7126 -0.0071
15 2 3 -3.9667 -0.0074
15 2 4 -0.6388 0.3172
15 2 5 1.0391 -0.1408
15 2 6 -1.1406 -0.0758
15 2 7 -2.8714 0.0533
15 2 8 6.0131 -0.3282
15 2 9 2.3100 0.1854
15 2 10 -5.1699 -0.1033
15 2 11 -0.6799 0.2403
15 2 12 -3.0341 0.0571
15 2 13 -3.7453 0.0299
15 2 14 -2.6879 0.0081
15 2 15 -1.1994 -0.1703
15 2 16 -0.2596 0.0013
15 2 17 3.7680 -0.0036
15 2 18 -4.7971 -0.0723
15 2 19 2.0290 -0.0011
15 2 20 -3.4286 -0.3543
15 2 21 -0.9668 -0.0718
15 2 22 -1.9397 -0.0962
15 2 23 -0.5343 0.0249
15 3 0 8.0951 -0.4320
15 3 1 0.3310 -0.1707
15 3 2 1.0655 0.4021
15 3 3 1.2346 -0.0435
15 3 4 -1.1481 0.4988
15 3 5 -0.2079 0.2464
15 3 6 -3.8605 0.2039
15 3 7 -2.0995 -0.0100
15 3 8 -0.0016 -0.0896
15 3 9 -0.3695 0.1214
15 3 10 -5.7845 -0.0153
15 3 11 -1.4455 0.1163
15 3 12 -1.0706 0.2014
15 3 13 2.5113 0.1451
15 3 14 -3.6499 0.1759
15 3 15 -0.0409 0.2062
15 3 16 -1.1338 0.1758
15 3 17 -0.9957 -0.0106
15 3 18 1.7667 0.0920
15 3 19 -0.3696 0.1649
15 3 20 2.7959 0.0313
15 3 21 1.3970 0.3475
15 3 22 1.5049 0.0917
15 3 23 0.5839 0.0755
15 4 0 12.3475 1.6634
15 4 1 2.2914 1.6885
15 4 2 1.7926 -0.1154
15 4 3 1.7256 -0.0896
15 4 4 3.3090 -0.4209
15 4 5 5.3260 -0.5843
15 4 6 0.6563 -0.5598
15 4 7 5.8260 -0.2449
15 4 8 6.9086 -0.2917
15 4 9 5.6560 0.0398
15 4 10 0.2804 -0.0546
15 4 11 5.0477 0.1950
15 4 12 3.0819 -0.1094
15 4 13 1.7382 0.0877
15 4 14 -1.4142 -0.4856
15 4 15 3.1531 -0.1075
15 4 16 1.3718 -0.3421
15 4 17 -1.1896 -0.1133
15 4 18 0.7515 -0.1617
15 4 19 7.0386 -0.1232
15 4 20 -0.3622 0.0120
15 4 21 1.0748 0.0035
15 4 22 4.7567 0.2209
15 4 23 -1.1131 0.3868
15 5 0 0.6703 2.3685
15 5 1 -6.3007 -1.5366
15 5 2 -6.8016 0.1053
15 5 3 -2.3159 -0.0518
15 5 4 0.4461 -0.9182
15 5 5 -2.4129 0.3613
15 5 6 0.2284 -0.5973
15 5 7 3.3172 0.0970
15 5 8 -0.9220 -0.2163
15 5 9 -2.4251 -0.1103
15 5 10 2.6540 -0.1118
15 5 11 -0.8567 -0.2051
15 5 12 0.6601 -0.3170
15 5 13 0.8502 -0.1294
15 5 14 0.0348 -0.4857
15 5 15 -3.0476 0.0991
15 5 16 7.0550 -0.5176
15 5 17 -2.2546 -0.0513
15 5 18 -3.3701 -0.4356
15 5 19 1.5388 -0.0793
15 5 20 -2.5601 -0.0321
15 5 21 -1.1817 -0.2699
15 5 22 3.4613 0.2243
15 6 0 -2.5711 0.6879
15 6 1 0.0842 0.3709
15 6 2 3.3884 -0.0094
15 6 3 1.3178 0.1211
15 6 4 -1.6859 -0.0464
15 6 5 0.0689 0.1202
15 6 6 0.0224 0.1566
15 6 7 -5.3446 0.1884
15 6 8 -1.3250 0.2847
15 6 9 -2.9624 0.2565
15 6 10 -1.5807 0.2553
15 6 11 6.0029 0.1058
15 6 12 3.6649 0.0514
15 6 13 1.1658 0.0175
15 6 14 2.7004 0.0457
15 6 15 -1.3909 0.0742
15 6 16 -1.6194 0.1363
15 6 17 -1.2357 0.0752
15 6 18 -0.5788 0.1356
15 6 19 -0.0700 0.1346
15 6 20 0.0577 0.1144
15 6 21 0.9566 0.1202
15 6 22 0.4973 0.0803
15 7 0 8.2487 -1.9264
15 7 1 -3.7691 1.8067
15 7 2 1.4932 -0.3908
15 7 3 -5.0071 0.3609
15 7 4 -0.8005 0.1922
15 7 5 -6.9465 -0.1015
15 7 6 0.8895 0.2243
15 7 7 -0.2427 0.1444
15 7 8 -0.1244 -0.2509
15 7 9 -2.6411 0.7077
15 7 10 6.0838 -0.5080
15 7 11 -3.2167 0.6195
15 7 12 1.6609 -0.1888
15 7 13 -0.3252 0.1496
15 7 14 -3.2283 0.0679
15 7 15 2.6328 0.1878
15 7 16 1.2583 -0.0159
15 7 17 -3.8945 0.4438
15 7 18 -0.7942 -0.1941
15 7 19 -2.6009 0.4880
15 7 20 -0.0056 -0.1063
15 7 21 -2.3779 0.4539
15 7 22 -5.9947 -0.9785
15 8 0 -10.6871 -1.2816
15 8 1 1.3890 -1.4143
15 8 2 -5.8108 -0.1674
15 8 3 -1.1261 -0.2507
15 8 4 -0.7938 0.3657
15 8 5 -1.3047 0.2768
15 8 6 -0.3507 0.4172
15 8 7 -2.9564 -0.1080
15 8 8 -5.0122 0.1211
15 8 9 0.8948 -0.3404
15 8 10 -2.0127 0.0223
15 8 11 -2.5846 -0.3598
15 8 12 -5.4196 0.0975
15 8 13 0.3901 -0.0069
15 8 14 1.0550 0.3921
15 8 15 1.5754 0.0616
15 8 16 3.3750 0.4094
15 8 17 0.2870 0.0141
15 8 18 1.5155 0.1263
15 8 19 -3.4719 -0.0591
15 8 20 -3.2509 -0.2264
15 8 21 -2.1466 -0.3693
15 8 22 3.7616 -0.2442
15 9 0 3.2622 -0.1778
15 9 1 -0.5612 -1.0407
15 9 2 1.3275 0.1240
15 9 3 7.1541 -0.0690
15 9 4 3.3670 0.0421
15 9 5 -1.9677 0.3713
15 9 6 -1.9717 -0.1143
15 9 7 2.0161 0.1414
15 9 8 -3.6023 -0.1887
15 9 9 -0.3143 -0.2661
15 9 10 5.3887 -0.1045
15 9 11 -2.4871 -0.2650
15 9 12 -4.1101 -0.0795
15 9 13 -0.6965 0.0363
15 9 14 2.9748 -0.2109
15 9 15 -0.9054 0.1404
15 9 16 5.0758 0.0967
15 9 17 2.9932 -0.0350
15 9 18 0.2057 0.0827
15 9 19 1.0140 -0.3603
15 9 20 0.6586 -0.0905
15 9 21 0.3875 -0.2984
15 10 0 3.9705 -0.1900
15 10 1 -1.0472 0.0530
15 10 2 3.3229 0.0192
15 10 3 -0.5584 0.2643
15 10 4 0.6323 0.2718
15 10 5 -0.2818 0.2692
15 10 6 -0.2470 0.3223
15 10 7 -0.7607 0.0936
15 10 8 2.3572 0.3882
15 10 9 1.8734 0.1793
15 10 10 -2.0517 0.3469
15 10 11 0.3423 0.1014
15 10 12 8.2623 0.2214
15 10 13 -4.8760 -0.0573
15 10 14 2.5230 0.3723
15 10 15 -1.3409 -0.0284
15 10 16 -0.5280 0.4018
15 10 17 0.8337 0.0492
15 10 18 -2.7750 0.1681
15 10 19 -1.4302 0.2595
15 10 20 -2.6721 -0.0302
15 10 21 0.9317 0.3629
15 11 0 2.5511 0.5954
15 11 1 0.7997 1.0009
15 11 2 2.7184 0.0727
15 11 3 -0.0838 0.1250
15 11 4 -0.3797 -0.2085
15 11 5 -4.1266 -0.2210
15 11 6 -1.3461 -0.0649
15 11 7 4.4028 0.1585
15 11 8 -0.3149 0.2424
15 11 9 1.2166 0.3755
15 11 10 1.9919 0.3106
15 11 11 -1.3376 0.3729
15 11 12 -1.8912 -0.0385
15 11 13 1.3451 0.2467
15 11 14 -0.3134 -0.1168
15 11 15 -2.2056 0.1517
15 11 16 -0.8047 0.0323
15 11 17 -2.5213 0.1562
15 11 18 1.1514 -0.0907
15 11 19 1.1552 0.0832
15 11 20 -3.5250 0.2226
15 12 0 4.4458 -0.6127
15 12 1 3.5126 -0.1328
15 12 2 -0.4133 -0.1282
15 12 3 1.5484 -0.1509
15 12 4 0.9089 0.2432
15 12 5 6.6445 -0.1853
15 12 6 -2.0440 0.1880
15 12 7 0.3102 -0.0986
15 12 8 -1.9336 0.0691
15 12 9 3.5224 -0.0286
15 12 10 7.1192 -0.0236
15 12 11 -0.5142 -0.0591
15 12 12 0.3004 -0.0326
15 12 13 2.6359 -0.1437
15 12 14 2.0111 0.2648
15 12 15 0.2781 0.0809
15 12 16 2.2775 0.1509
15 12 17 -1.7443 -0.0179
15 12 18 -2.0322 0.2149
15 12 19 2.8628 -0.1468
15 12 20 -1.9460 -0.0054
15 13 0 -0.2631 0.0434
15 13 1 -3.9944 -1.3427
15 13 2 -0.4441 -0.0631
15 13 3 1.0304 -0.2063
15 13 4 0.2086 -0.1884
15 13 5 0.8613 0.1775
15 13 6 3.2911 -0.4245
15 13 7 -1.1888 -0.0092
15 13 8 -3.6951 -0.3332
15 13 9 2.5168 -0.3013
15 13 10 -3.4222 -0.3135
15 13 11 -0.1352 -0.2940
15 13 12 -2.9873 -0.2988
15 13 13 3.2843 0.0394
15 13 14 1.3836 -0.2911
15 13 15 -4.5909 -0.1645
15 13 16 -0.7922 -0.1574
15 13 17 -0.5407 -0.3770
15 13 18 -2.2146 -0.3623
15 13 19 1.7554 -0.6124
15 14 0 -0.6037 0.4156
15 14 1 -2.9562 -1.8689
15 14 2 6.5369 0.1013
15 14 3 0.1463 0.0852
15 14 4 2.4986 -0.0679
15 14 5 0.0838 0.8204
15 14 6 5.6826 -0.0309
15 14 7 -2.2300 0.5250
15 14 8 0.9960 0.0435
15 14 9 1.3741 0.0233
15 14 10 0.6850 -0.1129
15 14 11 -1.1140 -0.0165
15 14 12 3.3973 -0.0831
15 14 13 1.6839 0.3015
15 14 14 -2.4170 0.1144
15 14 15 -1.9428 0.1650
15 14 16 -1.7247 -0.1140
15 14 17 2.3762 -0.0190
15 14 18 0.3788 0.1635
15 15 0 5.9768 -0.5276
15 15 1 1.6146 0.4525
15 15 2 -1.2706 -0.0292
15 15 3 2.9552 -0.0595
15 15 4 -0.5715 0.2651
15 15 5 -2.9590 -0.1129
15 15 6 1.1339 0.2920
15 15 7 5.2378 0.0566
15 15 8 0.6242 0.2856
15 15 9 -3.6736 0.1432
15 15 10 0.8988 0.0775
15 15 11 1.9428 0.2853
15 15 12 -0.8234 0.0391
15 15 13 0.6155 0.1262
15 15 14 0.8629 0.0760
15 15 15 -1.2526 -0.2109
15 15 16 -0.7236 0.3532
15 15 17 2.5905 0.0538
15 16 0 -6.3767 -0.0363
15 16 1 -4.8227 1.6685
15 16 2 0.7399 -0.0182
15 16 3 3.4402 0.1153
15 16 4 2.6878 0.0327
15 16 5 -5.8706 -0.4357
15 16 6 -3.2262 -0.1204
15 16 7 0.6658 -0.3281
15 16 8 -5.0748 -0.1218
15 16 9 -1.8293 -0.0128
15 16 10 3.9727 -0.0597
15 16 11 1.0011 0.2570
15 16 12 -2.2917 0.0478
15 16 13 2.1119 0.1180
15 16 14 -0.8281 -0.1001
15 16 15 -3.3680 0.0862
15 16 16 -3.5404 -0.0990
15 17 0 -2.8076 -0.0186
15 17 1 5.1097 1.4316
15 17 2 -1.8350 -0.0740
15 17 3 3.9123 0.0809
15 17 4 0.3141 0.0722
15 17 5 -5.3507 -0.6261
15 17 6 -3.5269 -0.1475
15 17 7 -3.8462 -0.3917
15 17 8 -1.7930 -0.1734
15 17 9 1.6892 0.0826
15 17 10 -2.4447 -0.1542
15 17 11 -0.8993 0.2497
15 17 12 -0.2367 -0.0606
15 17 13 -4.7826 -0.0149
15 17 14 -1.1238 -0.2198
15 17 15 -1.9351 0.1959
15 18 0 1.5019 1.1184
15 18 1 0.8701 0.5878
15 18 2 3.8392 0.0935
15 18 3 3.2589 -0.0634
15 18 4 -0.1797 -0.2193
15 18 5 -3.4825 -0.1697
15 18 6 0.1327 -0.3200
15 18 7 8.5007 -0.0961
15 18 8 1.6769 -0.1745
15 18 9 -1.0863 0.1001
15 18 10 -1.4453 0.2922
15 18 11 1.7363 -0.1553
15 18 12 -3.8726 0.5326
15 18 13 1.4418 -0.1849
15 18 14 0.5070 0.6686
15 19 0 1.3802 -0.1321
15 19 1 -0.6255 -1.1862
15 19 2 -3.3450 -0.0127
15 19 3 1.9320 0.2299
15 19 4 1.5047 0.2245
15 19 5 -6.0176 0.4232
15 19 6 -1.3842 0.1505
15 19 7 1.8533 0.2599
15 19 8 -2.9929 -0.1083
15 19 9 1.2119 -0.0786
15 19 10 -0.4444 -0.0361
15 19 11 0.8607 -0.4079
15 19 12 1.2777 -0.1253
15 19 13 -1.6907 -0.3932
15 20 0 3.9662 -0.4878
15 20 1 -2.0743 0.2691
15 20 2 0.1265 0.0855
15 20 3 -1.0303 -0.1839
15 20 4 -2.5392 0.0511
15 20 5 -2.2920 -0.2575
15 20 6 0.3463 -0.2632
15 20 7 -1.8169 0.0252
15 20 8 -0.8664 -0.1990
15 20 9 0.5823 0.1387
15 20 10 0.6534 -0.1869
15 20 11 0.8138 0.2764
15 21 0 2.2071 0.6158
15 21 1 0.7958 -0.6170
15 21 2 -0.1058 0.2228
15 21 3 -1.0886 -0.0725
15 21 4 1.1103 0.2419
15 21 5 -3.4073 -0.0220
15 21 6 0.6384 0.5412
15 21 7 -0.3971 -0.0269
15 21 8 -1.5080 0.5316
15 21 9 -1.3062 0.0019
15 22 0 -0.7167 0.6499
15 22 1 -0.7670 -1.3746
15 22 2 -4.7142 0.2333
15 22 3 -2.7658 -0.4585
15 22 4 3.5505 0.2453
15 22 5 -2.0735 -0.0925
15 22 6 3.6173 0.3361
15 22 7 -0.2534 -0.3169
15 23 0 -5.0191 -0.6943
15 23 1 6.1372 1.4415
15 23 2 4.9821 -0.2330
16 0 0 1.7694 -0.3845
16 0 1 -2.1246 0.1085
16 0 2 0.0900 0.1670
16 0 3 6.7517 0.3477
16 0 4 5.8446 0.2029
16 0 5 8.6924 0.1002
16 0 6 -4.8090 0.2012
16 0 7 -2.3730 0.5280
16 0 8 0.6982 0.0714
16 0 9 9.7161 -0.1625
16 0 10 -3.5776 0.0527
16 0 11 1.1036 0.1964
16 0 12 -2.7881 0.2360
16 0 13 -2.9265 0.2354
16 0 14 3.2852 0.0574
16 0 15 -9.4395 -0.0423
16 0 16 -2.0135 0.2239
16 0 17 -1.9246 0.3168
16 0 18 -3.3079 0.1077
16 0 19 -10.2376 0.0239
16 0 20 -2.5250 0.1867
16 0 21 -6.5528 0.2390
16 0 22 -1.7178 0.2943
16 1 0 5.8445 -0.5934
16 1 1 5.4972 -0.2560
16 1 2 11.6479 -0.2249
16 1 3 1.3740 -0.1385
16 1 4 4.3124 -0.3673
16 1 5 0.4078 0.0831
16 1 6 -1.4039 -0.1413
16 1 7 -0.8484 0.3397
16 1 8 -2.1966 -0.2902
16 1 9 2.1619 0.1303
16 1 10 5.7632 -0.1863
16 1 11 2.0073 -0.0987
16 1 12 -4.6665 -0.3990
16 1 13 3.3645 -0.0429
16 1 14 1.0160 -0.2114
16 1 15 -4.3682 0.0317
16 1 16 3.2725 -0.1770
16 1 17 1.2357 0.1321
16 1 18 1.1324 0.0150
16 1 19 1.5095 -0.1328
16 1 20 2.5768 -0.2693
16 1 21 -1.8408 0.0592
16 1 22 -1.5134 -0.1784
16 2 0 1.4845 -0.8301
16 2 1 -4.0845 1.3406
16 2 2 -3.8571 -0.1053
16 2 3 -6.0591 0.4232
16 2 4 6.5828 -0.0388
16 2 5 0.4833 0.0897
16 2 6 -2.6204 -0.2481
16 2 7 1.2164 0.3286
16 2 8 1.0326 -0.4494
16 2 9 0.4238 0.5596
16 2 10 -1.2019 -0.4539
16 2 11 -1.6669 0.6975
16 2 12 2.3186 -0.3081
16 2 13 3.2750 0.7861
16 2 14 -4.1936 -0.2120
16 2 15 -7.9507 0.6255
16 2 16 0.3076 -0.2046
16 2 17 -3.2469 0.3049
16 2 18 -0.8456 -0.2132
16 2 19 -2.9441 0.2245
16 2 20 0.0393 -0.3686
16 2 21 -1.6639 0.5434
16 2 22 0.3370 -0.1830
16 3 0 -0.6153 0.5139
16 3 1 5.0644 0.7417
16 3 2 0.1445 -0.1619
16 3 3 0.2161 0.1940
16 3 4 5.2447 -0.2554
16 3 5 2.9293 -0.0346
16 3 6 3.3140 -0.1661
16 3 7 -1.2404 -0.0472
16 3 8 0.5446 -0.2797
16 3 9 0.0862 0.3307
16 3 10 -13.5118 -0.0700
16 3 11 0.5246 0.3939
16 3 12 1.7956 0.0246
16 3 13 0.8683 0.1290
16 3 14 5.6196 -0.1741
16 3 15 1.2257 -0.0244
16 3 16 -1.1567 -0.3231
16 3 17 -1.1459 -0.0490
16 3 18 1.4017 -0.1598
16 3 19 -4.8607 0.0296
16 3 20 -3.1411 -0.1885
16 3 21 -0.4023 0.0026
16 3 22 -2.0462 0.2662
16 4 0 -1.2335 2.0721
16 4 1 0.6061 -1.8099
16 4 2 -4.2159 0.1750
16 4 3 -0.2849 -0.1918
16 4 4 -4.3829 -0.6994
16 4 5 -9.9351 0.3277
16 4 6 0.1706 -0.4902
16 4 7 0.5686 0.0785
16 4 8 -6.8154 -0.1694
16 4 9 -0.2221 -0.3239
16 4 10 3.2231 -0.1099
16 4 11 -1.3161 -0.4699
16 4 12 -3.0184 -0.0503
16 4 13 -2.6932 -0.2916
16 4 14 3.0816 -0.2821
16 4 15 -0.5575 -0.0648
16 4 16 -7.9425 -0.3559
16 4 17 -0.5204 0.0975
16 4 18 -1.2764 -0.3028
16 4 19 -0.0788 -0.0760
16 4 20 3.6056 0.0730
16 4 21 -2.9769 -0.3724
16 5 0 1.9143 1.1597
16 5 1 9.6184 0.7315
16 5 2 -4.4570 0.0484
16 5 3 -4.1053 0.1005
16 5 4 3.7962 -0.3123
16 5 5 -3.4267 -0.0392
16 5 6 1.8967 -0.3109
16 5 7 -1.8441 -0.0578
16 5 8 -1.8718 0.1380
16 5 9 4.5916 0.1118
16 5 10 0.0460 0.1025
16 5 11 -0.6367 -0.0597
16 5 12 1.0906 -0.0473
16 5 13 -0.7886 -0.0403
16 5 14 -1.2095 -0.2190
16 5 15 -0.5578 0.1281
16 5 16 1.0175 -0.1912
16 5 17 -2.5494 0.0438
16 5 18 -1.6311 -0.0062
16 5 19 -1.1713 -0.0452
16 5 20 2.2156 0.2795
16 5 21 1.3901 0.0607
16 6 0 3.7206 -0.9040
16 6 1 -0.4071 0.4393
16 6 2 5.3428 -0.1134
16 6 3 -0.0130 0.3613
16 6 4 6.1933 0.0551
16 6 5 1.6463 0.0998
16 6 6 6.2893 0.1696
16 6 7 4.4567 0.2365
16 6 8 2.0136 0.2096
16 6 9 -2.7945 0.4222
16 6 10 3.9703 -0.1370
16 6 11 -1.1998 0.2420
16 6 12 -1.7109 -0.1975
16 6 13 -2.8925 -0.0181
16 6 14 -7.1319 0.0231
16 6 15 -1.1198 0.0954
16 6 16 0.9035 0.0670
16 6 17 0.3020 0.2222
16 6 18 0.5756 0.0157
16 6 19 0.4211 0.1604
16 6 20 -0.7956 0.0059
16 6 21 2.2055 0.0549
16 7 0 -1.5002 -1.0505
16 7 1 -2.9200 0.1595
16 7 2 -3.5706 -0.2025
16 7 3 -0.0301 -0.2149
16 7 4 4.6315 0.3002
16 7 5 -3.9142 -0.2036
16 7 6 -2.3780 0.1499
16 7 7 0.3588 -0.1379
16 7 8 -1.6516 -0.0230
16 7 9 -4.4935 -0.1212
16 7 10 -4.1483 -0.1057
16 7 11 1.6241 -0.1192
16 7 12 -1.0164 -0.1152
16 7 13 -3.9945 -0.0981
16 7 14 -1.2955 0.1873
16 7 15 -0.2890 -0.1438
16 7 16 -0.6122 0.2831
16 7 17 -0.2709 -0.0686
16 7 18 -1.1157 0.1016
16 7 19 3.4725 0.0857
16 7 20 0.2552 -0.2296
16 7 21 2.5593 0.0731
16 8 0 1.1900 -1.4296
16 8 1 -5.7933 -0.9810
16 8 2 -3.8195 -0.1470
16 8 3 -0.3072 -0.1140
16 8 4 -1.0846 0.2472
16 8 5 0.0139 0.2620
16 8 6 0.5098 0.0399
16 8 7 2.2053 0.1276
16 8 8 1.5131 -0.4732
16 8 9 1.5241 -0.0951
16 8 10 -1.2543 -0.5162
16 8 11 -1.6508 0.0155
16 8 12 2.2902 -0.1565
16 8 13 -0.5905 0.0839
16 8 14 2.5146 0.1602
16 8 15 3.5208 0.1672
16 8 16 0.9575 -0.0983
16 8 17 0.8675 0.1110
16 8 18 0.2224 -0.1411
16 8 19 1.7542 -0.0761
16 8 20 -0.1556 -0.3912
16 9 0 -2.1811 1.0030
16 9 1 -3.6014 -1.2563
16 9 2 -4.8835 0.3350
16 9 3 0.2127 -0.0788
16 9 4 -5.3527 0.0097
16 9 5 -2.9331 0.4200
16 9 6 -2.0729 -0.0783
16 9 7 -4.0707 0.0282
16 9 8 -0.2311 0.0237
16 9 9 0.6691 -0.2085
16 9 10 -3.5091 0.1350
16 9 11 -3.2721 -0.3605
16 9 12 0.0906 -0.0043
16 9 13 -0.0028 -0.2004
16 9 14 -2.5240 -0.0043
16 9 15 0.0109 0.0760
16 9 16 0.6966 -0.0409
16 9 17 0.0335 0.0354
16 9 18 3.9760 -0.0494
16 9 19 0.9742 -0.3034
16 9 20 -0.1431 0.3558
16 10 0 -1.9364 0.3041
16 10 1 -3.9532 1.2364
16 10 2 -4.5811 -0.0052
16 10 3 0.8634 0.0646
16 10 4 -3.4962 -0.1309
16 10 5 -1.7292 -0.2306
16 10 6 -2.7708 -0.1617
16 10 7 -2.2903 -0.0042
16 10 8 -4.6655 -0.0162
16 10 9 -1.3330 0.2664
16 10 10 -0.4373 0.1869
16 10 11 -0.7331 0.1449
16 10 12 0.3974 -0.2051
16 10 13 2.1192 0.0985
16 10 14 -1.0196 -0.1837
16 10 15 -2.3803 0.0303
16 10 16 0.2098 -0.3139
16 10 17 -2.9314 0.2055
16 10 18 -3.4292 0.0875
16 10 19 -1.0660 0.3390
16 11 0 0.1052 -1.3413
16 11 1 3.8641 0.8210
16 11 2 -3.4568 -0.0712
16 11 3 0.0127 0.0293
16 11 4 0.2449 0.3318
16 11 5 3.2713 -0.2701
16 11 6 1.4452 0.3425
16 11 7 0.1726 -0.3266
16 11 8 3.6746 0.2212
16 11 9 -1.0358 0.0190
16 11 10 -3.2896 0.0762
16 11 11 2.2936 0.2175
16 11 12 1.3408 0.0999
16 11 13 2.2461 -0.0847
16 11 14 -1.0415 0.5434
16 11 15 -1.7041 -0.2052
16 11 16 2.5188 0.6522
16 11 17 -0.9775 -0.0011
16 11 18 3.5591 -0.0812
16 11 19 1.0597 0.2569
16 12 0 6.8494 0.9078
16 12 1 3.6535 -1.0534
16 12 2 -3.3202 -0.0148
16 12 3 2.1082 -0.0851
16 12 4 1.8649 -0.2061
16 12 5 2.3603 0.3469
16 12 6 2.5151 -0.2953
16 12 7 4.6645 0.1055
16 12 8 -1.4382 -0.1176
16 12 9 2.4159 -0.1403
16 12 10 3.4879 0.0557
16 12 11 -0.3750 -0.1384
16 12 12 -2.0399 -0.1286
16 12 13 1.8809 0.0778
16 12 14 -0.2522 0.0418
16 12 15 1.7451 -0.0052
16 12 16 1.2479 -0.1560
16 12 17 -1.9924 -0.4113
16 12 18 1.5624 0.1639
16 13 0 0.5327 0.3558
16 13 1 -4.7282 -2.0708
16 13 2 -1.3628 0.0110
16 13 3 -2.0967 -0.2672
16 13 4 -5.0923 0.0602
16 13 5 -3.2392 0.4058
16 13 6 1.4870 0.0067
16 13 7 -4.9329 0.0397
16 13 8 0.8845 0.0444
16 13 9 -2.8441 -0.3675
16 13 10 -0.0004 -0.0771
16 13 11 0.8674 -0.4255
16 13 12 1.8422 -0.2605
16 13 13 -1.2784 -0.3698
16 13 14 0.9991 -0.0238
16 13 15 -2.3521 -0.0306
16 13 16 -1.4631 -0.0075
16 13 17 -1.1015 -0.3414
16 13 18 0.6523 0.2056
16 14 0 1.7675 -0.5473
16 14 1 1.9237 0.1858
16 14 2 1.1881 0.0519
16 14 3 7.3849 -0.0058
16 14 4 -1.5427 0.3133
16 14 5 -2.1020 0.2443
16 14 6 0.2267 0.1763
16 14 7 6.3773 0.2604
16 14 8 -0.9902 0.0766
16 14 9 2.6481 0.1293
16 14 10 2.8897 0.0232
16 14 11 -1.6970 0.1595
16 14 12 1.4015 -0.1696
16 14 13 -1.6497 0.3095
16 14 14 -1.0308 0.0789
16 14 15 -1.4692 0.1213
16 14 16 -0.0057 -0.1619
16 14 17 4.1125 -0.1340
16 15 0 -4.7627 -0.3398
16 15 1 1.9138 1.2864
16 15 2 5.2388 -0.0129
16 15 3 2.2179 0.1343
16 15 4 0.3718 0.1163
16 15 5 1.6796 -0.2650
16 15 6 1.3614 0.1202
16 15 7 2.3846 -0.1804
16 15 8 2.3448 0.0980
16 15 9 -0.1856 0.0317
16 15 10 1.6397 0.1005
16 15 11 -0.6438 0.3754
16 15 12 0.1922 -0.0100
16 15 13 -0.9719 0.3175
16 15 14 1.9102 0.1528
16 15 15 1.0350 0.3332
16 15 16 2.9307 0.1272
16 16 0 -2.6185 0.4944
16 16 1 -5.9375 1.8784
16 16 2 -1.6451 0.1006
16 16 3 -0.9247 0.0770
16 16 4 -0.8828 -0.2019
16 16 5 -1.7128 -0.6191
16 16 6 -0.4236 -0.3386
16 16 7 -1.2661 -0.2569
16 16 8 -4.3369 -0.2776
16 16 9 0.4931 0.2729
16 16 10 -2.4164 -0.2547
16 16 11 -0.3271 0.6011
16 16 12 -0.4778 -0.0943
16 16 13 2.8535 0.4658
16 16 14 -0.5057 0.2940
16 16 15 -2.9464 0.4034
16 17 0 3.2039 0.5011
16 17 1 -0.5271 0.2338
16 17 2 3.4698 -0.1928
16 17 3 1.4205 0.2337
16 17 4 -0.8726 -0.2175
16 17 5 0.9196 0.1578
16 17 6 4.2328 -0.1189
16 17 7 1.1597 0.1632
16 17 8 0.9190 -0.0288
16 17 9 0.5124 0.0866
16 17 10 -1.8677 0.1401
16 17 11 0.1624 -0.0377
16 17 12 2.3757 0.2446
16 17 13 -1.2234 -0.0876
16 17 14 -0.2274 0.0026
16 18 0 -5.1465 -0.2609
16 18 1 -2.5417 0.0704
16 18 2 -1.4643 0.2301
16 18 3 -0.2499 0.0710
16 18 4 -4.1754 0.4187
16 18 5 7.1469 0.0234
16 18 6 -3.3896 0.4118
16 18 7 2.4150 0.1265
16 18 8 -2.9499 0.2460
16 18 9 1.5609 0.0996
16 18 10 -1.3015 -0.0435
16 18 11 0.4513 -0.1952
16 18 12 -4.9613 -0.1897
16 19 0 -0.5510 0.3580
16 19 1 -1.2249 -0.0657
16 19 2 0.6709 -0.0710
16 19 3 -6.6466 -0.2784
16 19 4 -1.7489 -0.2853
16 19 5 1.6891 -0.0171
16 19 6 -0.6537 -0.1283
16 19 7 -0.3301 0.0805
16 19 8 0.2546 0.0212
16 19 9 2.7431 0.0848
16 19 10 -2.7358 0.0989
16 19 11 -7.0868 -0.1381
16 20 0 -1.0735 0.0838
16 20 1 3.6554 -2.0684
16 20 2 -0.6268 -0.0457
16 20 3 -3.7233 -0.4353
16 20 4 -0.9330 -0.0530
16 20 5 8.2145 -0.0732
16 20 6 0.2531 0.0583
16 20 7 -1.9714 -0.2652
16 20 8 -0.2536 -0.0679
16 20 9 5.3054 -0.8360
16 21 0 1.6182 0.0286
16 21 1 -0.1763 0.5731
16 21 2 -0.4831 0.1206
16 21 3 -2.9315 0.1763
16 21 4 -0.7405 0.1346
16 21 5 2.4719 0.3719
16 21 6 -2.2127 0.3049
16 22 0 0.7927 0.3194
16 22 1 -3.0810 0.9561
16 22 2 -6.1966 0.0785
17 1 0 0.3662 -0.3185
17 1 1 -2.8422 1.0086
17 1 2 -4.2462 -0.2440
17 1 3 -4.6324 -0.1398
17 1 4 2.6408 0.1408
17 1 5 -4.6468 -0.0298
17 1 6 -3.6643 -0.1879
17 1 7 1.2895 -0.3171
17 1 8 0.0071 0.0463
17 1 9 -5.4476 0.2592
17 1 10 0.9527 -0.4663
17 1 11 2.6263 0.1627
17 1 12 -0.1536 0.0700
17 1 13 -0.4189 0.1469
17 1 14 -2.3583 -0.3363
17 1 15 9.3934 -0.0056
17 1 16 2.8510 -0.1244
17 1 17 -4.2758 -0.3138
17 1 18 0.1552 -0.2236
17 1 19 0.3671 0.1406
17 1 20 5.9474 -0.0078
17 1 21 -0.0676 0.4399
17 2 0 -2.2787 0.1379
17 2 1 0.6862 0.1181
17 2 2 -1.9706 -0.1149
17 2 3 1.1806 -0.2460
17 2 4 -3.2046 -0.0768
17 2 5 -0.9507 -0.0797
17 2 6 1.8004 -0.1642
17 2 7 7.4247 0.2088
17 2 8 2.3196 -0.2185
17 2 9 5.8812 0.3796
17 2 10 0.8269 -0.0311
17 2 11 3.0379 0.1094
17 2 12 0.6091 0.0697
17 2 13 -2.6896 -0.1827
17 2 14 -1.0423 0.0531
17 2 15 -0.6003 -0.1346
17 2 16 1.1178 -0.0533
17 2 17 -2.4484 -0.0816
17 2 18 0.8531 0.0437
17 2 19 1.4058 0.3196
17 2 20 0.1841 0.1921
17 2 21 0.1288 -0.0472
17 3 0 17.5305 1.0047
17 3 1 -2.2524 -0.6054
17 3 2 -3.2932 -0.0097
17 3 3 -1.8240 0.3652
17 3 4 9.4560 -0.1422
17 3 5 -2.0627 0.4980
17 3 6 2.5310 -0.1519
17 3 7 -3.2785 0.2547
17 3 8 -1.0699 -0.0672
17 3 9 -3.3530 0.1392
17 3 10 -2.3113 0.1230
17 3 11 -1.3741 0.3366
17 3 12 1.2006 0.1467
17 3 13 3.4375 0.5054
17 3 14 -1.7299 0.0513
17 3 15 2.6525 0.4925
17 3 16 -1.6009 0.0369
17 3 17 0.1406 0.3498
17 3 18 -2.2330 -0.0096
17 3 19 -0.4729 -0.0000
17 3 20 1.9551 0.1626
17 4 0 3.9678 0.8940
17 4 1 -1.9815 -0.1031
17 4 2 7.2030 0.1272
17 4 3 0.6191 0.1056
17 4 4 -3.1872 -0.1757
17 4 5 0.3258 0.0662
17 4 6 0.2297 -0.0533
17 4 7 7.0814 -0.1184
17 4 8 3.4108 0.0405
17 4 9 -0.7290 -0.0555
17 4 10 0.5073 0.1393
17 4 11 4.4208 -0.0074
17 4 12 1.0082 0.1078
17 4 13 -1.4655 -0.0433
17 4 14 2.2292 -0.0863
17 4 15 1.8299 -0.0305
17 4 16 6.5464 -0.2000
17 4 17 3.7069 -0.0772
17 4 18 0.0177 0.0934
17 4 19 4.9398 -0.0333
17 4 20 0.1531 0.0994
17 5 0 7.1917 -0.1967
17 5 1 -1.7832 -0.2919
17 5 2 5.4824 -0.4624
17 5 3 0.9626 -0.1494
17 5 4 3.3550 -0.5937
17 5 5 1.4646 0.0118
17 5 6 0.4171 -0.4688
17 5 7 0.2802 0.0733
17 5 8 -0.3507 -0.3322
17 5 9 2.3433 0.1116
17 5 10 2.4114 -0.4930
17 5 11 -1.6434 -0.1356
17 5 12 -0.0779 -0.5582
17 5 13 1.5815 -0.3307
17 5 14 -1.6278 -0.5078
17 5 15 1.1326 -0.1168
17 5 16 3.1294 -0.2971
17 5 17 -0.8457 0.1005
17 5 18 -0.0060 -0.1608
17 5 19 -0.0751 0.1150
17 5 20 -1.8127 -0.2626
17 6 0 -4.9144 -0.9129
17 6 1 -8.4820 0.2510
17 6 2 1.3218 -0.1135
17 6 3 1.5186 -0.1197
17 6 4 0.1521 0.2079
17 6 5 -0.5588 -0.1272
17 6 6 3.9554 0.1890
17 6 7 1.5464 -0.0390
17 6 8 0.1418 -0.0435
17 6 9 0.4703 -0.0137
17 6 10 -1.6869 -0.1430
17 6 11 0.1081 -0.0296
17 6 12 -2.1650 -0.1784
17 6 13 -1.7207 0.0542
17 6 14 -2.3620 0.0805
17 6 15 -0.0607 0.0094
17 6 16 4.5798 0.1350
17 6 17 -1.2520 -0.0385
17 6 18 -0.0657 0.0515
17 6 19 0.0843 -0.2023
17 6 20 -2.4022 -0.3404
17 7 0 5.5957 -1.2827
17 7 1 6.8928 -0.6766
17 7 2 0.7180 -0.0946
17 7 3 5.2111 0.1019
17 7 4 0.3332 0.2998
17 7 5 -3.7122 0.3991
17 7 6 -0.9930 0.3081
17 7 7 1.1964 0.0548
17 7 8 -2.1315 0.1078
17 7 9 -1.1166 0.0228
17 7 10 2.6582 -0.2030
17 7 11 -2.2891 0.0512
17 7 12 1.4127 -0.0290
17 7 13 1.2067 -0.0209
17 7 14 0.1982 0.1367
17 7 15 -0.4656 0.0100
17 7 16 1.6452 0.1266
17 7 17 -1.0615 0.0938
17 7 18 -1.0991 -0.1075
17 7 19 0.6196 -0.1856
17 8 0 -3.7592 0.4212
17 8 1 -4.0337 -0.1047
17 8 2 7.1472 0.0146
17 8 3 -3.2234 -0.1399
17 8 4 -1.3291 -0.2160
17 8 5 -4.0769 -0.1311
17 8 6 0.0963 -0.3447
17 8 7 0.3502 -0.0810
17 8 8 4.1799 -0.3055
17 8 9 0.6989 -0.2133
17 8 10 0.2732 -0.1890
17 8 11 4.9117 -0.3191
17 8 12 -0.3211 -0.1205
17 8 13 -0.9777 -0.3832
17 8 14 3.4128 -0.1163
17 8 15 -1.4425 -0.2250
17 8 16 -3.1351 -0.2346
17 8 17 -1.0357 -0.0012
17 8 18 -2.8593 -0.1003
17 8 19 -0.5637 -0.0354
17 9 0 -6.1643 -0.7278
17 9 1 2.4709 -0.0912
17 9 2 -3.6596 -0.0477
17 9 3 4.6816 -0.0540
17 9 4 -5.0866 0.1173
17 9 5 -1.3468 -0.1119
17 9 6 -0.2043 0.0076
17 9 7 1.0495 -0.1923
17 9 8 -2.4509 -0.2864
17 9 9 0.7338 -0.2098
17 9 10 1.9847 -0.2462
17 9 11 -3.3596 -0.1082
17 9 12 -2.0178 -0.0232
17 9 13 1.8072 -0.0038
17 9 14 -3.6917 0.0795
17 9 15 -0.7645 0.1015
17 9 16 -0.7584 -0.1659
17 9 17 4.3225 0.0793
17 9 18 0.9425 -0.3790
17 9 19 -0.1087 0.0594
17 10 0 -0.7158 0.3928
17 10 1 -1.4098 -0.1801
17 10 2 -2.8805 0.1988
17 10 3 -1.1092 -0.0581
17 10 4 2.6111 0.0092
17 10 5 -2.3299 -0.1149
17 10 6 -2.4135 0.0911
17 10 7 -1.6303 -0.2412
17 10 8 -1.1330 0.2499
17 10 9 0.0532 -0.2485
17 10 10 0.1786 0.2850
17 10 11 -1.0053 0.0941
17 10 12 -0.5403 0.0678
17 10 13 1.9373 0.0794
17 10 14 3.3855 0.1319
17 10 15 1.0800 -0.0154
17 10 16 2.3652 0.1172
17 10 17 -0.7391 -0.3648
17 10 18 -0.3374 -0.0078
17 11 0 -0.1767 0.8046
17 11 1 1.0138 0.4243
17 11 2 -1.8772 0.2367
17 11 3 3.5242 0.0093
17 11 4 1.6289 -0.1562
17 11 5 0.1397 -0.1857
17 11 6 1.0036 -0.0408
17 11 7 0.1680 0.0933
17 11 8 -1.7235 0.0442
17 11 9 1.0383 0.2871
17 11 10 2.8679 0.1060
17 11 11 0.4891 0.1616
17 11 12 1.5922 -0.1718
17 11 13 1.6754 0.0976
17 11 14 2.3376 -0.1408
17 11 15 -1.9902 0.0013
17 11 16 0.5477 0.0801
17 11 17 1.4975 0.0189
17 12 0 1.9171 -1.1745
17 12 1 -0.6164 -0.7031
17 12 2 4.8372 -0.0674
17 12 3 -2.2349 -0.0377
17 12 4 -1.4077 0.4758
17 12 5 -0.9124 0.1684
17 12 6 2.8818 0.3650
17 12 7 -2.2704 0.0233
17 12 8 3.7239 0.1518
17 12 9 -0.2580 -0.1161
17 12 10 0.0248 -0.1301
17 12 11 -5.6394 -0.0941
17 12 12 2.0494 -0.0982
17 12 13 2.1626 -0.2124
17 12 14 -1.2729 0.2326
17 12 15 -0.6016 -0.0660
17 12 16 0.3859 -0.1064
17 12 17 3.1623 -0.2151
17 13 0 -3.6568 1.2448
17 13 1 -0.4595 -1.0788
17 13 2 -1.7748 0.2446
17 13 3 6.7373 0.0467
17 13 4 -5.0445 -0.1706
17 13 5 1.4617 0.5369
17 13 6 -5.5727 -0.2862
17 13 7 5.0220 0.3671
17 13 8 -1.0418 -0.1818
17 13 9 1.8233 -0.0744
17 13 10 -1.7150 -0.0051
17 13 11 -1.6958 -0.3418
17 13 12 1.3573 0.1477
17 13 13 1.0834 0.1959
17 13 14 1.1924 0.1051
17 13 15 -0.5696 0.0519
17 13 16 1.8086 0.2946
17 14 0 -5.8318 0.5185
17 14 1 1.9649 0.2212
17 14 2 4.9309 -0.0362
17 14 3 4.9993 -0.0762
17 14 4 5.5857 -0.2528
17 14 5 3.6941 -0.1005
17 14 6 2.9382 -0.1249
17 14 7 -0.8251 -0.2079
17 14 8 0.2279 0.1137
17 14 9 2.0112 -0.2158
17 14 10 0.9416 -0.1199
17 14 11 0.1980 -0.2213
17 14 12 0.6848 0.1322
17 14 13 4.0499 -0.1913
17 14 14 0.1274 0.4355
17 14 15 -6.3292 0.0337
17 15 0 1.9845 -0.8886
17 15 1 1.9751 2.3701
17 15 2 -1.0255 -0.0823
17 15 3 0.9747 0.1141
17 15 4 -2.3708 0.3139
17 15 5 0.6281 -0.4552
17 15 6 0.3348 0.1222
17 15 7 -0.3889 -0.0429
17 15 8 -2.8215 -0.1408
17 15 9 -1.2280 0.5405
17 15 10 -2.2092 -0.1718
17 15 11 2.1686 0.3990
17 15 12 -0.9303 -0.0542
17 15 13 2.8550 0.6163
17 15 14 3.1653 -0.1908
17 16 0 3.5905 -0.2042
17 16 1 1.6470 1.0105
17 16 2 4.4060 -0.0628
17 16 3 6.2137 0.0594
17 16 4 1.3592 0.1442
17 16 5 0.1962 -0.3304
17 16 6 -1.1967 0.3010
17 16 7 -0.3322 -0.1979
17 16 8 3.6424 0.0647
17 16 9 4.4490 0.2627
17 16 10 1.7050 -0.1585
17 16 11 -0.2026 0.2684
17 16 12 0.5360 -0.1598
17 16 13 2.8154 0.4593
17 17 0 7.9121 1.0497
17 17 1 1.9223 0.1125
17 17 2 -1.4279 0.2755
17 17 3 -1.9186 0.1997
17 17 4 2.2597 -0.1113
17 17 5 -1.1196 0.1724
17 17 6 -0.7582 -0.1458
17 17 7 3.5998 0.1786
17 17 8 -1.1026 0.0401
17 17 9 1.8251 0.0683
17 17 10 2.1653 0.1648
17 17 11 -1.0453 0.2171
17 17 12 0.7156 0.4829
17 18 0 -0.0900 0.3760
17 18 1 3.4614 -1.2010
17 18 2 0.2163 -0.1944
17 18 3 -4.9482 -0.0130
17 18 4 2.1151 -0.2398
17 18 5 1.4611 0.2029
17 18 6 -4.4577 -0.0259
17 18 7 -2.1165 0.0127
17 18 8 1.4056 0.0586
17 18 9 -1.2061 -0.4797
17 18 10 3.1368 0.2135
17 19 0 5.8829 -1.0491
17 19 1 -0.2740 -0.4319
17 19 2 -2.4091 -0.5979
17 19 3 1.0866 -0.1104
17 19 4 1.3601 -0.4931
17 19 5 -0.6712 0.2414
17 19 6 -0.3591 -0.2992
17 19 7 0.3916 0.2390
17 19 8 -1.9052 -0.3345
17 20 0 4.7497 0.2179
17 20 1 -2.1118 1.2484
17 20 2 -5.9785 0.0705
17 20 3 4.1168 0.2963
17 20 4 -0.2119 -0.0968
17 20 5 -5.6423 0.2332
17 20 6 2.1760 0.0449
18 0 0 -5.0854 0.2400
18 0 1 3.3053 1.7707
18 0 2 -0.2197 0.2111
18 0 3 0.4634 1.4378
18 0 4 -3.3510 0.5128
18 0 5 -5.9621 1.5535
18 0 6 5.0074 0.3085
18 0 7 4.8771 1.4940
18 0 8 9.5925 0.3796
18 0 9 -8.1170 1.6911
18 0 10 -3.4017 0.1938
18 0 11 2.9438 1.4102
18 0 12 -0.1359 0.3924
18 0 13 -0.0585 1.3650
18 0 14 1.5633 0.3423
18 0 15 4.2408 1.2422
18 0 16 2.4415 0.4023
18 0 17 3.9532 1.0147
18 0 18 2.0549 0.2785
18 0 19 6.3049 1.1127
18 1 0 -1.5845 0.5746
18 1 1 1.0933 -0.7544
18 1 2 3.0646 0.1612
18 1 3 2.8466 -0.3649
18 1 4 -3.2102 0.2121
18 1 5 0.0682 -0.4796
18 1 6 -2.2641 0.4831
18 1 7 -3.1335 -0.7666
18 1 8 0.5693 0.5372
18 1 9 0.9620 -0.7059
18 1 10 -1.5583 0.2203
18 1 11 -1.9258 -0.6303
18 1 12 -2.8231 0.3103
18 1 13 0.1587 -0.4299
18 1 14 7.4564 0.3165
18 1 15 -1.1374 -0.5361
18 1 16 -0.0723 0.4344
18 1 17 -0.2133 -0.5661
18 1 18 0.7988 0.4182
18 1 19 2.7220 -0.7620
18 2 0 -2.5095 -0.2123
18 2 1 0.1130 0.6911
18 2 2 3.7350 -0.3177
18 2 3 0.1187 0.4552
18 2 4 -1.7788 -0.2855
18 2 5 -5.6180 0.1100
18 2 6 0.5901 -0.3390
18 2 7 2.5447 0.0785
18 2 8 -2.0399 -0.4528
18 2 9 1.4336 0.2020
18 2 10 4.8343 -0.2445
18 2 11 -0.3354 0.2706
18 2 12 -0.3452 -0.1294
18 2 13 -3.3112 0.3164
18 2 14 0.7011 -0.1566
18 2 15 -1.8681 0.1718
18 2 16 1.1681 -0.2777
18 2 17 5.5871 0.0335
18 2 18 -2.2929 -0.1923
18 2 19 3.8138 0.0045
18 3 0 5.8621 0.0855
18 3 1 -0.9470 -0.0289
18 3 2 2.2049 0.2588
18 3 3 -4.3856 -0.0948
18 3 4 -0.7903 0.1101
18 3 5 -4.3512 0.0186
18 3 6 2.7334 0.1001
18 3 7 -1.8286 0.3062
18 3 8 2.0585 0.1543
18 3 9 -0.8608 0.3865
18 3 10 -3.0575 0.3021
18 3 11 -2.5590 0.2209
18 3 12 4.6626 0.4100
18 3 13 2.5069 -0.0257
18 3 14 -0.2300 0.2474
18 3 15 -5.8389 -0.0712
18 3 16 -0.6955 0.2412
18 3 17 0.8473 0.4466
18 3 18 4.3137 0.1839
18 3 19 -1.5202 0.3412
18 4 0 -1.8854 0.3252
18 4 1 1.5779 -1.5393
18 4 2 -7.0788 -0.1197
18 4 3 1.1470 -0.0153
18 4 4 1.0934 0.0202
18 4 5 0.9787 0.4386
18 4 6 3.4639 -0.1337
18 4 7 2.7493 0.1619
18 4 8 -2.7346 0.0480
18 4 9 -1.0576 -0.1633
18 4 10 -2.8263 0.1473
18 4 11 0.4553 -0.1351
18 4 12 1.3250 0.0365
18 4 13 0.5264 0.1459
18 4 14 0.2765 -0.0421
18 4 15 1.9898 0.1629
18 4 16 2.5315 -0.0082
18 4 17 -0.2233 -0.2762
18 4 18 -0.5664 0.1462
18 4 19 0.6366 -0.5694
18 5 0 0.1307 -0.2396
18 5 1 2.0514 -0.4546
18 5 2 -0.0300 0.0491
18 5 3 -1.8427 -0.0499
18 5 4 -0.0798 -0.0688
18 5 5 -3.5452 -0.1251
18 5 6 -3.2621 0.0091
18 5 7 -2.4844 -0.0806
18 5 8 1.3234 -0.0826
18 5 9 -0.8042 -0.1819
18 5 10 0.4813 -0.2334
18 5 11 -0.4355 -0.0420
18 5 12 -0.3182 -0.3892
18 5 13 0.7369 -0.0349
18 5 14 0.4786 -0.2014
18 5 15 -1.8461 -0.0467
18 5 16 0.0680 -0.0123
18 5 17 -4.2157 -0.2454
18 5 18 -0.6630 0.0219
18 5 19 -7.3665 -0.0095
18 6 0 -11.7505 -0.7098
18 6 1 3.9648 0.7022
18 6 2 -0.4517 -0.2056
18 6 3 5.4791 -0.0492
18 6 4 5.1688 -0.0916
18 6 5 0.6523 -0.2723
18 6 6 -1.8836 -0.0558
18 6 7 0.2347 -0.0340
18 6 8 -0.6376 -0.0638
18 6 9 5.0905 0.1602
18 6 10 5.4504 -0.4367
18 6 11 3.5220 0.1523
18 6 12 -0.2123 -0.5225
18 6 13 -1.8846 -0.1982
18 6 14 1.9224 -0.3457
18 6 15 1.0129 -0.1087
18 6 16 2.1986 -0.0738
18 6 17 -0.5090 0.3543
18 6 18 0.0260 -0.1722
18 7 0 3.3561 -0.8751
18 7 1 0.5210 0.1343
18 7 2 6.3199 0.0622
18 7 3 4.4541 -0.0350
18 7 4 3.1820 0.3263
18 7 5 0.3183 -0.0678
18 7 6 -0.2796 0.1600
18 7 7 1.3353 0.0324
18 7 8 -0.1861 -0.0340
18 7 9 -1.5738 -0.0042
18 7 10 -0.7897 -0.0082
18 7 11 -2.2393 -0.1580
18 7 12 8.0244 0.1449
18 7 13 -0.9744 -0.1586
18 7 14 1.9652 0.1730
18 7 15 -0.6012 -0.0071
18 7 16 -1.0751 0.0656
18 7 17 -6.0752 -0.0749
18 7 18 -2.6240 -0.1390
18 8 0 7.1222 -0.5264
18 8 1 -2.4085 -1.2754
18 8 2 -0.4447 -0.1150
18 8 3 -0.5933 0.0753
18 8 4 0.9141 0.0195
18 8 5 -1.8863 0.5988
18 8 6 6.0869 -0.1859
18 8 7 0.6261 0.2338
18 8 8 0.8032 -0.2709
18 8 9 1.3941 -0.0578
18 8 10 -0.5322 -0.2039
18 8 11 -1.3602 0.0646
18 8 12 -1.1821 0.0602
18 8 13 -0.5586 0.1757
18 8 14 -0.1537 0.0886
18 8 15 -2.8976 0.1212
18 8 16 -0.8266 -0.1880
18 8 17 -1.5529 -0.0169
18 9 0 5.0547 0.6712
18 9 1 0.5343 0.3395
18 9 2 0.4501 -0.0273
18 9 3 -0.3558 -0.2216
18 9 4 1.6327 -0.1707
18 9 5 3.8857 -0.3226
18 9 6 1.3211 -0.1090
18 9 7 -4.1692 -0.2055
18 9 8 -0.6734 0.1432
18 9 9 0.0863 -0.0450
18 9 10 -0.5654 0.3398
18 9 11 -1.2639 -0.0749
18 9 12 0.7683 0.1920
18 9 13 -4.0101 -0.0591
18 9 14 -4.3515 -0.1508
18 9 15 -3.1100 -0.0028
18 9 16 1.4417 0.2290
18 9 17 2.5350 -0.0817
18 10 0 2.3075 -0.9794
18 10 1 -0.1882 0.7163
18 10 2 -3.7227 -0.0123
18 10 3 -3.0963 -0.1395
18 10 4 2.1220 0.3444
18 10 5 -2.6814 -0.4584
18 10 6 2.0644 0.3944
18 10 7 -2.5252 -0.3273
18 10 8 -1.0567 0.2369
18 10 9 -1.0297 -0.0942
18 10 10 0.3808 -0.0799
18 10 11 -3.2754 -0.1234
18 10 12 0.7112 -0.1986
18 10 13 1.9421 -0.1199
18 10 14 0.9896 -0.1241
18 10 15 -1.9937 -0.0516
18 10 16 -1.1515 -0.0859
18 11 0 -3.1274 -0.0118
18 11 1 -2.3453 -0.5291
18 11 2 -1.7126 -0.0149
18 11 3 -0.1214 0.0166
18 11 4 -2.1497 0.0088
18 11 5 -0.1565 0.1198
18 11 6 -1.4117 -0.1461
18 11 7 -1.1474 0.1256
18 11 8 1.4757 -0.0682
18 11 9 1.3891 0.0205
18 11 10 -5.3052 0.1629
18 11 11 -1.2038 0.0739
18 11 12 -0.0689 -0.0494
18 11 13 -1.5016 -0.0112
18 11 14 1.3642 -0.0596
18 11 15 -0.4208 -0.0373
18 11 16 -3.5112 0.0321
18 12 0 -3.6827 2.0198
18 12 1 3.8587 -0.9778
18 12 2 -2.9321 0.2550
18 12 3 -1.1810 0.0613
18 12 4 -3.7883 -0.3104
18 12 5 0.8447 0.3076
18 12 6 0.4453 -0.2645
18 12 7 -2.3288 0.2494
18 12 8 -1.4143 0.0017
18 12 9 -2.0711 0.0622
18 12 10 -0.6881 0.4653
18 12 11 -0.7309 -0.1908
18 12 12 -0.0699 0.3399
18 12 13 -0.3252 0.0240
18 12 14 -2.0806 0.7198
18 12 15 1.2203 -0.0830
18 13 0 3.9533 -0.4532
18 13 1 0.1002 0.1568
18 13 2 -1.0967 0.0673
18 13 3 -0.6353 -0.0576
18 13 4 -1.6672 0.1798
18 13 5 3.5175 -0.1578
18 13 6 -0.5759 0.2789
18 13 7 1.6683 0.0297
18 13 8 -3.0587 0.0549
18 13 9 -0.8015 -0.1653
18 13 10 -0.6630 -0.1379
18 13 11 7.8204 -0.1771
18 13 12 -2.0635 -0.0980
18 13 13 0.1935 -0.0079
18 13 14 -0.0099 0.1654
18 14 0 -2.5150 -0.4753
18 14 1 -4.0884 1.4279
18 14 2 -6.6495 -0.3599
18 14 3 -0.6636 0.0887
18 14 4 0.6292 -0.1056
18 14 5 -5.2669 -0.4539
18 14 6 2.4756 -0.0977
18 14 7 -2.4981 -0.1400
18 14 8 -2.1415 -0.3886
18 14 9 0.2440 0.1078
18 14 10 1.6511 -0.3522
18 14 11 0.1433 0.1293
18 14 12 -1.0921 -0.3932
18 14 13 -1.5143 0.5858
18 15 0 -2.6647 0.3593
18 15 1 -0.5389 0.9049
18 15 2 -0.4462 0.1225
18 15 3 -1.2007 0.0707
18 15 4 -0.1187 -0.0133
18 15 5 0.2982 -0.3010
18 15 6 0.5132 0.0360
18 15 7 1.8485 -0.3525
18 15 8 -3.5931 -0.0206
18 15 9 0.7893 -0.0246
18 15 10 -1.2054 0.0075
18 15 11 -0.0444 0.0886
18 15 12 -0.8200 0.1562
18 16 0 1.5955 0.0711
18 16 1 2.5441 0.1911
18 16 2 -2.1480 0.0793
18 16 3 1.5760 0.3399
18 16 4 1.9164 -0.0330
18 16 5 -0.6428 0.3573
18 16 6 -1.0573 -0.0224
18 16 7 4.3814 0.1649
18 16 8 4.8747 -0.1342
18 16 9 0.1351 0.2089
18 16 10 1.2255 -0.1363
18 16 11 -1.9209 0.4068
18 17 0 -0.1103 -0.1077
18 17 1 -1.7224 -0.9123
18 17 2 1.4909 -0.1041
18 17 3 -2.9276 -0.1355
18 17 4 -1.9983 0.0237
18 17 5 -0.1710 0.0679
18 17 6 -2.0352 0.0287
18 17 7 -2.6518 0.0015
18 17 8 1.8972 -0.2129
18 17 9 0.4803 -0.3490
18 18 0 1.1968 0.0089
18 18 1 5.2348 0.0850
18 18 2 2.4121 -0.1193
18 18 3 -1.0998 -0.0003
18 18 4 0.2618 -0.1904
18 18 5 7.9764 0.2271
18 18 6 3.0967 -0.1017
18 18 7 -4.3758 0.1727
18 19 0 -4.0757 -0.2230
18 19 1 -4.1236 -0.2468
18 19 2 2.0049 -0.2281
18 19 3 1.8495 -0.1439
18 19 4 -1.6062 -0.2495
19 1 0 -0.8173 0.1354
19 1 1 -2.0614 0.5350
19 1 2 -2.2388 -0.2040
19 1 3 2.3518 0.2268
19 1 4 0.1658 -0.0688
19 1 5 -3.9414 -0.2565
19 1 6 0.0106 0.1301
19 1 7 2.2856 0.2917
19 1 8 -1.5945 -0.0952
19 1 9 -0.2233 0.1213
19 1 10 -2.2986 0.1043
19 1 11 0.5229 0.1696
19 1 12 -2.2148 0.1049
19 1 13 -0.2993 -0.0353
19 1 14 -2.6490 0.3812
19 1 15 -1.1511 -0.0827
19 1 16 -4.9751 0.1417
19 1 17 -3.3652 0.4739
19 1 18 -6.5295 0.1730
19 2 0 2.6778 0.2014
19 2 1 -1.8873 -1.1127
19 2 2 -4.5625 0.4945
19 2 3 1.0025 0.2829
19 2 4 2.1423 -0.0418
19 2 5 1.5913 0.4076
19 2 6 0.3625 -0.1852
19 2 7 1.4257 0.2618
19 2 8 0.5552 -0.0805
19 2 9 3.6334 0.0778
19 2 10 2.5247 -0.0771
19 2 11 -3.4633 0.0389
19 2 12 -0.7427 0.0601
19 2 13 0.6328 0.0202
19 2 14 -1.2251 -0.0838
19 2 15 0.1995 0.0549
19 2 16 1.3303 0.1083
19 2 17 0.1347 -0.3667
19 3 0 -1.6325 -0.2200
19 3 1 3.9343 -0.5173
19 3 2 -4.0081 0.1852
19 3 3 0.4795 0.2244
19 3 4 1.8147 0.2105
19 3 5 1.2193 0.3702
19 3 6 -0.5427 0.0283
19 3 7 1.0060 0.0847
19 3 8 -2.3404 0.0098
19 3 9 0.8840 -0.0594
19 3 10 -0.8591 0.1180
19 3 11 3.4928 0.1225
19 3 12 -0.8626 0.2680
19 3 13 -0.2501 0.2553
19 3 14 -0.2583 0.1579
19 3 15 0.5708 -0.0597
19 3 16 -1.9240 0.0705
19 3 17 -0.8789 -0.1568
19 4 0 -3.3735 -0.1741
19 4 1 -4.2334 0.4439
19 4 2 0.1788 0.1573
19 4 3 -2.0282 -0.1978
19 4 4 1.4222 0.1231
19 4 5 0.7856 -0.2892
19 4 6 -1.5530 0.3342
19 4 7 -7.2208 -0.0397
19 4 8 -1.3656 0.4355
19 4 9 0.1662 0.0759
19 4 10 1.2086 0.3329
19 4 11 -0.9630 0.0905
19 4 12 -3.4390 0.2668
19 4 13 -1.8642 -0.0459
19 4 14 -3.4456 0.3209
19 4 15 -2.6311 0.0599
19 4 16 2.8971 0.1500
19 4 17 4.5218 0.5338
19 5 0 4.2589 0.4802
19 5 1 -1.8515 -0.4691
19 5 2 1.4033 0.0725
19 5 3 1.9122 -0.0637
19 5 4 0.0859 -0.1689
19 5 5 -2.2227 0.1285
19 5 6 -1.4270 -0.1934
19 5 7 -1.4107 0.2101
19 5 8 -3.8209 -0.0989
19 5 9 -0.1898 0.1009
19 5 10 2.3807 -0.3173
19 5 11 0.3073 0.0384
19 5 12 1.8286 -0.4080
19 5 13 0.8778 0.0289
19 5 14 1.7324 -0.2076
19 5 15 4.4549 0.0391
19 5 16 2.9493 0.0838
19 5 17 -2.8046 -0.0096
19 6 0 0.5193 -0.2955
19 6 1 -4.5799 -0.5489
19 6 2 4.2484 0.3400
19 6 3 1.1646 -0.1197
19 6 4 -5.9975 0.3046
19 6 5 -2.8846 -0.0031
19 6 6 1.3725 0.0661
19 6 7 2.7438 -0.0679
19 6 8 1.1505 0.1914
19 6 9 -1.1756 -0.2021
19 6 10 0.4499 -0.1102
19 6 11 -3.8752 -0.1577
19 6 12 -4.7910 -0.0475
19 6 13 -1.0127 -0.1335
19 6 14 3.6996 0.1856
19 6 15 -1.5144 -0.2091
19 6 16 3.3259 0.0903
19 6 17 5.2962 -0.2102
19 7 0 -1.9452 -0.4351
19 7 1 -0.3320 0.4875
19 7 2 -0.1369 0.0160
19 7 3 -1.7426 0.2129
19 7 4 -1.2946 0.0926
19 7 5 1.1065 0.1258
19 7 6 3.2990 -0.0860
19 7 7 -0.1292 0.2920
19 7 8 -2.2399 0.1269
19 7 9 2.7987 0.3378
19 7 10 3.6980 0.0590
19 7 11 -3.3300 0.4710
19 7 12 1.0767 -0.1159
19 7 13 1.4351 0.2106
19 7 14 -1.1534 0.0906
19 7 15 -2.1107 0.2864
19 7 16 -0.8708 -0.2934
19 8 0 2.3535 -0.7344
19 8 1 3.7217 0.3753
19 8 2 1.2184 0.1054
19 8 3 -3.2193 0.0355
19 8 4 1.0944 0.2293
19 8 5 -0.4372 -0.1686
19 8 6 4.9921 0.1463
19 8 7 1.8063 0.0666
19 8 8 0.8398 0.0592
19 8 9 -3.3809 0.0257
19 8 10 -2.7279 -0.0891
19 8 11 2.4020 0.0346
19 8 12 0.9759 -0.0218
19 8 13 0.8211 0.1781
19 8 14 5.8396 -0.0188
19 8 15 -1.9928 0.2054
19 8 16 1.4082 -0.1720
19 9 0 4.3757 -0.6708
19 9 1 -1.9432 -0.9119
19 9 2 -3.8559 -0.1220
19 9 3 -0.8565 -0.1092
19 9 4 -0.4268 0.0710
19 9 5 -0.2820 0.1540
19 9 6 -1.2068 -0.0321
19 9 7 0.8237 -0.1220
19 9 8 -1.2082 -0.0292
19 9 9 0.4637 -0.4772
19 9 10 3.5841 -0.0880
19 9 11 -0.3478 -0.4115
19 9 12 -0.4884 -0.1536
19 9 13 0.0482 -0.1253
19 9 14 -0.6584 -0.1425
19 9 15 -3.4027 -0.2087
19 10 0 -0.7289 1.3272
19 10 1 -2.2503 -0.0117
19 10 2 -0.5562 0.1001
19 10 3 -2.0198 0.0065
19 10 4 1.5270 -0.3832
19 10 5 0.5946 -0.0486
19 10 6 -2.0809 -0.3430
19 10 7 -0.8848 0.0560
19 10 8 0.0152 0.0405
19 10 9 0.5996 0.0398
19 10 10 -0.6647 0.4207
19 10 11 0.7348 -0.0892
19 10 12 1.5289 0.5199
19 10 13 2.5375 -0.0042
19 10 14 -1.1692 0.4758
19 10 15 -2.9626 -0.0026
19 11 0 -0.7776 -0.1601
19 11 1 -5.8710 0.2406
19 11 2 -1.4264 -0.1075
19 11 3 2.2572 -0.0540
19 11 4 -2.7625 0.0656
19 11 5 -1.8634 -0.0195
19 11 6 -4.0283 0.0561
19 11 7 0.4428 0.0169
19 11 8 -4.1199 0.0094
19 11 9 -0.6869 0.0873
19 11 10 0.2215 0.0461
19 11 11 0.3276 -0.0289
19 11 12 0.0319 0.0685
19 11 13 -3.4835 0.1319
19 11 14 2.5619 0.0791
19 12 0 0.2577 -0.0222
19 12 1 3.4432 -0.0928
19 12 2 4.0410 0.0475
19 12 3 -0.2783 -0.1800
19 12 4 0.8024 0.0926
19 12 5 -0.9777 -0.2802
19 12 6 2.7918 0.0623
19 12 7 -1.1936 -0.1630
19 12 8 1.4356 -0.0321
19 12 9 -2.3760 -0.0769
19 12 10 1.2147 -0.0873
19 12 11 0.6113 -0.1021
19 12 12 0.7472 0.0257
19 12 13 -3.2054 0.0458
19 13 0 -0.6745 0.9459
19 13 1 -2.1557 -0.0167
19 13 2 1.5251 -0.0749
19 13 3 -1.1021 -0.0580
19 13 4 3.0897 -0.1509
19 13 5 -4.3002 -0.1068
19 13 6 -1.0559 -0.0850
19 13 7 -0.4394 -0.0636
19 13 8 -0.7846 0.0364
19 13 9 -3.5491 -0.0529
19 13 10 1.1115 0.2648
19 13 11 -0.1950 -0.0442
19 13 12 0.4428 0.5094
19 14 0 -2.3314 -0.6525
19 14 1 -0.5862 0.8189
19 14 2 -1.2352 -0.1954
19 14 3 -0.9140 0.1767
19 14 4 -2.8500 0.0619
19 14 5 -1.8287 -0.1433
19 14 6 -1.7400 -0.0323
19 14 7 -0.9595 -0.1482
19 14 8 3.6624 -0.2614
19 14 9 1.1070 -0.0533
19 14 10 -1.1101 -0.4229
19 14 11 -4.8598 0.2619
19 15 0 -0.1772 -0.5333
19 15 1 0.7798 0.6484
19 15 2 0.0897 -0.1667
19 15 3 0.8429 0.0031
19 15 4 1.3548 -0.0276
19 15 5 0.3340 -0.0420
19 15 6 0.8284 -0.0570
19 15 7 1.6242 -0.0511
19 15 8 1.1543 -0.3747
19 15 9 1.6883 0.1263
19 16 0 -2.1012 0.5510
19 16 1 -1.8085 -0.5398
19 16 2 -3.5939 0.1095
19 16 3 -0.3897 0.0974
19 16 4 1.6799 -0.0453
19 16 5 -1.1002 0.2684
19 16 6 -1.7022 0.0022
19 16 7 -2.8422 0.0374
19 16 8 0.2534 0.0838
19 17 0 2.9636 0.2840
19 17 1 4.5636 -0.4104
19 17 2 1.2241 0.0266
19 17 3 -0.0134 0.0190
19 17 4 -0.9059 -0.0424
19 17 5 -2.2757 0.2402
20 0 0 5.4375 0.8230
20 0 1 0.2126 -0.7784
20 0 2 -3.3382 0.6393
20 0 3 0.0072 -0.7110
20 0 4 -2.7832 0.6825
20 0 5 -8.1664 -0.6628
20 0 6 1.0163 1.1921
20 0 7 7.9967 -0.7856
20 0 8 0.3784 0.8651
20 0 9 1.2727 -0.6213
20 0 10 -1.8585 0.9588
20 0 11 2.0815 -0.6483
20 0 12 -2.2637 0.7387
20 0 13 -0.9938 -0.4442
20 0 14 -1.0199 0.8586
20 0 15 -0.1984 -0.6078
20 0 16 -0.3400 0.6653
20 1 0 -8.8131 -0.2136
20 1 1 0.4563 -1.1029
20 1 2 -0.9489 0.0143
20 1 3 -1.3904 -0.4183
20 1 4 -3.4130 -0.0924
20 1 5 -4.7691 -0.8157
20 1 6 3.7462 -0.0926
20 1 7 -2.7533 -0.8167
20 1 8 -1.5022 -0.1387
20 1 9 -1.3460 -1.0369
20 1 10 -2.6855 -0.1567
20 1 11 0.2152 -0.9148
20 1 12 1.6600 0.0563
20 1 13 -0.1208 -0.7651
20 1 14 0.3523 -0.0037
20 1 15 -0.2464 -0.8465
20 1 16 -1.5397 -0.0927
20 2 0 -4.8127 -0.4664
20 2 1 3.6482 0.7064
20 2 2 -2.3883 0.2606
20 2 3 0.8749 -0.4200
20 2 4 -1.4101 0.3656
20 2 5 1.3883 -0.5028
20 2 6 -3.8278 0.0120
20 2 7 -0.3457 -0.2392
20 2 8 -1.6766 -0.0638
20 2 9 0.0654 0.0404
20 2 10 -1.0872 -0.0446
20 2 11 -1.8743 -0.0472
20 2 12 -0.9661 0.0325
20 2 13 1.1345 -0.1691
20 2 14 -0.7967 -0.1060
20 2 15 1.7832 0.1154
20 2 16 1.4147 -0.2530
20 3 0 2.3740 -0.0315
20 3 1 -1.0186 -0.4158
20 3 2 0.6153 0.4823
20 3 3 -1.8237 0.3695
20 3 4 0.9468 0.6263
20 3 5 2.3513 0.6887
20 3 6 -3.4760 0.4550
20 3 7 -3.2343 0.5059
20 3 8 2.5468 0.5105
20 3 9 -0.7023 0.3625
20 3 10 3.5995 0.5357
20 3 11 0.7329 0.4170
20 3 12 0.7503 0.4770
20 3 13 0.3353 0.2559
20 3 14 -1.5047 0.4841
20 3 15 -1.4665 0.0738
20 4 0 0.4585 0.6141
20 4 1 -0.8281 -0.6492
20 4 2 0.7658 -0.1106
20 4 3 1.8977 0.4166
20 4 4 -0.4060 -0.4223
20 4 5 -0.8927 0.8152
20 4 6 4.1793 -0.3713
20 4 7 0.9600 0.5685
20 4 8 1.1932 -0.2188
20 4 9 0.7445 0.1427
20 4 10 -2.0277 0.0563
20 4 11 -2.2156 0.1524
20 4 12 0.3959 0.0021
20 4 13 1.0172 0.2718
20 4 14 0.6324 0.1177
20 4 15 -2.4924 0.1804
20 5 0 2.8539 0.1312
20 5 1 -2.0112 0.4308
20 5 2 3.1431 0.2353
20 5 3 -2.8396 -0.3176
20 5 4 0.2055 -0.1805
20 5 5 -0.7014 -0.3896
20 5 6 3.4046 -0.1503
20 5 7 3.5149 -0.2182
20 5 8 2.9363 0.0663
20 5 9 1.6263 -0.0118
20 5 10 -0.9383 -0.0958
20 5 11 0.5243 0.0328
20 5 12 3.3658 0.0017
20 5 13 2.7960 0.0558
20 5 14 -0.6715 -0.0082
20 5 15 2.1832 -0.1312
20 6 0 -0.1466 -0.3442
20 6 1 0.3484 0.5177
20 6 2 -1.6154 0.1437
20 6 3 -0.4404 -0.1136
20 6 4 2.2815 0.2483
20 6 5 -0.9999 -0.2237
20 6 6 1.7984 0.1833
20 6 7 0.8254 -0.0523
20 6 8 -1.5151 0.0243
20 6 9 -4.1747 0.1905
20 6 10 -0.4285 0.0370
20 6 11 -0.8767 0.1177
20 6 12 -3.3759 -0.0269
20 6 13 0.1791 -0.0233
20 6 14 -5.2606 -0.1615
20 6 15 3.5558 0.1804
20 7 0 2.4635 -0.7907
20 7 1 -0.7730 -0.3763
20 7 2 0.1589 0.2596
20 7 3 0.2953 -0.0209
20 7 4 1.5924 0.5508
20 7 5 -0.6659 0.2518
20 7 6 -0.8572 0.3040
20 7 7 -0.2240 0.0974
20 7 8 -0.9980 -0.0626
20 7 9 -1.2183 -0.0081
20 7 10 3.0478 -0.1508
20 7 11 -0.5970 -0.0671
20 7 12 2.6802 0.0112
20 7 13 5.7359 0.0730
20 7 14 -2.9893 -0.1419
20 8 0 -1.1515 0.0029
20 8 1 1.4568 -0.3201
20 8 2 3.6732 0.1542
20 8 3 3.5362 0.0209
20 8 4 1.1186 0.1239
20 8 5 3.5447 0.2436
20 8 6 -0.3445 0.0242
20 8 7 -2.6818 0.1099
20 8 8 1.7182 -0.1955
20 8 9 -0.5608 -0.0777
20 8 10 -3.6511 -0.1056
20 8 11 1.0298 0.0393
20 8 12 3.7455 0.0449
20 8 13 0.5094 0.1019
20 8 14 -0.0630 0.0068
20 9 0 2.5352 0.5200
20 9 1 -2.6632 0.2329
20 9 2 2.8531 -0.1639
20 9 3 0.9734 -0.0690
20 9 4 3.1258 -0.2489
20 9 5 2.2805 -0.2605
20 9 6 -1.1456 -0.0457
20 9 7 -0.9593 -0.2355
20 9 8 5.8957 -0.0049
20 9 9 0.3945 -0.1538
20 9 10 -1.9172 0.0734
20 9 11 4.3767 -0.0782
20 9 12 2.7247 0.1562
20 9 13 -7.8775 0.0883
20 10 0 4.8951 -0.1769
20 10 1 0.7822 -0.0281
20 10 2 1.4915 -0.1407
20 10 3 2.7122 0.1620
20 10 4 -0.2378 -0.2894
20 10 5 0.6128 -0.0132
20 10 6 2.8215 -0.1650
20 10 7 1.2366 0.0146
20 10 8 -1.5445 -0.1645
20 10 9 0.9069 0.0623
20 10 10 2.1271 0.0479
20 10 11 -2.1077 0.0169
20 10 12 -0.4710 -0.1759
20 11 0 -2.7740 1.2681
20 11 1 -4.4085 0.1817
20 11 2 2.7674 0.2059
20 11 3 0.2576 0.0108
20 11 4 1.1297 -0.1363
20 11 5 -0.2812 -0.1689
20 11 6 3.4634 -0.0881
20 11 7 3.1440 -0.1248
20 11 8 2.7702 0.0329
20 11 9 -2.7252 -0.0468
20 11 10 0.4825 0.6788
20 11 11 1.7826 0.1105
20 12 0 -0.2023 0.0170
20 12 1 2.5629 0.1289
20 12 2 -1.3288 -0.0468
20 12 3 -1.7831 0.0306
20 12 4 -0.9979 0.0777
20 12 5 -0.4974 -0.2174
20 12 6 1.6748 0.1930
20 12 7 2.0139 -0.2009
20 12 8 2.8056 0.0417
20 12 9 -0.5622 -0.0463
20 12 10 -1.2035 0.0539
20 13 0 2.0344 -0.9145
20 13 1 1.1843 0.5796
20 13 2 -3.3368 -0.2595
20 13 3 -0.6545 0.0275
20 13 4 -2.2508 0.0235
20 13 5 -0.6680 -0.2079
20 13 6 -4.2178 0.2134
20 13 7 1.2972 -0.0529
20 13 8 0.3214 -0.1326
20 13 9 -1.0034 0.1240
20 14 0 1.9012 0.3818
20 14 1 3.1220 0.1373
20 14 2 1.5124 0.0319
20 14 3 4.0785 0.0637
20 14 4 1.3956 0.1017
20 14 5 0.2752 -0.0970
20 14 6 -3.2435 0.0289
20 14 7 -1.7005 -0.0654
20 15 0 -4.5738 -0.3094
20 15 1 1.0109 -0.0116
20 15 2 -1.5425 -0.2424
20 15 3 -3.1566 0.1985
20 15 4 -2.0384 -0.3630
20 15 5 3.9053 0.1564
20 16 0 -4.9096 0.2414
20 16 1 -1.5167 -0.0999
21 1 0 1.3925 0.1291
21 1 1 1.4220 -0.1035
21 1 2 1.7879 0.2038
21 1 3 4.2609 -0.2506
21 1 4 2.1142 -0.2555
21 1 5 0.2556 -0.2503
21 1 6 1.2790 -0.3266
21 1 7 -0.5268 -0.3742
21 1 8 -2.7654 -0.2621
21 1 9 5.0190 -0.1401
21 1 10 -0.2715 -0.3124
21 1 11 1.9334 -0.4299
21 1 12 0.5993 0.0287
21 1 13 0.9907 -0.6519
21 1 14 -0.1535 -0.0153
21 2 0 1.1813 -0.0839
21 2 1 -4.4911 -0.6895
21 2 2 3.7864 0.4561
21 2 3 -0.1434 0.1166
21 2 4 0.5806 0.2872
21 2 5 1.3492 0.2304
21 2 6 -0.2143 0.1628
21 2 7 -2.8222 0.1665
21 2 8 0.1618 0.0050
21 2 9 4.8141 -0.0042
21 2 10 0.4437 0.0403
21 2 11 0.1826 -0.2323
21 2 12 0.2155 0.2039
21 2 13 1.0736 -0.3482
21 3 0 3.7909 -0.2275
21 3 1 0.8129 0.8193
21 3 2 -0.4189 -0.0378
21 3 3 0.2791 -0.3247
21 3 4 -3.4630 0.1510
21 3 5 -0.6485 -0.4492
21 3 6 1.2331 0.2370
21 3 7 0.8459 -0.2422
21 3 8 -1.3784 0.1729
21 3 9 1.4624 -0.1520
21 3 10 0.1619 0.2106
21 3 11 -0.1478 -0.0566
21 3 12 -3.3728 0.0851
21 3 13 1.3626 0.1724
21 4 0 -1.6898 0.2152
21 4 1 -0.7689 -0.2131
21 4 2 0.0490 -0.0458
21 4 3 -0.4434 -0.0422
21 4 4 -2.1658 -0.1657
21 4 5 -1.5569 0.0087
21 4 6 -2.3954 0.0741
21 4 7 -1.7475 0.0638
21 4 8 -4.0948 0.3113
21 4 9 0.8258 0.1100
21 4 10 -0.4758 0.1865
21 4 11 -2.1329 0.0576
21 4 12 -3.4240 0.2629
21 4 13 0.4705 -0.0734
21 5 0 -0.3352 0.3391
21 5 1 -0.5337 -0.6455
21 5 2 -3.4434 0.2239
21 5 3 -1.6124 0.0681
21 5 4 0.9828 -0.0444
21 5 5 -1.6233 0.2063
21 5 6 -0.3012 -0.0245
21 5 7 0.2668 0.1937
21 5 8 -2.1902 0.0673
21 5 9 0.5555 -0.0121
21 5 10 -3.8351 0.0712
21 5 11 0.8681 -0.0208
21 5 12 4.7884 0.0959
21 5 13 1.4942 -0.1412
21 6 0 0.7918 -0.8614
21 6 1 -1.1134 0.4104
21 6 2 0.3673 0.1775
21 6 3 0.7588 -0.0252
21 6 4 -3.2064 0.2197
21 6 5 -0.6562 -0.2490
21 6 6 -0.0051 0.0659
21 6 7 -1.9031 -0.0636
21 6 8 -3.4909 -0.1089
21 6 9 -2.3626 0.1495
21 6 10 -1.7126 -0.3084
21 6 11 2.6924 0.1116
21 6 12 -2.4579 -0.5406
21 7 0 1.3670 -0.7324
21 7 1 -1.1882 0.4783
21 7 2 -4.0213 -0.1803
21 7 3 -0.2917 0.0677
21 7 4 0.8984 -0.0543
21 7 5 -1.6940 -0.0538
21 7 6 -2.4877 -0.1079
21 7 7 -0.1932 0.1073
21 7 8 -2.7866 -0.2765
21 7 9 0.5066 0.1496
21 7 10 3.4132 -0.4643
21 7 11 1.2187 0.2369
21 7 12 1.3097 -0.3132
21 8 0 -1.1215 -0.0989
21 8 1 1.7526 -0.4190
21 8 2 -0.3895 0.0255
21 8 3 3.2245 -0.0820
21 8 4 -0.9381 0.0462
21 8 5 -0.4746 0.1570
21 8 6 -0.7072 -0.0994
21 8 7 3.2158 0.0428
21 8 8 4.4444 -0.1729
21 8 9 -1.0444 -0.0337
21 8 10 -1.6191 -0.0572
21 8 11 1.6303 -0.1101
21 9 0 -0.4156 0.9572
21 9 1 2.0856 -0.2082
21 9 2 -0.1930 0.1326
21 9 3 1.6033 0.0594
21 9 4 1.5860 -0.1315
21 9 5 -2.7502 0.1607
21 9 6 0.5663 -0.0932
21 9 7 -2.3528 0.0480
21 9 8 1.8022 0.1633
21 9 9 1.4905 -0.0565
21 9 10 0.3006 0.6186
21 10 0 4.5412 0.8117
21 10 1 4.8957 0.4658
21 10 2 -0.6292 0.0631
21 10 3 -0.9866 -0.1042
21 10 4 -2.0099 -0.0209
21 10 5 4.4097 -0.2597
21 10 6 0.8274 0.1377
21 10 7 -3.5579 -0.1725
21 10 8 -1.7511 0.3473
21 10 9 -2.5042 0.1358
21 11 0 -0.9783 -0.3953
21 11 1 -1.0977 0.2796
21 11 2 0.1222 -0.0380
21 11 3 -1.9056 -0.1131
21 11 4 -0.2923 0.2391
21 11 5 1.1910 -0.1896
21 11 6 1.7149 0.2402
21 11 7 0.9534 0.0570
21 11 8 -0.6357 -0.1137
21 12 0 -0.6658 -0.0274
21 12 1 -1.1703 0.1211
21 12 2 -0.3230 0.1597
21 12 3 0.1677 -0.1012
21 12 4 -2.8815 0.1701
21 12 5 0.9425 -0.2219
21 12 6 -6.1377 0.1659
21 12 7 1.5519 -0.1345
21 13 0 2.0433 -0.1308
21 13 1 1.4793 -0.2548
21 13 2 0.4315 -0.3220
21 13 3 0.2821 0.1613
21 13 4 7.7289 -0.2176
22 0 0 3.0679 -0.0298
22 0 1 -0.0164 -1.2491
22 0 2 4.4891 -0.0306
22 0 3 3.5630 -0.9763
22 0 4 -2.9390 -0.0306
22 0 5 0.8070 -1.1222
22 0 6 -2.3087 -0.1334
22 0 7 1.6591 -0.9735
22 0 8 3.4370 -0.0284
22 0 9 -0.4926 -1.0971
22 0 10 -1.7569 -0.2408
22 0 11 1.3258 -0.9002
22 1 0 -0.0911 -0.3940
22 1 1 -0.1389 0.0058
22 1 2 4.2169 0.1330
22 1 3 -3.0320 -0.0179
22 1 4 0.9713 -0.1316
22 1 5 2.1200 -0.0116
22 1 6 0.9678 -0.1249
22 1 7 1.2282 0.1449
22 1 8 2.2925 -0.1796
22 1 9 -1.5770 0.0980
22 1 10 -1.9373 -0.2229
22 1 11 2.3630 0.0476
22 2 0 -6.9263 -0.1619
22 2 1 -0.5670 0.1129
22 2 2 -3.2166 0.1534
22 2 3 1.9206 -0.3183
22 2 4 1.2906 0.0992
22 2 5 -2.1570 -0.3345
22 2 6 2.4281 -0.0329
22 2 7 2.4189 -0.2854
22 2 8 -3.1701 -0.0692
22 2 9 3.5540 -0.2015
22 2 10 1.2751 -0.0299
22 2 11 -1.9161 -0.1544
22 3 0 0.6397 0.4174
22 3 1 0.4820 -0.8408
22 3 2 -1.0888 -0.0085
22 3 3 0.4138 -0.0596
22 3 4 0.1038 -0.0690
22 3 5 1.4567 0.1839
22 3 6 1.1923 0.0142
22 3 7 2.7716 0.0579
22 3 8 -2.0403 0.0883
22 3 9 -3.3135 -0.2430
22 3 10 -2.8870 0.3030
22 4 0 1.8346 0.3693
22 4 1 1.7980 0.2718
22 4 2 -5.7072 0.0377
22 4 3 0.8493 0.0917
22 4 4 -1.4162 -0.1456
22 4 5 3.5433 0.1032
22 4 6 0.0960 -0.1489
22 4 7 0.8315 0.0933
22 4 8 0.6980 -0.0478
22 4 9 -2.1076 0.0711
22 4 10 1.4539 0.1602
22 5 0 -0.3466 -0.6661
22 5 1 -0.6862 0.3884
22 5 2 0.7058 -0.1670
22 5 3 3.1105 -0.0243
22 5 4 3.9593 -0.1111
22 5 5 -0.2445 -0.1685
22 5 6 -1.7657 -0.0607
22 5 7 5.7010 -0.0076
22 5 8 1.9745 -0.1052
22 5 9 -2.9169 0.1539
22 5 10 6.6001 -0.3036
22 6 0 -2.2260 -0.5589
22 6 1 -0.3881 0.2652
22 6 2 -0.3407 -0.0115
22 6 3 -0.7634 -0.0728
22 6 4 1.2706 0.2193
22 6 5 0.3632 -0.0758
22 6 6 1.0552 0.0807
22 6 7 2.4965 0.1055
22 6 8 0.4338 -0.0890
22 6 9 1.2241 0.3914
22 7 0 -5.3445 -0.2137
22 7 1 -1.5333 -0.0294
22 7 2 4.1857 0.1767
22 7 3 -2.8518 -0.0279
22 7 4 -3.2317 0.0224
22 7 5 2.5554 0.0405
22 7 6 -0.7894 -0.1946
22 7 7 -3.5126 0.0790
22 7 8 1.8583 -0.2900
22 8 0 -2.6710 0.9472
22 8 1 -2.9218 -0.1761
22 8 2 -1.1183 0.2426
22 8 3 -2.1904 -0.0508
22 8 4 -1.8814 -0.1412
22 8 5 3.9732 0.0081
22 8 6 -0.3688 0.0396
22 8 7 -3.7468 -0.0711
22 9 0 -1.7387 0.8039
22 9 1 -2.0402 0.1745
22 9 2 -1.1898 0.2566
22 9 3 4.6232 0.0994
22 9 4 -1.0560 0.2319
22 9 5 -2.0409 0.0108
22 9 6 -0.4316 0.3557
22 10 0 2.6228 -0.2116
22 10 1 2.8303 0.4891
22 10 2 -0.7554 0.0546
22 10 3 0.0440 0.0602
22 10 4 0.0185 0.1271
22 11 0 -3.2321 -0.1308
22 11 1 2.0690 0.1232
23 1 0 -0.0813 0.0152
23 1 1 0.6074 -0.2786
23 1 2 0.7277 -0.0452
23 1 3 2.2224 -0.0894
23 1 4 -7.1115 -0.1528
23 1 5 -0.9533 -0.1356
23 1 6 2.0217 -0.2477
23 1 7 -1.4790 -0.2309
23 2 0 2.4830 0.0442
23 2 1 0.6981 -0.4491
23 2 2 -0.8676 0.1585
23 2 3 -0.1325 -0.4619
23 2 4 0.8699 0.1095
23 2 5 3.1880 -0.2915
23 2 6 -0.0856 -0.0555
23 2 7 -1.1708 -0.1023
23 3 0 6.5095 -0.0484
23 3 1 -2.9374 0.0634
23 3 2 0.4201 -0.1367
23 3 3 1.6499 -0.0560
23 3 4 1.3104 -0.1056
23 3 5 0.8496 -0.2276
23 3 6 -4.4543 -0.0499
23 4 0 0.1475 0.0703
23 4 1 1.3633 -0.1273
23 4 2 0.1873 0.0065
23 4 3 0.2673 0.1192
23 4 4 -2.3087 -0.0325
23 4 5 0.6035 0.0666
23 4 6 -2.9413 -0.0751
23 5 0 1.6120 -0.4784
23 5 1 -2.4360 0.6786
23 5 2 3.9489 0.1718
23 5 3 1.6673 0.3416
23 5 4 -4.7404 0.2266
23 5 5 -0.9844 0.3010
23 6 0 3.0765 -0.3994
23 6 1 -1.1902 0.2187
23 6 2 -1.9994 -0.2564
23 6 3 2.5113 0.0243
23 6 4 1.0086 -0.1692
23 7 0 6.0024 0.6840
23 7 1 -0.7436 -0.0858
0 0 0 0.0 0.0
;
_platon_squeeze_void_probe_radius 1.20
_iucr_refine_fcf_details
;
data_p_sqd_CCDC1
_computing_structure_refinement   'olex2.refine 1.5-dev (Bourhis et al., 2015)'
_shelx_refln_list_code            4
loop_
  _space_group_symop_id
  _space_group_symop_operation_xyz
  1  x,y,z
  2  x+1/2,-y+1/2,-z
  3  -x+1/2,y+1/2,-z
  4  -x,-y,z
  5  -x,-y,-z
  6  -x-1/2,y-1/2,z
  7  x-1/2,-y-1/2,z
  8  x,y,-z

_space_group_crystal_system       orthorhombic
_space_group_IT_number            55
_space_group_name_H-M_alt         'P b a m'
_space_group_name_Hall            '-P 2 2ab'
_symmetry_space_group_name_H-M    'P b a m'
_symmetry_space_group_name_Hall   '-P 2 2ab'
_symmetry_Int_Tables_number       55
_cell_length_a                    22.234(4)
_cell_length_b                    28.096(6)
_cell_length_c                    28.408(6)
_cell_angle_alpha                 90
_cell_angle_beta                  90
_cell_angle_gamma                 90
_cell_volume                      17746(6)
loop_
  _refln_index_h
  _refln_index_k
  _refln_index_l
  _refln_F_squared_calc
  _refln_F_squared_meas
  _refln_F_squared_sigma
  _refln_F_squared_weight
  _refln_observed_status
0 0 3 2924.690 2982.330 100.407 2.748 o
0 0 5 1494.690 406.023 16.259 11.034 o
0 0 7 850.027 980.782 36.911 14.448 o
0 0 11 230.130 336.594 15.160 59.584 o
0 0 13 1637.530 1413.610 54.927 6.945 o
0 2 0 918.470 2290.910 85.906 7.694 o
0 2 5 3682.520 1545.870 36.911 2.835 o
0 2 6 26401.800 30621.100 566.850 0.055 o
0 2 7 1265.450 4478.550 91.838 3.846 o
0 2 8 184.102 228.498 7.250 82.819 o
0 2 9 7273.950 7937.870 159.509 0.611 o
0 2 10 5505.400 7159.440 166.759 0.867 o
0 2 11 3942.030 7216.790 175.328 1.155 o
0 2 12 28841.200 31537.900 583.108 0.048 o
0 2 13 9486.910 11165.000 212.019 0.364 o
0 2 15 1657.660 1191.040 34.494 7.497 o
0 2 16 48135.200 56327.300 1777.230 0.016 o
0 2 17 26016.700 27845.500 887.845 0.057 o
0 2 18 39578.800 41483.900 1297.380 0.026 o
0 2 19 1910.360 1701.210 59.761 5.548 o
0 4 1 4823.240 17062.000 292.433 0.434 o
0 4 2 4038.120 4326.950 83.929 1.665 o
0 4 3 9433.730 8347.630 153.577 0.441 o
0 4 4 12490.400 13425.800 238.165 0.236 o
0 4 6 14006.100 8912.500 229.596 0.254 o
0 4 7 11714.600 11655.600 205.428 0.279 o
0 4 8 19438.600 17391.300 343.845 0.116 o
0 4 9 38.772 1657.050 41.745 23.503 o
0 4 10 304.951 228.937 9.008 57.282 o
0 4 11 8344.660 9590.090 169.835 0.467 o
0 4 12 532.271 576.517 15.819 26.763 o
0 4 13 18151.800 16235.200 322.094 0.132 o
0 4 14 117.248 445.350 19.994 68.949 o
0 4 15 34358.200 36538.700 837.092 0.035 o
0 4 16 5434.150 4789.880 98.430 1.139 o
0 4 17 10.554 18.675 4.834 1266.260 o
0 4 18 4219.700 3381.100 87.005 1.792 o
0 4 19 44068.000 47386.900 1500.610 0.020 o
0 4 20 342.663 191.586 18.675 53.177 o
0 4 21 1736.280 1528.300 59.761 6.336 o
0 4 22 302.802 110.514 13.842 67.017 o
0 6 1 518.941 158.850 13.842 38.411 o
0 6 2 23168.100 27107.100 464.026 0.070 o
0 6 3 41933.300 37422.200 634.520 0.027 o
0 6 4 18108.500 18496.000 328.246 0.123 o
0 6 5 16288.400 18563.700 326.927 0.139 o
0 6 6 25149.500 22684.500 395.257 0.072 o
0 6 8 9008.070 12539.700 224.103 0.354 o
0 6 9 1291.930 2078.890 46.578 7.072 o
0 6 10 25704.300 22284.400 446.010 0.070 o
0 6 11 26713.300 34690.800 822.591 0.048 o
0 6 12 25919.200 30112.200 722.184 0.056 o
0 6 13 17614.100 19420.500 390.423 0.122 o
0 6 14 2202.880 2033.630 53.170 4.516 o
0 6 15 8005.890 7335.210 134.682 0.578 o
0 6 16 7252.070 8801.990 222.346 0.561 o
0 6 17 5440.000 5390.560 137.099 1.052 o
0 6 18 34.957 160.827 12.084 212.700 o
0 6 19 776.436 930.688 33.835 15.930 o
0 6 20 2109.860 2393.070 53.829 4.347 o
0 6 21 21267.800 21257.100 500.278 0.090 o
0 6 22 6875.140 6840.430 251.347 0.675 o
0 6 23 4268.700 4392.210 161.926 1.479 o
0 6 24 1212.460 1091.950 52.071 10.073 o
0 6 25 3582.160 3220.500 114.249 2.140 o
0 8 1 60398.500 65826.200 1245.530 0.012 o
0 8 2 2256.460 1496.880 38.010 5.037 o
0 8 3 77203.600 82194.300 1547.630 0.007 o
0 8 4 333.051 691.425 21.092 32.842 o
0 8 5 24261.700 18925.100 329.344 0.083 o
0 8 6 24444.400 22121.900 381.855 0.075 o
0 8 7 5615.810 4198.860 83.929 1.173 o
0 8 8 16335.500 18057.200 321.435 0.141 o
0 8 9 3778.840 2967.830 80.414 2.151 o
0 8 10 783.749 528.840 24.168 19.834 o
0 8 11 3869.590 3860.510 104.582 1.825 o
0 8 12 17805.400 18198.100 455.677 0.124 o
0 8 13 9337.000 8805.720 232.672 0.424 o
0 8 14 78.364 136.659 21.092 154.083 o
0 8 15 4990.010 5066.710 118.423 1.204 o
0 8 16 270.846 274.417 18.236 57.469 o
0 8 17 64889.900 68830.300 1289.690 0.010 o
0 8 18 2499.400 1998.470 43.502 4.040 o
0 8 19 10027.000 11830.900 241.680 0.327 o
0 8 20 3949.540 2653.650 63.496 2.163 o
0 8 21 10234.900 11304.500 226.520 0.331 o
0 8 22 748.244 598.268 20.653 19.965 o
0 8 23 4011.670 3784.930 99.089 1.782 o
0 8 24 4026.720 4070.770 159.509 1.632 o
0 8 25 5173.250 5139.220 194.003 1.096 o
0 8 26 338.176 452.601 35.593 37.951 o
0 8 27 5094.510 5018.820 181.260 1.138 o
0 10 0 6069.900 5992.570 161.267 0.872 o
0 10 1 22424.000 20257.000 410.856 0.088 o
0 10 2 1055.310 910.695 29.002 12.638 o
0 10 3 5685.400 4191.610 88.763 1.155 o
0 10 4 207.367 403.166 15.819 57.831 o
0 10 5 16392.400 13128.300 237.506 0.171 o
0 10 6 9999.200 9160.330 172.252 0.390 o
0 10 7 82707.100 89728.300 1459.970 0.006 o
0 10 8 686.501 676.265 25.486 20.323 o
0 10 9 1672.700 1504.130 39.328 6.762 o
0 10 10 5174.640 3565.000 76.678 1.391 o
0 10 11 98.089 315.502 18.675 92.562 o
0 10 12 2130.600 1813.040 44.821 4.937 o
0 10 13 1412.150 884.110 33.176 9.695 o
0 10 14 72.542 102.824 18.236 185.898 o
0 10 15 579.082 812.265 29.661 21.090 o
0 10 16 439.155 341.428 21.751 36.897 o
0 10 17 20037.800 17988.900 366.914 0.110 o
0 10 18 2131.130 2084.820 55.586 4.598 o
0 10 19 1866.390 2080.650 47.677 5.236 o
0 10 20 63.118 47.237 15.819 265.530 o
0 10 21 6801.350 6427.590 123.916 0.752 o
0 10 22 3222.520 3407.250 81.512 2.376 o
0 10 24 15.676 35.593 21.092 483.598 o
0 10 25 1076.500 1073.940 30.759 11.610 o
0 10 26 2895.740 2899.500 122.158 2.745 o
0 10 27 382.604 494.346 47.677 31.912 o
0 10 28 1439.850 1333.200 74.921 7.693 o
0 12 0 21071.400 21336.800 524.446 0.091 o
0 12 1 56529.300 55883.000 932.446 0.014 o
0 12 2 1236.350 1013.960 30.320 10.529 o
0 12 3 34635.100 30518.900 516.756 0.039 o
0 12 4 2669.870 2557.410 57.344 3.357 o
0 12 5 184059.000 219687.000 4896.880 0.001 o
0 12 6 6688.700 6095.830 121.499 0.789 o
0 12 7 27158.700 25070.400 438.759 0.061 o
0 12 8 11484.200 10911.000 199.496 0.298 o
0 12 9 34114.500 31685.400 552.349 0.039 o
0 12 10 8455.280 7792.210 149.842 0.522 o
0 12 11 38472.000 34795.800 597.609 0.032 o
0 12 12 17300.300 15528.200 284.743 0.145 o
0 12 13 35580.700 34224.800 579.593 0.035 o
0 12 14 428.721 382.514 24.827 35.900 o
0 12 15 31088.300 31209.700 615.186 0.044 o
0 12 16 35.331 45.260 27.903 277.109 o
0 12 17 8051.560 7284.460 207.845 0.561 o
0 12 18 2104.150 2128.320 57.344 4.601 o
0 12 19 34540.900 34691.900 674.947 0.036 o
0 12 20 1619.660 1608.050 50.753 6.682 o
0 12 21 2057.600 2283.660 64.155 4.508 o
0 12 22 178.237 198.178 19.334 85.046 o
0 12 23 7231.080 7241.610 167.418 0.647 o
0 12 24 445.611 424.918 23.509 33.767 o
0 12 25 5146.070 5414.730 108.756 1.129 o
0 12 26 149.261 201.254 29.661 86.843 o
0 12 27 2352.800 2066.150 97.990 3.998 o
0 14 0 2144.570 1903.560 64.594 4.716 o
0 14 1 5131.210 3954.770 88.763 1.337 o
0 14 2 26342.100 24084.700 413.273 0.065 o
0 14 3 1167.690 940.355 30.320 11.398 o
0 14 4 40789.600 39255.200 667.696 0.027 o
0 14 5 2502.000 2755.810 63.496 3.428 o
0 14 6 358.479 310.010 21.092 44.552 o
0 14 7 442.744 410.856 21.751 34.506 o
0 14 8 1.260 14.501 19.334 1003.970 o
0 14 9 899.874 776.013 29.661 15.361 o
0 14 10 4113.620 3265.760 83.929 1.875 o
0 14 11 363.754 236.846 19.334 47.944 o
0 14 12 328.261 272.659 20.653 49.649 o
0 14 13 223.008 188.510 24.827 71.887 o
0 14 14 2971.480 3168.430 71.406 2.691 o
0 14 15 546.976 949.363 36.911 19.869 o
0 14 16 7938.880 7743.210 174.669 0.559 o
0 14 17 673.585 957.932 41.086 17.110 o
0 14 18 2703.030 2871.160 77.997 3.084 o
0 14 19 3053.630 3104.930 97.990 2.591 o
0 14 20 1399.390 1064.930 44.821 9.057 o
0 14 21 309.480 346.262 41.086 42.995 o
0 14 22 9935.560 9518.680 209.603 0.381 o
0 14 23 12.091 -6.152 19.334 884.473 o
0 14 24 2226.290 2398.570 68.989 4.076 o
0 14 25 1168.530 753.602 35.593 12.169 o
0 14 26 1601.210 1730.210 56.245 6.483 o
0 16 0 4358.540 4912.480 141.932 1.387 o
0 16 1 115.485 196.420 16.918 111.966 o
0 16 2 10949.700 9262.500 173.351 0.347 o
0 16 3 4862.300 3904.010 81.512 1.436 o
0 16 4 6102.890 7038.600 138.417 0.799 o
0 16 5 77.962 271.341 21.751 107.907 o
0 16 6 43537.600 45515.400 768.103 0.023 o
0 16 7 810.349 1044.280 33.176 14.652 o
0 16 8 10842.600 8647.970 168.078 0.364 o
0 16 9 1871.770 1806.890 45.260 5.594 o
0 16 10 4119.710 2978.160 67.670 1.964 o
0 16 11 348.377 293.092 23.509 45.927 o
0 16 12 23726.100 23282.100 407.341 0.076 o
0 16 13 630.782 1188.190 38.010 16.051 o
0 16 14 6929.380 6860.200 139.515 0.706 o
0 16 15 7279.590 6631.260 132.265 0.682 o
0 16 16 6887.350 5790.650 137.099 0.778 o
0 16 17 185.300 209.163 30.320 75.291 o
0 16 18 4039.790 3694.850 100.407 1.788 o
0 16 19 197.735 238.604 38.010 64.928 o
0 16 20 1376.490 1551.370 56.905 7.740 o
0 16 21 318.469 257.939 26.585 50.345 o
0 16 22 8149.450 8004.880 190.927 0.530 o
0 16 23 1842.820 1728.450 49.654 5.763 o
0 16 24 115.228 238.165 40.426 81.769 o
0 16 25 118.375 107.657 25.486 126.745 o
0 18 0 3964.040 3392.750 104.582 1.894 o
0 18 1 491.465 288.258 24.168 35.011 o
0 18 2 23940.600 23056.700 412.174 0.075 o
0 18 3 2302.950 1844.460 48.995 4.521 o
0 18 4 4159.220 3759.440 79.095 1.740 o
0 18 5 3543.840 3303.770 71.845 2.205 o
0 18 6 3608.380 3788.010 99.089 1.985 o
0 18 7 4241.060 4059.350 88.763 1.632 o
0 18 8 2634.060 2355.720 59.761 3.528 o
0 18 9 556.843 701.531 32.078 23.029 o
0 18 10 6142.830 5815.480 115.347 0.892 o
0 18 11 112.298 110.514 26.585 128.122 o
0 18 12 170.832 164.342 31.418 84.456 o
0 18 13 940.779 577.835 33.835 16.117 o
0 18 14 3086.530 2591.910 69.428 2.854 o
0 18 15 574.024 631.444 32.737 23.509 o
0 18 16 6086.830 5858.330 149.183 0.885 o
0 18 17 5136.520 5156.790 134.242 1.147 o
0 18 18 2080.440 2322.990 79.095 4.351 o
0 18 19 5.302 -27.244 35.593 401.054 o
0 18 20 1308.620 1241.360 57.344 8.885 o
0 18 21 1494.680 1506.550 59.761 7.284 o
0 18 22 140.004 224.762 41.745 75.855 o
0 18 23 93.801 71.406 43.502 118.685 o
0 20 1 5800.830 5495.810 120.181 0.978 o
0 20 2 7007.210 7297.200 149.842 0.671 o
0 20 3 5.903 -42.404 24.168 781.772 o
0 20 4 975.993 1021.870 44.161 12.564 o
0 20 5 7705.690 7146.700 144.349 0.611 o
0 20 6 8272.660 7245.350 153.577 0.556 o
0 20 7 6922.310 7293.690 151.599 0.680 o
0 20 8 378.041 482.921 33.176 34.832 o
0 20 9 665.191 671.431 35.154 20.435 o
0 20 10 1991.840 1575.530 53.829 5.534 o
0 20 11 5601.470 5554.250 123.257 1.010 o
0 20 12 3568.640 3488.100 89.422 2.108 o
0 20 13 1515.740 2083.720 59.322 6.152 o
0 20 14 14337.900 14131.500 264.090 0.194 o
0 20 15 93.053 94.914 33.835 133.150 o
0 20 16 71.088 177.745 40.426 108.952 o
0 20 17 2468.410 2420.980 82.171 3.636 o
0 20 18 115.519 135.341 39.328 100.382 o
0 20 19 51.739 27.903 42.404 173.810 o
0 20 20 284.537 443.593 39.987 41.320 o
0 20 21 3881.680 3029.570 121.499 2.008 o
0 20 22 3027.480 2955.090 100.407 2.670 o
0 22 0 2207.700 2337.490 93.596 4.038 o
0 22 1 2129.290 1377.360 45.919 5.474 o
0 22 2 22624.400 24257.700 440.517 0.078 o
0 22 3 209.940 238.165 33.176 65.368 o
0 22 4 569.062 824.349 54.488 19.616 o
0 22 5 50.649 115.347 33.835 160.444 o
0 22 6 3119.270 3059.010 81.073 2.592 o
0 22 7 691.719 938.598 52.511 16.425 o
0 22 8 823.377 696.258 40.426 16.816 o
0 22 9 7760.100 9296.330 187.412 0.512 o
0 22 10 317.493 232.672 34.494 49.706 o
0 22 11 900.965 905.202 49.654 13.882 o
0 22 12 2178.150 2570.160 85.247 3.942 o
0 22 13 1870.670 1672.210 56.905 5.718 o
0 22 14 2722.770 3047.590 83.490 2.956 o
0 22 15 3722.850 3566.100 108.756 1.969 o
0 22 16 3476.030 3668.920 107.657 2.081 o
0 22 17 190.440 430.850 48.336 47.773 o
0 22 18 2174.080 1903.560 73.822 4.604 o
0 22 19 1173.600 946.287 61.738 10.687 o
0 22 20 219.702 238.604 48.336 55.644 o
0 24 0 5388.400 5508.330 174.669 1.027 o
0 24 1 20818.100 19551.000 413.273 0.099 o
0 24 2 332.448 359.005 37.570 41.451 o
0 24 3 15956.500 14924.400 288.258 0.164 o
0 24 4 591.837 710.759 44.161 21.162 o
0 24 5 3693.270 3319.590 82.171 2.094 o
0 24 6 4914.610 4633.450 105.241 1.291 o
0 24 7 854.488 609.254 39.987 17.044 o
0 24 8 294.034 364.937 38.669 44.196 o
0 24 9 298.198 505.111 41.745 37.655 o
0 24 10 3091.950 3078.350 82.171 2.605 o
0 24 11 2542.550 2890.490 116.666 3.116 o
0 24 12 766.756 975.289 50.753 15.121 o
0 24 13 11453.600 9863.180 239.263 0.312 o
0 24 14 1770.300 1552.470 61.079 6.173 o
0 24 15 6339.070 5450.330 145.667 0.879 o
0 24 16 535.163 607.276 51.412 23.439 o
0 24 17 2962.220 3307.500 123.916 2.515 o
0 26 0 229.827 110.514 54.927 59.252 o
0 26 1 5291.900 4188.540 111.173 1.245 o
0 26 2 121.624 305.835 42.404 70.323 o
0 26 3 11991.300 9322.260 212.678 0.306 o
0 26 4 2851.630 2130.300 67.670 3.370 o
0 26 5 274.907 242.998 41.086 51.722 o
0 26 6 9663.760 8239.310 175.328 0.429 o
0 26 7 1934.720 1925.970 97.990 4.915 o
0 26 8 888.888 821.932 46.578 14.669 o
0 26 9 597.853 433.266 48.336 24.494 o
0 26 10 555.406 420.084 42.843 26.761 o
0 26 11 2338.040 1994.960 73.822 4.209 o
0 26 12 46.335 54.488 39.987 175.506 o
0 26 13 1748.990 1507.200 65.913 6.273 o
0 26 14 348.686 254.423 42.404 43.202 o
0 28 0 53.596 175.767 49.654 100.587 o
0 28 1 3073.060 2680.890 88.763 2.781 o
0 28 2 1201.310 973.531 59.322 10.431 o
0 28 3 9898.070 8119.790 211.580 0.416 o
0 28 4 29.981 21.092 51.412 158.260 o
0 28 5 460.850 448.426 43.502 29.952 o
0 28 6 729.471 737.783 48.995 17.673 o
0 28 7 5637.710 5527.220 181.260 0.974 o
0 28 8 3977.150 3552.920 120.181 1.826 o
0 28 9 534.856 639.354 59.761 22.134 o
1 1 1 12632.300 13929.800 262.333 0.227 o
1 1 3 5891.050 8927.660 134.682 0.708 o
1 1 5 526.566 112.491 4.834 40.036 o
1 1 7 852.378 1245.530 30.320 12.993 o
1 1 8 2585.180 1246.630 30.320 4.610 o
1 1 9 7540.710 8131.220 161.926 0.579 o
1 1 10 1069.390 732.510 17.577 13.640 o
1 1 11 660.112 1302.880 39.987 14.737 o
1 1 12 26307.300 29181.100 663.522 0.056 o
1 1 13 359.827 345.163 10.986 43.958 o
1 1 14 4627.390 3917.850 103.922 1.499 o
1 1 15 3849.940 4045.940 82.171 1.815 o
1 1 16 76944.100 85911.300 2717.140 0.007 o
1 1 18 25133.000 26084.500 876.200 0.061 o
1 1 19 1017.960 850.274 37.570 13.194 o
1 1 21 1089.770 685.932 41.086 13.223 o
1 2 0 3522.800 1641.450 44.821 2.936 o
1 2 1 9134.740 6225.680 91.179 0.537 o
1 2 3 22604.300 16056.300 244.097 0.101 o
1 2 4 13853.900 10582.300 186.094 0.240 o
1 2 5 7225.580 5727.820 105.680 0.746 o
1 2 6 22399.800 19463.600 267.166 0.092 o
1 2 7 229.430 844.342 19.334 34.518 o
1 2 8 1470.380 5527.220 98.430 2.926 o
1 2 9 706.684 484.019 9.667 22.742 o
1 2 10 199.301 87.664 3.735 103.485 o
1 2 11 68.201 586.843 15.160 66.016 o
1 2 12 30001.300 26198.800 427.774 0.052 o
1 2 13 705.810 855.767 16.918 18.247 o
1 2 14 10116.200 9208.670 155.334 0.385 o
1 2 15 1878.070 1687.810 36.252 5.789 o
1 2 16 38030.900 38777.800 710.759 0.030 o
1 2 17 2693.720 3123.170 64.155 2.993 o
1 2 18 31037.900 32600.200 729.434 0.043 o
1 3 1 4096.420 4151.620 58.662 1.696 o
1 3 3 11473.300 6613.030 111.173 0.385 o
1 3 5 4510.850 5162.070 87.005 1.343 o
1 3 6 28357.200 34981.400 513.680 0.046 o
1 3 7 6.314 438.759 16.259 106.507 o
1 3 8 6397.780 6369.590 93.596 0.817 o
1 3 9 55.622 359.005 9.008 105.820 o
1 3 10 343.003 166.100 6.591 56.532 o
1 3 11 1394.190 1274.530 24.827 8.675 o
1 3 12 3183.520 3362.430 47.677 2.469 o
1 3 13 26.821 257.939 6.591 163.176 o
1 3 14 30697.600 29893.600 562.016 0.046 o
1 3 15 1085.260 1122.270 24.827 11.394 o
1 3 16 44564.100 48072.800 765.027 0.021 o
1 3 17 256.430 226.520 10.326 65.441 o
1 3 18 19339.600 20144.500 377.021 0.107 o
1 3 20 19601.500 20898.700 473.693 0.101 o
1 3 21 2287.220 2061.970 81.512 4.202 o
1 3 22 5090.850 4912.040 174.010 1.157 o
1 4 1 2674.250 933.105 19.334 4.775 o
1 4 2 37638.100 46572.900 776.452 0.027 o
1 4 3 29509.700 29118.300 404.265 0.050 o
1 4 5 20821.500 23109.500 326.927 0.090 o
1 4 6 13869.800 16227.900 288.258 0.184 o
1 4 7 4234.840 4415.280 77.338 1.573 o
1 4 8 46827.300 44285.500 650.339 0.021 o
1 4 9 279.384 228.937 7.910 61.443 o
1 4 10 11344.600 12022.500 171.593 0.287 o
1 4 11 185.392 43.502 5.493 121.997 o
1 4 12 6868.920 6792.090 93.596 0.727 o
1 4 13 55.067 316.161 12.084 115.545 o
1 4 14 37659.800 37686.300 461.170 0.031 o
1 4 15 8396.950 8040.480 112.931 0.522 o
1 4 16 7153.010 6578.750 119.741 0.701 o
1 4 17 593.763 464.685 14.501 26.606 o
1 4 18 130.204 71.845 7.250 152.389 o
1 4 19 730.440 871.367 20.653 17.556 o
1 4 20 17375.200 17425.800 404.924 0.132 o
1 4 22 2921.330 3094.160 113.590 2.665 o
1 4 23 188.449 209.603 18.675 80.695 o
1 4 24 12155.600 11761.900 393.939 0.252 o
1 5 0 21747.600 28188.700 480.943 0.073 o
1 5 1 3901.110 3805.360 55.586 1.871 o
1 5 2 1664.970 2503.150 39.328 5.247 o
1 5 4 9141.000 9774.420 129.409 0.421 o
1 5 5 17813.000 19516.800 291.334 0.122 o
1 5 6 11095.100 7332.350 113.590 0.386 o
1 5 7 26234.600 24783.400 320.995 0.065 o
1 5 8 5412.100 3685.180 52.511 1.310 o
1 5 9 463.349 1410.530 27.244 17.337 o
1 5 10 4642.510 4703.530 73.163 1.381 o
1 5 11 99.602 161.926 7.910 139.539 o
1 5 12 2062.580 2348.910 44.161 4.514 o
1 5 13 516.589 721.525 18.236 24.672 o
1 5 14 11360.500 11991.100 186.753 0.286 o
1 5 15 557.414 471.935 11.425 27.990 o
1 5 16 103.036 132.265 7.250 149.581 o
1 5 17 1882.700 2025.060 36.911 5.311 o
1 5 18 1326.160 1454.690 31.418 8.504 o
1 5 19 4136.580 4551.280 73.163 1.587 o
1 5 20 77.298 62.837 10.986 227.638 o
1 5 21 8.305 34.494 12.743 796.416 o
1 5 22 317.158 524.006 18.675 39.384 o
1 5 23 1806.530 1590.040 67.011 5.951 o
1 5 24 1224.280 1275.190 56.905 9.297 o
1 5 25 72.243 58.003 15.160 232.732 o
1 5 26 123.205 154.016 13.842 121.890 o
1 6 0 13709.700 20687.800 366.255 0.154 o
1 6 1 763.268 1515.550 25.926 12.578 o
1 6 2 2891.490 3340.020 53.170 2.716 o
1 6 3 50431.900 60882.700 1005.610 0.015 o
1 6 4 16028.400 15019.300 190.927 0.165 o
1 6 5 877.894 983.199 19.334 14.442 o
1 6 6 1656.320 1643.860 31.418 6.610 o
1 6 8 7605.120 7579.970 117.764 0.605 o
1 6 9 9793.450 8760.900 121.499 0.414 o
1 6 10 15675.300 15634.500 223.005 0.165 o
1 6 11 25593.200 24841.400 302.100 0.067 o
1 6 12 4807.880 4846.780 94.914 1.298 o
1 6 13 8510.970 10011.300 160.827 0.446 o
1 6 14 1927.810 1751.300 39.987 5.541 o
1 6 15 6890.610 8633.470 140.834 0.618 o
1 6 16 3366.580 2510.400 43.502 2.674 o
1 6 17 20793.400 19082.800 264.750 0.102 o
1 6 18 870.640 742.178 16.918 16.335 o
1 6 19 13666.700 13538.700 236.846 0.211 o
1 6 20 789.245 683.515 20.653 18.215 o
1 6 21 3775.590 3849.520 73.163 1.910 o
1 6 22 9406.560 9321.820 159.509 0.416 o
1 6 23 877.955 918.604 27.903 14.714 o
1 6 24 24.400 44.161 13.402 480.004 o
1 6 25 263.907 294.410 27.903 54.507 o
1 6 26 77.000 111.832 21.751 166.936 o
1 6 27 1511.490 1521.050 58.003 7.203 o
1 7 0 781.848 4924.120 97.990 4.236 o
1 7 1 25402.900 25591.900 313.086 0.066 o
1 7 2 6203.890 6098.910 85.247 0.868 o
1 7 3 24247.100 21352.000 264.090 0.079 o
1 7 4 17621.600 16037.000 204.330 0.140 o
1 7 5 11840.700 11073.100 143.250 0.287 o
1 7 6 14.086 48.995 6.591 651.409 o
1 7 7 30495.100 31520.400 379.438 0.046 o
1 7 8 3357.710 3279.600 52.071 2.365 o
1 7 9 10428.000 10071.000 140.834 0.354 o
1 7 10 3967.900 4316.630 72.504 1.707 o
1 7 11 14800.200 16761.600 224.762 0.169 o
1 7 12 990.928 1255.200 32.078 11.544 o
1 7 13 379.589 160.168 9.667 51.781 o
1 7 14 876.292 1038.780 23.070 14.049 o
1 7 15 2508.130 2561.150 48.995 3.586 o
1 7 16 1558.930 1302.880 29.661 7.724 o
1 7 17 6772.010 8400.800 151.160 0.639 o
1 7 18 1002.350 689.008 15.819 14.793 o
1 7 19 86.295 236.846 10.326 121.425 o
1 7 20 1655.890 1686.710 30.320 6.539 o
1 7 21 2406.520 3048.900 61.738 3.368 o
1 7 22 999.251 949.363 27.244 13.061 o
1 7 23 551.895 588.601 20.653 25.615 o
1 7 24 675.286 598.268 25.486 21.552 o
1 7 25 215.950 213.338 18.675 73.218 o
1 7 26 281.839 322.094 34.494 48.708 o
1 7 27 391.823 422.940 30.320 36.243 o
1 8 0 656.650 1924.210 97.331 9.810 o
1 8 1 23431.300 22664.100 279.909 0.079 o
1 8 2 15978.900 15826.100 199.935 0.160 o
1 8 3 4712.090 3187.760 49.654 1.644 o
1 8 4 9267.420 7146.040 97.331 0.494 o
1 8 5 34196.000 31114.300 377.680 0.040 o
1 8 6 6.297 323.851 10.326 148.258 o
1 8 7 11591.700 10462.100 137.099 0.305 o
1 8 8 6106.320 5813.070 81.512 0.908 o
1 8 9 140065.000 162331.000 2976.400 0.002 o
1 8 10 1678.170 1260.690 24.827 7.312 o
1 8 11 51246.900 53626.000 667.257 0.017 o
1 8 12 477.805 470.837 15.160 31.454 o
1 8 13 11082.500 12314.900 184.995 0.289 o
1 8 14 1777.060 1341.540 27.903 6.739 o
1 8 15 3773.730 3338.920 52.511 2.072 o
1 8 16 1945.550 2255.970 39.328 4.874 o
1 8 17 2658.870 4127.460 83.929 2.527 o
1 8 18 1289.050 1162.040 27.244 9.649 o
1 8 19 23878.600 22442.900 314.843 0.078 o
1 8 20 286.661 330.662 16.918 51.788 o
1 8 21 11.037 -11.425 9.667 1715.000 o
1 8 22 542.840 533.674 12.743 27.296 o
1 8 23 1021.660 1305.950 33.835 11.032 o
1 8 24 4422.660 4462.290 86.346 1.488 o
1 8 25 3239.970 3677.930 103.922 2.231 o
1 8 26 2744.380 2816.670 78.656 3.067 o
1 8 27 2474.830 2269.820 62.837 3.806 o
1 8 28 1435.820 1328.800 57.344 7.980 o
1 9 0 5254.120 5782.750 116.006 1.060 o
1 9 1 28573.600 29330.300 351.754 0.052 o
1 9 2 1032.610 1144.680 20.653 11.817 o
1 9 3 10106.500 7822.310 105.680 0.423 o
1 9 4 584.376 694.940 15.160 23.097 o
1 9 5 19302.100 15427.800 195.761 0.128 o
1 9 6 3230.170 2863.910 44.821 2.638 o
1 9 7 19664.700 15771.600 197.519 0.123 o
1 9 8 5466.310 5135.480 72.504 1.102 o
1 9 9 39640.200 37671.100 447.767 0.029 o
1 9 10 3708.190 3554.670 56.245 2.044 o
1 9 11 9931.140 7124.950 113.590 0.452 o
1 9 12 18029.600 17527.700 257.499 0.129 o
1 9 13 15485.900 13081.900 178.843 0.186 o
1 9 14 773.206 936.181 20.653 16.274 o
1 9 15 10123.100 9967.770 165.002 0.367 o
1 9 16 139.894 161.926 10.326 112.328 o
1 9 17 8195.140 7841.200 110.514 0.545 o
1 9 18 386.289 450.843 13.842 37.478 o
1 9 19 9131.330 8214.490 126.333 0.466 o
1 9 20 96.710 78.656 10.986 182.602 o
1 9 21 11247.700 11001.100 177.086 0.305 o
1 9 22 646.532 611.670 15.160 22.512 o
1 9 23 8649.420 8758.490 127.431 0.479 o
1 9 24 0.480 3.735 15.160 1983.530 o
1 9 25 5850.140 5625.650 92.498 0.967 o
1 9 26 240.187 294.850 27.244 58.045 o
1 9 27 911.365 854.010 37.570 14.456 o
1 9 28 99.468 64.594 21.751 168.223 o
1 10 0 4981.620 6973.350 134.682 0.987 o
1 10 1 12938.400 10104.900 141.932 0.270 o
1 10 2 9688.510 9853.520 128.090 0.392 o
1 10 3 28843.500 25949.600 313.745 0.056 o
1 10 4 2053.960 1731.310 31.418 5.267 o
1 10 5 3900.950 3984.210 58.003 1.825 o
1 10 6 742.478 1004.290 21.092 16.213 o
1 10 7 33132.500 29514.600 361.422 0.043 o
1 10 8 5144.750 4599.610 65.913 1.251 o
1 10 9 52508.900 51624.400 606.178 0.017 o
1 10 10 503.689 549.932 14.501 28.485 o
1 10 11 42999.100 39819.700 505.771 0.025 o
1 10 12 16692.100 15306.300 209.163 0.154 o
1 10 13 12396.500 11366.700 158.850 0.267 o
1 10 14 3663.280 4149.210 77.997 1.886 o
1 10 15 16415.500 15328.000 227.838 0.157 o
1 10 16 129.868 111.173 10.326 134.306 o
1 10 17 7658.150 8426.070 158.850 0.557 o
1 10 18 58.908 116.006 10.326 213.173 o
1 10 19 1063.770 875.761 25.926 12.782 o
1 10 20 68.027 3.076 10.326 352.234 o
1 10 21 1859.340 1727.130 36.252 5.787 o
1 10 22 1081.020 828.523 24.827 12.867 o
1 10 23 2496.710 2793.820 45.260 3.453 o
1 10 24 207.652 180.162 12.084 81.851 o
1 10 25 1087.600 1210.380 39.328 10.797 o
1 10 26 194.128 144.349 16.259 90.152 o
1 10 27 1081.330 1144.680 47.677 10.958 o
1 10 28 0.286 -4.174 27.244 737.869 o
1 11 0 8153.950 7693.560 142.591 0.550 o
1 11 1 3151.660 2286.730 35.593 2.997 o
1 11 2 4449.380 5238.310 73.163 1.358 o
1 11 3 27264.700 24806.900 326.268 0.062 o
1 11 4 826.601 621.338 15.819 18.199 o
1 11 5 11045.400 8005.540 106.998 0.373 o
1 11 6 14737.600 13761.000 175.328 0.193 o
1 11 7 27609.800 21964.100 273.758 0.065 o
1 11 8 854.462 975.948 20.653 14.783 o
1 11 9 61789.600 62829.800 731.851 0.012 o
1 11 10 2815.270 2414.380 39.987 3.300 o
1 11 11 28842.300 26179.900 320.336 0.055 o
1 11 12 262.030 462.268 15.819 47.295 o
1 11 13 9629.260 7903.380 114.249 0.447 o
1 11 14 3174.620 2798.000 51.412 2.707 o
1 11 15 12004.400 10482.100 157.751 0.290 o
1 11 16 70.606 100.407 11.425 204.556 o
1 11 17 5539.210 5507.890 84.588 1.042 o
1 11 18 1044.790 955.955 23.070 12.601 o
1 11 19 861.848 989.350 22.410 14.564 o
1 11 20 96.882 138.417 15.819 144.534 o
1 11 21 6411.140 6642.030 105.241 0.793 o
1 11 22 5001.740 4936.650 77.338 1.240 o
1 11 23 2150.100 2080.650 41.086 4.618 o
1 11 24 120.342 100.407 14.501 142.311 o
1 11 25 973.420 860.601 23.509 13.942 o
1 11 26 12.519 23.509 19.334 628.838 o
1 11 27 3789.980 3490.080 99.748 1.966 o
1 12 0 19.170 218.171 16.259 184.277 o
1 12 1 9139.570 7681.470 101.506 0.485 o
1 12 2 5667.980 5557.980 82.171 1.012 o
1 12 3 6789.300 5096.370 72.504 0.858 o
1 12 4 551.299 264.750 11.425 33.195 o
1 12 5 15321.500 14857.400 190.268 0.175 o
1 12 6 10361.700 9720.590 128.090 0.365 o
1 12 7 31110.600 29169.000 352.853 0.047 o
1 12 8 1844.880 1806.230 33.176 5.726 o
1 12 9 1823.630 1815.460 34.494 5.769 o
1 12 10 724.805 742.178 18.236 18.978 o
1 12 11 1324.230 1376.040 25.926 8.777 o
1 12 12 8148.530 7281.600 114.249 0.571 o
1 12 13 287.550 405.583 16.259 47.533 o
1 12 14 4168.440 3401.760 55.586 1.839 o
1 12 15 3208.960 3112.840 52.071 2.543 o
1 12 16 4340.940 3911.700 74.921 1.632 o
1 12 17 20.899 -12.084 15.819 807.245 o
1 12 18 123.470 134.242 12.743 128.922 o
1 12 19 10818.000 9811.770 142.591 0.343 o
1 12 20 684.728 609.254 19.334 21.400 o
1 12 21 39.848 33.835 13.842 400.101 o
1 12 22 65.417 116.666 12.743 197.514 o
1 12 23 119.176 76.678 13.842 154.649 o
1 12 24 2991.140 3400.440 56.245 2.598 o
1 12 25 32.829 52.511 16.918 362.326 o
1 12 26 631.284 716.691 25.486 21.167 o
1 12 27 788.024 571.683 37.570 18.733 o
1 13 0 1173.910 978.365 31.418 11.164 o
1 13 1 29621.200 28481.100 345.163 0.051 o
1 13 2 2571.760 2286.070 36.252 3.717 o
1 13 3 37976.500 39097.500 464.685 0.030 o
1 13 4 23251.300 21473.500 263.431 0.083 o
1 13 5 3764.620 3546.110 53.170 2.016 o
1 13 6 10.957 -2.417 10.326 1655.730 o
1 13 7 1124.240 995.283 21.092 11.656 o
1 13 8 44.724 35.593 10.326 389.559 o
1 13 9 218.704 122.598 11.425 87.478 o
1 13 10 1848.200 2108.990 40.426 5.278 o
1 13 11 15.765 11.425 11.425 958.079 o
1 13 12 330.038 473.254 16.259 40.587 o
1 13 13 399.382 384.271 16.918 38.649 o
1 13 14 818.865 706.365 19.994 17.464 o
1 13 15 2638.100 2937.730 50.753 3.181 o
1 13 16 1359.310 1321.110 29.002 8.710 o
1 13 17 5940.920 6349.600 105.241 0.885 o
1 13 18 243.910 119.741 17.577 78.295 o
1 13 19 1516.500 1438.880 35.154 7.569 o
1 13 20 3940.320 3759.440 66.572 1.855 o
1 13 21 5364.510 5006.730 94.914 1.132 o
1 13 22 129.051 169.835 13.842 114.010 o
1 13 23 1205.370 1075.040 34.494 10.478 o
1 13 24 67.828 50.753 15.160 251.152 o
1 13 25 161.546 72.504 18.236 119.614 o
1 13 26 649.958 572.342 21.092 22.769 o
1 14 0 2337.240 1653.530 41.745 4.670 o
1 14 1 1455.380 857.525 20.653 9.608 o
1 14 2 5383.650 6229.410 85.247 1.001 o
1 14 3 16526.700 14209.500 180.162 0.164 o
1 14 4 2143.770 2306.070 41.745 4.405 o
1 14 5 78.740 39.328 10.326 252.389 o
1 14 6 8667.350 8606.890 116.666 0.484 o
1 14 7 25045.100 22242.300 270.682 0.074 o
1 14 8 845.035 967.599 22.410 14.939 o
1 14 9 172.714 129.409 12.084 103.484 o
1 14 10 190.191 163.244 13.842 89.333 o
1 14 11 8232.990 8820.660 126.992 0.505 o
1 14 12 1365.310 1378.460 30.320 8.507 o
1 14 13 12963.600 11783.200 163.683 0.247 o
1 14 14 379.068 253.764 16.259 45.944 o
1 14 15 535.714 395.257 19.334 30.235 o
1 14 16 4947.070 4830.310 76.239 1.270 o
1 14 17 12121.400 12318.000 186.753 0.260 o
1 14 18 560.943 484.019 20.653 27.202 o
1 14 19 2739.590 2538.080 48.995 3.301 o
1 14 20 366.377 383.173 23.509 40.412 o
1 14 21 4388.650 3852.600 65.254 1.632 o
1 14 22 320.669 265.189 23.070 50.471 o
1 14 23 585.717 513.021 19.334 25.817 o
1 14 24 51.442 90.081 15.819 241.140 o
1 14 25 1088.660 859.942 25.486 12.610 o
1 14 26 1429.860 1570.040 44.161 7.590 o
1 15 0 25405.800 22984.900 397.014 0.070 o
1 15 1 338.067 457.434 15.819 40.619 o
1 15 2 1445.910 1399.110 26.585 8.058 o
1 15 3 594.584 669.014 18.236 23.078 o
1 15 4 2332.890 2440.970 41.086 3.956 o
1 15 5 142.408 86.346 12.084 132.940 o
1 15 6 5415.360 5342.230 76.678 1.089 o
1 15 7 829.763 717.350 20.653 17.158 o
1 15 8 435.543 340.769 15.819 37.726 o
1 15 9 472.245 383.173 15.819 34.068 o
1 15 10 324.372 238.165 14.501 53.243 o
1 15 11 319.451 197.519 13.842 56.809 o
1 15 12 1289.910 1330.780 29.002 9.089 o
1 15 13 6.668 -29.661 15.160 1501.320 o
1 15 14 5614.680 5224.900 79.754 1.058 o
1 15 15 258.574 174.669 16.918 68.684 o
1 15 16 1512.770 1341.100 35.593 7.809 o
1 15 17 709.920 808.530 26.585 18.372 o
1 15 18 184.584 127.431 21.092 93.804 o
1 15 19 99.553 55.586 17.577 182.774 o
1 15 20 1053.380 937.938 30.759 12.487 o
1 15 21 1127.070 1077.010 33.835 11.108 o
1 15 22 6054.280 5464.830 89.422 0.946 o
1 15 23 32.377 28.343 17.577 431.004 o
1 15 24 195.904 146.326 15.819 89.414 o
1 15 25 211.336 228.937 18.675 72.484 o
1 16 0 3872.590 3538.860 76.678 1.937 o
1 16 1 5097.590 4536.770 65.913 1.273 o
1 16 2 137.173 143.910 13.402 116.966 o
1 16 3 246.861 183.018 12.743 71.400 o
1 16 4 370.525 350.436 19.334 41.948 o
1 16 5 8662.650 8434.640 116.006 0.490 o
1 16 6 6127.660 5844.480 84.588 0.901 o
1 16 7 670.421 594.094 17.577 22.028 o
1 16 8 5668.710 5786.480 82.171 0.989 o
1 16 9 3737.040 3356.940 52.511 2.088 o
1 16 10 2745.340 2764.160 45.919 3.166 o
1 16 11 605.339 397.014 17.577 27.325 o
1 16 12 12.916 -38.669 15.160 1110.090 o
1 16 13 2019.920 1591.790 30.320 5.545 o
1 16 14 7922.650 7590.950 119.082 0.576 o
1 16 15 1416.620 1747.790 38.010 7.309 o
1 16 16 3.955 -56.905 18.675 1282.310 o
1 16 17 5685.280 5556.660 93.157 1.005 o
1 16 18 4.543 -64.155 20.653 1060.730 o
1 16 19 6510.260 5512.060 90.740 0.865 o
1 16 20 3514.070 3937.850 71.406 2.030 o
1 16 21 7.035 -2.417 17.577 1214.810 o
1 16 22 559.865 667.696 29.661 23.584 o
1 16 23 178.244 259.257 26.585 73.158 o
1 16 24 1774.420 1498.640 39.987 6.402 o
1 16 25 1878.060 1692.200 41.086 5.760 o
1 17 0 22494.100 21183.500 359.664 0.086 o
1 17 1 1258.600 1229.270 24.827 9.649 o
1 17 2 14372.800 12851.000 165.661 0.207 o
1 17 3 80.939 70.746 13.402 208.353 o
1 17 4 13325.000 12218.900 161.267 0.234 o
1 17 5 988.880 888.943 23.070 13.592 o
1 17 6 17167.600 16711.300 212.019 0.142 o
1 17 7 2650.170 2587.080 44.161 3.391 o
1 17 8 10596.100 9310.180 125.015 0.363 o
1 17 9 111.121 119.741 15.819 140.502 o
1 17 10 19223.800 17241.900 218.830 0.120 o
1 17 11 1591.440 1682.530 33.835 6.766 o
1 17 12 3519.740 3438.010 58.003 2.193 o
1 17 13 6.452 1.758 18.236 1140.250 o
1 17 14 23175.000 23446.000 313.086 0.078 o
1 17 15 512.680 528.181 23.070 28.096 o
1 17 16 6579.130 6184.150 95.573 0.804 o
1 17 17 0.206 -12.743 19.994 1366.390 o
1 17 18 5477.590 5176.130 93.596 1.087 o
1 17 19 69.646 76.239 23.509 194.627 o
1 17 20 93.944 88.323 19.334 166.182 o
1 17 21 236.702 193.344 29.661 66.281 o
1 17 22 1665.960 1563.890 44.161 6.644 o
1 17 23 352.526 318.578 21.751 44.606 o
1 17 24 2218.850 1787.550 50.094 4.748 o
1 18 0 2732.180 2643.980 67.011 3.207 o
1 18 1 319.537 250.688 17.577 52.561 o
1 18 2 18347.300 17381.600 217.512 0.127 o
1 18 3 7628.910 7423.530 102.165 0.612 o
1 18 4 3088.420 2733.400 43.502 2.827 o
1 18 5 348.748 235.089 15.819 50.250 o
1 18 6 1790.770 1478.860 29.661 6.433 o
1 18 7 2017.380 1976.060 35.593 5.044 o
1 18 8 707.498 627.929 23.070 20.486 o
1 18 9 266.556 230.914 17.577 61.752 o
1 18 10 4.292 13.842 19.334 911.072 o
1 18 11 659.665 740.200 23.070 20.291 o
1 18 12 3063.960 3116.570 56.905 2.657 o
1 18 13 339.025 346.921 20.653 44.712 o
1 18 14 9738.330 10040.900 143.250 0.384 o
1 18 15 77.387 18.236 21.092 243.332 o
1 18 16 535.683 442.275 25.486 28.756 o
1 18 17 2008.220 2164.790 47.237 4.808 o
1 18 18 3587.380 4158.440 81.512 1.919 o
1 18 19 29.272 42.843 25.486 323.006 o
1 18 20 819.976 702.191 29.661 17.220 o
1 18 21 154.613 136.659 22.410 103.032 o
1 18 22 6538.820 6622.250 121.499 0.773 o
1 18 23 1024.900 765.027 27.903 13.819 o
1 19 0 2471.730 2350.890 56.245 3.771 o
1 19 1 425.735 522.688 20.653 32.434 o
1 19 2 8419.850 8223.710 112.931 0.514 o
1 19 3 14.698 19.334 17.577 677.434 o
1 19 4 12057.400 11807.400 156.433 0.270 o
1 19 5 110.367 170.494 18.236 120.910 o
1 19 6 17964.100 17030.500 221.247 0.132 o
1 19 7 14.229 29.661 16.918 620.037 o
1 19 8 15938.800 14906.800 198.837 0.166 o
1 19 9 206.193 247.173 21.092 70.706 o
1 19 10 8695.380 7645.880 108.097 0.516 o
1 19 11 211.026 196.420 19.994 75.921 o
1 19 12 13640.400 12561.000 168.517 0.224 o
1 19 13 1590.800 1281.780 32.737 7.606 o
1 19 14 4192.150 4075.610 82.830 1.654 o
1 19 15 6.830 -13.842 23.070 819.742 o
1 19 16 5950.770 6176.240 107.657 0.897 o
1 19 17 85.052 86.346 27.244 158.954 o
1 19 18 728.070 745.693 32.737 18.409 o
1 19 19 408.741 409.758 35.593 34.815 o
1 19 20 2203.400 2080.650 53.829 4.466 o
1 19 21 150.043 106.339 24.827 109.927 o
1 19 22 3940.560 3947.950 85.247 1.792 o
1 19 23 0.648 -12.084 20.653 1254.860 o
1 20 0 45130.900 45583.100 770.520 0.022 o
1 20 1 666.500 650.779 24.827 21.137 o
1 20 2 945.289 856.866 25.486 14.284 o
1 20 3 534.158 487.095 21.751 28.142 o
1 20 4 11175.500 10851.200 148.743 0.311 o
1 20 5 693.283 1018.790 29.002 16.700 o
1 20 6 1023.750 1314.300 30.320 11.030 o
1 20 7 685.779 661.764 24.827 20.535 o
1 20 8 1089.880 871.367 28.343 12.494 o
1 20 9 1089.840 746.352 24.827 13.222 o
1 20 10 85.473 94.255 19.994 171.091 o
1 20 11 270.651 277.493 23.509 55.991 o
1 20 12 4958.980 4717.380 74.262 1.283 o
1 20 13 34.878 68.989 21.092 290.334 o
1 20 14 12337.600 12640.100 186.094 0.251 o
1 20 15 249.122 151.160 25.486 69.963 o
1 20 16 1928.530 1991.880 48.336 5.188 o
1 20 17 419.427 456.775 29.661 33.670 o
1 20 18 720.636 751.186 39.328 18.211 o
1 20 19 538.317 604.859 35.593 24.831 o
1 20 20 6193.140 6492.850 131.826 0.827 o
1 20 21 1.333 10.326 24.168 768.423 o
1 20 22 146.606 122.158 25.486 107.051 o
1 21 0 191.037 299.244 31.418 64.104 o
1 21 1 529.603 759.095 26.585 23.297 o
1 21 2 130.740 165.661 21.092 108.536 o
1 21 3 2385.550 2443.830 48.336 3.853 o
1 21 4 60.776 59.761 19.994 238.669 o
1 21 5 6445.950 6503.170 96.672 0.800 o
1 21 6 291.781 319.677 21.092 51.073 o
1 21 7 471.975 457.434 23.070 31.538 o
1 21 8 401.379 415.250 23.070 36.809 o
1 21 9 2367.800 2512.810 49.654 3.823 o
1 21 10 83.277 105.241 22.410 162.286 o
1 21 11 1693.990 1688.460 39.987 6.352 o
1 21 12 713.518 771.179 28.343 18.611 o
1 21 13 1046.990 1024.280 32.078 12.098 o
1 21 14 1241.760 1588.720 50.094 8.400 o
1 21 15 119.471 146.326 27.903 111.650 o
1 21 16 13.305 40.426 26.585 393.086 o
1 21 17 332.485 427.774 30.320 40.230 o
1 21 18 223.482 218.171 30.759 65.909 o
1 21 19 434.828 438.759 29.002 33.394 o
1 21 20 198.360 172.911 33.176 74.660 o
1 21 21 742.238 644.846 35.593 19.014 o
1 22 0 74.621 237.506 32.078 105.928 o
1 22 1 301.684 377.021 25.486 46.021 o
1 22 2 931.274 1203.130 35.154 12.300 o
1 22 3 232.411 232.672 22.410 66.334 o
1 22 4 876.734 945.189 29.002 14.529 o
1 22 5 1588.810 1434.700 34.494 7.267 o
1 22 6 531.934 703.948 27.903 23.986 o
1 22 7 4362.820 4682.880 74.921 1.477 o
1 22 8 2311.200 2032.310 41.745 4.347 o
1 22 9 3096.530 3389.010 59.322 2.513 o
1 22 10 85.891 59.322 23.070 184.904 o
1 22 11 61.315 178.184 24.168 145.112 o
1 22 12 7303.850 6553.270 99.748 0.690 o
1 22 13 1521.670 1611.790 38.669 7.149 o
1 22 14 837.005 644.187 32.078 17.350 o
1 22 15 207.587 235.089 29.661 67.894 o
1 22 16 212.334 247.173 28.343 66.402 o
1 22 17 2552.680 2289.150 56.905 3.695 o
1 22 18 202.912 343.845 33.835 57.506 o
1 22 19 896.570 648.362 41.086 16.001 o
1 22 20 8.435 -29.661 32.737 442.982 o
1 23 0 4766.460 4612.130 105.241 1.338 o
1 23 1 356.133 314.184 25.926 43.773 o
1 23 2 270.118 203.011 25.486 61.162 o
1 23 3 1187.360 999.457 30.759 10.972 o
1 23 4 945.850 883.451 30.320 14.012 o
1 23 5 115.531 94.914 22.410 137.934 o
1 23 6 426.998 469.518 27.244 33.177 o
1 23 7 5175.820 6032.990 96.672 1.059 o
1 23 8 32.358 48.995 25.486 300.081 o
1 23 9 49.003 53.829 25.486 245.786 o
1 23 10 768.878 792.271 30.320 17.305 o
1 23 11 1142.070 1144.030 40.426 10.611 o
1 23 12 306.590 334.837 27.244 47.287 o
1 23 13 341.119 232.013 30.320 48.329 o
1 23 14 2081.070 2269.820 58.662 4.500 o
1 23 15 123.545 149.183 29.661 106.776 o
1 23 16 2.099 -39.328 28.343 652.013 o
1 23 17 60.647 90.081 32.737 166.766 o
1 23 18 384.072 337.254 36.911 38.520 o
1 24 0 7312.960 7951.710 165.002 0.606 o
1 24 1 952.360 1058.780 34.494 12.840 o
1 24 2 55.194 39.328 25.486 248.294 o
1 24 3 57.181 227.838 24.827 128.451 o
1 24 4 7406.480 7479.120 110.514 0.629 o
1 24 5 1115.310 880.594 29.661 12.172 o
1 24 6 1110.390 790.514 30.759 12.659 o
1 24 7 877.658 1228.610 35.593 12.709 o
1 24 8 3179.860 2933.340 60.420 2.630 o
1 24 9 7118.130 6270.500 99.748 0.728 o
1 24 10 162.249 139.515 32.078 90.604 o
1 24 11 2432.720 1932.120 44.161 4.210 o
1 24 12 3468.230 2987.170 65.254 2.375 o
1 24 13 498.478 529.279 29.661 28.156 o
1 24 14 1498.760 1942.890 49.654 6.523 o
1 24 15 922.063 829.842 37.570 14.474 o
1 24 16 2076.170 1901.800 52.071 4.928 o
1 24 17 231.303 180.601 33.835 66.419 o
1 25 0 760.545 987.373 47.677 15.250 o
1 25 1 9523.700 8970.070 133.583 0.422 o
1 25 2 1065.310 1452.720 38.010 10.069 o
1 25 3 7880.360 8281.720 124.575 0.551 o
1 25 4 390.991 377.021 26.585 38.379 o
1 25 5 458.488 534.772 30.759 29.646 o
1 25 6 3195.190 2557.410 50.753 2.800 o
1 25 7 2864.610 2496.560 56.905 3.162 o
1 25 8 1092.930 1063.610 35.593 11.432 o
1 25 9 3910.850 4005.520 69.428 1.807 o
1 25 10 1238.000 1015.280 35.593 10.442 o
1 25 11 1704.860 2092.070 46.578 5.655 o
1 25 12 1512.910 1225.540 37.570 8.074 o
1 25 13 2261.530 2125.470 50.094 4.327 o
1 25 14 506.549 565.751 36.911 26.488 o
1 25 15 3600.620 3390.770 72.504 2.141 o
1 25 16 863.331 913.111 41.745 14.571 o
1 26 0 361.153 436.342 41.745 35.811 o
1 26 1 3677.860 3111.080 59.761 2.195 o
1 26 2 180.837 225.422 27.903 75.851 o
1 26 3 1691.600 1545.870 52.071 6.524 o
1 26 4 684.972 599.586 33.176 20.925 o
1 26 5 5105.420 4499.860 94.255 1.263 o
1 26 6 2322.850 2194.240 53.829 4.143 o
1 26 7 793.484 638.695 32.737 18.178 o
1 26 8 32.281 41.745 28.343 288.286 o
1 26 9 1038.830 1012.860 37.570 12.131 o
1 26 10 446.878 425.357 32.078 32.732 o
1 26 11 3886.060 3993.430 71.406 1.820 o
1 26 12 392.102 451.502 34.494 34.734 o
1 26 13 613.211 652.756 42.404 21.478 o
1 26 14 400.879 406.682 35.593 35.378 o
1 27 0 22.967 42.843 39.328 223.224 o
1 27 1 15566.500 13735.800 213.997 0.179 o
1 27 2 650.133 512.362 29.661 23.211 o
1 27 3 13280.200 11830.900 237.506 0.236 o
1 27 4 4.060 -18.675 29.661 572.846 o
1 27 5 12253.600 10343.000 174.010 0.284 o
1 27 6 143.251 102.824 27.244 111.436 o
1 27 7 2603.850 2411.970 64.594 3.517 o
1 27 8 2202.060 1805.790 47.677 4.775 o
1 27 9 4550.210 4665.300 96.672 1.403 o
1 27 10 78.113 70.746 29.661 167.892 o
1 27 11 3306.030 3251.260 71.406 2.388 o
1 27 12 182.909 216.414 38.669 69.551 o
1 28 0 15.884 36.252 43.502 212.288 o
1 28 1 1269.060 942.772 36.252 10.472 o
1 28 2 1343.550 1069.100 40.426 9.449 o
1 28 3 75.948 60.420 28.343 180.871 o
1 28 4 267.930 182.578 33.835 59.882 o
1 28 5 994.035 888.284 44.161 13.080 o
1 28 6 1022.680 875.761 38.010 12.992 o
1 28 7 1206.070 768.103 38.669 11.687 o
1 28 8 87.877 106.998 30.320 140.126 o
1 28 9 2488.400 2163.480 72.504 3.832 o
1 29 0 962.574 737.344 98.430 11.943 o
1 29 1 2.900 -27.244 43.502 282.745 o
1 29 2 819.754 653.195 65.254 15.939 o
1 29 3 67.674 105.241 64.594 82.033 o
1 29 4 1667.920 1251.020 56.905 7.128 o
1 29 5 46.592 29.002 51.412 140.706 o
2 0 0 8405.830 9458.920 239.263 0.456 o
2 0 1 2550.760 1603.220 39.328 4.307 o
2 0 3 20038.300 14767.300 251.347 0.123 o
2 0 4 33154.100 35205.500 807.431 0.037 o
2 0 5 1358.720 4709.470 98.430 3.521 o
2 0 6 14148.900 10522.500 209.163 0.233 o
2 0 7 256.436 549.932 22.410 42.748 o
2 0 8 1201.140 609.254 22.410 12.788 o
2 0 9 1247.710 1367.030 43.502 9.078 o
2 0 10 4615.450 7337.630 189.829 0.990 o
2 0 11 96.454 57.344 9.667 200.292 o
2 0 12 27313.900 27898.700 648.362 0.055 o
2 0 15 413.887 484.678 19.334 34.247 o
2 0 16 66062.600 79911.700 2507.320 0.008 o
2 0 19 132.254 279.909 15.160 88.652 o
2 0 21 159.737 61.079 16.259 126.128 o
2 1 1 113.946 1267.940 21.092 29.457 o
2 1 3 24217.700 18948.600 238.165 0.084 o
2 1 4 30191.700 28564.600 470.837 0.049 o
2 1 5 5516.380 5708.480 83.490 1.027 o
2 1 6 20003.900 21082.400 350.436 0.100 o
2 1 7 59.091 616.504 15.819 64.778 o
2 1 8 177.865 2816.670 43.502 11.625 o
2 1 9 204.661 207.186 12.743 78.744 o
2 1 10 2846.950 4254.450 80.414 2.344 o
2 1 11 1788.900 2181.710 45.260 5.315 o
2 1 12 2926.620 2950.910 58.662 2.856 o
2 1 13 94.753 42.404 7.250 219.526 o
2 1 14 56093.000 67202.200 1516.210 0.012 o
2 1 15 869.626 1005.610 24.168 14.325 o
2 1 16 22307.700 22104.500 519.173 0.083 o
2 1 19 629.573 570.585 19.334 23.457 o
2 1 21 4129.790 3747.360 145.008 1.677 o
2 1 23 36.221 29.002 13.842 441.032 o
2 2 1 5080.930 4780.210 78.656 1.239 o
2 2 2 10413.400 12493.100 212.019 0.306 o
2 2 3 2603.500 1237.620 21.092 4.600 o
2 2 4 253.021 52.511 4.174 89.320 o
2 2 6 101.295 95.573 4.834 171.755 o
2 2 7 567.028 2083.060 38.669 11.521 o
2 2 8 1175.250 792.271 17.577 12.170 o
2 2 9 712.398 376.582 13.842 24.078 o
2 2 10 8191.710 8854.060 152.258 0.503 o
2 2 11 18.392 33.835 4.834 727.750 o
2 2 12 4927.270 5496.900 103.922 1.174 o
2 2 13 1606.790 1337.370 32.737 7.410 o
2 2 14 14853.500 15594.500 372.187 0.171 o
2 2 15 6560.090 6475.930 169.835 0.765 o
2 2 16 365.555 498.520 18.236 36.915 o
2 2 17 219.342 209.603 10.986 75.126 o
2 2 18 23.161 101.506 12.084 324.809 o
2 2 19 8570.090 8485.390 203.011 0.482 o
2 2 20 12433.900 14109.700 449.525 0.217 o
2 2 21 314.937 496.103 21.092 40.339 o
2 2 22 2429.030 1982.220 82.830 4.023 o
2 2 23 8.684 45.260 14.501 640.677 o
2 3 0 710.511 409.758 18.675 23.466 o
2 3 1 678.048 4003.760 78.656 5.622 o
2 3 2 27.465 815.780 27.244 51.608 o
2 3 3 29066.900 21947.800 335.496 0.060 o
2 3 4 859.614 383.173 20.653 19.879 o
2 3 6 8220.270 5080.550 88.323 0.672 o
2 3 7 21195.800 20791.300 317.260 0.094 o
2 3 8 1253.040 1300.460 26.585 9.437 o
2 3 9 47.517 1216.530 25.486 33.696 o
2 3 10 3269.220 2465.140 48.995 2.776 o
2 3 11 3902.260 5149.980 92.498 1.548 o
2 3 12 1229.000 1680.560 40.426 8.336 o
2 3 13 19534.200 20503.500 401.848 0.104 o
2 3 14 28024.100 28813.500 549.932 0.053 o
2 3 15 5152.170 5055.730 91.838 1.179 o
2 3 16 9669.630 11342.500 190.268 0.355 o
2 3 17 116.012 238.604 12.084 104.434 o
2 3 18 936.847 891.360 25.926 14.164 o
2 3 19 14834.900 17109.600 328.685 0.163 o
2 3 20 1381.140 1484.140 46.578 7.997 o
2 3 21 611.677 540.924 23.509 24.280 o
2 3 22 182.095 96.013 15.819 104.746 o
2 3 23 4696.200 4306.520 157.751 1.360 o
2 3 24 2818.910 2682.650 103.922 2.982 o
2 3 26 192.523 173.351 17.577 85.321 o
2 4 0 274.802 2008.800 62.837 14.260 o
2 4 1 3585.880 5188.650 86.346 1.672 o
2 4 2 2728.870 4889.630 90.081 2.194 o
2 4 3 148.100 870.268 38.669 36.148 o
2 4 4 50847.200 55689.200 1083.610 0.016 o
2 4 6 546.903 713.176 15.160 23.950 o
2 4 7 1191.930 1271.460 29.661 9.916 o
2 4 8 9780.090 5969.500 94.914 0.500 o
2 4 9 3102.370 5769.560 106.998 1.735 o
2 4 10 254.352 261.674 11.425 62.453 o
2 4 11 1661.800 1811.060 29.002 6.308 o
2 4 12 5215.790 5166.900 71.406 1.158 o
2 4 13 254.976 321.435 9.667 57.765 o
2 4 14 313.578 728.116 15.819 33.289 o
2 4 15 3994.060 4482.950 75.580 1.657 o
2 4 16 1193.770 1323.530 26.585 9.754 o
2 4 17 4968.570 5116.810 93.596 1.217 o
2 4 18 1628.360 2143.480 38.010 5.846 o
2 4 19 12401.700 12507.200 210.921 0.250 o
2 4 20 81.022 92.498 10.986 195.037 o
2 4 21 5587.100 5613.570 143.910 0.997 o
2 4 22 35.625 24.168 21.751 375.661 o
2 4 23 3232.070 3195.010 87.005 2.438 o
2 4 24 331.619 443.593 27.903 40.100 o
2 4 25 197.630 206.746 19.334 78.306 o
2 4 26 35.790 16.918 16.259 464.799 o
2 5 0 39432.500 36894.000 629.686 0.030 o
2 5 1 8063.580 2894.010 45.919 0.836 o
2 5 2 448.029 1152.370 24.168 20.382 o
2 5 4 4500.330 5485.480 85.247 1.299 o
2 5 6 1196.650 1066.690 24.827 10.695 o
2 5 7 9487.010 12971.200 209.603 0.329 o
2 5 8 12275.800 11042.800 153.577 0.275 o
2 5 9 10803.400 12140.900 163.683 0.302 o
2 5 10 34918.100 36640.900 498.520 0.035 o
2 5 11 2601.800 3644.760 65.254 2.823 o
2 5 12 13162.700 12668.400 178.843 0.232 o
2 5 13 6895.910 8718.060 117.764 0.618 o
2 5 14 1363.630 1479.960 34.494 8.212 o
2 5 15 272.879 574.100 13.842 41.349 o
2 5 16 258.758 450.184 10.986 48.836 o
2 5 17 2412.580 2348.470 42.404 3.900 o
2 5 18 45.656 171.593 10.986 188.908 o
2 5 19 391.081 512.362 17.577 34.918 o
2 5 20 82.038 137.099 10.326 165.740 o
2 5 21 49.400 112.931 10.986 233.608 o
2 5 22 1124.850 1342.860 36.252 10.060 o
2 5 23 42.236 27.244 21.751 336.191 o
2 5 24 88.596 119.082 19.994 154.652 o
2 5 25 917.614 949.363 45.919 13.547 o
2 5 26 719.383 749.428 39.987 18.220 o
2 5 27 469.012 502.255 26.585 30.297 o
2 6 0 13826.200 12530.000 235.089 0.218 o
2 6 1 19313.700 26208.900 326.927 0.090 o
2 6 2 55185.400 56900.700 856.866 0.014 o
2 6 3 8701.960 11150.500 161.267 0.405 o
2 6 4 8487.200 6576.770 100.407 0.574 o
2 6 5 47959.700 51544.700 656.930 0.019 o
2 6 6 21400.100 20587.000 301.661 0.094 o
2 6 7 4696.480 3760.760 59.761 1.532 o
2 6 8 145.789 207.845 9.667 99.175 o
2 6 9 4728.580 6473.510 101.506 1.107 o
2 6 10 17421.700 14604.100 196.420 0.150 o
2 6 11 2772.290 2707.480 42.843 3.173 o
2 6 12 7699.660 7731.790 109.415 0.591 o
2 6 13 590.218 740.859 16.259 22.252 o
2 6 14 3964.300 4148.110 70.746 1.747 o
2 6 15 2373.800 2659.580 49.654 3.705 o
2 6 16 139.209 123.257 8.569 124.755 o
2 6 17 778.215 1141.610 28.343 14.548 o
2 6 18 1917.130 1817.210 35.593 5.499 o
2 6 19 7642.550 6726.180 111.832 0.643 o
2 6 20 76.860 105.680 12.084 189.763 o
2 6 21 1032.630 1313.860 32.078 10.934 o
2 6 22 12624.200 13041.300 223.005 0.238 o
2 6 23 4669.820 4411.540 95.573 1.406 o
2 6 24 2.671 9.008 24.168 753.661 o
2 6 25 26.507 12.084 23.070 456.429 o
2 6 26 3983.240 3812.610 148.743 1.720 o
2 6 27 51.336 82.171 21.092 230.382 o
2 6 28 375.873 351.754 24.827 40.709 o
2 7 0 1429.320 3484.590 88.763 4.426 o
2 7 1 31376.200 32096.900 426.016 0.044 o
2 7 2 11088.100 9647.430 130.507 0.337 o
2 7 3 13096.800 10357.500 151.599 0.262 o
2 7 4 9721.230 7688.720 108.756 0.448 o
2 7 5 969.229 961.447 21.092 13.427 o
2 7 6 24422.400 21952.000 292.433 0.076 o
2 7 7 11879.900 10839.800 164.342 0.289 o
2 7 8 8218.640 7477.360 108.756 0.558 o
2 7 9 3800.560 4243.460 74.262 1.798 o
2 7 10 547.196 536.750 15.819 26.951 o
2 7 11 4641.790 5542.820 106.998 1.240 o
2 7 12 44036.100 47716.200 561.357 0.022 o
2 7 13 68.552 97.331 9.008 214.732 o
2 7 14 2298.430 2695.390 43.502 3.805 o
2 7 15 6293.650 6156.250 88.323 0.849 o
2 7 16 520.074 598.268 15.819 26.813 o
2 7 17 14998.400 14933.400 257.499 0.178 o
2 7 18 2311.830 2442.070 46.578 3.975 o
2 7 19 123.539 105.680 8.569 142.536 o
2 7 20 3292.510 3213.910 59.322 2.429 o
2 7 21 4958.540 5082.970 97.990 1.222 o
2 7 22 24.672 9.008 12.084 733.521 o
2 7 23 898.392 731.192 24.168 15.846 o
2 7 24 1358.550 1600.800 36.911 7.916 o
2 7 25 38.422 30.320 25.486 311.849 o
2 7 26 88.534 53.170 25.926 177.161 o
2 7 27 2264.610 2213.130 88.323 4.076 o
2 7 28 35.754 8.569 23.509 397.923 o
2 7 29 133.014 121.499 16.918 123.292 o
2 8 0 61885.200 59001.400 979.683 0.012 o
2 8 1 21880.200 17799.700 230.255 0.100 o
2 8 2 235.956 566.191 13.842 44.948 o
2 8 3 2420.450 1339.790 24.827 4.877 o
2 8 4 218.955 219.929 9.667 74.245 o
2 8 5 52967.100 51928.500 620.019 0.016 o
2 8 6 13459.200 11563.700 163.683 0.238 o
2 8 7 23238.500 17676.500 242.339 0.092 o
2 8 8 146.133 142.591 9.667 114.462 o
2 8 9 11157.300 8487.150 123.257 0.357 o
2 8 10 37.460 56.245 7.250 386.516 o
2 8 11 18519.400 16955.600 228.937 0.127 o
2 8 12 8684.120 7388.380 100.407 0.527 o
2 8 13 18267.000 17843.900 235.748 0.126 o
2 8 14 901.052 728.775 16.918 15.961 o
2 8 15 19173.100 17729.700 233.771 0.119 o
2 8 16 1127.970 1157.210 27.903 10.849 o
2 8 17 3304.690 3075.490 72.504 2.453 o
2 8 18 487.686 682.197 17.577 26.381 o
2 8 19 13695.200 13565.300 215.754 0.211 o
2 8 20 2227.960 1933.880 36.252 4.623 o
2 8 21 11274.500 11779.500 154.675 0.293 o
2 8 22 287.796 230.255 16.259 58.662 o
2 8 23 9101.210 9553.170 172.252 0.425 o
2 8 24 407.418 490.171 21.751 34.252 o
2 8 25 4405.960 4333.100 82.830 1.520 o
2 8 26 148.327 143.910 18.236 107.667 o
2 8 27 823.109 757.118 52.071 15.821 o
2 8 28 161.147 127.431 35.593 89.521 o
2 9 0 856.814 317.919 13.842 20.887 o
2 9 1 29217.400 24152.400 301.002 0.057 o
2 9 2 115.535 248.930 9.667 103.348 o
2 9 3 11211.700 11598.900 156.433 0.298 o
2 9 4 1095.620 1189.940 23.070 11.034 o
2 9 5 3336.720 2281.240 42.404 2.807 o
2 9 6 4724.900 5055.730 73.163 1.303 o
2 9 7 598.410 582.010 15.819 24.372 o
2 9 8 90.016 125.015 10.326 163.630 o
2 9 9 19551.600 22012.000 293.092 0.101 o
2 9 10 200.670 374.165 14.501 61.460 o
2 9 11 353.281 594.094 17.577 34.734 o
2 9 12 225.675 209.603 13.402 73.031 o
2 9 13 2761.850 3070.660 54.927 2.967 o
2 9 14 6332.360 5726.500 92.498 0.876 o
2 9 15 20.621 30.759 8.569 670.653 o
2 9 16 57.240 44.821 9.008 314.085 o
2 9 17 411.350 529.279 15.819 33.380 o
2 9 18 2762.930 3282.670 68.330 2.836 o
2 9 19 11650.700 12030.400 193.344 0.276 o
2 9 20 803.397 754.262 18.236 17.349 o
2 9 21 2533.460 2741.310 47.237 3.435 o
2 9 22 2707.350 2840.840 54.488 3.150 o
2 9 23 786.341 974.850 27.244 15.628 o
2 9 24 62.340 42.843 16.259 272.061 o
2 9 25 1629.470 1483.700 38.669 6.973 o
2 9 26 5.330 -3.076 19.994 1082.620 o
2 9 27 1371.700 1471.610 44.821 8.094 o
2 9 28 10.579 29.661 39.328 266.104 o
2 10 0 208.108 457.434 16.918 53.713 o
2 10 1 1250.620 823.031 16.918 11.333 o
2 10 2 2846.720 2863.910 45.260 3.002 o
2 10 3 32870.400 30545.500 372.846 0.043 o
2 10 4 9809.120 8180.650 119.082 0.429 o
2 10 5 13383.100 13801.500 180.162 0.216 o
2 10 6 2879.430 2457.230 44.821 3.190 o
2 10 7 65231.000 63733.200 747.011 0.011 o
2 10 8 9533.400 8209.210 119.741 0.443 o
2 10 9 56340.900 57660.500 723.942 0.014 o
2 10 10 15.566 -3.076 10.326 1286.310 o
2 10 11 44925.900 46154.700 582.669 0.022 o
2 10 12 47.261 39.987 10.326 363.676 o
2 10 13 10531.000 9524.170 134.682 0.361 o
2 10 14 24.629 61.079 9.008 446.843 o
2 10 15 1941.670 1997.820 33.176 5.209 o
2 10 16 475.656 546.417 14.501 29.787 o
2 10 17 21681.700 20409.900 266.507 0.093 o
2 10 18 10.033 -25.926 12.084 1561.060 o
2 10 19 49.889 36.252 10.986 356.565 o
2 10 20 2101.780 2185.890 42.404 4.605 o
2 10 21 3668.700 3448.340 55.586 2.099 o
2 10 22 32.000 12.743 12.084 583.816 o
2 10 23 794.522 829.842 21.751 16.774 o
2 10 24 953.454 896.853 27.903 13.886 o
2 10 25 2173.960 2243.230 55.586 4.360 o
2 10 26 626.405 597.609 27.903 22.765 o
2 10 27 6553.360 6861.520 130.507 0.754 o
2 10 28 887.007 905.202 39.328 14.389 o
2 11 0 4239.280 4485.360 94.914 1.544 o
2 11 1 32268.000 27191.600 331.102 0.047 o
2 11 2 3362.380 2696.490 43.502 2.598 o
2 11 3 26234.300 22128.700 275.515 0.069 o
2 11 4 2212.660 2117.560 35.593 4.471 o
2 11 5 29851.600 26419.800 324.510 0.053 o
2 11 6 7581.910 7413.210 102.165 0.617 o
2 11 7 31313.100 31758.500 388.006 0.044 o
2 11 8 4809.070 4432.190 64.594 1.375 o
2 11 9 10016.000 7925.790 125.674 0.424 o
2 11 10 48.604 15.160 10.986 425.794 o
2 11 11 31635.400 30048.300 388.666 0.045 o
2 11 12 8526.000 8501.650 131.166 0.495 o
2 11 13 24310.600 23678.700 313.745 0.073 o
2 11 14 464.613 384.271 14.501 34.568 o
2 11 15 16534.500 15183.700 207.186 0.157 o
2 11 16 80.123 48.995 10.326 237.741 o
2 11 17 6896.520 6799.780 96.672 0.723 o
2 11 18 132.405 90.740 12.743 138.241 o
2 11 19 16599.100 16964.600 268.924 0.145 o
2 11 20 82.674 54.488 12.743 221.443 o
2 11 21 1298.810 1246.630 30.320 9.283 o
2 11 22 475.749 514.779 26.585 29.703 o
2 11 23 1402.160 1205.540 29.002 8.796 o
2 11 24 2148.750 2203.460 38.669 4.504 o
2 11 25 2222.070 2013.630 46.578 4.522 o
2 11 26 438.056 382.514 22.410 35.580 o
2 11 27 3842.160 3579.500 74.921 1.944 o
2 12 0 2289.470 2155.130 48.995 4.252 o
2 12 1 6479.980 5618.400 77.997 0.864 o
2 12 2 5.357 -9.008 9.667 2703.850 o
2 12 3 31750.800 32112.000 391.082 0.043 o
2 12 4 1708.040 2266.740 39.987 5.439 o
2 12 5 17405.500 14550.900 199.935 0.151 o
2 12 6 5888.220 4948.290 71.845 1.032 o
2 12 7 194.049 103.922 10.986 100.229 o
2 12 8 148.281 100.847 10.986 124.787 o
2 12 9 5388.790 5660.810 94.255 1.054 o
2 12 10 20436.000 20670.200 300.342 0.099 o
2 12 11 8035.530 7433.200 108.097 0.575 o
2 12 12 1578.750 1516.210 32.737 7.150 o
2 12 13 4855.080 4626.640 71.406 1.328 o
2 12 14 2488.940 1978.040 39.987 4.083 o
2 12 15 3084.690 3020.340 54.927 2.683 o
2 12 16 81.154 57.344 11.425 224.490 o
2 12 17 1681.210 1751.300 40.426 6.287 o
2 12 18 2053.610 1819.630 33.835 5.151 o
2 12 19 139.624 75.580 13.842 137.515 o
2 12 20 373.711 379.438 23.070 40.050 o
2 12 21 11223.500 11489.500 174.669 0.298 o
2 12 22 371.760 332.420 21.751 42.282 o
2 12 23 100.359 81.073 16.918 167.496 o
2 12 24 80.435 111.832 14.501 176.954 o
2 12 25 309.497 487.095 18.236 41.474 o
2 12 26 1646.030 1463.040 33.176 6.983 o
2 12 27 2.364 -16.259 30.320 570.196 o
2 13 0 15925.200 17114.500 297.926 0.151 o
2 13 1 2047.720 2942.560 48.995 3.991 o
2 13 2 16327.200 14105.500 180.601 0.167 o
2 13 3 529.173 751.186 18.675 23.788 o
2 13 4 12885.200 11667.700 150.501 0.251 o
2 13 5 9983.770 8876.250 119.082 0.402 o
2 13 6 77.648 62.837 10.326 228.243 o
2 13 7 7577.240 7032.010 112.931 0.634 o
2 13 8 3140.150 2714.730 42.404 2.788 o
2 13 9 7905.910 6657.850 91.838 0.624 o
2 13 10 80.876 133.583 14.501 163.825 o
2 13 11 5392.380 5025.630 76.678 1.130 o
2 13 12 10663.400 11542.000 162.585 0.316 o
2 13 13 8261.210 8036.960 114.908 0.532 o
2 13 14 808.872 646.604 20.653 18.192 o
2 13 15 343.427 437.002 17.577 40.828 o
2 13 16 10103.100 9432.330 133.583 0.382 o
2 13 17 1002.230 711.858 21.751 14.554 o
2 13 18 1735.740 1658.800 33.176 6.297 o
2 13 19 241.508 166.100 13.842 74.309 o
2 13 20 7063.090 6750.340 102.824 0.705 o
2 13 21 236.671 252.006 15.819 65.655 o
2 13 22 2652.730 2755.150 52.511 3.268 o
2 13 23 132.549 134.242 14.501 121.719 o
2 13 24 1954.190 1723.620 35.154 5.527 o
2 13 25 892.813 895.535 24.827 14.733 o
2 13 26 12.775 7.250 23.509 618.481 o
2 14 0 21389.000 21154.500 365.596 0.092 o
2 14 1 339.750 240.582 12.743 51.403 o
2 14 2 263.801 81.073 11.425 80.173 o
2 14 3 7923.390 6894.030 94.255 0.611 o
2 14 4 2437.900 1813.480 35.154 4.332 o
2 14 5 708.775 556.523 15.819 21.563 o
2 14 6 14954.000 14142.500 181.919 0.186 o
2 14 7 3425.790 3182.270 50.753 2.352 o
2 14 8 23173.200 22071.100 275.515 0.082 o
2 14 9 3958.090 3710.010 56.905 1.866 o
2 14 10 8420.960 7654.450 111.173 0.535 o
2 14 11 319.961 610.352 22.410 35.841 o
2 14 12 31320.700 29277.800 408.439 0.046 o
2 14 13 761.583 615.186 20.653 19.482 o
2 14 14 6766.160 6599.180 96.013 0.751 o
2 14 15 1395.140 958.371 23.509 9.653 o
2 14 16 1919.770 1711.530 37.570 5.630 o
2 14 17 15.093 26.585 13.842 706.278 o
2 14 18 151.828 204.769 19.994 92.359 o
2 14 19 1085.200 899.929 28.343 12.396 o
2 14 20 1089.060 1154.790 29.002 11.169 o
2 14 21 3848.060 3719.020 70.087 1.909 o
2 14 22 1466.740 1570.040 45.260 7.417 o
2 14 23 2454.440 2418.560 49.654 3.764 o
2 14 24 246.399 209.163 16.918 67.650 o
2 14 25 97.112 136.000 16.918 144.001 o
2 14 26 4275.790 4209.630 86.346 1.590 o
2 15 0 752.963 1053.940 32.737 15.394 o
2 15 1 3693.880 3998.270 58.003 1.927 o
2 15 2 765.328 606.178 16.918 19.596 o
2 15 3 88.435 76.678 12.084 194.046 o
2 15 4 7362.400 6573.260 97.990 0.683 o
2 15 5 8261.200 7650.710 105.680 0.548 o
2 15 6 283.442 244.097 14.501 58.603 o
2 15 7 3487.220 3196.990 51.412 2.302 o
2 15 8 80.810 32.078 13.402 247.929 o
2 15 9 5471.940 5886.670 85.906 1.017 o
2 15 10 334.670 225.422 15.160 52.641 o
2 15 11 126.133 134.682 15.160 125.050 o
2 15 12 4927.910 5276.320 79.754 1.213 o
2 15 13 2371.570 2156.230 39.987 4.132 o
2 15 14 1061.040 1215.870 33.176 11.089 o
2 15 15 1456.310 1406.360 33.835 7.938 o
2 15 16 580.435 564.433 23.070 24.934 o
2 15 17 555.899 587.942 21.751 25.433 o
2 15 18 1467.130 1647.380 34.494 7.332 o
2 15 19 1821.040 1818.310 41.745 5.740 o
2 15 20 2168.760 2361.650 51.412 4.276 o
2 15 21 380.652 413.932 20.653 38.551 o
2 15 22 130.424 58.003 13.842 152.829 o
2 15 23 345.682 269.583 22.410 47.593 o
2 15 24 362.835 253.105 23.509 46.477 o
2 15 25 168.157 170.494 18.236 93.707 o
2 16 0 83130.000 82262.400 1327.700 0.007 o
2 16 1 985.930 790.953 19.994 14.278 o
2 16 2 8203.730 6278.410 85.247 0.614 o
2 16 3 96.934 72.504 13.402 182.835 o
2 16 4 46114.000 42304.600 500.937 0.022 o
2 16 5 47.764 99.089 14.501 243.490 o
2 16 6 25323.500 22770.400 279.250 0.072 o
2 16 7 2.632 -12.084 14.501 2085.970 o
2 16 8 36961.400 34699.800 418.766 0.034 o
2 16 9 275.283 265.189 15.160 58.117 o
2 16 10 34658.600 31622.500 439.418 0.039 o
2 16 11 487.622 544.000 20.653 28.972 o
2 16 12 17911.500 17161.700 231.354 0.132 o
2 16 13 39.148 3.735 16.918 483.648 o
2 16 14 16149.400 14685.800 213.997 0.165 o
2 16 15 1515.130 1301.780 30.320 7.932 o
2 16 16 6215.240 5743.420 94.255 0.893 o
2 16 17 441.549 401.189 21.751 34.863 o
2 16 18 2760.020 2107.890 40.426 3.569 o
2 16 19 104.257 73.822 18.675 164.081 o
2 16 20 16313.900 16617.700 253.105 0.150 o
2 16 21 0.013 -68.989 31.418 559.069 o
2 16 22 4206.180 3954.770 81.073 1.675 o
2 16 23 1863.370 1812.380 51.412 5.576 o
2 16 24 14671.100 14146.600 266.507 0.188 o
2 16 25 28.113 26.585 18.675 455.411 o
2 17 0 12278.500 12157.200 221.687 0.257 o
2 17 1 196.899 190.268 15.160 82.475 o
2 17 2 2889.160 2705.060 45.919 3.040 o
2 17 3 4808.910 5092.640 71.845 1.274 o
2 17 4 3962.450 3732.420 58.003 1.857 o
2 17 5 593.274 731.851 21.751 22.106 o
2 17 6 3771.060 2978.820 48.336 2.188 o
2 17 7 938.970 1160.280 26.585 12.588 o
2 17 8 11103.100 11413.200 151.160 0.304 o
2 17 9 134.266 206.746 17.577 100.324 o
2 17 10 8595.370 8447.820 115.347 0.494 o
2 17 11 649.618 620.019 22.410 22.068 o
2 17 12 13647.800 13186.300 186.094 0.217 o
2 17 13 53.791 71.406 18.675 246.785 o
2 17 14 951.491 981.441 29.002 13.387 o
2 17 15 245.301 230.255 19.994 64.922 o
2 17 16 1700.640 1597.940 37.570 6.500 o
2 17 17 1466.660 1249.710 32.078 8.295 o
2 17 18 2641.650 2307.390 47.237 3.581 o
2 17 19 4106.770 3942.020 79.754 1.722 o
2 17 20 295.521 306.934 27.903 49.840 o
2 17 21 1948.510 2072.740 46.578 5.051 o
2 17 22 169.596 131.826 23.509 96.897 o
2 17 23 40.424 81.512 16.918 276.640 o
2 17 24 349.591 386.249 25.926 41.261 o
2 18 0 406.497 464.685 31.418 33.954 o
2 18 1 34.842 47.677 15.819 373.235 o
2 18 2 8133.680 6981.260 99.748 0.587 o
2 18 3 151.238 148.743 18.675 104.838 o
2 18 4 195.979 205.428 16.918 79.921 o
2 18 5 23.377 24.168 15.819 558.390 o
2 18 6 1540.360 1489.630 35.593 7.349 o
2 18 7 1432.490 1124.030 27.244 8.870 o
2 18 8 1694.380 1352.530 31.418 7.020 o
2 18 9 518.692 340.769 18.675 32.477 o
2 18 10 1045.300 627.270 23.070 14.521 o
2 18 11 1491.240 1375.380 30.320 7.869 o
2 18 12 194.271 244.097 21.751 73.473 o
2 18 13 274.029 239.263 21.751 58.788 o
2 18 14 1888.470 1711.970 40.426 5.705 o
2 18 15 84.339 26.585 20.653 221.663 o
2 18 16 1389.170 1072.180 32.078 9.246 o
2 18 17 276.637 299.683 24.827 53.344 o
2 18 18 2728.400 2915.760 58.003 3.079 o
2 18 19 55.338 68.989 21.092 235.880 o
2 18 20 359.464 389.105 27.903 40.054 o
2 18 21 67.757 35.154 20.653 248.094 o
2 18 22 1243.490 1314.960 42.843 9.272 o
2 18 23 185.462 191.586 25.926 80.219 o
2 19 0 2419.530 2127.220 58.003 4.022 o
2 19 1 4610.990 5009.810 71.845 1.344 o
2 19 2 9554.560 10417.900 157.092 0.383 o
2 19 3 243.792 158.410 17.577 73.517 o
2 19 4 828.622 924.097 36.252 15.138 o
2 19 5 68.717 92.498 18.236 199.070 o
2 19 6 1257.500 2005.730 77.997 7.002 o
2 19 7 7603.770 8019.380 120.840 0.585 o
2 19 8 446.833 453.919 23.070 32.939 o
2 19 9 752.293 674.947 21.751 19.013 o
2 19 10 3913.970 4092.520 64.594 1.788 o
2 19 11 2545.450 2541.160 47.237 3.552 o
2 19 12 9032.710 9120.570 134.682 0.444 o
2 19 13 53.231 85.247 23.070 215.836 o
2 19 14 1562.200 1695.060 42.404 6.798 o
2 19 15 1530.120 1547.630 40.426 7.234 o
2 19 16 9388.480 9000.830 151.160 0.426 o
2 19 17 295.531 379.438 25.926 46.424 o
2 19 18 209.696 156.433 27.244 77.658 o
2 19 19 3722.950 3555.770 83.929 2.006 o
2 19 20 175.194 76.239 23.509 106.404 o
2 19 21 43.380 67.670 30.320 217.032 o
2 19 22 48.916 0.659 24.827 335.530 o
2 20 0 26174.400 25245.700 443.593 0.064 o
2 20 1 1227.020 1110.850 27.903 10.260 o
2 20 2 3646.310 3205.340 56.905 2.188 o
2 20 3 2393.210 2437.890 43.502 3.857 o
2 20 4 16816.300 16477.500 216.853 0.146 o
2 20 5 5534.710 5826.250 83.929 1.011 o
2 20 6 4035.830 4233.360 70.746 1.696 o
2 20 7 2475.610 2045.050 38.669 4.053 o
2 20 8 5092.400 5044.300 77.997 1.201 o
2 20 9 2685.970 2423.390 45.260 3.448 o
2 20 10 2005.100 2159.300 44.161 4.832 o
2 20 11 81.350 70.746 21.751 187.004 o
2 20 12 3797.360 3841.180 68.330 1.905 o
2 20 13 240.034 162.585 23.509 71.576 o
2 20 14 465.312 548.174 29.002 29.214 o
2 20 15 2230.630 2304.310 48.995 4.224 o
2 20 16 3587.220 3867.100 73.163 2.007 o
2 20 17 38.942 53.829 27.244 259.936 o
2 20 18 4380.480 4883.480 90.081 1.427 o
2 20 19 1292.290 1248.610 44.821 9.149 o
2 20 20 5752.720 5449.230 103.922 0.998 o
2 20 21 166.048 178.843 24.168 89.172 o
2 20 22 901.072 763.929 33.176 15.337 o
2 21 0 2705.130 3853.700 102.824 2.558 o
2 21 1 40.837 65.913 20.653 279.156 o
2 21 2 7027.520 6393.100 91.838 0.733 o
2 21 3 611.524 608.594 23.509 23.252 o
2 21 4 1462.070 1716.810 39.987 7.169 o
2 21 5 71.196 50.094 21.751 220.199 o
2 21 6 474.503 529.939 24.168 29.614 o
2 21 7 518.840 550.591 24.827 27.288 o
2 21 8 730.867 1063.610 29.002 15.750 o
2 21 9 1359.560 1532.470 37.570 8.073 o
2 21 10 2680.650 2682.650 50.094 3.283 o
2 21 11 1916.400 1672.210 36.911 5.698 o
2 21 12 4087.680 4194.690 76.239 1.678 o
2 21 13 339.918 319.677 24.827 45.220 o
2 21 14 3252.740 3352.100 66.572 2.397 o
2 21 15 118.209 101.506 26.585 127.194 o
2 21 16 3472.260 3783.170 73.163 2.098 o
2 21 17 30.102 34.494 27.903 312.345 o
2 21 18 257.302 345.163 33.176 50.562 o
2 21 19 53.350 48.995 32.737 203.739 o
2 21 20 271.629 267.166 33.835 53.349 o
2 21 21 33.165 57.344 23.509 298.627 o
2 22 0 216.511 295.509 33.176 59.376 o
2 22 1 1877.360 1973.210 40.426 5.378 o
2 22 2 21702.500 21574.300 296.168 0.090 o
2 22 3 101.169 139.076 20.653 134.677 o
2 22 4 1230.120 1251.020 33.835 9.678 o
2 22 5 2425.850 2523.580 45.919 3.737 o
2 22 6 3670.770 3827.110 63.496 1.981 o
2 22 7 4245.300 3767.350 64.155 1.711 o
2 22 8 193.394 322.094 26.585 63.712 o
2 22 9 30.849 129.409 24.168 212.072 o
2 22 10 1605.640 1352.530 35.593 7.363 o
2 22 11 2952.400 2837.980 53.170 2.895 o
2 22 12 2000.240 2076.470 47.237 4.924 o
2 22 13 3762.010 3174.580 62.837 2.119 o
2 22 14 4077.100 4252.030 79.095 1.668 o
2 22 15 81.066 157.092 32.078 123.950 o
2 22 16 1733.660 1979.800 49.654 5.716 o
2 22 17 1063.010 1053.940 38.669 11.688 o
2 22 18 2668.320 2729.670 59.761 3.249 o
2 22 19 34.424 24.827 41.086 207.061 o
2 23 0 5693.570 6406.500 137.099 0.910 o
2 23 1 1486.480 1331.880 34.494 7.967 o
2 23 2 1942.200 1980.460 42.404 5.195 o
2 23 3 87.197 199.496 23.509 120.271 o
2 23 4 4377.750 4516.120 73.822 1.503 o
2 23 5 6287.430 6324.330 96.013 0.836 o
2 23 6 2264.640 2471.070 50.094 4.019 o
2 23 7 3582.410 3017.490 54.927 2.295 o
2 23 8 2560.650 1874.120 41.745 4.046 o
2 23 9 151.483 508.846 28.343 55.075 o
2 23 10 2043.820 1791.290 45.919 5.163 o
2 23 11 132.571 134.682 25.926 110.348 o
2 23 12 3958.620 4100.870 82.171 1.751 o
2 23 13 1038.410 913.770 38.010 12.623 o
2 23 14 3378.320 3025.180 65.254 2.427 o
2 23 15 476.401 476.769 31.418 30.082 o
2 23 16 2332.510 2330.240 60.420 3.990 o
2 23 17 70.893 96.672 32.078 154.953 o
2 23 18 936.524 904.762 33.835 13.916 o
2 24 0 1238.920 901.686 45.260 10.716 o
2 24 1 1853.530 1670.890 39.987 5.870 o
2 24 2 151.585 65.913 25.486 119.162 o
2 24 3 5394.330 4850.300 79.095 1.150 o
2 24 4 309.124 378.339 25.926 45.153 o
2 24 5 99.439 111.173 24.168 141.303 o
2 24 6 601.983 614.087 29.002 23.169 o
2 24 7 153.281 146.766 26.585 97.744 o
2 24 8 20.324 54.488 24.827 342.923 o
2 24 9 2130.560 1827.980 44.161 4.922 o
2 24 10 212.011 330.003 28.343 59.286 o
2 24 11 135.316 99.748 32.078 109.821 o
2 24 12 99.572 332.420 32.737 79.790 o
2 24 13 74.255 104.582 29.002 156.165 o
2 24 14 197.364 188.510 31.418 74.189 o
2 24 15 738.090 663.522 36.911 18.845 o
2 24 16 221.095 213.997 30.320 66.983 o
2 24 17 1223.020 1006.270 47.677 10.391 o
2 25 0 680.212 455.677 39.987 22.482 o
2 25 1 10056.900 8649.070 160.827 0.400 o
2 25 2 1053.230 1191.040 36.252 11.212 o
2 25 3 1705.140 1457.550 38.010 6.736 o
2 25 4 587.270 466.443 28.343 26.066 o
2 25 5 154.836 183.018 25.926 90.990 o
2 25 6 232.868 203.011 27.244 67.197 o
2 25 7 12392.600 12074.300 180.162 0.257 o
2 25 8 840.476 760.194 31.418 16.336 o
2 25 9 759.319 520.271 30.320 20.242 o
2 25 10 943.512 864.775 33.176 14.092 o
2 25 11 5508.310 5226.880 99.089 1.073 o
2 25 12 252.743 320.336 32.078 52.964 o
2 25 13 3203.590 2954.650 76.678 2.574 o
2 25 14 153.909 188.510 32.078 85.376 o
2 25 15 1516.990 1362.200 45.260 7.656 o
2 26 0 560.662 284.743 43.502 29.164 o
2 26 1 85.472 62.178 29.002 166.455 o
2 26 2 1309.750 979.024 35.154 10.053 o
2 26 3 144.899 245.415 29.661 81.550 o
2 26 4 1202.670 937.938 32.737 11.073 o
2 26 5 588.926 319.018 28.343 28.882 o
2 26 6 2306.390 2149.630 48.336 4.229 o
2 26 7 4103.120 3788.010 71.406 1.766 o
2 26 8 258.888 204.769 30.759 60.864 o
2 26 9 3844.000 3051.760 67.011 2.102 o
2 26 10 169.958 171.593 28.343 86.034 o
2 26 11 1302.370 1281.780 47.237 8.956 o
2 26 12 249.765 155.994 32.078 66.167 o
2 26 13 744.869 791.612 36.911 17.494 o
2 26 14 734.329 589.919 39.328 19.572 o
2 27 0 214.699 155.334 40.426 68.104 o
2 27 1 372.112 495.005 33.176 34.825 o
2 27 2 717.199 607.935 32.737 20.091 o
2 27 3 2.399 -9.667 27.903 666.583 o
2 27 4 396.126 383.832 29.002 37.438 o
2 27 5 1818.320 1805.790 49.654 5.723 o
2 27 6 315.739 234.430 29.661 51.238 o
2 27 7 620.845 828.523 37.570 19.540 o
2 27 8 6.435 10.986 30.320 473.345 o
2 27 9 189.462 129.848 30.320 84.920 o
2 27 10 57.354 53.829 32.078 196.829 o
2 27 11 524.631 594.753 35.593 25.456 o
2 27 12 0.138 -11.425 35.154 445.674 o
2 28 0 1370.490 1348.360 65.913 8.129 o
2 28 1 5611.090 4890.730 83.490 1.093 o
2 28 2 354.529 297.926 32.078 43.410 o
2 28 3 2758.590 2393.730 56.905 3.349 o
2 28 4 1320.380 1015.280 36.252 9.837 o
2 28 5 9411.760 8114.300 125.015 0.452 o
2 28 6 249.251 192.246 30.759 63.566 o
2 28 7 2923.210 2784.150 58.662 2.942 o
2 28 8 155.583 146.326 54.927 68.953 o
2 28 9 6199.910 5817.900 121.499 0.881 o
2 29 0 1103.670 707.024 61.079 12.362 o
2 29 1 30.964 38.010 43.502 187.980 o
2 29 2 16.273 7.250 52.511 174.135 o
2 29 3 1846.670 1377.800 82.830 5.997 o
2 29 4 35.179 35.154 39.987 204.296 o
2 29 5 30.819 49.654 38.669 207.555 o
3 1 0 15272.000 11311.700 275.076 0.201 o
3 1 1 683.308 3095.260 44.161 7.518 o
3 1 2 11299.200 10995.800 176.426 0.303 o
3 1 3 6053.000 5344.650 69.428 0.962 o
3 1 4 33482.600 40786.600 604.420 0.034 o
3 1 5 283.421 215.754 7.250 61.946 o
3 1 6 15050.900 12202.000 162.585 0.201 o
3 1 7 4274.180 3992.770 61.079 1.653 o
3 1 8 1004.240 1487.870 23.509 10.565 o
3 1 9 17.221 12.743 3.735 1095.820 o
3 1 10 1065.640 348.019 9.667 16.463 o
3 1 11 3248.520 4447.790 67.670 2.040 o
3 1 12 21597.800 25629.500 430.191 0.079 o
3 1 13 2727.540 2881.930 57.344 3.099 o
3 1 14 27105.900 30005.200 574.759 0.054 o
3 1 15 1724.960 2168.970 65.254 5.382 o
3 1 16 10345.400 10223.300 178.843 0.351 o
3 1 17 241.735 315.502 15.819 59.286 o
3 1 18 393.773 562.675 21.751 32.984 o
3 1 19 73.237 10.326 12.743 304.647 o
3 1 21 3661.580 4166.130 106.998 1.849 o
3 1 22 4461.690 5367.710 183.018 1.249 o
3 1 24 1174.460 1084.700 56.905 10.274 o
3 2 1 220.145 410.417 9.667 56.345 o
3 2 2 307.226 448.426 15.819 43.596 o
3 2 3 3057.850 2933.340 61.738 2.736 o
3 2 5 9146.420 11356.500 204.769 0.375 o
3 2 6 1579.070 2183.470 54.927 5.836 o
3 2 7 115.472 96.013 4.834 156.197 o
3 2 8 23929.100 23463.000 396.355 0.075 o
3 2 9 321.589 122.158 4.834 63.671 o
3 2 10 18410.000 22432.500 305.835 0.106 o
3 2 11 821.458 729.434 20.653 17.198 o
3 2 12 20632.500 21996.800 366.914 0.094 o
3 2 13 1308.850 1390.540 30.759 8.786 o
3 2 14 53534.600 61224.800 975.948 0.014 o
3 2 15 34.508 87.005 9.008 320.497 o
3 2 16 4955.210 4279.930 116.006 1.323 o
3 2 17 172.003 144.349 9.008 101.743 o
3 2 18 1063.680 1001.430 26.585 12.132 o
3 2 19 575.890 700.433 23.509 22.953 o
3 2 20 18316.200 19091.200 364.937 0.118 o
3 2 21 144.270 154.016 15.819 108.931 o
3 2 22 15.809 16.918 13.402 807.614 o
3 2 24 12353.700 12614.200 482.921 0.230 o
3 2 26 201.596 137.099 42.404 71.258 o
3 3 1 5402.890 4652.780 85.906 1.169 o
3 3 2 7187.550 6887.440 127.431 0.679 o
3 3 3 35697.800 37429.400 713.615 0.033 o
3 3 4 32027.300 39694.000 765.027 0.036 o
3 3 5 74130.300 84755.900 1920.040 0.007 o
3 3 6 64753.600 80941.500 1513.140 0.009 o
3 3 7 20935.500 28573.600 479.186 0.076 o
3 3 8 12325.100 9622.600 158.410 0.294 o
3 3 9 3214.580 2117.560 37.570 3.018 o
3 3 10 1155.380 1234.110 29.002 10.323 o
3 3 11 1.417 79.095 6.152 618.895 o
3 3 12 3407.910 3738.350 54.488 2.172 o
3 3 13 3142.000 3536.440 64.155 2.414 o
3 3 14 5227.250 4801.960 80.414 1.197 o
3 3 15 1048.660 1254.540 24.168 11.146 o
3 3 16 3024.640 3403.510 64.155 2.558 o
3 3 17 7.153 18.236 12.743 1104.970 o
3 3 18 144.602 177.086 13.402 104.758 o
3 3 19 2150.480 2394.830 48.336 4.289 o
3 3 20 1938.940 2030.550 49.654 5.110 o
3 3 21 1058.750 880.594 23.070 12.851 o
3 3 22 961.595 1106.020 39.328 12.397 o
3 3 23 0.296 -2.417 13.842 2792.150 o
3 3 24 339.264 388.006 23.070 42.490 o
3 3 25 196.966 218.171 21.751 75.946 o
3 4 0 48047.400 51030.300 1183.790 0.018 o
3 4 1 5586.020 7401.120 121.499 0.853 o
3 4 2 920.701 2237.300 54.488 8.325 o
3 4 3 344.119 388.006 15.160 43.072 o
3 4 4 24487.700 21340.600 333.079 0.077 o
3 4 5 10412.800 10069.300 220.588 0.348 o
3 4 6 4424.870 7083.200 139.076 1.087 o
3 4 7 75856.300 92996.500 2114.480 0.007 o
3 4 8 1594.800 623.095 16.259 9.488 o
3 4 9 14359.400 13606.400 213.338 0.199 o
3 4 10 374.594 400.090 18.675 39.724 o
3 4 11 16419.200 16311.900 253.105 0.151 o
3 4 12 10678.500 12780.300 201.913 0.293 o
3 4 13 12695.500 14712.400 248.271 0.218 o
3 4 14 3675.170 3827.110 67.011 1.976 o
3 4 15 35.682 140.174 11.425 232.842 o
3 4 16 480.479 677.363 20.653 26.587 o
3 4 17 214.637 284.743 12.084 67.600 o
3 4 18 106.059 120.840 7.250 152.058 o
3 4 19 152.539 242.998 14.501 88.321 o
3 4 20 6712.670 7311.700 154.016 0.701 o
3 4 21 78.568 97.331 13.402 191.112 o
3 4 22 2166.040 2116.900 44.161 4.539 o
3 4 23 3386.890 3865.340 83.490 2.112 o
3 4 24 4840.620 4567.530 119.741 1.312 o
3 4 25 147.121 276.174 20.653 82.037 o
3 4 26 1192.880 1317.380 64.594 9.215 o
3 4 27 1429.770 1225.540 64.594 8.160 o
3 4 29 321.100 308.911 26.585 47.271 o
3 5 0 53189.700 72946.700 2475.240 0.011 o
3 5 1 1142.840 587.502 19.994 13.598 o
3 5 2 11546.300 14512.900 236.846 0.245 o
3 5 3 355.311 174.669 12.743 53.596 o
3 5 4 4813.460 3836.340 74.262 1.468 o
3 5 5 12443.500 11167.400 251.347 0.263 o
3 5 6 12040.600 11745.700 248.930 0.267 o
3 5 8 222.222 403.166 13.842 56.005 o
3 5 9 13075.000 12539.700 203.011 0.235 o
3 5 10 3655.400 3786.030 76.239 1.988 o
3 5 11 26790.600 29614.400 446.010 0.056 o
3 5 12 5100.720 5728.480 82.171 1.115 o
3 5 13 9499.130 10301.900 149.183 0.388 o
3 5 14 8377.200 9603.930 154.016 0.467 o
3 5 15 3941.750 4445.380 74.921 1.688 o
3 5 16 3726.520 3508.100 61.738 2.042 o
3 5 17 15815.000 17157.300 335.496 0.151 o
3 5 18 5062.370 5051.550 83.490 1.206 o
3 5 19 2024.530 2651.230 48.336 4.285 o
3 5 20 645.001 785.680 20.653 20.183 o
3 5 21 11327.600 11780.100 242.339 0.286 o
3 5 22 633.171 868.510 30.320 19.186 o
3 5 23 3405.000 3380.670 81.512 2.258 o
3 5 24 882.578 736.685 32.737 15.824 o
3 5 25 1664.250 1548.950 50.753 6.627 o
3 5 26 204.098 149.842 20.653 83.852 o
3 5 27 2068.690 2069.220 87.664 4.564 o
3 6 0 587.009 449.525 24.827 26.618 o
3 6 1 41583.400 41977.600 716.691 0.025 o
3 6 2 244.788 37.570 10.326 93.535 o
3 6 3 74405.000 84682.300 1629.360 0.007 o
3 6 4 744.322 896.194 31.418 16.797 o
3 6 5 2305.290 2240.150 47.237 4.154 o
3 6 6 744.800 605.518 18.675 20.017 o
3 6 7 968.435 661.764 27.903 15.240 o
3 6 8 2398.350 2242.130 45.919 3.999 o
3 6 9 29014.600 32330.200 415.250 0.048 o
3 6 10 901.341 963.864 21.751 14.227 o
3 6 11 6021.070 7371.460 167.418 0.778 o
3 6 12 4649.720 5892.820 90.740 1.201 o
3 6 13 3805.570 2683.750 42.404 2.268 o
3 6 14 1952.080 2154.470 34.494 4.991 o
3 6 15 3097.180 2744.830 41.745 2.816 o
3 6 16 40.279 39.987 9.667 407.077 o
3 6 17 22309.700 23509.500 393.499 0.081 o
3 6 18 758.306 809.189 15.819 17.715 o
3 6 19 689.598 674.947 19.334 20.474 o
3 6 20 1313.130 1513.140 31.418 8.416 o
3 6 21 5886.070 5924.240 97.990 0.932 o
3 6 22 65.201 117.764 9.667 201.968 o
3 6 23 2714.370 2623.330 62.837 3.250 o
3 6 24 17.658 24.827 21.092 515.818 o
3 6 25 16.325 62.837 19.994 395.198 o
3 6 26 37.933 50.094 25.486 280.250 o
3 6 27 1302.650 1211.700 44.161 9.208 o
3 6 28 166.603 129.848 24.168 97.933 o
3 6 29 55.269 39.987 18.675 285.851 o
3 7 0 124.945 50.753 12.743 163.296 o
3 7 1 20389.200 18167.300 297.926 0.107 o
3 7 2 2781.460 1468.540 29.661 4.041 o
3 7 3 208.976 96.672 7.910 96.646 o
3 7 4 1900.550 2532.810 45.260 4.652 o
3 7 5 5850.570 4722.870 74.921 1.062 o
3 7 6 7869.270 6611.930 102.165 0.628 o
3 7 7 63914.500 62484.800 794.029 0.011 o
3 7 8 1965.610 2042.640 41.745 5.066 o
3 7 9 41095.400 36759.300 514.779 0.028 o
3 7 10 371.248 398.772 18.236 40.076 o
3 7 11 66078.700 74090.800 1078.770 0.010 o
3 7 12 581.543 696.258 22.410 22.899 o
3 7 13 3586.220 3830.190 67.670 2.024 o
3 7 14 21.476 45.260 7.910 561.653 o
3 7 15 2424.980 1978.040 35.154 4.206 o
3 7 16 4171.190 4219.290 66.572 1.645 o
3 7 17 39.125 223.664 12.084 163.405 o
3 7 18 1238.380 1210.380 27.244 9.830 o
3 7 19 11719.800 13770.700 214.436 0.251 o
3 7 20 307.824 391.522 17.577 46.007 o
3 7 21 405.959 158.850 16.259 48.058 o
3 7 22 0.676 -6.152 14.501 2461.790 o
3 7 23 5521.020 6752.100 127.431 0.913 o
3 7 24 168.501 154.016 10.326 100.698 o
3 7 25 5523.920 6052.330 129.409 0.974 o
3 7 26 245.746 204.769 29.661 63.564 o
3 7 27 348.990 330.003 33.176 42.270 o
3 7 28 74.222 36.252 29.661 195.101 o
3 8 0 6944.180 7467.700 150.501 0.669 o
3 8 1 29292.300 25156.900 341.428 0.056 o
3 8 2 6540.670 5553.150 87.005 0.858 o
3 8 3 21140.200 21164.100 311.767 0.094 o
3 8 4 16312.700 15236.800 231.354 0.159 o
3 8 5 9535.200 8723.990 128.750 0.428 o
3 8 6 577.518 563.774 17.577 25.298 o
3 8 7 1595.040 1519.950 30.759 7.087 o
3 8 8 228.339 128.090 10.986 83.737 o
3 8 9 73.634 272.000 13.842 116.386 o
3 8 10 710.242 720.426 19.994 19.473 o
3 8 11 3296.120 3146.020 51.412 2.461 o
3 8 12 12786.200 12562.100 183.018 0.242 o
3 8 13 2919.580 3017.490 61.738 2.825 o
3 8 14 35.188 40.426 9.008 445.061 o
3 8 15 3144.510 2764.820 44.161 2.759 o
3 8 16 152.620 178.184 10.326 102.338 o
3 8 17 2613.770 2781.740 48.336 3.307 o
3 8 18 477.377 346.262 12.084 35.083 o
3 8 19 5655.650 5922.480 112.491 0.969 o
3 8 20 71.884 81.512 8.569 224.111 o
3 8 21 1436.400 1413.610 29.002 8.053 o
3 8 22 3.928 35.154 15.819 792.595 o
3 8 23 2094.970 2259.050 52.511 4.509 o
3 8 24 2604.900 2916.420 54.927 3.224 o
3 8 25 3.408 3.735 14.501 1728.830 o
3 8 26 338.874 281.667 30.759 45.913 o
3 8 27 832.984 936.620 38.669 14.917 o
3 8 28 926.717 1036.370 49.654 12.851 o
3 9 0 94.389 161.267 13.402 139.801 o
3 9 1 217.481 141.932 9.008 85.454 o
3 9 2 1641.020 1960.460 36.911 6.095 o
3 9 3 572.855 536.750 15.819 26.003 o
3 9 4 2002.990 2008.140 37.570 5.033 o
3 9 5 1786.570 1809.310 35.154 5.886 o
3 9 6 233.707 97.990 9.667 87.113 o
3 9 7 101.073 134.242 8.569 149.619 o
3 9 8 1910.180 1444.370 31.418 6.085 o
3 9 9 33179.100 33929.200 439.418 0.039 o
3 9 10 4894.080 4751.870 71.845 1.298 o
3 9 11 3926.710 3215.660 61.738 2.011 o
3 9 12 23522.800 24014.000 294.410 0.076 o
3 9 13 11329.500 11776.000 161.926 0.291 o
3 9 14 9147.400 9336.320 138.417 0.431 o
3 9 15 9.810 111.832 10.986 368.174 o
3 9 16 408.362 383.173 14.501 38.249 o
3 9 17 1475.030 1533.130 30.759 7.574 o
3 9 18 1517.320 1815.460 35.154 6.787 o
3 9 19 117.331 74.921 10.986 160.564 o
3 9 20 848.931 800.181 25.926 16.037 o
3 9 21 304.303 403.606 16.259 45.928 o
3 9 22 2740.260 2457.890 48.336 3.351 o
3 9 23 1248.160 1241.360 35.593 9.570 o
3 9 24 528.341 490.171 22.410 28.277 o
3 9 25 267.989 328.246 23.509 52.949 o
3 9 26 569.135 631.444 22.410 24.247 o
3 9 27 281.929 290.016 13.402 55.631 o
3 9 28 22.855 38.669 44.161 195.050 o
3 10 0 5505.410 5550.730 112.931 1.034 o
3 10 1 8960.260 5191.070 77.338 0.596 o
3 10 2 138.349 52.511 8.569 152.943 o
3 10 3 17115.000 15020.000 197.079 0.151 o
3 10 4 1629.700 1694.620 33.835 6.602 o
3 10 5 9221.330 8217.560 123.257 0.461 o
3 10 6 493.959 372.846 14.501 33.217 o
3 10 7 29589.300 28945.400 383.173 0.050 o
3 10 8 1375.770 1309.470 27.244 8.664 o
3 10 9 35268.600 31857.600 418.107 0.038 o
3 10 10 188.404 217.512 11.425 82.205 o
3 10 11 16111.600 15247.200 210.262 0.162 o
3 10 12 40.528 25.486 8.569 464.882 o
3 10 13 11938.500 11548.600 161.267 0.277 o
3 10 14 331.013 185.435 10.986 56.421 o
3 10 15 7848.170 7485.710 125.674 0.586 o
3 10 16 182.738 241.021 13.402 79.904 o
3 10 17 4059.850 4338.380 72.504 1.662 o
3 10 18 216.977 229.596 12.743 72.896 o
3 10 19 9540.490 10394.400 157.092 0.384 o
3 10 20 521.353 425.357 17.577 30.310 o
3 10 21 1739.320 1775.470 40.426 6.058 o
3 10 22 392.794 435.683 15.160 37.454 o
3 10 23 4396.710 4464.050 70.746 1.507 o
3 10 24 1520.790 1347.040 35.593 7.758 o
3 10 25 3230.180 3132.830 62.837 2.504 o
3 10 26 499.863 559.599 24.827 27.860 o
3 10 27 1459.950 1307.710 37.570 8.134 o
3 10 28 279.622 276.834 52.071 45.127 o
3 11 0 1209.440 1142.270 33.176 10.213 o
3 11 1 27012.300 26239.200 328.685 0.060 o
3 11 2 120.613 205.428 10.986 110.736 o
3 11 3 16812.700 16453.400 211.580 0.147 o
3 11 4 1492.390 2523.140 48.995 5.633 o
3 11 5 32309.900 33720.100 480.504 0.041 o
3 11 6 3289.810 2861.490 53.829 2.577 o
3 11 7 2751.800 3320.680 58.662 2.846 o
3 11 8 9392.760 7838.120 128.090 0.461 o
3 11 9 1168.610 607.935 15.160 13.237 o
3 11 10 7458.230 8600.740 134.682 0.571 o
3 11 11 3322.020 2799.310 48.336 2.583 o
3 11 12 11.522 222.346 16.259 192.094 o
3 11 13 9364.240 8239.970 119.741 0.452 o
3 11 14 10669.900 9111.340 137.758 0.364 o
3 11 15 2588.090 2353.300 38.010 3.642 o
3 11 16 1233.630 1108.870 28.343 10.214 o
3 11 17 959.781 917.945 23.509 13.759 o
3 11 18 1545.530 1606.290 33.835 7.095 o
3 11 19 22738.400 23313.100 365.596 0.080 o
3 11 20 8946.350 9774.860 163.683 0.428 o
3 11 21 320.822 291.993 15.160 50.282 o
3 11 22 2460.300 2413.720 48.336 3.762 o
3 11 23 955.369 1072.180 25.926 12.891 o
3 11 24 1415.290 1372.960 31.418 8.247 o
3 11 25 3879.780 3867.760 73.822 1.852 o
3 11 26 826.368 742.617 32.078 16.689 o
3 11 27 29.463 31.418 24.827 354.046 o
3 12 0 79.335 125.015 15.160 169.317 o
3 12 1 12433.800 11177.000 147.425 0.269 o
3 12 2 9187.080 8128.140 112.491 0.467 o
3 12 3 35723.200 35032.200 427.334 0.035 o
3 12 4 1183.530 1136.780 23.509 10.536 o
3 12 5 4143.590 4771.640 72.504 1.543 o
3 12 6 1308.240 1278.050 26.585 9.159 o
3 12 7 138.574 241.680 13.402 93.916 o
3 12 8 11.659 6.152 12.743 1180.480 o
3 12 9 17488.300 17976.800 263.431 0.132 o
3 12 10 866.149 939.037 24.168 14.812 o
3 12 11 0.124 -53.829 10.986 4479.560 o
3 12 12 96.981 178.184 11.425 133.081 o
3 12 13 490.358 832.258 19.994 23.684 o
3 12 14 628.480 711.858 19.334 21.527 o
3 12 15 510.985 579.593 18.236 27.413 o
3 12 16 3.702 65.913 10.986 624.328 o
3 12 17 4653.330 4629.710 77.997 1.387 o
3 12 18 1208.980 943.431 23.070 11.117 o
3 12 19 368.781 476.769 24.827 36.723 o
3 12 20 48.100 70.087 15.160 278.624 o
3 12 21 2885.490 2581.580 48.336 3.107 o
3 12 22 30.483 76.239 13.402 340.829 o
3 12 23 668.755 800.181 23.509 19.403 o
3 12 24 64.562 73.163 12.743 239.770 o
3 12 25 23.286 14.501 13.402 677.606 o
3 12 26 364.824 381.855 25.486 40.298 o
3 12 27 91.056 60.420 32.078 153.039 o
3 13 0 1072.040 728.116 31.418 13.410 o
3 13 1 8269.900 6909.850 96.013 0.579 o
3 13 2 14025.100 13275.300 172.252 0.209 o
3 13 3 29701.300 28076.400 371.089 0.051 o
3 13 4 6930.440 6208.320 87.664 0.757 o
3 13 5 756.699 536.090 16.918 20.596 o
3 13 6 1208.030 1098.770 29.661 10.429 o
3 13 7 23547.500 22693.500 304.517 0.078 o
3 13 8 7697.430 7187.130 105.680 0.616 o
3 13 9 11492.200 11931.700 180.601 0.283 o
3 13 10 6463.130 6220.850 94.255 0.818 o
3 13 11 31199.000 31543.900 380.097 0.045 o
3 13 12 1585.230 1623.870 36.252 6.887 o
3 13 13 23089.200 22304.400 293.751 0.081 o
3 13 14 3183.840 2705.500 50.094 2.742 o
3 13 15 8098.380 8099.140 125.015 0.541 o
3 13 16 1339.380 1394.270 30.320 8.606 o
3 13 17 12747.700 12212.100 169.176 0.247 o
3 13 18 1695.540 1710.880 47.237 6.264 o
3 13 19 97.868 152.918 15.819 137.879 o
3 13 20 742.323 846.759 30.759 17.278 o
3 13 21 3213.810 2766.580 52.511 2.685 o
3 13 22 203.338 259.916 21.751 69.700 o
3 13 23 360.654 444.252 23.070 38.613 o
3 13 24 11.997 3.735 13.842 1153.050 o
3 13 25 481.132 539.606 20.653 29.352 o
3 13 26 726.454 642.430 30.759 19.590 o
3 14 0 16736.200 15375.900 279.909 0.152 o
3 14 1 8655.940 7749.360 107.657 0.515 o
3 14 2 25187.400 23801.300 296.168 0.070 o
3 14 3 563.314 653.854 18.236 24.258 o
3 14 4 7134.810 6107.910 87.664 0.738 o
3 14 5 608.645 311.328 14.501 29.099 o
3 14 6 12801.200 11685.900 155.994 0.253 o
3 14 7 8228.780 8443.640 125.015 0.519 o
3 14 8 5067.030 4186.120 67.670 1.332 o
3 14 9 2450.000 2434.820 45.260 3.769 o
3 14 10 23993.400 24591.200 350.436 0.073 o
3 14 11 2153.010 2431.300 43.502 4.266 o
3 14 12 665.082 399.431 18.236 25.088 o
3 14 13 112.129 108.756 13.402 146.892 o
3 14 14 8848.300 7759.470 111.173 0.501 o
3 14 15 3296.010 3144.260 56.245 2.456 o
3 14 16 846.618 780.187 23.509 16.287 o
3 14 17 621.675 671.431 19.334 22.243 o
3 14 18 7236.710 7566.120 120.181 0.640 o
3 14 19 3037.080 2848.090 50.094 2.813 o
3 14 20 5847.400 5907.320 122.598 0.932 o
3 14 21 1822.330 1832.370 41.086 5.719 o
3 14 22 233.904 201.913 20.653 69.779 o
3 14 23 65.613 13.842 15.160 314.755 o
3 14 24 13.744 44.161 16.259 546.378 o
3 14 25 2.041 -13.842 15.160 2029.640 o
3 14 26 2859.720 2759.330 59.761 3.018 o
3 15 0 18323.100 17917.700 313.745 0.124 o
3 15 1 5276.190 3746.260 59.761 1.339 o
3 15 2 683.153 437.441 18.675 23.877 o
3 15 3 535.797 334.178 15.819 31.942 o
3 15 4 78.271 103.263 12.743 188.414 o
3 15 5 13689.400 13390.600 176.426 0.214 o
3 15 6 2182.390 1945.310 35.593 4.708 o
3 15 7 8563.370 7546.790 114.908 0.528 o
3 15 8 4180.300 4119.110 70.087 1.660 o
3 15 9 7703.590 7003.450 103.922 0.625 o
3 15 10 31875.800 31084.700 406.023 0.044 o
3 15 11 7402.700 6957.530 102.824 0.657 o
3 15 12 810.030 803.257 23.070 16.707 o
3 15 13 5583.810 5292.570 79.095 1.057 o
3 15 14 16698.100 17318.800 230.914 0.143 o
3 15 15 4310.470 3802.510 61.738 1.677 o
3 15 16 174.531 181.260 16.918 90.223 o
3 15 17 912.714 883.451 23.509 14.572 o
3 15 18 1348.650 1406.360 36.911 8.464 o
3 15 19 3597.680 3202.260 61.738 2.215 o
3 15 20 349.003 326.927 19.994 44.811 o
3 15 21 55.670 32.737 17.577 302.917 o
3 15 22 286.505 288.918 21.751 53.505 o
3 15 23 2373.600 2346.490 51.412 3.940 o
3 15 24 98.819 33.176 23.070 185.101 o
3 15 25 3411.880 3386.600 65.913 2.273 o
3 16 0 1402.380 1504.130 49.654 7.814 o
3 16 1 4894.380 4785.710 71.845 1.293 o
3 16 2 2250.710 2008.800 41.745 4.486 o
3 16 3 1404.200 1795.460 33.176 7.294 o
3 16 4 2686.980 2744.830 49.654 3.239 o
3 16 5 1928.350 2082.400 37.570 5.123 o
3 16 6 982.120 765.686 27.244 14.363 o
3 16 7 402.703 416.349 18.675 37.138 o
3 16 8 1531.210 1476.450 35.593 7.417 o
3 16 9 1490.590 1448.540 30.320 7.699 o
3 16 10 857.290 845.441 29.002 15.492 o
3 16 11 1048.430 1036.370 27.244 12.101 o
3 16 12 12678.600 12207.300 171.593 0.249 o
3 16 13 267.222 188.510 17.577 65.425 o
3 16 14 2268.130 2264.980 44.161 4.207 o
3 16 15 886.157 1213.450 31.418 12.782 o
3 16 16 466.129 496.762 21.092 31.011 o
3 16 17 37.214 18.675 16.259 446.532 o
3 16 18 662.740 667.257 22.410 21.118 o
3 16 19 4686.080 4261.700 81.512 1.435 o
3 16 20 910.767 966.281 29.661 13.948 o
3 16 21 437.327 431.509 30.759 33.244 o
3 16 22 590.338 453.260 24.827 26.427 o
3 16 23 121.045 70.087 20.653 146.319 o
3 16 24 100.634 88.323 19.334 159.105 o
3 16 25 552.551 606.837 32.078 24.600 o
3 17 0 28786.100 25558.100 433.266 0.056 o
3 17 1 3509.900 2781.080 48.336 2.441 o
3 17 2 33698.800 31971.900 412.174 0.040 o
3 17 3 2706.900 2697.150 47.237 3.248 o
3 17 4 31518.000 30571.700 368.672 0.045 o
3 17 5 7246.030 7335.870 102.165 0.654 o
3 17 6 24216.600 21917.100 273.758 0.078 o
3 17 7 1325.180 1222.020 32.737 9.172 o
3 17 8 61222.000 62247.300 780.187 0.012 o
3 17 9 5851.170 6146.580 103.922 0.917 o
3 17 10 11966.500 11545.100 165.661 0.276 o
3 17 11 2.435 -16.259 16.918 1640.460 o
3 17 12 60076.400 61435.700 830.281 0.012 o
3 17 13 3213.740 3392.090 58.662 2.422 o
3 17 14 36.125 24.827 18.675 405.111 o
3 17 15 198.680 158.850 18.675 85.135 o
3 17 16 25074.600 24703.000 328.246 0.069 o
3 17 17 1844.550 1726.470 38.010 5.823 o
3 17 18 1934.930 2029.230 42.404 5.153 o
3 17 19 460.740 395.257 21.092 33.974 o
3 17 20 8179.870 8527.570 177.086 0.511 o
3 17 21 726.689 638.255 35.154 19.431 o
3 17 22 7483.480 7217.450 138.417 0.630 o
3 17 23 555.499 577.835 41.086 24.254 o
3 17 24 3771.460 3695.510 85.247 1.940 o
3 18 0 17749.800 17040.900 299.244 0.133 o
3 18 1 33.432 22.410 14.501 483.475 o
3 18 2 64790.900 67907.900 781.945 0.011 o
3 18 3 1601.070 1530.050 34.494 7.021 o
3 18 4 3468.170 3312.990 55.586 2.271 o
3 18 5 67.570 4.174 15.819 322.296 o
3 18 6 21955.800 19062.800 243.438 0.096 o
3 18 7 305.625 264.750 18.675 53.236 o
3 18 8 17523.800 16405.700 225.422 0.139 o
3 18 9 495.925 397.014 19.994 32.100 o
3 18 10 11889.300 11743.900 170.934 0.275 o
3 18 11 340.474 160.168 19.334 55.436 o
3 18 12 16652.500 16131.300 238.604 0.150 o
3 18 13 1006.330 994.623 24.827 12.777 o
3 18 14 1349.640 1444.370 33.176 8.390 o
3 18 15 529.100 800.181 27.903 22.653 o
3 18 16 12652.600 11792.200 168.517 0.254 o
3 18 17 745.256 689.447 30.320 18.721 o
3 18 18 17835.600 17680.700 248.271 0.130 o
3 18 19 717.863 578.275 29.002 20.593 o
3 18 20 2831.920 2476.560 72.504 3.174 o
3 18 21 124.988 136.659 23.509 116.614 o
3 18 22 9733.490 9268.430 175.767 0.399 o
3 18 23 25.654 19.994 22.410 443.547 o
3 19 0 47750.400 45793.300 763.270 0.020 o
3 19 1 36.457 71.406 17.577 302.486 o
3 19 2 34479.600 33249.200 403.166 0.038 o
3 19 3 2651.020 2494.140 46.578 3.445 o
3 19 4 36813.200 37110.400 449.086 0.032 o
3 19 5 576.056 442.934 20.653 27.413 o
3 19 6 28916.200 30505.700 375.263 0.050 o
3 19 7 925.626 942.772 27.244 13.958 o
3 19 8 12793.700 12967.700 170.494 0.237 o
3 19 9 473.805 407.341 22.410 32.799 o
3 19 10 13813.900 12142.000 173.351 0.224 o
3 19 11 1793.070 1796.120 41.086 5.858 o
3 19 12 910.443 926.953 30.759 14.173 o
3 19 13 247.817 248.271 22.410 62.121 o
3 19 14 15135.800 14960.000 209.163 0.177 o
3 19 15 1073.550 1118.100 33.835 11.391 o
3 19 16 4960.350 4677.390 81.073 1.286 o
3 19 17 189.518 192.685 24.827 79.609 o
3 19 18 12595.100 12896.300 201.913 0.241 o
3 19 19 159.464 133.583 27.903 96.675 o
3 19 20 15331.700 16322.200 277.932 0.163 o
3 19 21 107.179 161.267 24.168 118.950 o
3 19 22 9163.740 9067.400 172.252 0.434 o
3 20 0 9907.480 9763.440 219.270 0.375 o
3 20 1 2729.520 2645.740 47.237 3.251 o
3 20 2 195.069 377.680 20.653 60.638 o
3 20 3 97.251 210.262 21.092 114.258 o
3 20 4 10077.800 9464.410 132.265 0.382 o
3 20 5 603.757 746.352 25.486 21.488 o
3 20 6 399.318 419.425 23.509 36.757 o
3 20 7 1490.080 1276.290 31.418 8.111 o
3 20 8 768.578 820.174 27.903 17.141 o
3 20 9 1547.660 1548.290 37.570 7.181 o
3 20 10 203.882 149.842 24.168 81.953 o
3 20 11 62.296 54.488 21.092 236.517 o
3 20 12 108.427 131.826 23.070 128.800 o
3 20 13 138.963 112.931 24.168 114.696 o
3 20 14 3380.130 3244.670 60.420 2.351 o
3 20 15 437.201 514.779 28.343 31.356 o
3 20 16 3268.060 3583.020 68.330 2.301 o
3 20 17 331.407 251.347 27.903 48.937 o
3 20 18 17.682 15.160 29.002 404.181 o
3 20 19 1643.670 1425.030 39.987 7.024 o
3 20 20 1092.030 1323.970 43.502 10.258 o
3 20 21 9.153 -3.076 34.494 400.244 o
3 21 0 9520.610 11342.000 215.754 0.359 o
3 21 1 33.592 77.338 20.653 283.862 o
3 21 2 8299.520 8444.740 125.015 0.513 o
3 21 3 5042.440 4651.460 71.845 1.270 o
3 21 4 5585.180 4922.800 79.095 1.097 o
3 21 5 427.269 615.845 24.827 29.755 o
3 21 6 6624.130 6305.430 96.013 0.789 o
3 21 7 7434.310 8964.570 125.674 0.559 o
3 21 8 2007.890 2153.810 42.843 4.837 o
3 21 9 4582.100 4511.950 91.838 1.421 o
3 21 10 6613.640 6827.680 108.097 0.754 o
3 21 11 402.795 520.930 27.903 33.023 o
3 21 12 276.614 781.286 31.418 32.407 o
3 21 13 277.810 418.107 27.244 45.993 o
3 21 14 12323.000 12470.900 183.677 0.254 o
3 21 15 551.175 629.686 29.661 24.441 o
3 21 16 927.825 1058.120 38.669 13.016 o
3 21 17 5.563 24.827 27.903 479.485 o
3 21 18 4195.900 4301.690 81.512 1.607 o
3 21 19 129.948 164.342 24.168 106.318 o
3 21 20 1244.230 1078.110 42.404 10.064 o
3 22 0 134.552 250.688 32.078 81.922 o
3 22 1 305.215 648.362 27.244 35.033 o
3 22 2 730.021 914.430 31.418 16.885 o
3 22 3 8378.500 8553.720 121.499 0.504 o
3 22 4 334.742 332.420 24.827 45.106 o
3 22 5 1087.040 1040.540 34.494 11.606 o
3 22 6 1082.710 821.273 28.343 12.832 o
3 22 7 589.195 699.115 30.320 22.261 o
3 22 8 3902.740 3043.410 59.322 2.077 o
3 22 9 1680.090 1722.960 41.745 6.330 o
3 22 10 2387.710 1975.620 45.260 4.248 o
3 22 11 761.084 794.688 31.418 17.385 o
3 22 12 714.282 722.184 31.418 18.975 o
3 22 13 710.460 787.438 33.176 18.327 o
3 22 14 847.693 795.347 36.252 15.798 o
3 22 15 26.491 50.753 29.002 286.707 o
3 22 16 968.551 916.846 35.593 13.424 o
3 22 17 1428.130 1209.940 38.010 8.555 o
3 22 18 886.287 720.426 34.494 15.837 o
3 22 19 95.062 103.263 26.585 143.587 o
3 23 0 10259.900 11135.300 216.414 0.334 o
3 23 1 396.237 483.360 27.903 34.449 o
3 23 2 569.167 450.843 25.926 27.195 o
3 23 3 4495.880 4049.680 66.572 1.549 o
3 23 4 183.897 238.165 26.585 74.303 o
3 23 5 6849.250 6744.190 106.339 0.730 o
3 23 6 258.435 393.499 25.486 49.717 o
3 23 7 627.458 719.108 29.002 21.077 o
3 23 8 448.457 411.515 26.585 33.667 o
3 23 9 16978.300 18235.000 257.939 0.135 o
3 23 10 2613.480 2424.050 54.488 3.523 o
3 23 11 2265.490 2277.720 50.753 4.180 o
3 23 12 2157.140 2342.320 52.071 4.312 o
3 23 13 2782.160 2758.230 64.594 3.092 o
3 23 14 5834.430 6373.760 108.097 0.900 o
3 23 15 1437.530 1564.550 48.336 7.528 o
3 23 16 99.380 110.074 31.418 128.492 o
3 23 17 1451.730 1424.370 50.094 7.764 o
3 23 18 594.870 611.011 36.252 22.963 o
3 24 0 97.825 327.586 38.669 76.195 o
3 24 1 2006.250 2304.970 47.237 4.662 o
3 24 2 814.572 849.615 31.418 16.040 o
3 24 3 1252.630 1545.870 38.669 8.590 o
3 24 4 133.614 129.848 24.827 112.299 o
3 24 5 149.609 268.924 24.168 80.473 o
3 24 6 843.567 842.365 29.661 15.702 o
3 24 7 3914.510 3384.840 61.738 1.970 o
3 24 8 9.845 27.903 25.926 473.348 o
3 24 9 174.296 369.331 32.078 60.686 o
3 24 10 994.724 935.522 35.154 13.035 o
3 24 11 2046.010 2153.150 50.094 4.727 o
3 24 12 387.710 352.853 29.661 39.013 o
3 24 13 95.072 86.346 29.661 144.100 o
3 24 14 1390.930 1066.690 38.010 9.188 o
3 24 15 305.308 316.161 32.078 47.220 o
3 24 16 69.689 52.071 31.418 183.414 o
3 24 17 67.352 152.258 27.903 143.559 o
3 25 0 213.113 288.918 35.154 59.553 o
3 25 1 8363.630 8237.560 123.916 0.516 o
3 25 2 4366.330 4255.550 71.406 1.557 o
3 25 3 781.529 744.594 34.494 17.355 o
3 25 4 909.328 916.846 33.835 14.179 o
3 25 5 8337.610 8255.790 123.257 0.518 o
3 25 6 1275.830 1067.350 35.154 9.980 o
3 25 7 3337.870 3104.490 62.837 2.431 o
3 25 8 204.887 259.916 30.759 65.481 o
3 25 9 5383.690 4820.640 83.490 1.154 o
3 25 10 409.275 447.108 31.418 34.298 o
3 25 11 2175.520 1951.460 49.654 4.669 o
3 25 12 1444.930 1282.440 42.843 8.223 o
3 25 13 1531.500 1535.550 45.260 7.214 o
3 25 14 589.543 604.420 38.010 23.084 o
3 25 15 1992.700 1813.040 44.821 5.268 o
3 26 0 30.182 13.842 38.010 248.929 o
3 26 1 8774.920 8330.710 119.741 0.486 o
3 26 2 37.209 34.494 25.926 304.769 o
3 26 3 4733.040 4230.280 71.845 1.430 o
3 26 4 133.914 143.250 28.343 104.917 o
3 26 5 6409.410 5898.750 134.242 0.838 o
3 26 6 831.269 719.108 32.078 16.803 o
3 26 7 11712.700 11366.200 177.745 0.285 o
3 26 8 165.891 132.924 30.320 92.142 o
3 26 9 6500.370 6377.940 104.582 0.799 o
3 26 10 240.788 164.342 30.320 67.998 o
3 26 11 4745.990 4556.110 97.331 1.358 o
3 26 12 89.400 103.922 31.418 137.766 o
3 26 13 2855.300 2871.160 64.594 2.955 o
3 27 0 77.976 33.176 39.328 155.753 o
3 27 1 2033.750 1746.470 42.843 5.257 o
3 27 2 272.870 252.006 29.002 55.834 o
3 27 3 4977.310 4158.440 71.406 1.363 o
3 27 4 159.008 114.908 29.002 99.494 o
3 27 5 248.557 199.496 30.320 63.246 o
3 27 6 117.753 125.015 30.320 114.863 o
3 27 7 2054.940 1922.460 48.995 4.967 o
3 27 8 416.694 348.019 31.418 36.895 o
3 27 9 1524.460 1192.360 41.086 8.066 o
3 27 10 408.070 474.352 35.154 33.093 o
3 27 11 56.212 81.073 32.737 177.133 o
3 28 0 292.757 266.507 41.745 48.157 o
3 28 1 173.416 79.754 29.002 100.808 o
3 28 2 34.547 27.903 30.320 285.677 o
3 28 3 53.214 74.262 30.759 193.517 o
3 28 4 1940.340 1521.710 43.502 5.815 o
3 28 5 28.015 53.170 29.002 278.337 o
3 28 6 2469.240 2065.050 53.170 4.007 o
3 28 7 1.394 -11.425 36.252 411.036 o
3 28 8 372.450 368.672 42.843 37.020 o
3 29 0 462.851 422.940 65.913 26.816 o
3 29 1 270.436 310.669 43.502 47.561 o
3 29 2 1096.250 790.953 48.336 12.406 o
3 29 3 697.682 475.011 65.254 19.695 o
3 29 4 99.218 62.837 54.927 95.167 o
4 0 1 5512.910 3078.350 67.011 1.366 o
4 0 2 3699.620 2081.960 75.580 2.528 o
4 0 3 26024.700 31643.000 531.696 0.055 o
4 0 4 16595.000 15238.600 273.098 0.155 o
4 0 6 42428.600 43732.700 845.441 0.024 o
4 0 7 1166.310 1585.200 45.919 8.883 o
4 0 8 4242.440 3881.600 113.590 1.644 o
4 0 9 5880.400 5819.000 128.090 0.932 o
4 0 10 12427.100 11320.700 284.743 0.260 o
4 0 11 7997.030 7601.720 160.168 0.563 o
4 0 12 7924.470 11192.600 233.771 0.435 o
4 0 13 4661.060 5504.150 115.347 1.235 o
4 0 14 6707.480 8149.230 212.019 0.641 o
4 0 15 292.791 179.502 17.577 61.662 o
4 0 18 143.194 499.838 23.509 58.377 o
4 0 19 3673.600 3866.440 108.756 1.916 o
4 0 23 13.138 13.402 38.669 289.504 o
4 1 0 41755.100 52712.800 1012.200 0.021 o
4 1 1 1749.390 2067.900 32.078 5.630 o
4 1 2 1885.170 5234.570 73.822 2.733 o
4 1 3 8198.670 7095.950 97.331 0.577 o
4 1 5 38229.200 43341.600 505.771 0.028 o
4 1 6 12966.700 15682.800 204.330 0.206 o
4 1 7 172.951 304.077 9.008 75.324 o
4 1 8 39612.900 40356.800 505.771 0.028 o
4 1 9 1419.130 2044.390 33.176 6.737 o
4 1 10 4707.640 5556.230 78.656 1.235 o
4 1 11 84.346 91.838 6.591 195.832 o
4 1 12 30413.100 33190.100 449.086 0.044 o
4 1 13 4127.960 4661.790 104.582 1.545 o
4 1 14 84.954 166.759 10.326 148.160 o
4 1 15 43.255 21.092 9.667 452.954 o
4 1 16 1343.850 1677.040 38.669 7.789 o
4 1 17 43.114 29.661 9.667 422.489 o
4 1 18 312.757 516.097 17.577 40.132 o
4 1 19 213.496 219.270 17.577 73.486 o
4 1 20 1715.100 1467.880 71.845 6.393 o
4 1 21 721.532 947.606 39.987 16.443 o
4 1 22 627.997 716.032 31.418 20.985 o
4 1 23 290.380 242.998 18.675 56.811 o
4 1 24 116.963 132.265 18.675 128.402 o
4 1 26 2419.410 2079.550 127.431 3.711 o
4 2 1 17.327 630.346 16.918 71.562 o
4 2 2 47686.400 51116.200 633.422 0.019 o
4 2 3 3823.010 5011.130 73.822 1.620 o
4 2 6 60606.300 72131.000 1356.050 0.011 o
4 2 7 517.187 1506.550 35.154 15.461 o
4 2 8 46332.800 50812.800 630.346 0.020 o
4 2 9 1121.500 1675.280 29.661 9.060 o
4 2 10 1233.840 1205.540 23.070 9.915 o
4 2 11 2231.050 2862.590 46.578 3.774 o
4 2 12 22719.200 25969.600 356.588 0.075 o
4 2 13 3040.910 3483.270 61.738 2.516 o
4 2 14 3884.460 3616.850 71.406 1.916 o
4 2 15 426.630 439.418 11.425 35.374 o
4 2 16 5259.210 5406.820 120.840 1.098 o
4 2 17 184.783 38.669 10.326 121.791 o
4 2 18 2251.280 2208.300 55.586 4.251 o
4 2 19 1201.830 1314.960 32.078 9.673 o
4 2 20 958.553 1127.110 44.821 12.196 o
4 2 21 273.038 170.494 19.994 65.323 o
4 2 22 7326.630 7673.780 191.586 0.611 o
4 2 23 92.518 84.588 13.842 179.988 o
4 2 24 132.760 209.163 30.759 90.012 o
4 2 26 3176.560 3001.010 136.000 2.434 o
4 2 27 105.820 129.409 26.585 126.177 o
4 3 0 78339.100 90669.800 2073.400 0.006 o
4 3 1 7992.400 9314.350 174.669 0.498 o
4 3 2 42698.100 44157.400 549.273 0.024 o
4 3 3 1465.480 1253.440 27.244 8.327 o
4 3 5 24407.400 29258.900 406.682 0.063 o
4 3 6 76.716 248.271 16.259 119.587 o
4 3 7 13019.100 15949.300 246.514 0.201 o
4 3 8 60830.400 60433.600 1135.020 0.012 o
4 3 9 2.232 21.092 5.493 1872.840 o
4 3 10 3973.510 4331.790 68.989 1.703 o
4 3 11 4762.470 5301.800 75.580 1.256 o
4 3 12 48532.400 51224.300 675.606 0.018 o
4 3 13 139.012 78.656 5.493 142.507 o
4 3 14 252.076 206.746 12.743 67.779 o
4 3 15 135.013 265.189 10.986 91.850 o
4 3 16 18360.500 20987.100 312.426 0.112 o
4 3 17 126.235 28.343 10.986 176.963 o
4 3 18 413.237 349.997 19.334 38.649 o
4 3 19 2855.220 3254.990 75.580 2.748 o
4 3 20 4793.270 5499.320 146.766 1.180 o
4 3 21 312.220 510.604 21.092 39.989 o
4 3 22 5332.250 6046.180 157.092 0.997 o
4 3 23 508.336 629.686 25.486 26.159 o
4 3 24 143.783 77.338 19.334 128.087 o
4 3 25 64.619 29.002 16.259 286.116 o
4 4 0 47571.300 53058.000 1246.190 0.018 o
4 4 1 28658.600 31008.000 463.586 0.050 o
4 4 2 34764.800 39037.000 653.854 0.033 o
4 4 3 617.857 232.013 16.918 30.356 o
4 4 4 3455.000 3913.680 65.913 2.078 o
4 4 5 3995.380 2263.220 50.753 2.275 o
4 4 6 68583.700 78045.500 1457.550 0.009 o
4 4 7 13177.600 18151.500 325.170 0.178 o
4 4 8 8281.030 7404.200 126.992 0.554 o
4 4 9 3767.180 4641.800 82.171 1.716 o
4 4 10 57001.400 61879.800 905.861 0.013 o
4 4 11 709.620 1524.120 36.252 12.911 o
4 4 12 15250.900 15014.500 218.171 0.174 o
4 4 13 599.797 340.769 12.743 28.917 o
4 4 14 10567.100 11587.900 182.578 0.317 o
4 4 15 4540.790 3575.770 61.738 1.628 o
4 4 16 45.411 18.675 7.910 457.009 o
4 4 17 1140.190 914.430 37.570 11.641 o
4 4 18 353.284 437.002 16.259 40.187 o
4 4 19 3233.050 3184.250 74.262 2.464 o
4 4 20 344.581 265.189 17.577 48.760 o
4 4 21 10.898 36.252 17.577 605.081 o
4 4 22 3644.780 4135.370 110.514 1.860 o
4 4 23 2.886 -6.152 16.918 1596.260 o
4 4 24 1133.260 1185.770 33.176 10.626 o
4 4 25 2.476 -34.494 15.160 1964.750 o
4 4 26 101.648 174.010 22.410 120.584 o
4 4 27 21.411 7.910 19.334 612.906 o
4 5 0 8603.370 8030.810 213.338 0.493 o
4 5 1 10617.600 13770.700 286.501 0.275 o
4 5 2 54950.200 57457.900 936.181 0.014 o
4 5 3 228.539 497.422 33.835 45.400 o
4 5 4 18.794 81.073 8.569 419.470 o
4 5 5 27457.300 26624.800 459.851 0.058 o
4 5 6 13514.200 11935.900 257.939 0.229 o
4 5 7 1999.810 2396.810 48.995 4.575 o
4 5 8 58.049 50.753 7.910 303.302 o
4 5 9 14889.600 12567.600 203.670 0.199 o
4 5 10 883.999 787.438 32.737 15.426 o
4 5 11 164.063 166.100 15.160 97.837 o
4 5 12 29.557 315.502 16.259 128.089 o
4 5 13 6147.050 7236.120 131.166 0.782 o
4 5 14 856.879 1053.940 29.661 14.072 o
4 5 15 1255.170 1042.520 32.737 10.249 o
4 5 16 7337.160 7606.110 123.257 0.628 o
4 5 17 3035.790 4050.120 64.594 2.305 o
4 5 18 531.351 479.186 16.918 28.698 o
4 5 19 1370.210 1774.810 35.154 7.473 o
4 5 20 304.493 330.003 12.084 50.355 o
4 5 21 3101.760 3865.340 76.678 2.307 o
4 5 22 3487.670 3388.350 67.670 2.219 o
4 5 23 1033.030 1354.950 41.086 10.628 o
4 5 24 242.951 320.336 24.827 56.518 o
4 5 25 1513.530 1521.050 45.260 7.321 o
4 5 26 445.522 410.417 24.827 34.052 o
4 5 27 710.774 595.851 30.320 20.493 o
4 5 28 289.391 216.853 23.509 57.669 o
4 6 0 11218.200 17258.400 428.433 0.212 o
4 6 1 27301.300 25241.900 432.168 0.060 o
4 6 2 10293.500 8863.730 127.431 0.387 o
4 6 3 6551.870 5514.480 93.157 0.858 o
4 6 4 2874.670 4410.440 81.512 2.269 o
4 6 5 19035.200 20185.100 290.675 0.110 o
4 6 6 859.441 661.764 27.244 16.959 o
4 6 7 26427.400 24649.200 383.173 0.064 o
4 6 8 6623.350 7205.360 141.493 0.721 o
4 6 9 50074.400 50348.800 752.284 0.018 o
4 6 10 6317.400 8042.450 136.000 0.710 o
4 6 11 43511.600 45663.900 869.609 0.022 o
4 6 12 406.402 577.176 23.070 31.826 o
4 6 13 16170.500 17546.600 268.924 0.147 o
4 6 14 1837.810 2170.070 46.578 5.201 o
4 6 15 216.387 212.019 10.986 75.556 o
4 6 16 250.181 212.678 9.667 68.138 o
4 6 17 4583.680 4580.720 66.572 1.424 o
4 6 18 125.667 134.242 9.667 129.505 o
4 6 19 2284.960 2138.210 55.586 4.253 o
4 6 20 58.626 25.486 9.667 346.628 o
4 6 21 8322.420 7652.470 122.598 0.541 o
4 6 22 746.329 866.533 25.486 17.194 o
4 6 23 461.524 320.995 21.092 36.174 o
4 6 24 526.273 664.840 25.926 24.907 o
4 6 25 3413.790 3863.370 88.323 2.090 o
4 6 26 119.754 165.661 23.509 111.661 o
4 6 27 1411.210 1423.280 53.829 7.916 o
4 6 28 309.284 266.507 27.244 50.752 o
4 6 29 44.453 19.994 23.070 330.315 o
4 7 0 4928.180 4338.380 103.263 1.332 o
4 7 1 51752.500 53314.200 737.344 0.016 o
4 7 2 713.118 905.202 23.509 17.493 o
4 7 3 711.281 989.790 32.078 16.549 o
4 7 4 17383.100 15927.600 239.922 0.143 o
4 7 5 15580.200 13275.700 203.011 0.183 o
4 7 6 1807.510 1966.400 36.252 5.593 o
4 7 7 298.452 631.005 18.675 36.932 o
4 7 8 6054.550 6794.950 99.748 0.835 o
4 7 9 37700.800 36782.800 472.594 0.032 o
4 7 10 5578.110 5667.400 93.157 1.015 o
4 7 11 10415.600 10714.100 163.244 0.340 o
4 7 12 29390.700 30657.300 426.016 0.049 o
4 7 13 12168.500 11974.600 196.420 0.263 o
4 7 14 8.619 62.178 9.008 607.431 o
4 7 15 6975.260 5890.400 92.498 0.771 o
4 7 16 4882.300 5189.310 82.830 1.235 o
4 7 17 1453.270 891.360 19.334 9.519 o
4 7 18 223.313 186.094 10.326 77.231 o
4 7 19 16115.700 16035.300 276.174 0.155 o
4 7 20 9303.640 9568.770 170.494 0.414 o
4 7 21 719.880 604.859 26.585 20.334 o
4 7 22 481.729 378.998 15.160 33.688 o
4 7 23 993.642 1015.280 23.070 12.828 o
4 7 24 4068.510 4215.780 87.005 1.673 o
4 7 25 3465.670 3358.250 71.845 2.239 o
4 7 26 2.033 -18.675 19.994 1249.670 o
4 7 27 303.861 192.246 19.334 58.434 o
4 7 28 71.996 74.262 31.418 167.260 o
4 8 0 6201.230 6514.600 146.326 0.819 o
4 8 1 19642.500 20397.100 298.585 0.105 o
4 8 2 2561.320 1890.380 38.010 4.040 o
4 8 3 306.210 10.326 7.250 79.146 o
4 8 4 2654.890 2113.380 41.745 3.712 o
4 8 5 994.746 1549.390 36.911 10.245 o
4 8 6 252.698 180.601 11.425 70.671 o
4 8 7 42625.900 43740.400 565.751 0.024 o
4 8 8 6889.070 6611.930 100.407 0.735 o
4 8 9 26632.100 26131.100 408.439 0.061 o
4 8 10 761.914 1534.450 29.661 12.436 o
4 8 11 5783.880 5701.230 84.588 0.975 o
4 8 12 8487.590 8690.820 145.008 0.490 o
4 8 13 1297.320 1149.520 25.926 9.648 o
4 8 14 950.372 946.287 19.994 13.754 o
4 8 15 4436.050 4404.290 77.997 1.499 o
4 8 16 693.777 772.278 17.577 19.331 o
4 8 17 1956.370 1657.710 28.343 5.637 o
4 8 18 987.504 954.197 20.653 13.265 o
4 8 19 2221.300 2032.970 37.570 4.532 o
4 8 20 368.646 348.678 15.160 42.648 o
4 8 21 336.189 648.362 23.070 33.679 o
4 8 22 1148.700 1274.530 32.737 10.179 o
4 8 23 1727.100 2513.470 56.905 5.004 o
4 8 24 504.876 462.268 17.577 30.218 o
4 8 25 889.005 1084.700 23.509 13.609 o
4 8 26 748.871 817.098 31.418 17.402 o
4 8 27 752.150 866.533 36.911 16.723 o
4 8 28 108.468 132.265 35.154 110.508 o
4 9 0 8500.290 6667.510 152.258 0.562 o
4 9 1 43057.100 42800.000 602.003 0.024 o
4 9 2 211.676 136.000 10.986 87.721 o
4 9 3 74178.500 77922.300 1052.630 0.008 o
4 9 4 197.060 408.000 16.259 58.951 o
4 9 5 18636.300 17063.100 279.909 0.125 o
4 9 6 131.221 43.502 9.667 163.786 o
4 9 7 88550.700 92363.100 1246.190 0.006 o
4 9 8 1336.820 1607.610 39.987 7.978 o
4 9 9 84460.200 89220.200 1197.200 0.006 o
4 9 10 12660.500 13484.900 203.011 0.233 o
4 9 11 39499.100 37188.400 516.097 0.030 o
4 9 12 3159.740 2629.480 45.919 2.806 o
4 9 13 25541.900 25766.600 360.103 0.065 o
4 9 14 3643.780 3370.340 58.003 2.136 o
4 9 15 17018.100 16510.300 216.414 0.144 o
4 9 16 2090.160 2211.810 40.426 4.608 o
4 9 17 31628.400 32983.400 446.010 0.042 o
4 9 18 5620.850 5951.480 85.906 0.982 o
4 9 19 330.501 308.252 13.842 48.447 o
4 9 20 2394.730 2555.660 54.927 3.737 o
4 9 21 22299.900 23742.200 410.856 0.081 o
4 9 22 999.313 854.449 18.675 13.735 o
4 9 23 11228.400 11444.000 190.927 0.298 o
4 9 24 1682.040 1866.210 47.237 6.056 o
4 9 25 1548.250 1803.810 37.570 6.679 o
4 9 26 112.064 124.575 13.402 140.335 o
4 9 27 7153.350 7437.380 140.834 0.651 o
4 9 28 54.715 109.415 49.654 115.360 o
4 10 0 1.719 -1.758 16.918 1715.950 o
4 10 1 24567.100 22822.300 358.346 0.074 o
4 10 2 14760.800 14404.800 216.414 0.186 o
4 10 3 2478.360 2656.060 52.511 3.553 o
4 10 4 1738.380 1806.230 38.010 6.025 o
4 10 5 39740.100 40071.700 560.918 0.028 o
4 10 6 26324.800 25161.800 363.838 0.064 o
4 10 7 1732.850 1391.860 31.418 6.794 o
4 10 8 90.935 79.754 9.667 191.615 o
4 10 9 1958.810 1747.130 37.570 5.473 o
4 10 10 257.751 384.271 16.259 52.155 o
4 10 11 2942.240 2352.650 41.086 3.184 o
4 10 12 702.822 603.102 19.334 21.023 o
4 10 13 13994.000 13214.200 211.580 0.209 o
4 10 14 3180.390 3281.580 57.344 2.492 o
4 10 15 8407.480 8563.380 120.181 0.502 o
4 10 16 1447.200 1515.550 27.903 7.761 o
4 10 17 682.213 855.108 23.509 18.555 o
4 10 18 570.048 794.688 20.653 21.927 o
4 10 19 7039.560 7104.960 111.173 0.686 o
4 10 20 264.155 261.014 16.918 59.821 o
4 10 21 8.499 1.318 10.326 1864.320 o
4 10 22 943.643 979.024 26.585 13.536 o
4 10 23 4303.770 4641.140 69.428 1.509 o
4 10 24 1185.070 1197.200 34.494 10.174 o
4 10 25 750.795 884.110 29.002 16.865 o
4 10 26 43.766 76.239 15.819 279.557 o
4 10 27 136.587 155.994 15.160 112.792 o
4 11 0 55.255 1.758 13.402 407.599 o
4 11 1 98.249 780.846 21.092 46.976 o
4 11 2 108.906 182.578 12.743 122.693 o
4 11 3 5055.580 4219.290 75.580 1.327 o
4 11 4 4201.850 3591.590 61.738 1.773 o
4 11 5 5491.780 4311.790 74.921 1.194 o
4 11 6 14705.400 14998.700 212.678 0.183 o
4 11 7 12323.200 12265.500 178.184 0.256 o
4 11 8 2990.870 3529.850 64.594 2.534 o
4 11 9 7892.330 8114.960 122.158 0.557 o
4 11 10 2453.590 2399.220 53.170 3.770 o
4 11 11 5973.750 6116.920 110.074 0.897 o
4 11 12 323.322 306.494 15.160 49.170 o
4 11 13 2572.130 2746.580 48.995 3.379 o
4 11 14 4964.910 5421.980 82.171 1.184 o
4 11 15 3731.240 3929.940 59.761 1.924 o
4 11 16 1670.320 1738.560 34.494 6.377 o
4 11 17 39.731 90.081 12.743 283.261 o
4 11 18 1119.800 1087.120 24.168 11.254 o
4 11 19 287.207 165.661 15.160 64.435 o
4 11 20 26.033 12.743 15.819 597.135 o
4 11 21 894.934 1019.450 26.585 13.877 o
4 11 22 869.258 790.514 25.486 15.809 o
4 11 23 74.963 47.237 16.259 235.027 o
4 11 24 23.197 52.511 11.425 474.353 o
4 11 25 662.170 674.507 29.002 20.774 o
4 11 26 544.404 580.691 28.343 25.565 o
4 11 27 25.077 96.672 27.903 237.798 o
4 12 0 1008.920 1241.360 38.669 11.335 o
4 12 1 16.429 102.824 10.326 360.704 o
4 12 2 6508.580 5223.150 94.914 0.887 o
4 12 3 99.800 455.018 18.236 72.296 o
4 12 4 12061.000 10790.800 169.176 0.284 o
4 12 5 404.775 551.690 24.827 32.412 o
4 12 6 121.388 90.740 11.425 148.611 o
4 12 7 5372.600 4844.370 76.678 1.157 o
4 12 8 1450.480 1611.130 36.252 7.472 o
4 12 9 7682.590 7898.540 116.666 0.584 o
4 12 10 1539.100 1625.630 32.737 7.088 o
4 12 11 8877.220 9831.110 139.515 0.433 o
4 12 12 8254.830 7751.120 132.924 0.541 o
4 12 13 8036.960 8064.640 116.006 0.548 o
4 12 14 1855.790 2179.300 58.662 5.085 o
4 12 15 776.464 766.785 22.410 17.628 o
4 12 16 2597.080 2822.160 50.753 3.298 o
4 12 17 2247.070 2050.990 44.821 4.442 o
4 12 18 1937.600 1959.810 36.911 5.254 o
4 12 19 469.105 476.769 18.236 31.557 o
4 12 20 1569.970 1240.040 34.494 7.786 o
4 12 21 434.677 417.667 22.410 34.718 o
4 12 22 18.042 22.410 12.743 716.512 o
4 12 23 768.769 730.533 26.585 17.991 o
4 12 24 101.923 126.333 18.236 142.300 o
4 12 25 98.237 120.181 13.402 154.385 o
4 12 26 323.138 342.087 26.585 45.417 o
4 12 27 1683.200 1818.970 49.654 6.112 o
4 13 0 13.458 156.433 18.236 243.431 o
4 13 1 3285.490 3514.690 54.927 2.329 o
4 13 2 2223.350 2213.130 42.843 4.339 o
4 13 3 361.097 262.333 14.501 47.552 o
4 13 4 2059.010 2075.810 41.745 4.814 o
4 13 5 14298.800 13608.100 206.746 0.200 o
4 13 6 6148.770 6586.440 111.832 0.833 o
4 13 7 328.662 359.664 16.918 45.611 o
4 13 8 5448.130 4713.200 83.490 1.152 o
4 13 9 10366.600 10624.700 151.599 0.344 o
4 13 10 16660.800 16296.900 223.005 0.149 o
4 13 11 411.219 514.339 20.653 33.446 o
4 13 12 15386.200 16344.600 209.603 0.164 o
4 13 13 1603.070 1330.120 33.176 7.440 o
4 13 14 107.181 123.916 15.819 142.000 o
4 13 15 1415.410 1459.530 31.418 8.026 o
4 13 16 6961.430 7439.130 108.097 0.677 o
4 13 17 2.547 -2.417 13.402 2377.000 o
4 13 18 3518.370 3573.350 57.344 2.152 o
4 13 19 760.357 834.016 26.585 17.202 o
4 13 20 1635.840 1740.980 40.426 6.459 o
4 13 21 140.396 137.099 18.675 113.015 o
4 13 22 330.162 253.764 21.751 50.303 o
4 13 23 182.736 222.346 16.259 81.515 o
4 13 24 2642.520 2553.240 48.995 3.412 o
4 13 25 784.556 687.690 22.410 18.220 o
4 13 26 38.467 17.577 24.168 351.413 o
4 14 0 32958.500 29683.800 514.779 0.043 o
4 14 1 16930.200 17665.100 242.339 0.139 o
4 14 2 203.249 206.746 13.402 78.987 o
4 14 3 2410.800 2153.810 39.987 4.067 o
4 14 4 17473.200 17140.400 235.089 0.136 o
4 14 5 1255.520 1314.300 29.661 9.349 o
4 14 6 3295.740 2706.160 53.829 2.638 o
4 14 7 120.644 212.678 15.160 106.608 o
4 14 8 24840.800 23533.000 311.767 0.072 o
4 14 9 1153.460 1046.040 27.244 11.106 o
4 14 10 41658.700 41736.400 533.014 0.026 o
4 14 11 93.430 134.682 13.842 151.571 o
4 14 12 3200.450 3315.850 55.586 2.465 o
4 14 13 4484.700 4360.130 67.670 1.496 o
4 14 14 15196.300 14989.000 206.087 0.176 o
4 14 15 1854.010 1734.380 35.154 5.796 o
4 14 16 6579.250 6778.030 108.756 0.761 o
4 14 17 300.208 304.517 16.259 51.836 o
4 14 18 2104.120 2106.570 42.404 4.682 o
4 14 19 505.079 406.023 19.334 31.453 o
4 14 20 793.631 860.601 36.911 16.104 o
4 14 21 427.132 337.254 19.994 38.045 o
4 14 22 212.675 204.330 21.751 73.820 o
4 14 23 708.356 776.013 33.176 18.480 o
4 14 24 1195.230 1251.460 42.404 9.801 o
4 14 25 67.807 32.737 16.918 267.998 o
4 14 26 1062.840 975.289 41.745 11.993 o
4 15 0 180.855 23.070 20.653 120.355 o
4 15 1 379.360 285.842 15.160 44.505 o
4 15 2 44675.100 43803.200 520.930 0.023 o
4 15 3 14041.200 14724.500 190.268 0.196 o
4 15 4 32511.000 32529.000 423.599 0.041 o
4 15 5 5650.970 5253.910 85.247 1.045 o
4 15 6 33435.300 32919.500 430.191 0.040 o
4 15 7 12400.400 12174.700 172.252 0.256 o
4 15 8 19128.500 19402.500 286.501 0.112 o
4 15 9 2283.620 2058.890 42.843 4.371 o
4 15 10 52731.000 54963.300 742.178 0.016 o
4 15 11 4421.620 4554.130 74.262 1.480 o
4 15 12 9604.690 9690.930 137.758 0.399 o
4 15 13 101.921 126.992 15.160 145.888 o
4 15 14 24230.700 25115.200 351.754 0.071 o
4 15 15 54.749 72.504 17.577 247.594 o
4 15 16 2221.490 2123.490 42.843 4.428 o
4 15 17 1244.440 1246.630 32.737 9.609 o
4 15 18 14476.900 14152.100 215.095 0.193 o
4 15 19 1322.680 1358.020 32.737 8.782 o
4 15 20 4664.180 4205.450 75.580 1.455 o
4 15 21 3481.180 3065.160 61.079 2.343 o
4 15 22 6455.500 6859.760 119.741 0.769 o
4 15 23 362.540 259.916 23.509 46.166 o
4 15 24 1584.520 1869.730 45.260 6.383 o
4 15 25 201.100 167.418 25.486 79.513 o
4 16 0 6240.110 8853.400 171.593 0.664 o
4 16 1 2144.840 1824.460 34.494 4.927 o
4 16 2 10963.000 9107.160 122.158 0.353 o
4 16 3 50.924 26.585 13.842 358.899 o
4 16 4 170.975 269.583 18.236 77.517 o
4 16 5 730.023 1037.030 30.320 15.930 o
4 16 6 3083.220 2824.580 51.412 2.778 o
4 16 7 4.300 1.318 14.501 1765.020 o
4 16 8 339.905 192.246 19.334 53.362 o
4 16 9 344.252 545.758 21.751 36.421 o
4 16 10 312.257 331.102 16.259 48.883 o
4 16 11 1.955 -74.262 16.918 1690.280 o
4 16 12 324.025 799.522 29.661 29.846 o
4 16 13 493.951 455.677 19.334 30.782 o
4 16 14 1025.040 1079.430 26.585 12.129 o
4 16 15 220.074 219.929 16.918 72.114 o
4 16 16 404.018 442.275 27.903 35.208 o
4 16 17 12.783 23.070 16.918 697.748 o
4 16 18 61.623 151.160 27.903 148.926 o
4 16 19 0.502 -21.751 16.259 2009.540 o
4 16 20 30.641 33.176 18.236 418.590 o
4 16 21 242.340 285.183 20.653 60.471 o
4 16 22 777.513 702.850 36.252 17.734 o
4 16 23 208.014 227.838 24.168 71.152 o
4 16 24 10.645 27.244 20.653 593.310 o
4 17 0 80063.900 80839.400 1307.710 0.007 o
4 17 1 149.508 184.336 16.259 99.445 o
4 17 2 14777.100 13085.400 179.502 0.198 o
4 17 3 20249.900 20138.500 266.507 0.102 o
4 17 4 17638.300 15960.800 204.330 0.141 o
4 17 5 325.183 417.008 21.751 42.648 o
4 17 6 22937.100 22712.900 328.685 0.081 o
4 17 7 3924.920 4169.200 70.087 1.761 o
4 17 8 18898.000 17090.300 235.748 0.123 o
4 17 9 613.309 499.838 21.092 25.013 o
4 17 10 41340.900 43785.200 606.178 0.025 o
4 17 11 188.501 47.677 17.577 112.153 o
4 17 12 7563.810 7966.220 128.750 0.590 o
4 17 13 126.647 105.241 15.819 134.163 o
4 17 14 16155.600 16956.100 268.265 0.150 o
4 17 15 1120.100 1200.270 30.759 10.704 o
4 17 16 2085.180 1729.550 44.821 5.142 o
4 17 17 3811.370 3561.930 68.989 1.972 o
4 17 18 14593.200 14723.800 207.186 0.187 o
4 17 19 1663.270 1479.300 42.404 6.824 o
4 17 20 9951.830 9892.190 181.260 0.374 o
4 17 21 2221.450 2264.320 54.927 4.256 o
4 17 22 3411.880 3133.930 67.670 2.359 o
4 17 23 1601.510 1391.200 48.336 7.196 o
4 17 24 5081.850 5075.060 97.990 1.191 o
4 18 0 69.582 72.504 24.827 193.146 o
4 18 1 251.143 177.745 16.259 70.116 o
4 18 2 1234.840 1549.390 47.677 8.574 o
4 18 3 672.880 645.506 21.092 21.183 o
4 18 4 287.436 208.504 18.675 59.891 o
4 18 5 1709.280 1452.280 34.494 6.752 o
4 18 6 1847.900 1740.980 37.570 5.794 o
4 18 7 467.315 457.434 21.751 31.882 o
4 18 8 1041.250 885.428 31.418 12.877 o
4 18 9 1577.330 1479.300 33.835 7.226 o
4 18 10 7168.080 7866.470 120.840 0.632 o
4 18 11 90.945 92.498 16.918 171.750 o
4 18 12 1294.890 1094.370 33.835 9.770 o
4 18 13 257.215 209.603 19.994 64.629 o
4 18 14 1340.570 1661.880 40.426 7.825 o
4 18 15 702.556 635.179 24.827 20.453 o
4 18 16 65.510 69.428 24.827 201.737 o
4 18 17 524.299 480.943 30.320 28.032 o
4 18 18 173.793 279.250 31.418 69.367 o
4 18 19 1408.290 1619.700 41.086 7.603 o
4 18 20 539.907 635.838 27.903 24.817 o
4 18 21 16.826 14.501 20.653 595.859 o
4 18 22 326.420 317.919 26.585 46.276 o
4 18 23 20.400 7.910 25.486 477.827 o
4 19 0 29133.400 31090.600 539.166 0.048 o
4 19 1 1377.990 1188.190 35.593 8.926 o
4 19 2 3566.890 3463.930 59.761 2.153 o
4 19 3 20.030 98.430 18.675 306.253 o
4 19 4 6363.570 6648.180 98.430 0.801 o
4 19 5 663.275 762.611 27.244 19.802 o
4 19 6 16064.900 17353.300 242.998 0.149 o
4 19 7 315.177 402.507 24.168 43.791 o
4 19 8 332.981 663.522 45.260 30.623 o
4 19 9 1837.920 1899.390 44.821 5.562 o
4 19 10 14436.400 14736.600 227.838 0.188 o
4 19 11 1437.700 1461.940 34.494 7.888 o
4 19 12 3561.150 4124.600 66.572 1.957 o
4 19 13 1210.700 1338.690 33.835 9.516 o
4 19 14 21615.500 21604.700 294.410 0.090 o
4 19 15 536.525 468.420 26.585 28.093 o
4 19 16 3474.020 3490.520 68.330 2.194 o
4 19 17 1276.680 1192.360 38.010 9.514 o
4 19 18 5181.490 5123.400 106.998 1.156 o
4 19 19 502.163 392.840 29.661 31.026 o
4 19 20 6159.230 5693.980 108.756 0.902 o
4 19 21 327.188 338.352 25.486 45.421 o
4 19 22 1145.820 1032.190 40.426 11.030 o
4 20 0 5570.120 9241.410 265.189 0.680 o
4 20 1 2511.290 2523.580 45.919 3.615 o
4 20 2 1345.690 1042.520 28.343 9.660 o
4 20 3 3643.090 3039.680 54.927 2.246 o
4 20 4 736.561 1318.040 55.586 13.192 o
4 20 5 886.590 893.118 28.343 14.760 o
4 20 6 570.339 718.449 27.903 22.643 o
4 20 7 46.644 206.746 22.410 148.648 o
4 20 8 725.409 913.770 30.320 17.004 o
4 20 9 46.905 149.183 22.410 178.917 o
4 20 10 1160.110 1233.450 38.010 10.176 o
4 20 11 912.804 925.195 32.737 14.109 o
4 20 12 122.178 112.931 23.070 125.961 o
4 20 13 233.656 226.520 21.092 67.154 o
4 20 14 145.129 458.094 37.570 56.043 o
4 20 15 648.483 680.439 30.320 20.973 o
4 20 16 6.050 -15.160 27.903 610.879 o
4 20 17 649.616 759.095 33.835 19.858 o
4 20 18 41.700 64.155 22.410 268.909 o
4 20 19 30.409 58.662 30.320 254.320 o
4 20 20 44.599 39.987 23.070 292.583 o
4 20 21 135.685 156.433 32.737 96.500 o
4 21 0 8507.740 10004.700 194.662 0.442 o
4 21 1 4.987 13.402 19.334 896.471 o
4 21 2 45458.900 51543.600 618.262 0.020 o
4 21 3 609.215 453.260 24.827 25.750 o
4 21 4 17118.800 18944.400 245.415 0.131 o
4 21 5 2406.440 2443.830 49.654 3.817 o
4 21 6 4357.700 4273.780 71.406 1.557 o
4 21 7 159.005 296.168 28.343 72.411 o
4 21 8 9347.280 9570.090 141.493 0.414 o
4 21 9 1537.550 1264.210 37.570 7.859 o
4 21 10 356.981 437.441 30.320 38.083 o
4 21 11 350.830 558.940 27.903 34.899 o
4 21 12 21161.200 21176.700 289.577 0.094 o
4 21 13 0.031 -32.737 22.410 1097.740 o
4 21 14 367.057 451.942 29.661 37.007 o
4 21 15 1196.710 1228.610 38.010 9.932 o
4 21 16 17100.800 18023.400 264.750 0.135 o
4 21 17 104.988 87.664 26.585 141.850 o
4 21 18 10740.800 11068.700 203.670 0.319 o
4 21 19 1286.300 917.945 33.835 10.469 o
4 21 20 5764.350 5786.480 116.006 0.960 o
4 22 0 2849.000 2518.310 68.330 3.142 o
4 22 1 69.700 36.252 23.509 229.547 o
4 22 2 1188.850 1434.040 36.911 9.316 o
4 22 3 356.311 261.674 24.168 46.578 o
4 22 4 2237.760 2317.490 45.260 4.211 o
4 22 5 611.521 459.192 28.343 25.347 o
4 22 6 2726.470 2937.070 56.905 3.071 o
4 22 7 7056.760 7055.520 119.082 0.686 o
4 22 8 3396.920 3458.000 66.572 2.258 o
4 22 9 4880.540 5126.470 96.013 1.238 o
4 22 10 1129.390 1210.380 36.911 10.507 o
4 22 11 1552.050 1434.040 42.404 7.366 o
4 22 12 4565.530 4774.720 85.247 1.388 o
4 22 13 258.306 273.758 27.903 56.715 o
4 22 14 11.316 7.250 25.926 562.331 o
4 22 15 28.717 16.918 23.070 422.494 o
4 22 16 3731.820 3710.010 76.239 1.967 o
4 22 17 634.126 568.607 33.835 22.614 o
4 22 18 710.666 794.029 39.328 17.994 o
4 22 19 1.074 -17.577 24.827 864.478 o
4 23 0 18721.400 19353.500 364.937 0.114 o
4 23 1 1772.190 1943.550 43.502 5.691 o
4 23 2 578.059 638.695 28.343 23.550 o
4 23 3 939.540 830.281 31.418 14.404 o
4 23 4 2443.940 2536.980 52.071 3.686 o
4 23 5 745.652 833.357 33.176 17.254 o
4 23 6 458.371 560.258 31.418 29.029 o
4 23 7 2746.720 3298.490 65.254 2.850 o
4 23 8 109.933 126.992 26.585 124.328 o
4 23 9 2371.710 2888.080 63.496 3.512 o
4 23 10 255.237 311.767 27.903 54.506 o
4 23 11 1916.800 1684.290 42.404 5.654 o
4 23 12 1778.390 1933.880 52.071 5.640 o
4 23 13 385.552 343.186 22.410 40.626 o
4 23 14 1366.820 1379.110 47.237 8.329 o
4 23 15 604.959 718.449 35.154 21.325 o
4 23 16 2114.920 2133.820 56.245 4.579 o
4 23 17 69.335 90.081 32.078 159.703 o
4 23 18 468.496 453.260 37.570 30.285 o
4 24 0 129.395 235.089 36.911 81.529 o
4 24 1 2599.990 2563.570 52.511 3.453 o
4 24 2 1311.120 1246.190 33.835 9.173 o
4 24 3 585.417 454.359 28.343 26.351 o
4 24 4 714.832 506.430 27.244 21.639 o
4 24 5 3189.010 3195.010 62.837 2.512 o
4 24 6 240.865 302.100 29.661 56.596 o
4 24 7 507.974 834.675 33.835 22.424 o
4 24 8 8.280 -24.827 27.903 581.182 o
4 24 9 2145.860 2738.240 57.344 3.972 o
4 24 10 900.193 844.342 35.154 14.735 o
4 24 11 61.053 96.013 29.002 175.085 o
4 24 12 66.211 50.094 27.903 204.097 o
4 24 13 624.847 575.858 32.078 22.881 o
4 24 14 1117.340 916.187 36.911 11.856 o
4 24 15 22.783 33.176 24.168 392.997 o
4 24 16 30.514 45.260 26.585 303.627 o
4 25 0 1698.950 1805.130 58.662 6.019 o
4 25 1 180.844 203.011 25.926 79.919 o
4 25 2 1168.720 1292.550 38.669 9.895 o
4 25 3 7.021 76.239 27.903 320.813 o
4 25 4 692.162 736.026 38.010 18.990 o
4 25 5 4511.150 3924.450 77.997 1.560 o
4 25 6 530.316 505.111 32.737 27.111 o
4 25 7 1330.440 1221.360 39.987 9.062 o
4 25 8 175.826 206.087 27.244 80.055 o
4 25 9 3335.720 3013.090 64.594 2.465 o
4 25 10 1513.740 1550.050 49.654 7.219 o
4 25 11 79.511 207.845 30.320 113.181 o
4 25 12 939.317 801.938 35.154 14.497 o
4 25 13 642.591 779.528 35.593 19.701 o
4 25 14 2031.640 1846.880 50.753 5.103 o
4 25 15 77.807 174.669 30.320 123.572 o
4 26 0 8.894 24.827 38.669 284.931 o
4 26 1 82.600 96.672 28.343 153.619 o
4 26 2 166.238 151.599 29.002 89.963 o
4 26 3 12.853 9.667 24.827 561.545 o
4 26 4 0.533 8.569 27.903 628.636 o
4 26 5 118.586 110.074 26.585 124.206 o
4 26 6 77.064 62.178 29.661 174.039 o
4 26 7 311.572 261.014 30.759 49.870 o
4 26 8 35.345 56.905 27.903 260.859 o
4 26 9 435.146 333.079 38.669 35.018 o
4 26 10 0.505 -6.152 34.494 459.908 o
4 26 11 1596.220 1296.940 42.843 7.469 o
4 26 12 358.659 351.095 32.737 40.722 o
4 26 13 112.251 101.506 30.320 124.906 o
4 27 0 4238.780 4016.280 116.006 1.615 o
4 27 1 2946.450 3116.570 62.837 2.752 o
4 27 2 158.379 146.766 30.759 91.939 o
4 27 3 10167.100 9607.000 151.599 0.374 o
4 27 4 618.022 403.166 33.835 25.683 o
4 27 5 11678.300 11141.200 186.753 0.289 o
4 27 6 659.238 497.861 35.593 22.787 o
4 27 7 7402.010 7807.370 132.265 0.611 o
4 27 8 590.261 541.583 36.252 24.133 o
4 27 9 7818.940 7708.720 134.242 0.578 o
4 27 10 474.791 409.758 36.252 31.183 o
4 27 11 8576.490 7925.130 137.099 0.511 o
4 28 0 399.080 175.328 38.010 43.460 o
4 28 1 1696.410 1495.780 41.745 6.673 o
4 28 2 16.395 -19.334 31.418 416.029 o
4 28 3 422.248 349.338 33.835 36.113 o
4 28 4 79.629 57.344 35.154 156.333 o
4 28 5 86.165 114.908 47.237 104.133 o
4 28 6 295.962 311.767 48.336 43.447 o
4 28 7 443.799 346.262 42.404 33.504 o
4 28 8 503.468 443.593 41.086 28.535 o
4 29 0 158.151 96.672 61.738 66.578 o
4 29 1 3272.700 2360.560 82.171 2.760 o
4 29 2 720.406 594.753 56.245 18.736 o
4 29 3 289.913 346.921 56.245 39.930 o
5 1 0 8894.930 3260.260 81.073 0.699 o
5 1 1 332.008 2458.990 42.843 11.866 o
5 1 2 114049.000 162963.000 5207.990 0.002 o
5 1 3 12425.000 15909.400 196.420 0.214 o
5 1 4 24281.600 22477.300 345.163 0.076 o
5 1 5 2334.840 2654.090 45.919 3.776 o
5 1 6 112055.000 144908.000 4629.050 0.003 o
5 1 7 18984.100 18115.200 258.598 0.118 o
5 1 8 14526.400 13928.500 187.851 0.194 o
5 1 9 4556.820 3900.940 62.837 1.557 o
5 1 10 44717.400 47254.000 587.942 0.022 o
5 1 11 557.877 707.683 16.918 23.640 o
5 1 12 4912.470 3536.440 71.406 1.488 o
5 1 13 3527.520 4068.350 69.428 1.988 o
5 1 14 19940.700 21629.900 297.267 0.099 o
5 1 15 436.334 740.200 22.410 26.968 o
5 1 16 8731.310 10247.500 181.260 0.425 o
5 1 17 4576.060 4923.460 105.680 1.348 o
5 1 18 23.550 14.501 12.743 687.486 o
5 1 19 2436.860 2463.820 59.322 3.730 o
5 1 20 255.200 171.593 13.402 70.664 o
5 1 21 554.803 342.746 30.320 29.675 o
5 1 22 825.896 1081.190 29.002 14.306 o
5 1 23 53.817 9.008 13.402 394.088 o
5 1 24 3557.660 3445.260 101.506 2.109 o
5 1 25 171.658 194.003 33.835 78.203 o
5 1 26 169.629 295.509 23.509 72.461 o
5 1 27 184.666 108.097 29.661 90.525 o
5 2 0 93898.100 124146.000 2811.400 0.004 o
5 2 1 2119.150 2764.820 41.086 4.041 o
5 2 2 14705.000 18268.200 279.909 0.159 o
5 2 3 5319.900 5703.650 90.081 1.066 o
5 2 4 67771.900 78194.700 962.106 0.009 o
5 2 5 5529.000 3792.180 58.662 1.259 o
5 2 6 49505.500 55797.300 742.178 0.017 o
5 2 7 17774.700 17956.400 279.909 0.129 o
5 2 8 16379.600 16913.900 241.680 0.148 o
5 2 9 1373.580 1493.360 28.343 8.174 o
5 2 10 21120.700 23321.500 390.423 0.087 o
5 2 11 2279.880 2918.840 53.829 3.643 o
5 2 12 58899.500 70955.100 1032.190 0.011 o
5 2 13 138.874 169.835 9.008 111.381 o
5 2 14 5177.200 4499.860 87.664 1.247 o
5 2 15 196.021 368.672 12.743 63.072 o
5 2 16 61.379 74.262 8.569 256.008 o
5 2 17 125.491 139.515 17.577 121.760 o
5 2 18 5557.340 5900.730 127.431 0.983 o
5 2 19 2040.310 2101.300 56.245 4.768 o
5 2 20 688.163 795.347 25.926 18.965 o
5 2 21 478.081 417.667 24.168 32.145 o
5 2 22 5391.270 5634.220 165.002 1.021 o
5 2 23 547.449 565.092 36.911 25.077 o
5 2 24 2460.810 2550.160 79.754 3.567 o
5 2 25 0.089 -19.334 19.334 1469.520 o
5 2 26 1129.990 1189.940 50.094 10.354 o
5 2 27 55.341 57.344 19.994 254.405 o
5 2 28 54.816 56.245 19.994 257.140 o
5 3 1 9337.840 11871.300 157.092 0.360 o
5 3 2 19056.400 18576.800 228.937 0.116 o
5 3 3 216.677 52.511 6.591 103.005 o
5 3 4 47181.400 55290.300 683.515 0.018 o
5 3 5 3947.460 3085.160 61.079 2.037 o
5 3 6 312.228 349.997 17.577 47.677 o
5 3 7 83112.200 94373.900 1366.370 0.006 o
5 3 8 199.173 264.750 13.842 72.668 o
5 3 9 4260.050 3479.750 53.829 1.777 o
5 3 10 5013.660 6141.090 111.832 1.075 o
5 3 11 13069.200 13624.600 183.677 0.224 o
5 3 12 2458.950 2347.150 41.086 3.831 o
5 3 13 2572.400 2471.070 46.578 3.565 o
5 3 14 23810.800 24544.200 369.771 0.073 o
5 3 15 1346.430 1374.280 25.926 8.656 o
5 3 16 4291.040 3681.450 59.322 1.713 o
5 3 17 13531.300 15458.700 264.750 0.196 o
5 3 18 12136.000 12282.400 248.930 0.257 o
5 3 19 16.044 13.402 20.653 614.283 o
5 3 20 14703.800 15311.800 507.528 0.169 o
5 3 21 2849.740 3373.850 102.824 2.637 o
5 3 22 154.847 141.932 20.653 103.222 o
5 3 23 542.882 793.370 27.244 22.399 o
5 3 24 2735.890 3068.240 73.822 2.956 o
5 3 25 218.938 172.252 18.236 77.699 o
5 3 26 64.017 15.819 16.259 310.935 o
5 3 28 837.450 882.352 35.154 15.343 o
5 4 0 17136.400 23914.200 574.100 0.105 o
5 4 1 8771.990 9734.430 181.260 0.436 o
5 4 2 648.238 2077.570 60.420 10.413 o
5 4 3 3232.300 2327.160 53.829 2.870 o
5 4 4 5689.870 6377.940 150.501 0.907 o
5 4 5 4068.730 4423.620 88.323 1.629 o
5 4 6 2757.460 1939.370 33.176 3.705 o
5 4 7 12268.600 11661.100 170.494 0.266 o
5 4 8 236.200 743.935 27.903 36.267 o
5 4 9 449.491 1380.870 83.490 14.864 o
5 4 10 19076.600 22939.000 299.683 0.101 o
5 4 11 1030.120 970.455 23.070 12.678 o
5 4 12 6459.270 7108.690 109.415 0.755 o
5 4 13 2281.970 2317.050 49.654 4.121 o
5 4 14 257.146 362.081 14.501 53.932 o
5 4 15 391.129 413.932 10.986 38.621 o
5 4 16 127.723 112.491 11.425 134.620 o
5 4 17 5536.630 6513.500 106.998 0.939 o
5 4 18 1770.470 2558.730 80.414 4.721 o
5 4 19 371.456 600.026 23.509 33.025 o
5 4 20 631.148 769.861 38.010 19.935 o
5 4 21 88.339 105.680 23.509 154.694 o
5 4 22 213.723 294.410 21.092 64.488 o
5 4 23 132.944 130.507 22.410 115.154 o
5 4 24 99.313 78.656 19.994 164.315 o
5 4 25 36.652 109.415 19.994 237.115 o
5 4 26 127.297 82.171 18.236 139.651 o
5 4 27 1741.510 1918.060 67.670 5.657 o
5 4 28 194.493 178.843 24.168 80.517 o
5 5 0 7480.390 7870.200 169.176 0.594 o
5 5 1 11548.200 10681.400 158.410 0.301 o
5 5 2 26560.300 28115.100 475.670 0.058 o
5 5 3 33503.700 33311.600 466.003 0.039 o
5 5 4 8047.870 7011.360 111.173 0.592 o
5 5 5 14156.500 15554.100 279.250 0.185 o
5 5 6 43290.100 43534.300 595.851 0.024 o
5 5 7 240.038 193.344 19.994 69.623 o
5 5 8 121.855 240.582 13.842 100.567 o
5 5 9 78000.800 94667.000 1365.710 0.007 o
5 5 10 24290.600 21717.600 284.084 0.078 o
5 5 11 11756.400 15041.700 267.825 0.233 o
5 5 12 8822.280 7426.610 139.515 0.511 o
5 5 13 39.237 230.914 15.819 154.826 o
5 5 14 12779.000 13426.900 181.260 0.232 o
5 5 15 438.444 364.937 14.501 36.812 o
5 5 16 1261.020 1162.700 26.585 9.844 o
5 5 17 5814.680 6273.580 116.666 0.908 o
5 5 18 15991.300 17257.100 299.244 0.149 o
5 5 19 1243.580 1513.800 39.328 8.723 o
5 5 20 93.736 201.913 12.084 126.663 o
5 5 21 437.478 533.014 24.827 31.225 o
5 5 22 10777.600 13041.900 261.014 0.283 o
5 5 23 447.728 521.590 24.168 31.060 o
5 5 24 414.979 539.166 24.168 32.267 o
5 5 25 879.829 1249.050 41.745 12.445 o
5 5 26 3944.290 4004.860 90.081 1.772 o
5 5 27 92.116 74.262 18.236 178.904 o
5 5 28 18.406 22.410 24.827 448.054 o
5 6 0 5083.130 6482.080 177.086 0.991 o
5 6 1 191.144 206.746 14.501 81.995 o
5 6 2 4114.540 5203.810 102.824 1.454 o
5 6 3 10953.400 11706.300 188.510 0.302 o
5 6 4 1801.040 1463.040 33.176 6.408 o
5 6 5 18399.100 17194.200 271.341 0.127 o
5 6 6 1128.500 1316.720 30.759 10.196 o
5 6 7 1274.020 689.008 23.070 11.665 o
5 6 8 1365.320 1314.300 28.343 8.701 o
5 6 9 25060.400 25468.000 395.257 0.067 o
5 6 10 3249.460 3739.010 81.512 2.242 o
5 6 11 7175.490 7192.620 136.659 0.662 o
5 6 12 16961.300 20271.500 317.919 0.125 o
5 6 13 6887.280 8311.820 175.767 0.626 o
5 6 14 2638.250 2306.730 45.260 3.590 o
5 6 15 5513.060 5046.720 97.331 1.092 o
5 6 16 882.014 919.263 26.585 14.683 o
5 6 17 2317.850 2136.890 41.745 4.239 o
5 6 18 210.951 261.014 16.259 69.807 o
5 6 19 2888.590 3974.100 71.406 2.430 o
5 6 20 202.601 341.428 15.160 63.838 o
5 6 21 7724.700 9086.070 147.425 0.529 o
5 6 22 272.382 322.094 14.501 54.568 o
5 6 23 2178.090 2472.390 54.488 4.151 o
5 6 24 320.471 414.591 23.509 42.895 o
5 6 25 2114.930 2767.240 70.087 3.953 o
5 6 26 17.339 18.675 27.244 425.786 o
5 6 27 1468.850 1416.470 36.911 7.829 o
5 6 28 0.278 -21.092 27.903 703.829 o
5 7 0 20269.800 23262.400 569.266 0.089 o
5 7 1 14956.900 12901.100 209.603 0.195 o
5 7 2 1.294 -10.326 9.008 5118.280 o
5 7 3 11386.400 10307.400 161.926 0.313 o
5 7 4 70.467 123.916 9.008 190.088 o
5 7 5 46517.700 48915.200 732.510 0.020 o
5 7 6 2021.980 1910.370 42.404 5.086 o
5 7 7 3177.670 2356.820 49.654 2.916 o
5 7 8 1179.300 1061.850 27.244 10.827 o
5 7 9 38445.700 40286.800 610.352 0.029 o
5 7 10 260.233 112.931 12.084 76.721 o
5 7 11 36009.400 36456.600 552.349 0.034 o
5 7 12 1091.090 953.538 35.154 11.960 o
5 7 13 8707.670 7438.690 128.090 0.520 o
5 7 14 3209.480 3822.280 79.754 2.244 o
5 7 15 12117.400 12273.800 178.184 0.261 o
5 7 16 3561.380 3496.010 71.406 2.134 o
5 7 17 3402.720 2918.840 46.578 2.472 o
5 7 18 3783.300 3535.340 53.829 2.008 o
5 7 19 11595.900 13041.300 187.851 0.265 o
5 7 20 537.363 641.770 25.926 24.922 o
5 7 21 1196.560 1302.220 35.593 9.711 o
5 7 22 669.383 908.937 26.585 18.185 o
5 7 23 4181.470 3818.770 67.670 1.726 o
5 7 24 8.764 21.751 29.002 442.173 o
5 7 25 3622.080 3455.590 86.346 2.090 o
5 7 26 876.044 963.864 33.835 14.303 o
5 7 27 517.543 467.102 27.903 28.806 o
5 7 28 5.463 -10.986 30.759 521.241 o
5 8 0 597.001 750.527 29.661 21.415 o
5 8 1 5634.810 6688.170 107.657 0.907 o
5 8 2 6971.920 6199.750 100.847 0.750 o
5 8 3 616.361 851.593 36.911 19.422 o
5 8 4 1977.130 2153.150 46.578 4.892 o
5 8 5 6034.530 6517.010 129.409 0.850 o
5 8 6 933.083 976.607 26.585 13.675 o
5 8 7 401.022 435.683 19.334 36.548 o
5 8 8 6341.880 6564.690 119.741 0.804 o
5 8 9 7114.380 7704.540 123.257 0.645 o
5 8 10 338.927 413.932 13.842 42.524 o
5 8 11 2570.130 3596.860 62.837 2.881 o
5 8 12 7231.520 7114.180 113.590 0.665 o
5 8 13 351.215 312.426 18.675 45.480 o
5 8 14 975.493 1035.270 22.410 12.925 o
5 8 15 1337.480 1074.600 29.661 9.595 o
5 8 16 126.344 109.415 10.986 137.145 o
5 8 17 341.543 473.254 17.577 39.570 o
5 8 18 10.554 93.157 12.743 406.406 o
5 8 19 202.026 234.430 13.842 75.604 o
5 8 20 131.370 206.746 11.425 105.003 o
5 8 21 2935.540 3758.350 76.239 2.469 o
5 8 22 389.030 424.258 21.751 37.482 o
5 8 23 1163.020 1550.050 32.078 9.167 o
5 8 24 98.609 93.596 15.160 165.321 o
5 8 25 354.846 480.504 20.653 38.021 o
5 8 26 15.704 19.994 25.486 466.476 o
5 8 27 3.921 23.509 26.585 535.137 o
5 8 28 44.821 53.170 38.010 187.468 o
5 9 0 1376.490 1508.300 50.094 7.922 o
5 9 1 1633.790 1358.020 30.759 7.262 o
5 9 2 1856.080 1917.620 38.669 5.516 o
5 9 3 3070.370 2424.050 48.336 2.993 o
5 9 4 39.453 106.339 11.425 264.618 o
5 9 5 8380.390 7864.050 125.015 0.529 o
5 9 6 7425.120 7191.520 118.423 0.640 o
5 9 7 1069.930 1520.390 34.494 9.844 o
5 9 8 3411.910 3520.180 59.761 2.235 o
5 9 9 76.578 92.498 10.326 203.033 o
5 9 10 212.301 287.160 19.334 65.981 o
5 9 11 234.304 136.000 12.084 80.557 o
5 9 12 4937.690 4317.940 92.498 1.339 o
5 9 13 5259.590 5328.390 87.005 1.122 o
5 9 14 1835.670 1992.980 47.677 5.427 o
5 9 15 3528.770 3656.180 62.178 2.115 o
5 9 16 197.982 96.013 11.425 100.059 o
5 9 17 97.979 77.338 16.259 173.581 o
5 9 18 411.963 598.927 18.236 31.360 o
5 9 19 2881.020 2817.330 48.336 2.986 o
5 9 20 2669.300 2851.830 46.578 3.202 o
5 9 21 1741.940 1733.730 38.669 6.126 o
5 9 22 2402.900 2390.000 46.578 3.872 o
5 9 23 111.280 155.334 21.751 121.179 o
5 9 24 33.595 64.594 14.501 346.641 o
5 9 25 135.476 175.328 16.259 107.724 o
5 9 26 16.582 36.911 15.160 575.450 o
5 9 27 94.011 86.346 27.903 148.944 o
5 10 0 10493.000 10197.400 221.687 0.342 o
5 10 1 45200.100 40939.300 572.342 0.023 o
5 10 2 38.415 74.921 10.986 321.655 o
5 10 3 8222.370 6673.010 112.931 0.591 o
5 10 4 153.792 192.246 13.402 97.582 o
5 10 5 90199.500 99078.500 1322.870 0.005 o
5 10 6 1488.570 2090.310 47.677 6.318 o
5 10 7 30586.700 30368.600 410.856 0.047 o
5 10 8 12.087 100.407 12.084 380.300 o
5 10 9 18723.300 19109.400 302.100 0.116 o
5 10 10 2070.410 2083.060 42.843 4.778 o
5 10 11 12100.800 11146.100 170.934 0.277 o
5 10 12 1343.170 1423.280 35.154 8.464 o
5 10 13 20210.500 19679.800 307.593 0.104 o
5 10 14 721.551 447.108 15.160 22.716 o
5 10 15 9831.360 10344.100 170.494 0.371 o
5 10 16 648.188 670.113 25.926 21.309 o
5 10 17 14910.900 15377.000 203.011 0.177 o
5 10 18 82.811 111.173 15.819 172.256 o
5 10 19 4367.180 4485.360 69.428 1.515 o
5 10 20 57.871 9.667 12.743 373.815 o
5 10 21 2245.060 2765.920 51.412 3.813 o
5 10 22 1010.740 973.531 27.244 12.805 o
5 10 23 3053.770 3102.070 56.905 2.672 o
5 10 24 383.357 437.002 19.994 37.622 o
5 10 25 2416.900 2383.410 51.412 3.843 o
5 10 26 1.343 -27.244 16.259 1890.110 o
5 10 27 2086.090 2053.400 59.761 4.705 o
5 11 0 1219.720 1520.390 45.919 8.762 o
5 11 1 8707.350 8433.980 132.265 0.485 o
5 11 2 7479.390 7877.890 129.409 0.601 o
5 11 3 8806.400 8742.230 137.758 0.469 o
5 11 4 4859.870 5798.560 96.672 1.157 o
5 11 5 5241.910 4896.220 84.588 1.179 o
5 11 6 4950.520 5046.060 87.005 1.234 o
5 11 7 6361.180 6415.510 103.922 0.816 o
5 11 8 2734.650 3070.660 53.829 2.997 o
5 11 9 11401.800 10857.800 160.168 0.303 o
5 11 10 5635.730 5311.910 97.331 1.038 o
5 11 11 688.779 566.850 20.653 21.800 o
5 11 12 5463.970 5872.170 94.914 1.017 o
5 11 13 255.165 427.334 17.577 49.692 o
5 11 14 5601.680 4978.390 81.073 1.087 o
5 11 15 117.672 151.160 13.402 126.634 o
5 11 16 4203.720 3902.030 60.420 1.703 o
5 11 17 14770.300 15139.500 203.670 0.181 o
5 11 18 8332.040 8790.560 147.425 0.496 o
5 11 19 263.695 272.000 16.259 59.164 o
5 11 20 890.148 965.622 24.168 14.319 o
5 11 21 1344.330 1393.620 29.661 8.586 o
5 11 22 3183.300 3259.820 72.504 2.476 o
5 11 23 496.552 439.858 21.092 30.915 o
5 11 24 642.464 707.024 22.410 21.128 o
5 11 25 77.270 74.262 23.070 186.473 o
5 11 26 268.854 198.837 18.675 63.870 o
5 11 27 973.659 870.268 30.320 13.753 o
5 12 0 9330.820 8001.370 179.502 0.454 o
5 12 1 6118.770 5936.980 99.089 0.891 o
5 12 2 8617.530 9014.010 140.834 0.471 o
5 12 3 47941.700 49378.100 678.682 0.019 o
5 12 4 6616.850 6657.190 112.491 0.763 o
5 12 5 8444.560 8510.000 125.674 0.501 o
5 12 6 1148.520 1153.030 27.244 10.708 o
5 12 7 7095.000 7276.110 120.840 0.669 o
5 12 8 14.652 28.343 13.842 698.087 o
5 12 9 456.366 491.929 18.236 31.819 o
5 12 10 487.470 297.926 16.259 35.684 o
5 12 11 6229.370 5933.250 99.089 0.874 o
5 12 12 997.509 1236.520 28.343 11.624 o
5 12 13 4490.040 4304.540 70.087 1.502 o
5 12 14 572.829 537.848 21.092 25.749 o
5 12 15 7296.990 8127.040 127.431 0.607 o
5 12 16 288.247 258.598 21.092 55.458 o
5 12 17 4763.880 5307.730 80.414 1.253 o
5 12 18 132.467 131.826 14.501 122.510 o
5 12 19 23.230 30.320 16.259 518.700 o
5 12 20 131.095 174.010 15.819 110.517 o
5 12 21 4770.510 4372.210 71.406 1.394 o
5 12 22 0.776 -24.827 17.577 1698.690 o
5 12 23 1520.730 1369.450 37.570 7.690 o
5 12 24 411.839 337.913 16.918 39.438 o
5 12 25 597.585 621.338 20.653 23.603 o
5 12 26 148.238 152.918 21.751 102.819 o
5 13 0 35078.400 38123.300 907.179 0.033 o
5 13 1 12716.000 10674.800 166.759 0.267 o
5 13 2 162.226 137.758 16.259 104.012 o
5 13 3 104.227 189.829 16.918 120.027 o
5 13 4 354.984 310.010 17.577 45.381 o
5 13 5 15869.500 15678.700 231.354 0.162 o
5 13 6 2513.310 2470.410 44.161 3.653 o
5 13 7 6668.890 6036.510 102.824 0.800 o
5 13 8 648.355 829.182 25.926 19.448 o
5 13 9 6454.740 5775.490 96.013 0.852 o
5 13 10 58.221 95.573 13.842 226.513 o
5 13 11 360.530 319.018 18.236 44.346 o
5 13 12 64.887 77.338 15.819 226.012 o
5 13 13 313.198 416.349 19.334 44.078 o
5 13 14 451.384 439.858 18.236 33.474 o
5 13 15 10845.700 10672.400 162.585 0.325 o
5 13 16 1677.440 1726.470 45.260 6.311 o
5 13 17 47.230 52.511 13.402 320.207 o
5 13 18 2096.880 2232.900 41.745 4.569 o
5 13 19 3079.390 2865.670 49.654 2.765 o
5 13 20 2228.100 2197.970 42.404 4.346 o
5 13 21 651.031 673.848 27.903 21.104 o
5 13 22 201.259 383.832 25.926 57.639 o
5 13 23 310.683 294.850 23.070 49.912 o
5 13 24 2061.150 1775.470 39.328 5.167 o
5 13 25 1783.430 1707.800 43.502 6.009 o
5 13 26 115.531 97.990 21.092 138.733 o
5 14 1 238.126 102.824 15.160 83.207 o
5 14 2 474.214 372.846 23.509 33.623 o
5 14 3 222.460 144.349 13.402 82.336 o
5 14 4 9468.720 8808.140 139.515 0.428 o
5 14 5 1172.010 756.019 25.486 12.290 o
5 14 6 819.430 592.336 21.092 18.506 o
5 14 7 202.695 213.997 13.842 78.038 o
5 14 8 4084.370 4195.790 92.498 1.666 o
5 14 9 4806.790 5173.710 100.847 1.249 o
5 14 10 163.293 125.015 18.236 105.075 o
5 14 11 417.713 495.005 19.334 33.732 o
5 14 12 18481.300 19636.900 281.667 0.116 o
5 14 13 2531.080 2691.660 46.578 3.472 o
5 14 14 3.273 -7.250 13.842 2129.730 o
5 14 15 2964.710 2770.310 47.677 2.925 o
5 14 16 847.308 773.596 27.903 16.221 o
5 14 17 467.736 480.943 19.334 31.447 o
5 14 18 1366.400 1310.780 29.661 8.694 o
5 14 19 123.398 64.155 16.918 152.545 o
5 14 20 128.467 127.431 16.918 124.284 o
5 14 21 449.137 507.089 22.410 31.493 o
5 14 22 213.851 162.585 19.994 79.581 o
5 14 23 119.901 148.084 23.070 116.770 o
5 14 24 14.610 -4.174 16.918 937.463 o
5 14 25 406.440 321.435 24.827 39.526 o
5 15 0 2151.020 2319.470 86.346 4.189 o
5 15 1 9230.790 7883.380 135.341 0.469 o
5 15 2 10051.600 8618.310 136.659 0.403 o
5 15 3 741.154 1044.280 28.343 15.758 o
5 15 4 4089.500 3764.940 67.011 1.781 o
5 15 5 13777.200 14567.200 215.754 0.201 o
5 15 6 14075.600 14207.100 211.580 0.199 o
5 15 7 369.200 244.756 18.675 47.062 o
5 15 8 40570.500 41435.000 570.585 0.027 o
5 15 9 3353.290 2847.650 50.094 2.536 o
5 15 10 1597.710 2003.970 47.237 6.105 o
5 15 11 9086.850 9794.850 172.252 0.419 o
5 15 12 58076.400 61529.300 847.858 0.013 o
5 15 13 1044.530 1053.940 30.759 12.001 o
5 15 14 13.936 29.661 15.160 666.849 o
5 15 15 1345.120 1202.690 30.759 9.128 o
5 15 16 18500.200 19710.100 311.767 0.115 o
5 15 17 270.414 362.520 23.509 50.562 o
5 15 18 33.502 15.819 16.259 489.443 o
5 15 19 4153.120 3673.100 62.837 1.776 o
5 15 20 1367.570 1120.960 29.661 9.252 o
5 15 21 451.432 500.278 26.585 31.184 o
5 15 22 3428.030 3746.920 71.406 2.139 o
5 15 23 199.220 212.019 24.827 74.674 o
5 15 24 806.673 703.948 30.759 17.403 o
5 15 25 1393.230 1345.280 44.161 8.314 o
5 16 0 666.917 685.932 33.835 20.295 o
5 16 1 5045.600 4442.300 77.338 1.297 o
5 16 2 23616.800 22793.300 359.005 0.078 o
5 16 3 1513.880 1299.360 30.759 7.941 o
5 16 4 819.431 647.922 23.070 17.916 o
5 16 5 6292.340 7169.770 130.507 0.767 o
5 16 6 5305.800 5785.160 99.089 1.057 o
5 16 7 3154.540 3033.740 55.586 2.616 o
5 16 8 9385.230 9253.490 147.425 0.420 o
5 16 9 2027.530 1876.980 45.260 5.101 o
5 16 10 482.231 362.081 21.092 33.696 o
5 16 11 1822.470 1853.470 48.995 5.647 o
5 16 12 13763.600 14953.400 222.346 0.198 o
5 16 13 3520.790 3310.580 61.079 2.231 o
5 16 14 809.653 659.347 28.343 17.835 o
5 16 15 4.660 -10.326 15.819 1592.930 o
5 16 16 2114.770 2023.960 39.328 4.757 o
5 16 17 194.471 147.425 18.675 88.301 o
5 16 18 399.145 339.670 23.509 39.570 o
5 16 19 2576.320 2704.400 59.322 3.377 o
5 16 20 3456.410 3879.190 76.678 2.075 o
5 16 21 2.057 -1.758 19.334 1326.020 o
5 16 22 3997.780 3939.610 71.845 1.779 o
5 16 23 1091.390 904.103 31.418 12.263 o
5 16 24 933.966 785.680 38.010 14.594 o
5 17 0 3216.210 4871.390 136.659 1.849 o
5 17 1 4.343 90.081 17.577 411.748 o
5 17 2 6411.370 8030.810 137.758 0.699 o
5 17 3 755.467 1170.610 32.078 14.570 o
5 17 4 2039.040 2316.390 53.170 4.560 o
5 17 5 149.968 152.258 19.334 104.122 o
5 17 6 2040.700 1911.470 51.412 5.002 o
5 17 7 241.790 274.417 20.653 61.452 o
5 17 8 10040.200 10681.400 166.759 0.355 o
5 17 9 59.753 19.994 13.842 333.325 o
5 17 10 10674.300 10951.000 184.336 0.325 o
5 17 11 1988.680 1980.460 43.502 5.078 o
5 17 12 7390.050 7012.020 126.992 0.651 o
5 17 13 63.188 92.498 20.653 200.988 o
5 17 14 11297.500 11174.600 187.851 0.300 o
5 17 15 2525.840 2544.890 53.170 3.563 o
5 17 16 8311.040 8229.650 132.265 0.519 o
5 17 17 636.885 666.598 30.759 21.413 o
5 17 18 438.089 435.683 29.661 33.221 o
5 17 19 130.957 171.593 21.751 106.424 o
5 17 20 303.250 341.428 23.070 48.158 o
5 17 21 52.700 126.992 21.092 189.556 o
5 17 22 579.481 691.864 30.759 22.603 o
5 17 23 67.171 89.422 23.509 188.667 o
5 18 0 54077.600 53541.400 1035.270 0.015 o
5 18 1 346.236 400.090 21.751 41.589 o
5 18 2 36452.500 34363.800 484.019 0.034 o
5 18 3 7839.780 7403.540 118.423 0.592 o
5 18 4 42002.500 39761.600 513.680 0.026 o
5 18 5 1311.820 1233.450 30.320 9.242 o
5 18 6 19051.100 18382.400 252.006 0.117 o
5 18 7 119.508 148.743 19.334 120.856 o
5 18 8 23174.500 23369.100 341.428 0.078 o
5 18 9 1247.490 1238.940 34.494 9.595 o
5 18 10 19560.800 19339.000 312.426 0.109 o
5 18 11 624.584 735.367 27.903 20.998 o
5 18 12 6459.320 6627.090 139.076 0.779 o
5 18 13 299.992 344.504 25.926 47.758 o
5 18 14 6228.110 5405.070 111.832 0.913 o
5 18 15 572.905 607.935 25.486 24.343 o
5 18 16 7336.830 7698.390 129.409 0.622 o
5 18 17 1132.560 1103.600 39.987 10.854 o
5 18 18 18554.800 19159.500 289.577 0.117 o
5 18 19 734.295 621.777 32.737 19.557 o
5 18 20 13737.600 13843.200 207.186 0.208 o
5 18 21 397.013 374.604 30.759 37.423 o
5 18 22 6010.380 5855.910 100.847 0.916 o
5 18 23 588.157 658.688 39.987 22.226 o
5 19 0 14991.500 18280.900 380.097 0.153 o
5 19 1 4107.650 3712.430 67.011 1.785 o
5 19 2 4376.050 5289.060 90.081 1.364 o
5 19 3 675.821 569.266 23.509 22.002 o
5 19 4 5219.950 5951.920 93.596 1.059 o
5 19 5 891.927 1102.280 30.320 13.352 o
5 19 6 7210.280 7099.680 129.409 0.665 o
5 19 7 2760.520 2732.740 50.753 3.159 o
5 19 8 372.918 482.262 23.070 36.479 o
5 19 9 14.866 67.011 15.819 437.906 o
5 19 10 739.007 732.510 30.320 18.417 o
5 19 11 1013.970 1120.960 34.494 11.909 o
5 19 12 233.774 105.680 18.675 82.585 o
5 19 13 2185.530 2444.480 64.594 4.124 o
5 19 14 7130.280 6946.760 118.423 0.684 o
5 19 15 341.668 276.834 27.903 46.524 o
5 19 16 5800.130 6079.570 112.931 0.929 o
5 19 17 1361.280 1223.120 38.669 8.889 o
5 19 18 447.733 612.110 31.418 28.384 o
5 19 19 153.424 234.430 23.509 84.757 o
5 19 20 1160.180 1199.610 34.494 10.349 o
5 19 21 641.184 566.850 35.593 22.332 o
5 19 22 525.067 542.023 27.903 26.997 o
5 20 0 28788.400 28868.000 578.934 0.051 o
5 20 1 4286.460 4333.540 77.997 1.568 o
5 20 2 8587.380 8061.790 130.507 0.506 o
5 20 3 470.035 559.599 25.926 29.021 o
5 20 4 2578.500 2883.240 54.488 3.276 o
5 20 5 46.880 32.737 23.070 297.088 o
5 20 6 4808.340 4822.620 79.095 1.309 o
5 20 7 4108.660 3928.180 73.163 1.730 o
5 20 8 2340.370 2364.730 51.412 3.978 o
5 20 9 3360.180 3798.770 67.670 2.169 o
5 20 10 5452.650 6173.830 103.263 0.987 o
5 20 11 59.542 133.583 20.653 177.178 o
5 20 12 146.405 100.407 24.827 113.307 o
5 20 13 195.596 194.662 24.827 77.740 o
5 20 14 7134.200 7790.890 131.826 0.637 o
5 20 15 178.045 230.914 24.168 77.945 o
5 20 16 1677.190 1783.380 49.654 6.188 o
5 20 17 6113.500 5832.840 108.756 0.898 o
5 20 18 4343.280 4368.700 85.906 1.534 o
5 20 19 93.948 38.669 23.070 188.022 o
5 20 20 2434.030 2366.490 61.079 3.801 o
5 20 21 977.788 983.858 37.570 12.903 o
5 21 0 274.481 221.687 38.010 54.352 o
5 21 1 14.530 103.263 23.509 284.456 o
5 21 2 750.431 743.935 30.759 18.070 o
5 21 3 1116.420 1236.520 38.010 10.490 o
5 21 4 2440.760 2373.740 48.995 3.820 o
5 21 5 319.919 320.995 27.244 46.634 o
5 21 6 95.381 36.911 22.410 189.175 o
5 21 7 478.342 451.502 25.926 31.122 o
5 21 8 14052.700 14482.600 207.845 0.197 o
5 21 9 5909.890 6502.510 102.824 0.878 o
5 21 10 1791.030 1748.890 45.919 5.909 o
5 21 11 276.554 241.680 27.903 56.399 o
5 21 12 6795.470 7226.010 155.994 0.696 o
5 21 13 15.235 25.486 29.002 388.043 o
5 21 14 1824.600 1920.040 50.753 5.539 o
5 21 15 138.567 213.997 33.176 85.224 o
5 21 16 2988.690 2930.920 62.178 2.800 o
5 21 17 15.494 49.654 23.509 396.224 o
5 21 18 9.027 10.326 30.759 445.156 o
5 21 19 43.600 83.929 23.509 234.291 o
5 21 20 707.497 750.527 37.570 18.555 o
5 22 0 183.818 385.590 38.669 55.239 o
5 22 1 6126.540 5350.800 95.573 0.941 o
5 22 2 984.756 1253.440 39.987 11.470 o
5 22 3 214.420 222.346 28.343 68.445 o
5 22 4 96.331 47.677 21.751 182.352 o
5 22 5 2028.820 2206.320 45.919 4.723 o
5 22 6 210.592 395.257 25.486 55.610 o
5 22 7 753.079 777.111 33.176 17.623 o
5 22 8 110.268 186.753 27.244 107.035 o
5 22 9 311.177 640.013 33.176 34.152 o
5 22 10 1958.780 1997.820 50.094 5.099 o
5 22 11 140.123 420.084 29.661 63.206 o
5 22 12 189.049 359.005 30.320 59.870 o
5 22 13 46.239 53.829 22.410 270.668 o
5 22 14 485.149 513.680 32.078 28.816 o
5 22 15 1038.080 936.181 48.995 12.246 o
5 22 16 58.272 71.406 24.827 212.221 o
5 22 17 776.664 921.021 36.252 15.922 o
5 22 18 69.042 83.490 23.070 191.569 o
5 22 19 837.516 686.591 32.737 16.950 o
5 23 0 4346.450 3920.270 116.006 1.592 o
5 23 1 4506.710 5415.390 93.157 1.303 o
5 23 2 480.375 432.607 32.078 30.859 o
5 23 3 112.164 209.163 28.343 100.058 o
5 23 4 679.839 612.769 29.002 21.097 o
5 23 5 2737.550 2689.900 56.905 3.197 o
5 23 6 2921.620 2962.340 59.761 2.853 o
5 23 7 8103.180 8132.320 136.659 0.538 o
5 23 8 37.852 38.669 25.926 295.326 o
5 23 9 2029.960 2723.080 59.761 4.171 o
5 23 10 4741.810 4660.030 90.081 1.348 o
5 23 11 1572.060 1828.640 50.753 6.458 o
5 23 12 1687.790 1472.710 42.404 6.744 o
5 23 13 1295.480 1132.600 40.426 9.555 o
5 23 14 5450.750 5403.310 99.089 1.066 o
5 23 15 98.229 61.079 33.176 143.636 o
5 23 16 25.045 39.987 32.078 280.366 o
5 23 17 1204.570 1060.540 39.987 10.458 o
5 24 0 159.451 316.161 46.578 59.752 o
5 24 1 148.847 139.076 28.343 99.383 o
5 24 2 1449.260 1495.120 48.995 7.625 o
5 24 3 4074.940 3724.950 74.262 1.791 o
5 24 4 1440.660 1278.710 40.426 8.280 o
5 24 5 5085.360 5124.720 103.922 1.181 o
5 24 6 65.662 42.843 25.926 220.076 o
5 24 7 158.205 123.257 33.176 93.802 o
5 24 8 68.717 120.181 28.343 155.644 o
5 24 9 325.538 359.664 31.418 43.388 o
5 24 10 959.780 969.357 38.010 13.169 o
5 24 11 277.933 310.010 32.078 50.540 o
5 24 12 28.418 7.250 29.661 356.977 o
5 24 13 521.968 592.336 38.010 25.379 o
5 24 14 1609.270 1501.050 49.654 6.933 o
5 24 15 1381.630 1405.700 46.578 8.191 o
5 24 16 11.654 31.418 32.737 336.538 o
5 25 0 3250.540 2959.480 86.346 2.516 o
5 25 1 211.268 228.937 32.078 66.554 o
5 25 2 5980.520 5521.730 100.847 0.950 o
5 25 3 1181.890 984.517 38.669 10.959 o
5 25 4 2552.640 2668.810 61.738 3.424 o
5 25 5 149.128 114.249 42.843 87.484 o
5 25 6 1031.040 1064.930 43.502 11.832 o
5 25 7 249.971 307.593 34.494 53.301 o
5 25 8 616.281 627.270 38.010 22.031 o
5 25 9 2301.760 2552.580 61.738 3.858 o
5 25 10 430.417 510.604 33.835 31.187 o
5 25 11 500.231 428.433 33.835 29.840 o
5 25 12 1553.100 1556.640 48.336 7.057 o
5 25 13 106.632 131.166 39.987 104.056 o
5 25 14 382.405 431.509 39.987 34.998 o
5 26 0 613.697 638.255 49.654 21.098 o
5 26 1 9876.160 9115.730 146.326 0.399 o
5 26 2 594.001 516.756 34.494 24.540 o
5 26 3 6651.080 7022.780 116.006 0.735 o
5 26 4 4.455 11.425 30.759 477.313 o
5 26 5 2948.650 3066.260 78.656 2.742 o
5 26 6 35.011 49.654 36.911 211.034 o
5 26 7 7666.450 7841.640 136.000 0.585 o
5 26 8 254.824 294.850 34.494 53.495 o
5 26 9 1263.330 1200.710 42.843 9.510 o
5 26 10 14.619 -19.994 35.593 351.674 o
5 26 11 1308.940 1252.780 44.161 9.045 o
5 26 12 118.111 72.504 21.751 146.001 o
5 27 0 7007.110 6184.590 161.267 0.731 o
5 27 1 2378.980 2213.570 54.927 4.028 o
5 27 2 75.096 68.330 30.320 170.616 o
5 27 3 85.965 117.764 30.759 136.537 o
5 27 4 1162.360 1227.300 44.161 10.088 o
5 27 5 2343.270 2435.480 62.837 3.881 o
5 27 6 404.836 475.011 37.570 32.902 o
5 27 7 1543.580 1037.030 41.086 8.367 o
5 27 8 1856.280 2022.640 54.927 5.297 o
5 27 9 736.865 828.523 45.919 16.913 o
5 27 10 748.876 616.943 47.677 18.519 o
5 28 0 422.465 497.861 56.905 28.456 o
5 28 1 11.319 32.078 32.078 345.563 o
5 28 2 0.909 -1.318 44.161 280.355 o
5 28 3 687.716 594.753 44.821 20.221 o
5 28 4 158.413 134.242 39.328 85.430 o
5 28 5 637.006 635.179 44.161 20.982 o
5 28 6 535.047 522.688 44.821 25.454 o
5 28 7 39.563 25.486 48.336 160.941 o
6 0 0 89054.100 125620.000 4002.440 0.004 o
6 0 1 30095.800 23360.800 403.606 0.056 o
6 0 2 5126.350 9619.750 206.087 0.734 o
6 0 3 13208.400 11736.000 215.754 0.240 o
6 0 4 111383.000 149210.000 3396.260 0.003 o
6 0 5 1429.110 1689.780 41.745 7.351 o
6 0 6 13262.300 14951.000 273.758 0.204 o
6 0 7 12040.600 11045.900 230.255 0.277 o
6 0 8 22737.500 20828.000 364.937 0.086 o
6 0 9 279.721 349.997 25.926 49.669 o
6 0 10 85882.000 98079.500 1833.470 0.006 o
6 0 11 5270.350 5238.310 112.491 1.119 o
6 0 13 6751.250 7893.050 172.252 0.661 o
6 0 14 9288.050 9309.520 235.089 0.413 o
6 0 15 352.057 474.352 24.827 37.934 o
6 0 16 126.755 149.183 21.092 114.817 o
6 0 17 2392.380 2099.980 51.412 4.112 o
6 0 20 4513.800 5664.980 151.160 1.226 o
6 0 23 13.233 17.577 19.334 664.423 o
6 0 24 76.185 65.913 19.994 203.450 o
6 1 0 6029.620 2871.160 60.420 1.248 o
6 1 1 121.305 123.916 10.326 135.938 o
6 1 2 5206.670 5463.730 76.678 1.123 o
6 1 3 870.561 1454.690 24.827 11.835 o
6 1 4 21981.500 23582.500 293.751 0.084 o
6 1 5 403.878 79.754 12.084 53.535 o
6 1 6 78680.600 89160.800 1089.540 0.007 o
6 1 7 3888.200 4397.040 70.087 1.726 o
6 1 8 6216.280 5987.070 80.414 0.876 o
6 1 9 3674.310 4106.360 62.178 1.906 o
6 1 10 18649.900 20534.500 288.918 0.111 o
6 1 11 10613.400 11708.700 155.994 0.315 o
6 1 12 7413.540 7914.800 123.916 0.606 o
6 1 13 2007.750 2242.130 48.995 4.718 o
6 1 14 12940.400 12681.800 205.428 0.236 o
6 1 15 290.911 469.518 13.402 44.370 o
6 1 16 4975.350 4635.860 82.171 1.287 o
6 1 17 14.986 12.743 8.569 1068.600 o
6 1 18 13241.200 13827.000 245.855 0.216 o
6 1 19 96.809 68.989 13.842 184.634 o
6 1 20 4618.780 5067.370 97.990 1.319 o
6 1 21 345.262 246.514 19.994 49.325 o
6 1 22 9336.520 10858.500 283.425 0.368 o
6 1 23 88.003 73.822 19.994 180.533 o
6 1 24 4097.140 4664.870 134.242 1.525 o
6 1 25 8.223 11.425 17.577 923.769 o
6 1 26 5381.060 6411.990 172.252 0.946 o
6 1 27 346.397 499.838 32.078 36.428 o
6 1 28 117.410 76.239 24.168 140.899 o
6 2 0 2054.240 2857.760 88.763 3.894 o
6 2 1 1195.890 866.094 19.334 11.609 o
6 2 2 44502.000 54009.100 624.853 0.020 o
6 2 3 2344.280 1871.040 30.320 4.467 o
6 2 4 24166.800 27687.100 334.178 0.067 o
6 2 5 6128.230 7257.870 102.165 0.791 o
6 2 6 13267.300 13818.400 183.677 0.218 o
6 2 7 16747.500 16235.800 236.846 0.148 o
6 2 8 1736.860 1465.460 35.593 6.619 o
6 2 9 2771.210 2518.310 41.086 3.288 o
6 2 10 51052.400 54681.700 732.950 0.016 o
6 2 11 3692.990 4043.530 65.254 1.910 o
6 2 12 8895.380 8045.970 151.599 0.483 o
6 2 13 7.118 5.493 6.591 2230.010 o
6 2 14 5438.460 6161.740 106.998 0.989 o
6 2 15 52.625 52.511 9.008 317.065 o
6 2 16 13458.900 14264.400 247.832 0.208 o
6 2 17 122.310 236.846 17.577 99.038 o
6 2 18 12534.700 13150.700 203.011 0.240 o
6 2 19 1215.330 1198.290 30.320 10.002 o
6 2 20 3674.020 4012.770 93.157 1.898 o
6 2 21 30.542 22.410 13.842 519.712 o
6 2 22 7552.940 8649.070 224.762 0.543 o
6 2 23 414.782 458.753 25.486 34.361 o
6 2 24 2903.620 2975.080 127.431 2.688 o
6 2 25 31.477 26.585 20.653 405.652 o
6 2 26 1647.250 2082.400 71.845 5.657 o
6 2 27 4.568 -30.320 29.002 590.094 o
6 2 28 564.288 686.591 65.913 20.231 o
6 2 29 204.295 187.851 27.903 74.715 o
6 3 1 990.084 1154.790 29.661 12.057 o
6 3 2 5387.090 6578.750 110.514 0.959 o
6 3 3 279.692 265.848 9.008 58.307 o
6 3 4 15361.000 14126.600 208.504 0.179 o
6 3 5 11399.200 13595.600 199.935 0.262 o
6 3 6 962.333 618.921 23.070 15.751 o
6 3 7 6258.630 6783.520 106.339 0.804 o
6 3 8 35483.000 35562.800 452.601 0.035 o
6 3 9 164.022 159.509 10.986 101.179 o
6 3 10 10711.400 11362.500 243.438 0.312 o
6 3 11 3646.860 3921.370 70.087 1.962 o
6 3 12 472.597 194.662 16.918 40.267 o
6 3 13 4223.170 4471.300 67.011 1.573 o
6 3 14 2900.430 3057.250 47.677 2.847 o
6 3 15 24.995 60.420 6.591 460.612 o
6 3 16 4520.290 4727.040 76.678 1.415 o
6 3 17 373.538 204.330 22.410 48.098 o
6 3 18 3069.610 4264.770 83.929 2.185 o
6 3 19 834.681 757.777 27.244 16.570 o
6 3 20 353.783 369.331 24.827 41.784 o
6 3 21 1477.980 1434.040 48.995 7.633 o
6 3 22 49.772 47.237 16.918 301.895 o
6 3 23 96.710 102.824 22.410 150.349 o
6 3 24 2931.300 3632.670 110.514 2.449 o
6 3 25 20.037 11.425 19.994 590.652 o
6 3 26 179.718 219.929 21.092 80.555 o
6 3 27 13.901 19.994 18.236 666.120 o
6 4 1 39508.600 45467.100 533.674 0.026 o
6 4 2 652.013 621.777 21.751 22.006 o
6 4 3 17416.300 19567.500 241.021 0.125 o
6 4 4 15683.600 15818.800 230.255 0.163 o
6 4 5 3630.920 2637.170 59.322 2.391 o
6 4 6 40703.800 38919.700 492.588 0.028 o
6 4 7 6621.430 5765.170 102.165 0.826 o
6 4 8 30025.700 29202.900 442.934 0.049 o
6 4 9 15921.700 10864.600 203.670 0.196 o
6 4 10 9337.950 8429.140 142.591 0.446 o
6 4 11 23291.800 21291.600 331.102 0.082 o
6 4 12 4142.430 4297.950 75.580 1.634 o
6 4 13 5314.370 4540.950 81.073 1.208 o
6 4 14 873.506 696.258 32.737 16.278 o
6 4 15 3341.360 3792.840 55.586 2.196 o
6 4 16 3930.400 4070.110 71.406 1.780 o
6 4 17 6306.090 7586.780 124.575 0.741 o
6 4 18 517.278 825.008 24.827 22.788 o
6 4 19 11496.400 13876.600 216.414 0.255 o
6 4 20 3114.230 4299.710 98.430 2.124 o
6 4 21 234.326 349.997 26.585 55.140 o
6 4 22 1178.730 1530.050 47.677 8.947 o
6 4 23 2568.880 3189.520 100.847 2.989 o
6 4 24 510.568 844.342 38.010 21.956 o
6 4 25 2696.560 2855.340 71.845 3.115 o
6 4 26 2012.100 2271.570 52.071 4.666 o
6 4 27 1053.800 991.767 43.502 11.962 o
6 5 0 1497.870 1376.700 61.738 7.525 o
6 5 1 9787.030 8401.240 140.174 0.422 o
6 5 2 13292.600 12483.400 205.428 0.230 o
6 5 3 11434.100 13405.800 197.079 0.264 o
6 5 4 1094.500 1061.850 30.759 11.502 o
6 5 5 672.976 601.344 21.751 21.722 o
6 5 6 76.785 53.829 12.743 234.136 o
6 5 7 18077.300 16661.200 240.582 0.133 o
6 5 8 9250.560 8346.970 161.926 0.451 o
6 5 9 17183.900 12343.900 201.254 0.167 o
6 5 10 1327.510 1572.460 30.759 8.190 o
6 5 11 20541.700 20207.300 267.825 0.100 o
6 5 12 3861.870 3931.700 96.013 1.822 o
6 5 13 5508.350 4909.620 80.414 1.116 o
6 5 14 3077.570 3231.260 54.488 2.599 o
6 5 15 2857.230 1796.560 37.570 3.656 o
6 5 16 10923.400 10845.700 174.669 0.319 o
6 5 17 1534.970 1617.280 29.661 7.140 o
6 5 18 618.261 663.522 23.509 22.284 o
6 5 19 5110.710 5294.990 87.664 1.161 o
6 5 20 687.274 1242.460 54.927 14.237 o
6 5 21 137.379 204.330 15.819 100.594 o
6 5 22 483.785 413.932 24.827 31.888 o
6 5 23 307.496 261.674 22.410 52.418 o
6 5 24 228.671 187.412 23.509 71.343 o
6 5 25 3559.570 3636.850 92.498 2.065 o
6 5 26 851.649 1101.180 35.593 13.713 o
6 5 27 820.582 805.014 33.835 16.220 o
6 5 28 156.354 137.758 30.759 94.295 o
6 6 0 374.810 919.263 36.911 24.930 o
6 6 1 8568.330 8350.050 116.006 0.499 o
6 6 2 8537.610 6966.100 140.174 0.549 o
6 6 3 43454.700 44423.900 601.344 0.023 o
6 6 4 2169.580 1619.700 38.010 5.097 o
6 6 5 961.799 603.761 25.926 15.811 o
6 6 6 1988.280 1769.980 44.821 5.334 o
6 6 7 36075.900 35040.500 684.174 0.034 o
6 6 8 2565.870 2828.320 58.662 3.315 o
6 6 9 23299.000 23461.600 410.856 0.077 o
6 6 10 5212.070 5238.310 94.914 1.141 o
6 6 11 11418.200 10566.000 159.509 0.307 o
6 6 12 638.254 669.014 24.168 21.651 o
6 6 13 659.847 455.018 25.486 24.014 o
6 6 14 214.962 139.076 11.425 86.036 o
6 6 15 10491.900 11890.700 245.855 0.310 o
6 6 16 3592.950 3204.680 66.572 2.212 o
6 6 17 4952.190 5396.720 100.847 1.182 o
6 6 18 1412.990 1459.970 32.737 8.028 o
6 6 19 1481.490 1657.710 47.237 7.152 o
6 6 20 164.267 327.586 19.994 71.498 o
6 6 21 9613.460 11455.600 201.913 0.354 o
6 6 22 3221.120 3402.860 67.011 2.401 o
6 6 23 2580.030 2857.760 63.496 3.269 o
6 6 24 23.157 -13.402 23.509 534.196 o
6 6 25 1577.550 1787.550 48.336 6.529 o
6 6 26 1474.500 1719.880 45.919 7.065 o
6 6 27 2597.030 3082.740 140.174 2.867 o
6 6 28 73.088 120.181 35.154 135.458 o
6 7 0 18722.600 17608.200 438.100 0.119 o
6 7 1 2278.120 1704.280 38.010 4.754 o
6 7 2 10759.200 9663.690 160.168 0.347 o
6 7 3 32801.900 31104.700 485.777 0.042 o
6 7 4 651.705 436.342 14.501 25.057 o
6 7 5 649.454 689.447 23.070 21.149 o
6 7 6 56.864 86.346 9.667 249.855 o
6 7 7 31953.900 31113.700 482.262 0.043 o
6 7 8 3365.100 3351.660 60.420 2.324 o
6 7 9 41514.600 44688.600 668.355 0.024 o
6 7 10 4987.760 4737.810 81.073 1.269 o
6 7 11 50107.800 52691.100 788.097 0.017 o
6 7 12 2231.320 2656.500 62.837 3.883 o
6 7 13 30852.100 31991.200 485.338 0.044 o
6 7 14 186.550 458.094 24.827 54.781 o
6 7 15 7852.450 8144.400 155.994 0.554 o
6 7 16 302.234 394.598 14.501 46.799 o
6 7 17 10363.100 9432.330 142.591 0.370 o
6 7 18 1468.200 1481.280 31.418 7.720 o
6 7 19 3459.450 3175.020 54.927 2.326 o
6 7 20 4655.900 5217.650 91.838 1.290 o
6 7 21 5097.790 5154.820 89.422 1.181 o
6 7 22 2121.190 2045.710 40.426 4.717 o
6 7 23 718.502 860.601 23.509 17.803 o
6 7 24 537.730 558.940 29.002 26.137 o
6 7 25 1048.040 1314.300 40.426 10.680 o
6 7 26 141.170 155.334 27.244 100.299 o
6 7 27 6853.800 7449.460 165.661 0.675 o
6 7 28 489.199 357.247 41.086 31.099 o
6 8 0 12149.400 10872.300 286.501 0.273 o
6 8 1 969.617 1909.050 52.071 8.999 o
6 8 2 1745.350 2021.980 39.987 5.673 o
6 8 3 79.062 125.015 12.743 173.221 o
6 8 4 437.290 348.019 15.819 37.357 o
6 8 5 4172.530 5612.910 104.582 1.367 o
6 8 6 973.715 877.518 24.827 13.813 o
6 8 7 50046.200 52746.000 790.953 0.017 o
6 8 8 1143.360 1411.630 35.154 9.706 o
6 8 9 18960.900 20672.700 306.934 0.109 o
6 8 10 3790.270 3986.620 70.087 1.870 o
6 8 11 11057.200 12640.100 208.504 0.284 o
6 8 12 2155.010 2463.160 51.412 4.209 o
6 8 13 1427.660 1734.380 42.404 7.257 o
6 8 14 130.913 159.509 15.160 114.890 o
6 8 15 4729.060 4804.380 80.414 1.335 o
6 8 16 1006.750 982.100 21.751 12.883 o
6 8 17 731.765 522.029 21.092 21.255 o
6 8 18 11.010 39.987 11.425 711.954 o
6 8 19 390.738 359.664 19.334 39.962 o
6 8 20 132.258 103.263 12.084 134.171 o
6 8 21 228.895 218.171 10.986 71.875 o
6 8 22 0.483 18.675 13.842 1398.250 o
6 8 23 150.659 188.510 16.259 98.122 o
6 8 24 396.245 350.436 17.577 40.081 o
6 8 25 760.257 772.937 23.509 17.842 o
6 8 26 256.369 317.919 28.343 53.819 o
6 8 27 779.315 749.428 40.426 17.113 o
6 9 0 2437.960 2116.900 61.738 3.988 o
6 9 1 62630.800 67411.200 998.358 0.011 o
6 9 2 607.788 632.103 19.334 23.192 o
6 9 3 2888.880 2496.990 47.237 3.153 o
6 9 4 1306.320 635.838 21.092 11.634 o
6 9 5 52197.600 54304.000 816.439 0.016 o
6 9 6 4186.560 3796.350 82.830 1.716 o
6 9 7 1470.510 1289.690 43.502 8.069 o
6 9 8 6130.360 6014.760 99.089 0.883 o
6 9 9 9600.250 9341.590 178.184 0.404 o
6 9 10 1220.210 1751.960 36.911 8.230 o
6 9 11 520.390 322.753 21.092 32.681 o
6 9 12 11589.700 10091.000 155.334 0.310 o
6 9 13 4614.930 4192.710 90.081 1.465 o
6 9 14 493.804 351.754 13.842 33.855 o
6 9 15 14150.800 15424.700 199.496 0.188 o
6 9 16 5903.510 5582.810 102.165 0.958 o
6 9 17 1636.570 1409.210 29.002 7.154 o
6 9 18 3286.280 3435.590 53.170 2.359 o
6 9 19 11279.200 12203.700 203.670 0.284 o
6 9 20 4291.540 4827.890 76.678 1.476 o
6 9 21 2398.430 3042.750 50.753 3.408 o
6 9 22 206.031 166.759 12.084 84.311 o
6 9 23 1154.440 1461.290 33.835 9.483 o
6 9 24 1537.090 1528.300 38.010 7.263 o
6 9 25 2536.780 2676.060 49.654 3.469 o
6 9 26 19.654 36.252 16.918 514.329 o
6 9 27 2.037 -10.326 29.661 598.835 o
6 10 0 8642.030 8873.830 193.344 0.467 o
6 10 1 1672.310 1188.190 27.903 7.480 o
6 10 2 1350.430 1287.720 27.244 8.871 o
6 10 3 6869.750 8133.630 111.173 0.650 o
6 10 4 8320.370 9580.420 141.493 0.472 o
6 10 5 5533.310 5310.810 83.490 1.064 o
6 10 6 24.997 28.343 10.986 589.158 o
6 10 7 85.724 18.236 12.084 256.808 o
6 10 8 59.146 129.848 14.501 193.708 o
6 10 9 738.591 902.785 36.911 16.648 o
6 10 10 9063.160 9893.500 152.258 0.420 o
6 10 11 6018.290 6107.260 102.824 0.893 o
6 10 12 622.008 697.357 20.653 21.840 o
6 10 13 164.116 104.582 13.842 112.714 o
6 10 14 118.560 127.431 14.501 133.266 o
6 10 15 248.606 346.262 18.236 55.502 o
6 10 16 81.124 75.580 13.402 203.979 o
6 10 17 173.632 193.344 16.918 88.484 o
6 10 18 863.781 1051.530 29.002 14.015 o
6 10 19 515.548 514.339 18.675 28.530 o
6 10 20 452.912 456.775 18.675 32.893 o
6 10 21 1115.900 961.447 23.509 11.863 o
6 10 22 1089.600 1267.280 29.002 10.702 o
6 10 23 7.178 5.493 12.084 1571.060 o
6 10 24 39.227 68.330 16.918 301.890 o
6 10 25 19.574 38.669 18.236 482.806 o
6 10 26 683.646 511.263 23.509 22.580 o
6 10 27 31.107 62.837 20.653 317.794 o
6 11 0 4908.840 4856.450 159.509 1.222 o
6 11 1 313.466 477.428 17.577 41.618 o
6 11 2 11795.800 11736.000 178.843 0.277 o
6 11 3 4973.270 4801.300 82.830 1.264 o
6 11 4 23925.500 23148.100 333.079 0.076 o
6 11 5 768.581 678.682 21.751 18.642 o
6 11 6 48.994 24.168 10.986 394.189 o
6 11 7 171.261 238.165 13.842 83.450 o
6 11 8 638.143 450.843 19.334 25.083 o
6 11 9 13240.800 12803.800 193.344 0.229 o
6 11 10 319.591 447.108 18.236 42.299 o
6 11 11 2778.490 2629.920 45.919 3.206 o
6 11 12 907.516 1013.960 31.418 13.662 o
6 11 13 2792.810 2851.830 59.761 3.040 o
6 11 14 2441.020 2286.070 46.578 3.894 o
6 11 15 651.138 639.354 27.244 21.567 o
6 11 16 2336.400 2668.150 51.412 3.749 o
6 11 17 297.584 342.746 18.675 49.501 o
6 11 18 166.904 221.687 15.160 86.840 o
6 11 19 65.806 45.260 12.743 272.242 o
6 11 20 2263.530 2278.820 42.843 4.206 o
6 11 21 214.225 231.354 18.236 71.711 o
6 11 22 1933.580 1780.300 35.593 5.504 o
6 11 23 281.606 259.916 16.918 57.226 o
6 11 24 66.990 71.845 13.842 232.936 o
6 11 25 1204.670 1146.440 35.154 10.207 o
6 11 26 431.639 455.677 24.168 33.623 o
6 12 0 20588.700 22267.500 560.258 0.090 o
6 12 1 264.608 470.837 18.236 46.269 o
6 12 2 472.584 403.606 18.675 33.271 o
6 12 3 6010.340 5619.060 94.255 0.938 o
6 12 4 1684.510 2126.570 44.161 5.677 o
6 12 5 54.974 128.750 12.084 205.810 o
6 12 6 1050.820 1074.600 26.585 11.904 o
6 12 7 313.141 383.832 18.675 45.710 o
6 12 8 1359.240 1501.710 33.176 8.190 o
6 12 9 1684.480 1801.400 38.669 6.203 o
6 12 10 1758.640 1756.140 38.010 6.040 o
6 12 11 505.071 324.510 16.918 33.793 o
6 12 12 1071.430 1155.450 29.002 11.318 o
6 12 13 384.591 380.097 18.236 39.770 o
6 12 14 1311.370 1462.380 34.494 8.537 o
6 12 15 394.496 462.927 21.092 35.923 o
6 12 16 647.378 749.428 24.168 20.432 o
6 12 17 80.443 45.919 16.918 223.032 o
6 12 18 80.250 77.338 16.259 197.779 o
6 12 19 1620.380 1628.700 42.843 6.701 o
6 12 20 384.431 368.013 19.334 40.126 o
6 12 21 2697.250 2527.970 47.237 3.363 o
6 12 22 525.849 470.178 21.751 28.845 o
6 12 23 5.278 21.092 16.918 898.923 o
6 12 24 1482.320 1418.880 36.252 7.764 o
6 12 25 76.740 71.406 10.326 221.511 o
6 12 26 1494.240 1452.720 40.426 7.597 o
6 13 0 431.036 207.845 23.070 42.346 o
6 13 1 4417.720 3318.270 58.662 1.738 o
6 13 2 5522.160 5531.400 93.596 1.040 o
6 13 3 2924.460 3218.080 59.322 2.731 o
6 13 4 1534.310 1661.880 36.252 7.013 o
6 13 5 13661.500 14946.200 224.103 0.199 o
6 13 6 10936.100 11065.900 158.850 0.315 o
6 13 7 885.838 1089.100 29.661 13.511 o
6 13 8 14.698 40.426 13.402 609.008 o
6 13 9 8950.930 8962.160 140.174 0.453 o
6 13 10 7386.890 6596.110 108.097 0.677 o
6 13 11 315.375 383.832 20.653 45.203 o
6 13 12 2439.850 2321.890 59.322 3.831 o
6 13 13 2667.450 2654.750 51.412 3.313 o
6 13 14 13583.500 14724.500 199.935 0.203 o
6 13 15 6861.210 8307.640 143.250 0.636 o
6 13 16 774.499 682.197 21.751 18.488 o
6 13 17 98.909 91.838 16.259 164.253 o
6 13 18 6437.840 6899.530 123.916 0.768 o
6 13 19 738.617 818.197 30.759 17.600 o
6 13 20 577.663 655.173 23.509 23.567 o
6 13 21 217.947 151.599 19.334 80.263 o
6 13 22 1801.540 1542.800 36.252 6.256 o
6 13 23 2818.560 2595.640 55.586 3.161 o
6 13 24 357.225 311.328 20.653 44.674 o
6 13 25 1358.940 1205.540 40.426 8.934 o
6 14 0 14978.900 13699.500 287.599 0.186 o
6 14 1 268.345 164.342 16.259 67.926 o
6 14 2 4918.110 5028.040 82.830 1.248 o
6 14 3 6574.700 6765.940 108.756 0.763 o
6 14 4 1016.430 1146.440 32.737 11.797 o
6 14 5 3537.380 3100.760 56.245 2.296 o
6 14 6 1624.810 1891.480 45.260 6.212 o
6 14 7 10502.400 11545.100 177.086 0.321 o
6 14 8 1567.180 1680.560 35.154 6.854 o
6 14 9 10001.300 10025.100 151.599 0.372 o
6 14 10 2553.680 2993.760 55.586 3.237 o
6 14 11 7628.980 7431.440 114.249 0.610 o
6 14 12 3063.550 2825.240 54.488 2.792 o
6 14 13 1515.050 1840.720 42.404 6.702 o
6 14 14 566.083 516.097 24.168 26.206 o
6 14 15 7815.630 7510.540 120.840 0.589 o
6 14 16 322.306 560.258 26.585 36.813 o
6 14 17 5453.110 4885.450 83.929 1.130 o
6 14 18 914.823 961.447 27.244 13.976 o
6 14 19 1701.000 1911.470 44.161 5.945 o
6 14 20 1001.410 919.703 31.418 13.126 o
6 14 21 1897.620 1920.480 47.677 5.360 o
6 14 22 306.558 224.103 21.751 55.155 o
6 14 23 836.776 980.782 30.320 14.795 o
6 14 24 26.315 39.328 23.070 369.981 o
6 14 25 21.707 16.918 21.751 501.660 o
6 15 0 17061.300 16201.400 339.670 0.143 o
6 15 1 5130.830 5693.980 102.824 1.103 o
6 15 2 831.419 767.444 23.509 16.639 o
6 15 3 1826.380 1544.120 33.835 6.183 o
6 15 4 7246.580 7257.870 106.339 0.657 o
6 15 5 8999.050 9415.420 183.677 0.432 o
6 15 6 3512.980 3525.010 71.406 2.155 o
6 15 7 40.210 16.259 13.842 459.536 o
6 15 8 10139.600 10514.600 162.585 0.355 o
6 15 9 7302.440 6917.760 110.514 0.668 o
6 15 10 1475.410 1525.880 35.154 7.558 o
6 15 11 397.664 341.428 19.994 40.055 o
6 15 12 12297.200 12820.200 273.758 0.245 o
6 15 13 31.697 -21.751 12.084 685.412 o
6 15 14 2265.910 2436.570 50.753 4.044 o
6 15 15 3101.070 2691.000 58.662 2.813 o
6 15 16 2331.410 2392.410 50.753 3.972 o
6 15 17 171.349 186.094 16.918 90.487 o
6 15 18 1883.680 1938.050 38.669 5.414 o
6 15 19 2640.190 2759.330 54.927 3.275 o
6 15 20 2665.760 2869.400 60.420 3.169 o
6 15 21 1361.040 1396.690 36.252 8.429 o
6 15 22 98.810 48.336 23.509 174.236 o
6 15 23 5.823 11.425 28.343 529.733 o
6 15 24 1902.350 1834.130 54.488 5.424 o
6 16 0 4807.320 5200.300 122.158 1.232 o
6 16 1 3052.550 2654.090 49.654 2.892 o
6 16 2 4217.070 3137.670 56.905 1.880 o
6 16 3 4011.270 4038.030 69.428 1.752 o
6 16 4 15697.400 14439.100 216.853 0.172 o
6 16 5 1606.790 1736.800 52.511 6.483 o
6 16 6 17033.700 16934.300 248.271 0.141 o
6 16 7 70.368 169.176 18.236 151.092 o
6 16 8 15889.200 15863.400 239.263 0.160 o
6 16 9 1855.300 1612.890 39.328 5.956 o
6 16 10 21039.200 22645.900 323.412 0.090 o
6 16 11 392.213 491.270 29.002 34.319 o
6 16 12 4110.700 3502.600 75.580 1.826 o
6 16 13 102.019 67.011 16.259 174.943 o
6 16 14 12668.300 13721.300 228.937 0.230 o
6 16 15 2495.230 2191.820 47.677 3.880 o
6 16 16 3207.460 3749.340 64.155 2.291 o
6 16 17 1254.760 1327.040 36.252 9.245 o
6 16 18 961.330 940.355 29.661 13.498 o
6 16 19 775.335 1061.850 34.494 14.972 o
6 16 20 3393.580 3158.760 65.913 2.366 o
6 16 21 63.376 72.504 21.751 213.947 o
6 16 22 1585.040 1798.980 42.843 6.521 o
6 16 23 319.940 276.174 25.486 49.397 o
6 16 24 2283.370 2321.890 61.738 4.074 o
6 17 0 209.043 295.509 31.418 61.323 o
6 17 1 1153.940 1405.040 33.835 9.673 o
6 17 2 5827.850 4967.620 86.346 1.038 o
6 17 3 11347.000 11668.300 178.184 0.291 o
6 17 4 467.945 479.186 24.168 31.108 o
6 17 5 214.433 259.916 23.509 66.775 o
6 17 6 10.135 68.330 14.501 486.509 o
6 17 7 7248.810 8088.810 133.583 0.612 o
6 17 8 3306.060 3096.580 68.989 2.450 o
6 17 9 1840.060 2315.730 48.995 5.009 o
6 17 10 1484.560 1994.300 59.761 6.399 o
6 17 11 940.141 829.182 28.343 14.473 o
6 17 12 9734.030 8870.980 155.334 0.411 o
6 17 13 3755.800 4247.860 77.997 1.815 o
6 17 14 2590.910 2921.250 60.420 3.226 o
6 17 15 990.171 1120.960 33.176 12.161 o
6 17 16 11772.500 12484.800 183.018 0.268 o
6 17 17 1860.190 1663.640 47.677 5.819 o
6 17 18 265.417 282.766 30.759 54.183 o
6 17 19 125.828 126.333 19.334 123.850 o
6 17 20 530.250 709.441 33.176 23.623 o
6 17 21 1453.740 1407.460 37.570 7.917 o
6 17 22 209.628 245.415 25.486 68.376 o
6 17 23 1386.170 1290.790 38.010 8.563 o
6 18 0 8192.460 10334.500 284.743 0.435 o
6 18 1 1628.580 1985.290 46.578 6.041 o
6 18 2 3094.140 2417.900 53.829 2.963 o
6 18 3 724.185 637.596 31.418 19.664 o
6 18 4 522.713 979.683 36.911 20.073 o
6 18 5 211.978 433.926 27.903 52.215 o
6 18 6 170.198 284.084 19.334 75.447 o
6 18 7 2539.800 3095.920 59.322 3.186 o
6 18 8 1737.710 1573.560 42.843 6.382 o
6 18 9 45.731 28.343 16.918 358.239 o
6 18 10 314.541 284.084 21.751 50.357 o
6 18 11 922.401 875.761 29.002 14.386 o
6 18 12 8345.080 10163.500 175.328 0.449 o
6 18 13 402.657 522.688 24.168 33.371 o
6 18 14 1111.620 1018.790 30.759 11.541 o
6 18 15 120.587 160.168 17.577 118.546 o
6 18 16 857.693 718.449 30.759 16.415 o
6 18 17 2079.110 1940.470 42.843 4.916 o
6 18 18 1199.800 1298.700 38.669 9.662 o
6 18 19 439.820 470.178 24.827 32.715 o
6 18 20 49.342 23.070 22.410 310.531 o
6 18 21 1659.920 1413.610 39.328 6.986 o
6 18 22 34.889 58.003 22.410 299.720 o
6 19 0 2875.920 3830.190 116.666 2.402 o
6 19 1 2030.970 2379.230 54.488 4.509 o
6 19 2 4377.540 3812.610 77.997 1.635 o
6 19 3 1236.320 970.016 32.078 10.678 o
6 19 4 3797.200 3031.330 61.079 2.143 o
6 19 5 788.433 602.443 25.486 18.901 o
6 19 6 1543.310 2159.300 59.322 5.948 o
6 19 7 2546.720 3284.430 71.406 3.046 o
6 19 8 9980.990 11392.100 164.342 0.344 o
6 19 9 112.134 132.265 17.577 132.993 o
6 19 10 9924.520 10268.800 163.683 0.369 o
6 19 11 0.178 2.417 21.092 1165.810 o
6 19 12 3262.130 2965.410 56.905 2.553 o
6 19 13 993.288 1237.620 35.593 11.544 o
6 19 14 11136.900 11714.900 211.580 0.295 o
6 19 15 1471.620 1544.560 44.161 7.461 o
6 19 16 6293.820 6526.680 115.347 0.815 o
6 19 17 37.036 73.822 20.653 278.691 o
6 19 18 554.078 459.192 33.835 26.983 o
6 19 19 1243.810 976.607 35.593 10.546 o
6 19 20 71.903 42.843 21.092 228.522 o
6 19 21 17.889 9.667 22.410 566.834 o
6 20 0 11621.900 13924.300 379.438 0.241 o
6 20 1 37.482 30.759 23.509 332.941 o
6 20 2 10427.200 13339.200 201.913 0.293 o
6 20 3 19.635 230.255 24.827 158.140 o
6 20 4 19253.000 23197.100 377.021 0.098 o
6 20 5 637.609 687.031 26.585 21.334 o
6 20 6 5280.870 5645.650 100.407 1.076 o
6 20 7 2014.840 2124.150 48.995 4.830 o
6 20 8 3737.380 4207.210 89.422 1.823 o
6 20 9 1744.020 1990.570 53.170 5.650 o
6 20 10 1518.720 1805.790 45.260 6.733 o
6 20 11 214.236 207.186 23.070 72.555 o
6 20 12 9655.150 9495.830 143.910 0.401 o
6 20 13 336.258 268.265 33.835 46.062 o
6 20 14 5033.860 5290.820 100.847 1.175 o
6 20 15 182.308 268.924 24.827 71.997 o
6 20 16 4940.550 5345.300 101.506 1.191 o
6 20 17 306.685 389.105 34.494 43.062 o
6 20 18 1965.780 2166.550 52.511 4.877 o
6 20 19 42.346 28.343 18.675 360.418 o
6 20 20 5653.410 5300.480 98.430 1.035 o
6 21 0 5489.710 5285.980 154.675 1.042 o
6 21 1 112.418 297.926 24.827 86.790 o
6 21 2 429.984 611.011 32.078 29.095 o
6 21 3 17.727 62.178 23.070 355.698 o
6 21 4 249.984 339.670 26.585 53.738 o
6 21 5 2775.290 2862.590 61.079 3.050 o
6 21 6 2032.030 2225.210 52.511 4.671 o
6 21 7 3717.000 4369.800 82.171 1.801 o
6 21 8 984.372 973.531 41.086 12.805 o
6 21 9 85.859 75.580 19.334 183.757 o
6 21 10 2155.590 2363.410 59.322 4.269 o
6 21 11 945.134 1484.140 41.745 10.800 o
6 21 12 2635.930 2540.500 64.594 3.392 o
6 21 13 141.332 277.493 24.827 81.203 o
6 21 14 3859.390 4109.440 83.490 1.794 o
6 21 15 1421.430 1278.710 41.745 8.367 o
6 21 16 70.542 73.822 23.070 196.516 o
6 21 17 39.791 33.835 29.661 267.107 o
6 21 18 24.645 39.987 23.070 377.135 o
6 21 19 1678.920 1481.720 45.260 6.739 o
6 22 0 398.534 593.434 59.761 27.072 o
6 22 1 104.369 266.507 30.320 90.312 o
6 22 2 9882.760 10530.400 166.759 0.365 o
6 22 3 4037.000 4012.110 76.678 1.740 o
6 22 4 288.292 241.021 27.903 54.817 o
6 22 5 4363.710 4994.650 90.740 1.414 o
6 22 6 1735.090 1936.960 48.336 5.781 o
6 22 7 301.511 360.762 27.903 46.344 o
6 22 8 129.150 164.342 30.759 99.715 o
6 22 9 6520.030 6840.860 132.265 0.759 o
6 22 10 61.896 96.013 20.653 200.250 o
6 22 11 3127.110 3029.570 65.913 2.626 o
6 22 12 2556.160 2958.820 59.761 3.246 o
6 22 13 521.787 509.506 33.835 27.255 o
6 22 14 28.413 85.247 25.486 257.767 o
6 22 15 2656.010 2793.160 66.572 3.210 o
6 22 16 2935.830 2529.730 62.178 3.054 o
6 22 17 76.796 54.927 21.751 205.931 o
6 22 18 1915.620 1772.390 49.654 5.498 o
6 23 0 10522.400 10063.100 234.430 0.342 o
6 23 1 1206.500 1011.540 43.502 10.572 o
6 23 2 317.047 277.932 32.078 47.987 o
6 23 3 24.521 28.343 24.827 388.021 o
6 23 4 975.736 1234.550 37.570 11.681 o
6 23 5 5453.620 5458.890 106.998 1.057 o
6 23 6 759.215 777.770 33.176 17.507 o
6 23 7 222.748 331.102 29.661 57.117 o
6 23 8 441.142 442.275 29.002 32.953 o
6 23 9 3037.080 3036.160 75.580 2.683 o
6 23 10 164.728 185.435 32.737 82.097 o
6 23 11 119.726 131.166 24.168 120.414 o
6 23 12 238.404 242.339 32.078 60.587 o
6 23 13 26.186 63.496 26.585 287.560 o
6 23 14 28.125 103.263 32.737 200.707 o
6 23 15 371.872 398.333 33.176 37.932 o
6 23 16 529.369 544.000 32.737 26.421 o
6 23 17 189.763 107.657 24.827 92.818 o
6 24 0 1704.670 1558.620 65.254 6.341 o
6 24 1 2948.310 2802.170 65.254 2.895 o
6 24 2 2899.000 2672.980 62.178 3.017 o
6 24 3 48.296 119.082 30.320 172.264 o
6 24 4 1618.510 1270.360 41.745 7.439 o
6 24 5 1761.190 2181.050 55.586 5.334 o
6 24 6 127.262 147.425 30.320 104.672 o
6 24 7 480.860 613.428 38.010 26.451 o
6 24 8 46.193 64.155 30.320 215.119 o
6 24 9 663.106 963.205 42.404 17.186 o
6 24 10 840.751 812.924 36.911 15.748 o
6 24 11 83.180 146.766 30.759 128.292 o
6 24 12 79.787 85.247 31.418 153.755 o
6 24 13 270.853 308.911 36.252 50.107 o
6 24 14 2077.840 2005.730 53.829 4.801 o
6 24 15 497.719 452.601 35.154 29.273 o
6 25 0 7221.800 7027.620 204.330 0.648 o
6 25 1 1166.220 994.623 38.669 11.047 o
6 25 2 850.813 1021.870 41.086 14.057 o
6 25 3 532.801 658.688 35.154 24.181 o
6 25 4 102.769 73.822 30.759 140.505 o
6 25 5 69.597 124.575 30.320 147.984 o
6 25 6 1348.490 1314.960 43.502 8.645 o
6 25 7 4137.450 4112.520 81.512 1.670 o
6 25 8 7.641 61.738 30.759 315.698 o
6 25 9 290.197 402.507 44.821 41.237 o
6 25 10 1792.750 1706.040 50.753 5.939 o
6 25 11 19.962 42.843 30.759 305.146 o
6 25 12 90.211 49.654 30.759 162.927 o
6 25 13 82.672 97.990 33.176 141.295 o
6 25 14 1356.890 1224.440 49.654 8.774 o
6 26 0 3404.110 2668.150 110.514 2.457 o
6 26 1 2195.360 1909.050 59.761 4.628 o
6 26 2 220.295 379.438 34.494 52.516 o
6 26 3 1532.890 1303.530 44.821 7.722 o
6 26 4 1949.030 1635.300 48.995 5.598 o
6 26 5 9.688 -26.585 30.759 481.449 o
6 26 6 45.803 61.738 30.759 215.742 o
6 26 7 2676.540 2656.500 71.845 3.252 o
6 26 8 72.995 126.333 36.252 130.831 o
6 26 9 703.917 724.601 38.669 18.834 o
6 26 10 208.895 175.767 33.835 71.501 o
6 26 11 295.493 337.913 35.154 46.294 o
6 26 12 166.527 110.074 25.926 100.439 o
6 27 0 1367.590 1330.120 64.594 8.210 o
6 27 1 4060.780 3731.760 87.005 1.784 o
6 27 2 44.150 125.015 36.252 154.465 o
6 27 3 549.007 656.271 56.245 21.907 o
6 27 4 694.626 570.585 35.593 20.911 o
6 27 5 26.594 -44.161 39.328 262.967 o
6 27 6 803.641 764.368 43.502 16.453 o
6 27 7 74.007 123.916 46.578 108.873 o
6 27 8 1.516 -58.662 38.010 373.989 o
6 27 9 90.162 122.158 41.086 112.050 o
6 28 0 1194.520 914.869 103.263 9.404 o
6 28 1 1632.040 1472.050 83.929 6.527 o
6 28 2 9.385 -14.501 55.586 168.094 o
6 28 3 834.768 657.590 65.913 15.648 o
6 28 4 427.181 609.693 74.262 23.629 o
6 28 5 6974.800 6455.930 213.338 0.701 o
6 28 6 39.014 70.746 51.412 131.220 o
7 1 0 713.867 2448.660 94.914 8.093 o
7 1 1 17608.100 18137.000 241.680 0.130 o
7 1 2 2276.060 2805.910 52.511 3.734 o
7 1 3 6354.500 6702.670 94.914 0.799 o
7 1 4 9771.540 7807.800 118.423 0.441 o
7 1 5 6899.760 5485.480 74.262 0.812 o
7 1 6 6799.400 6848.120 94.255 0.732 o
7 1 7 2026.040 1762.730 31.418 5.299 o
7 1 8 46169.800 51352.000 754.701 0.019 o
7 1 9 1839.010 1840.720 32.737 5.695 o
7 1 10 8343.500 9232.840 166.100 0.479 o
7 1 11 7853.910 7478.460 124.575 0.586 o
7 1 12 56916.700 59120.400 783.263 0.014 o
7 1 13 117.242 165.002 10.326 124.520 o
7 1 14 1014.160 1571.800 42.404 9.945 o
7 1 15 3420.960 4191.610 82.171 1.999 o
7 1 16 8091.130 9697.520 183.677 0.477 o
7 1 17 1541.970 1562.790 39.987 7.157 o
7 1 18 172.108 116.006 9.667 107.953 o
7 1 19 5045.460 5415.390 123.916 1.144 o
7 1 20 1611.760 1777.230 66.572 6.274 o
7 1 21 1154.820 1036.370 38.669 10.969 o
7 1 22 2184.670 2380.990 57.344 4.209 o
7 1 23 1488.510 1101.180 38.010 8.522 o
7 1 24 3740.080 4111.200 130.507 1.791 o
7 1 25 380.617 325.829 23.509 41.566 o
7 1 26 179.348 212.678 26.585 78.631 o
7 1 27 109.417 50.094 23.070 162.362 o
7 1 28 1278.360 1738.560 75.580 7.500 o
7 2 0 5049.810 4743.300 90.740 1.247 o
7 2 1 2049.430 1049.110 22.410 6.310 o
7 2 2 21931.700 22359.400 318.578 0.086 o
7 2 3 1387.540 1196.540 29.002 8.907 o
7 2 4 845.107 1315.620 25.926 12.768 o
7 2 5 8.588 88.763 7.250 475.796 o
7 2 6 29838.400 26733.600 320.336 0.052 o
7 2 7 5327.230 5783.400 80.414 1.059 o
7 2 8 693.417 477.428 19.994 22.926 o
7 2 9 2303.060 2248.060 38.669 4.174 o
7 2 10 32744.200 36673.400 466.443 0.038 o
7 2 11 1600.990 2092.730 36.252 6.016 o
7 2 12 3683.010 3701.440 73.163 2.000 o
7 2 13 169.308 90.740 10.326 115.652 o
7 2 14 4686.320 3964.430 83.490 1.485 o
7 2 15 1415.730 1399.550 27.903 8.201 o
7 2 16 15626.300 17054.000 265.189 0.156 o
7 2 17 1340.910 1484.140 29.661 8.359 o
7 2 18 4832.190 5356.070 93.157 1.222 o
7 2 19 1257.600 1155.450 32.078 9.836 o
7 2 20 1599.210 1905.540 53.829 6.213 o
7 2 21 1742.420 2199.730 63.496 5.309 o
7 2 22 7638.230 8053.880 175.767 0.571 o
7 2 23 258.178 164.342 18.236 69.443 o
7 2 24 151.122 101.506 21.092 114.531 o
7 2 25 0.065 -11.425 18.236 1653.300 o
7 2 26 2587.740 2413.070 68.330 3.526 o
7 2 27 39.046 43.502 23.070 305.668 o
7 2 28 3.122 -29.661 24.827 810.747 o
7 3 0 1152.590 785.680 37.570 12.129 o
7 3 1 1199.340 2473.490 36.911 6.735 o
7 3 2 12843.400 13616.700 236.187 0.227 o
7 3 3 48.454 218.171 11.425 157.316 o
7 3 4 11715.600 12281.700 156.433 0.273 o
7 3 5 1407.920 1404.380 33.176 8.190 o
7 3 6 621.032 756.678 21.092 21.090 o
7 3 7 111.155 145.667 12.743 133.567 o
7 3 8 2282.780 2128.980 47.237 4.294 o
7 3 9 9192.760 9864.500 162.585 0.413 o
7 3 10 6142.870 5637.080 83.490 0.917 o
7 3 11 6273.370 6918.200 106.339 0.793 o
7 3 12 14548.300 16052.600 335.496 0.173 o
7 3 13 3402.840 3006.500 53.170 2.431 o
7 3 14 7769.360 7041.020 108.756 0.616 o
7 3 15 2872.550 3210.170 65.254 2.772 o
7 3 16 202.255 272.659 11.425 71.647 o
7 3 17 2271.130 2074.710 37.570 4.394 o
7 3 18 185.047 220.588 14.501 81.759 o
7 3 19 2509.380 2778.000 60.420 3.413 o
7 3 20 1120.550 1075.040 28.343 11.249 o
7 3 21 587.540 455.018 23.509 26.578 o
7 3 22 0.493 -17.577 16.918 1862.570 o
7 3 23 3.768 37.570 19.334 655.672 o
7 3 24 1119.150 1514.460 93.596 8.431 o
7 3 25 756.661 1018.790 57.344 14.678 o
7 3 26 531.450 511.263 33.176 26.913 o
7 3 27 1142.010 987.373 45.260 11.157 o
7 3 28 1926.370 1925.970 60.420 5.211 o
7 4 0 35647.000 35275.600 689.447 0.034 o
7 4 1 7349.050 6773.190 94.914 0.674 o
7 4 2 10791.600 9475.180 177.086 0.349 o
7 4 3 1271.430 1263.110 35.154 9.354 o
7 4 4 35326.500 33140.500 457.434 0.037 o
7 4 5 4489.310 3137.010 65.913 1.742 o
7 4 6 11463.600 11899.700 165.002 0.285 o
7 4 7 922.070 627.270 21.092 16.355 o
7 4 8 51586.100 50734.400 756.678 0.017 o
7 4 9 19300.500 18244.000 261.674 0.115 o
7 4 10 16978.900 14146.000 228.498 0.158 o
7 4 11 2122.320 2017.810 36.911 4.755 o
7 4 12 29763.700 31163.300 480.943 0.047 o
7 4 13 5487.430 5452.740 93.596 1.056 o
7 4 14 15587.900 14179.800 225.422 0.175 o
7 4 15 1424.140 1385.710 25.486 8.209 o
7 4 16 8245.320 8270.290 108.097 0.526 o
7 4 17 20.180 58.662 7.910 503.203 o
7 4 18 8773.110 9251.070 170.494 0.451 o
7 4 19 3180.510 4020.680 67.011 2.214 o
7 4 20 11631.200 11986.200 243.438 0.275 o
7 4 21 124.971 127.431 13.402 129.702 o
7 4 22 2060.120 2608.830 90.081 4.077 o
7 4 23 2682.430 3263.340 106.998 2.822 o
7 4 24 12913.000 14303.700 365.596 0.212 o
7 4 25 43.730 82.830 24.168 232.082 o
7 4 26 446.447 467.761 27.244 32.190 o
7 4 27 771.833 732.510 41.745 17.332 o
7 4 28 5898.580 6238.420 170.494 0.875 o
7 5 0 40154.700 34008.300 650.779 0.030 o
7 5 1 2395.690 2295.740 38.010 3.979 o
7 5 2 5263.390 6387.170 99.748 1.004 o
7 5 3 3252.420 2972.670 47.677 2.570 o
7 5 4 18693.900 16210.400 228.937 0.129 o
7 5 5 25557.700 22499.500 293.092 0.071 o
7 5 6 4955.480 3211.930 50.753 1.542 o
7 5 7 7294.950 9802.760 200.594 0.525 o
7 5 8 19043.600 15565.500 224.762 0.129 o
7 5 9 11668.400 9706.750 137.099 0.315 o
7 5 10 1925.070 1780.300 50.094 5.460 o
7 5 11 5899.730 6086.160 96.672 0.916 o
7 5 12 1090.670 1080.530 25.486 11.524 o
7 5 13 1454.450 1227.300 23.509 8.481 o
7 5 14 2657.480 2710.990 65.913 3.258 o
7 5 15 910.993 621.777 15.819 16.678 o
7 5 16 7010.360 7382.450 112.931 0.674 o
7 5 17 30.235 24.168 10.986 550.204 o
7 5 18 201.074 303.418 12.743 68.321 o
7 5 19 441.897 623.754 25.926 28.852 o
7 5 20 6185.010 7989.720 136.659 0.728 o
7 5 21 608.751 965.622 38.669 18.332 o
7 5 22 690.379 725.699 27.244 19.611 o
7 5 23 466.302 383.173 32.737 32.738 o
7 5 24 4169.320 5301.140 125.015 1.401 o
7 5 25 359.253 337.254 28.343 42.067 o
7 5 26 199.578 133.583 27.244 83.606 o
7 5 27 364.341 366.255 29.661 40.261 o
7 5 28 2392.360 2156.230 122.158 3.728 o
7 6 0 5244.020 5227.980 105.241 1.129 o
7 6 1 36.814 146.766 9.667 227.171 o
7 6 2 11425.200 11070.700 180.601 0.298 o
7 6 3 43.383 116.666 13.842 235.516 o
7 6 4 7713.640 6053.430 91.179 0.674 o
7 6 5 5457.060 4606.860 71.406 1.167 o
7 6 6 634.416 900.368 21.092 19.140 o
7 6 7 7744.870 5344.650 83.490 0.711 o
7 6 8 7946.010 6915.790 101.506 0.607 o
7 6 9 32458.400 30938.300 469.518 0.043 o
7 6 10 3154.850 3190.180 53.170 2.554 o
7 6 11 3348.410 2417.900 45.919 2.729 o
7 6 12 689.792 839.948 29.661 18.353 o
7 6 13 5299.770 4758.460 85.906 1.182 o
7 6 14 1447.510 1464.800 36.911 7.815 o
7 6 15 2316.190 2023.300 39.987 4.351 o
7 6 16 2845.160 2744.830 54.488 3.052 o
7 6 17 492.857 439.418 18.236 31.304 o
7 6 18 1565.690 1654.630 35.593 6.908 o
7 6 19 1851.190 2066.800 49.654 5.282 o
7 6 20 1497.190 1892.790 45.260 6.652 o
7 6 21 195.227 152.258 18.675 87.265 o
7 6 22 863.966 1047.350 29.002 14.039 o
7 6 23 1679.240 1516.210 43.502 6.687 o
7 6 24 19.886 47.677 27.244 333.652 o
7 6 25 163.663 140.174 27.903 93.843 o
7 6 26 629.323 576.517 34.494 22.596 o
7 6 27 74.024 37.570 26.585 207.031 o
7 6 28 85.547 29.661 35.593 162.831 o
7 7 0 10214.000 9837.260 255.522 0.357 o
7 7 1 632.561 337.913 13.842 27.577 o
7 7 2 13889.500 12663.600 234.430 0.216 o
7 7 3 34005.600 32973.700 497.861 0.039 o
7 7 4 1173.240 1084.700 32.078 10.724 o
7 7 5 487.327 205.428 17.577 38.694 o
7 7 6 11361.500 10225.700 172.252 0.314 o
7 7 7 49258.800 48900.700 728.775 0.019 o
7 7 8 7801.060 7566.120 149.183 0.583 o
7 7 9 496.898 723.283 22.410 25.105 o
7 7 10 6564.170 5866.890 116.666 0.823 o
7 7 11 6416.300 6199.750 110.074 0.822 o
7 7 12 0.596 19.994 9.008 1837.860 o
7 7 13 2288.970 2710.330 57.344 3.772 o
7 7 14 6148.070 6685.750 115.347 0.825 o
7 7 15 690.955 882.352 23.509 18.118 o
7 7 16 452.630 294.410 15.819 38.151 o
7 7 17 2439.770 2956.410 52.511 3.406 o
7 7 18 2943.530 2969.590 60.420 2.827 o
7 7 19 5291.010 5072.210 90.740 1.143 o
7 7 20 236.855 286.501 14.501 62.773 o
7 7 21 1942.110 1824.460 48.995 5.363 o
7 7 22 3915.120 5163.390 108.097 1.527 o
7 7 23 1160.510 1455.130 36.911 9.429 o
7 7 24 121.727 137.099 16.259 126.128 o
7 7 25 610.123 786.119 34.494 20.417 o
7 7 26 1016.700 883.451 43.502 12.879 o
7 7 27 1451.230 1545.210 55.586 7.434 o
7 8 0 4671.680 3083.180 99.748 1.646 o
7 8 1 17646.100 16066.700 283.425 0.139 o
7 8 2 313.669 406.682 20.653 44.291 o
7 8 3 95.150 226.520 12.743 117.804 o
7 8 4 4114.580 3854.360 94.914 1.724 o
7 8 5 24520.700 21705.500 346.262 0.076 o
7 8 6 272.483 422.501 18.675 47.883 o
7 8 7 29648.200 29759.400 513.680 0.049 o
7 8 8 1433.720 1325.290 31.418 8.275 o
7 8 9 42050.800 41411.900 691.864 0.025 o
7 8 10 534.307 616.943 24.168 25.547 o
7 8 11 23547.700 22955.900 362.081 0.078 o
7 8 12 1205.930 1158.530 30.759 10.208 o
7 8 13 35099.300 35756.100 499.179 0.035 o
7 8 14 83.303 90.081 11.425 192.764 o
7 8 15 9214.100 8888.990 151.160 0.439 o
7 8 16 209.272 387.347 18.675 58.137 o
7 8 17 3190.920 3025.180 67.011 2.572 o
7 8 18 68.948 133.583 15.819 175.464 o
7 8 19 9597.780 8486.490 160.168 0.428 o
7 8 20 577.169 685.932 24.827 23.064 o
7 8 21 660.994 827.425 23.070 19.291 o
7 8 22 613.746 606.837 21.092 23.319 o
7 8 23 2412.830 2620.250 63.496 3.639 o
7 8 24 2021.450 2233.560 44.821 4.714 o
7 8 25 2508.190 2620.250 52.071 3.538 o
7 8 26 247.432 315.502 31.418 54.178 o
7 8 27 3178.730 3279.600 85.906 2.448 o
7 9 0 151.416 534.772 29.661 52.977 o
7 9 1 10787.700 10303.000 197.519 0.331 o
7 9 2 4949.340 4354.860 82.171 1.335 o
7 9 3 7592.340 8821.980 154.675 0.548 o
7 9 4 96.919 79.095 14.501 176.809 o
7 9 5 2377.190 2293.320 45.919 3.992 o
7 9 6 2725.830 2491.060 45.919 3.353 o
7 9 7 19640.900 21011.700 302.759 0.103 o
7 9 8 703.460 744.594 21.751 19.308 o
7 9 9 2421.220 2771.410 65.913 3.517 o
7 9 10 4906.070 4423.620 85.247 1.337 o
7 9 11 17016.400 17017.800 270.682 0.141 o
7 9 12 3649.100 3658.600 71.845 2.033 o
7 9 13 8335.100 8497.470 162.585 0.504 o
7 9 14 778.308 883.011 23.509 16.561 o
7 9 15 4900.090 5113.730 81.512 1.241 o
7 9 16 1401.220 1846.220 32.078 7.206 o
7 9 17 9.573 13.842 12.084 1131.520 o
7 9 18 2032.410 2060.210 39.987 4.897 o
7 9 19 948.359 1118.540 29.002 12.669 o
7 9 20 633.236 874.443 26.585 19.264 o
7 9 21 1537.920 1594.870 32.737 7.156 o
7 9 22 32.073 21.751 12.084 529.814 o
7 9 23 100.459 119.082 18.236 146.589 o
7 9 24 619.779 739.102 25.926 21.156 o
7 9 25 141.865 180.601 21.092 100.145 o
7 9 26 320.967 388.666 21.751 44.283 o
7 9 27 127.495 108.756 34.494 107.969 o
7 10 0 24.318 12.743 14.501 650.563 o
7 10 1 23604.600 22363.100 302.100 0.079 o
7 10 2 5979.940 6679.600 107.657 0.852 o
7 10 3 40303.500 39515.600 591.677 0.028 o
7 10 4 74.920 15.819 14.501 282.371 o
7 10 5 1441.270 1010.440 25.486 9.172 o
7 10 6 464.801 531.257 18.675 30.413 o
7 10 7 15314.800 16027.300 260.355 0.166 o
7 10 8 1116.860 1093.930 26.585 11.222 o
7 10 9 6447.040 6585.340 135.341 0.784 o
7 10 10 1684.420 1561.470 35.154 6.638 o
7 10 11 27011.100 26531.000 377.021 0.060 o
7 10 12 5461.520 5300.480 82.171 1.082 o
7 10 13 11594.300 10830.100 164.342 0.297 o
7 10 14 250.186 126.992 13.402 77.132 o
7 10 15 16066.600 15616.300 247.173 0.159 o
7 10 16 476.355 397.014 16.918 33.370 o
7 10 17 11320.600 11232.600 157.751 0.300 o
7 10 18 950.075 1165.780 38.010 12.242 o
7 10 19 316.609 348.678 25.486 45.947 o
7 10 20 22.534 58.003 13.842 435.047 o
7 10 21 9036.070 8028.390 121.499 0.478 o
7 10 22 1428.810 1371.860 28.343 8.202 o
7 10 23 183.646 170.934 13.842 90.256 o
7 10 24 507.575 578.934 25.926 27.101 o
7 10 25 1198.330 1359.780 35.593 9.508 o
7 10 26 263.105 319.677 23.070 54.249 o
7 11 0 10053.600 10818.000 201.913 0.349 o
7 11 1 3567.830 3337.160 50.753 2.201 o
7 11 2 1688.550 1596.630 34.494 6.563 o
7 11 3 5180.180 5311.470 142.591 1.113 o
7 11 4 1657.910 1909.050 39.987 6.107 o
7 11 5 1553.320 1497.540 29.661 7.314 o
7 11 6 10437.600 11356.500 158.410 0.328 o
7 11 7 5217.400 4327.610 85.247 1.260 o
7 11 8 139.726 216.853 13.402 98.291 o
7 11 9 3088.340 2793.160 53.829 2.785 o
7 11 10 456.292 340.769 20.653 35.921 o
7 11 11 367.170 573.441 36.911 32.389 o
7 11 12 352.676 342.746 15.160 44.341 o
7 11 13 333.307 378.998 18.236 44.092 o
7 11 14 2886.630 2873.580 50.753 2.947 o
7 11 15 467.956 635.838 21.751 27.811 o
7 11 16 4433.340 4304.540 74.262 1.521 o
7 11 17 1660.730 2009.460 46.578 5.905 o
7 11 18 1302.250 1153.690 28.343 9.579 o
7 11 19 842.765 834.016 25.926 15.871 o
7 11 20 2485.730 2498.970 48.995 3.661 o
7 11 21 56.396 108.756 19.334 202.732 o
7 11 22 6.446 35.593 16.259 719.053 o
7 11 23 0.819 -16.918 13.402 2808.950 o
7 11 24 103.746 42.404 15.160 191.107 o
7 11 25 18.922 30.320 20.653 485.970 o
7 11 26 368.199 418.107 24.827 38.783 o
7 12 0 718.502 1198.290 53.170 14.193 o
7 12 1 9416.760 8238.220 128.750 0.448 o
7 12 2 1999.050 2023.960 40.426 5.014 o
7 12 3 12215.300 12573.500 175.328 0.255 o
7 12 4 35.572 35.593 9.667 456.386 o
7 12 5 7303.340 8395.310 131.826 0.593 o
7 12 6 6130.270 5779.670 99.748 0.902 o
7 12 7 12329.300 12550.700 189.170 0.252 o
7 12 8 1315.460 1380.210 32.737 8.760 o
7 12 9 3922.960 4258.620 76.239 1.737 o
7 12 10 532.639 509.945 19.994 27.844 o
7 12 11 3243.600 3859.850 75.580 2.215 o
7 12 12 2588.790 2676.500 62.178 3.372 o
7 12 13 4866.620 5342.230 99.748 1.211 o
7 12 14 183.319 300.342 16.918 71.341 o
7 12 15 10477.100 10508.700 168.078 0.341 o
7 12 16 143.774 134.242 16.259 113.948 o
7 12 17 1719.510 1765.800 36.911 6.156 o
7 12 18 401.123 378.998 19.994 38.408 o
7 12 19 1695.600 1903.560 41.745 5.988 o
7 12 20 896.808 971.115 30.759 14.067 o
7 12 21 1429.470 1284.200 28.343 8.430 o
7 12 22 970.921 1131.280 29.002 12.372 o
7 12 23 1160.960 925.195 25.926 11.585 o
7 12 24 4.108 12.743 10.326 1706.430 o
7 12 25 1865.630 1719.880 44.161 5.741 o
7 12 26 270.405 311.328 25.926 53.111 o
7 13 0 2799.010 3164.910 83.490 2.824 o
7 13 1 10000.600 10563.600 160.168 0.360 o
7 13 2 264.584 204.769 16.259 64.740 o
7 13 3 10850.600 10155.600 135.341 0.336 o
7 13 4 144.158 126.992 14.501 117.038 o
7 13 5 2934.060 3555.770 65.254 2.568 o
7 13 6 5.397 67.011 15.819 520.319 o
7 13 7 37010.200 38258.000 497.861 0.032 o
7 13 8 25.531 61.738 12.743 411.111 o
7 13 9 4710.750 5862.500 98.430 1.185 o
7 13 10 1372.070 1311.440 32.078 8.640 o
7 13 11 18586.000 19359.000 262.333 0.117 o
7 13 12 1319.030 1256.960 31.418 9.115 o
7 13 13 12186.300 12693.300 192.246 0.254 o
7 13 14 25.286 45.919 13.842 460.291 o
7 13 15 1743.290 1811.720 44.161 5.969 o
7 13 16 700.921 841.266 25.486 18.264 o
7 13 17 6737.540 6350.910 104.582 0.769 o
7 13 18 128.116 153.577 15.819 117.601 o
7 13 19 387.517 317.260 24.168 41.255 o
7 13 20 1157.470 1247.290 32.737 10.215 o
7 13 21 3426.060 3795.260 71.845 2.124 o
7 13 22 2485.840 2426.910 53.170 3.702 o
7 13 23 802.263 743.276 24.827 17.312 o
7 13 24 1319.140 1364.610 35.154 8.761 o
7 13 25 52.361 25.926 19.994 311.905 o
7 14 0 10494.200 11991.100 262.333 0.307 o
7 14 1 1556.020 1374.280 31.418 7.562 o
7 14 2 5.993 -3.076 13.402 1818.840 o
7 14 3 6489.030 6451.760 101.506 0.797 o
7 14 4 305.539 131.826 16.259 63.920 o
7 14 5 226.026 144.349 16.259 80.310 o
7 14 6 7519.130 7351.690 116.006 0.624 o
7 14 7 10126.000 9797.270 152.258 0.371 o
7 14 8 1184.350 1037.030 27.244 10.887 o
7 14 9 2026.360 1827.540 44.161 5.169 o
7 14 10 857.533 663.522 23.070 17.087 o
7 14 11 4618.510 4835.800 78.656 1.365 o
7 14 12 3498.030 3877.430 62.178 2.067 o
7 14 13 1702.430 1904.220 41.086 5.969 o
7 14 14 228.466 256.181 21.751 65.081 o
7 14 15 2564.930 2477.660 51.412 3.560 o
7 14 16 84.608 87.005 15.160 186.626 o
7 14 17 1561.190 1772.390 41.086 6.667 o
7 14 18 109.482 84.588 19.334 152.315 o
7 14 19 766.549 732.950 27.244 17.989 o
7 14 20 215.919 305.835 25.926 61.472 o
7 14 21 2983.200 2847.650 60.420 2.848 o
7 14 22 1500.460 1333.200 34.494 7.896 o
7 14 23 4.020 -9.667 16.918 1494.950 o
7 14 24 173.341 246.514 21.751 78.363 o
7 15 0 92.501 32.737 23.070 194.384 o
7 15 1 571.830 432.607 20.653 27.785 o
7 15 2 29.682 69.428 16.918 337.309 o
7 15 3 215.862 343.845 16.259 61.087 o
7 15 4 6746.760 6000.920 98.430 0.793 o
7 15 5 3615.130 3815.030 67.011 2.012 o
7 15 6 16620.600 17046.100 233.331 0.145 o
7 15 7 2784.510 2635.410 49.654 3.189 o
7 15 8 1801.420 1866.210 37.570 5.747 o
7 15 9 915.319 1022.530 30.759 13.534 o
7 15 10 23616.000 24382.000 325.170 0.075 o
7 15 11 99.287 176.426 15.160 128.992 o
7 15 12 214.754 154.675 19.994 80.417 o
7 15 13 1389.430 1365.270 31.418 8.403 o
7 15 14 34380.300 36025.100 507.089 0.036 o
7 15 15 101.779 128.750 20.653 138.108 o
7 15 16 131.719 154.016 16.259 115.122 o
7 15 17 108.632 50.094 17.577 174.723 o
7 15 18 295.612 274.417 20.653 53.505 o
7 15 19 964.871 1033.950 35.154 12.826 o
7 15 20 408.942 544.439 27.903 32.078 o
7 15 21 0.000 0.000 19.334 1476.690 o
7 15 22 475.125 445.350 24.168 31.590 o
7 15 23 24.192 23.070 18.236 512.799 o
7 15 24 1414.200 1360.880 35.154 8.253 o
7 16 0 819.451 610.352 36.252 17.814 o
7 16 1 5073.210 5060.120 93.157 1.198 o
7 16 2 381.577 257.499 19.994 45.013 o
7 16 3 19.780 18.675 12.084 734.715 o
7 16 4 6697.510 7158.780 105.680 0.724 o
7 16 5 6240.200 6750.340 108.756 0.809 o
7 16 6 1827.950 2152.710 41.745 5.268 o
7 16 7 4961.910 5424.400 92.498 1.180 o
7 16 8 2062.470 3398.680 63.496 3.585 o
7 16 9 3435.700 4413.960 87.005 1.925 o
7 16 10 5474.420 6918.200 113.590 0.912 o
7 16 11 5354.500 5704.750 98.430 1.055 o
7 16 12 953.551 1260.690 33.835 11.832 o
7 16 13 2044.430 2195.550 44.161 4.708 o
7 16 14 1059.160 1016.370 33.176 12.000 o
7 16 15 198.070 322.753 25.486 63.242 o
7 16 16 1396.080 1475.790 53.170 7.870 o
7 16 17 193.086 172.252 17.577 85.317 o
7 16 18 2194.810 2396.810 55.586 4.183 o
7 16 19 6437.270 6426.490 114.908 0.802 o
7 16 20 47.899 56.905 17.577 288.316 o
7 16 21 35.819 20.653 20.653 397.175 o
7 16 22 653.936 754.701 35.154 19.746 o
7 16 23 490.360 346.921 25.926 33.205 o
7 17 0 7413.220 7691.800 172.252 0.607 o
7 17 1 129.627 100.407 18.675 130.634 o
7 17 2 1193.180 1324.630 33.176 9.687 o
7 17 3 82.366 224.762 22.410 117.062 o
7 17 4 1283.520 1577.950 41.745 8.306 o
7 17 5 4660.170 4713.640 83.929 1.368 o
7 17 6 6001.050 6688.170 103.922 0.849 o
7 17 7 1050.170 1163.360 32.737 11.415 o
7 17 8 1806.250 1500.610 42.843 6.273 o
7 17 9 1995.530 2298.820 49.654 4.682 o
7 17 10 8381.690 9196.590 151.160 0.479 o
7 17 11 439.973 556.523 22.410 30.732 o
7 17 12 2989.330 2967.170 59.761 2.786 o
7 17 13 498.767 597.170 25.926 27.089 o
7 17 14 1445.980 1535.550 40.426 7.628 o
7 17 15 121.926 147.425 18.675 120.467 o
7 17 16 17.976 4.174 18.236 737.300 o
7 17 17 1026.440 1147.540 41.086 11.549 o
7 17 18 1003.750 1141.610 36.252 11.877 o
7 17 19 270.711 225.422 21.751 60.408 o
7 17 20 1059.410 1113.270 33.835 11.538 o
7 17 21 66.817 73.163 22.410 205.135 o
7 17 22 643.582 579.593 32.078 22.308 o
7 18 0 5947.610 6847.020 158.850 0.827 o
7 18 1 785.640 492.588 29.661 19.986 o
7 18 2 4917.440 5664.980 91.179 1.162 o
7 18 3 471.405 331.761 23.070 35.025 o
7 18 4 162.514 428.433 27.244 59.722 o
7 18 5 1120.670 1081.190 30.759 11.189 o
7 18 6 953.940 1215.210 33.835 12.044 o
7 18 7 3270.430 3607.840 71.845 2.286 o
7 18 8 464.607 542.023 30.320 29.258 o
7 18 9 66.818 40.426 21.751 239.160 o
7 18 10 222.364 155.334 21.751 77.469 o
7 18 11 790.614 706.365 24.827 17.860 o
7 18 12 561.886 589.919 40.426 23.927 o
7 18 13 2489.460 2983.650 57.344 3.317 o
7 18 14 244.903 221.247 21.092 65.492 o
7 18 15 40.427 64.594 21.092 279.796 o
7 18 16 15.558 45.260 18.236 489.289 o
7 18 17 281.338 245.415 25.486 56.196 o
7 18 18 116.459 189.829 23.070 107.748 o
7 18 19 115.149 169.835 28.343 107.455 o
7 18 20 251.811 164.342 23.509 68.865 o
7 18 21 219.466 290.016 24.827 62.602 o
7 18 22 90.735 85.906 24.168 160.716 o
7 19 0 273.655 517.855 39.328 39.463 o
7 19 1 172.412 317.260 24.168 69.204 o
7 19 2 3499.450 4078.020 73.163 1.997 o
7 19 3 4839.410 4727.700 83.490 1.312 o
7 19 4 810.172 574.759 26.585 18.703 o
7 19 5 1085.770 1435.800 39.328 9.965 o
7 19 6 55.181 204.330 23.509 140.578 o
7 19 7 4201.780 4843.710 90.740 1.496 o
7 19 8 812.314 1052.190 34.494 14.540 o
7 19 9 104.936 91.179 20.653 151.272 o
7 19 10 1790.970 2040.220 58.662 5.421 o
7 19 11 1395.050 1513.140 41.745 7.908 o
7 19 12 77.233 149.183 21.092 149.343 o
7 19 13 394.254 447.767 27.903 35.639 o
7 19 14 631.882 695.599 33.176 21.049 o
7 19 15 119.120 129.409 22.410 123.521 o
7 19 16 225.809 279.909 24.168 62.608 o
7 19 17 750.197 825.447 31.418 17.305 o
7 19 18 230.587 199.496 23.070 69.806 o
7 19 19 18.464 2.417 18.675 729.420 o
7 19 20 63.896 69.428 23.070 210.920 o
7 19 21 562.342 531.257 28.343 25.801 o
7 20 0 14451.200 12930.100 284.743 0.201 o
7 20 1 247.733 342.087 24.827 54.354 o
7 20 2 2504.050 3027.150 60.420 3.266 o
7 20 3 143.631 188.510 24.827 94.922 o
7 20 4 1950.850 1922.460 48.336 5.219 o
7 20 5 458.329 593.434 27.244 28.692 o
7 20 6 79.346 67.670 24.827 182.914 o
7 20 7 2383.190 2874.670 58.003 3.521 o
7 20 8 319.874 491.270 27.244 39.294 o
7 20 9 396.312 508.846 29.002 33.586 o
7 20 10 479.826 617.602 31.418 27.004 o
7 20 11 284.772 391.522 28.343 46.383 o
7 20 12 1766.640 2235.980 54.488 5.256 o
7 20 13 301.417 484.678 28.343 40.778 o
7 20 14 2790.950 2885.660 68.330 3.006 o
7 20 15 637.612 522.029 27.903 23.538 o
7 20 16 331.663 442.275 26.585 40.358 o
7 20 17 57.518 85.906 20.653 216.322 o
7 20 18 42.176 68.330 23.070 258.236 o
7 20 19 593.518 458.094 28.343 25.992 o
7 20 20 283.112 325.829 38.010 47.314 o
7 21 0 1417.430 2199.070 70.087 6.187 o
7 21 1 217.640 229.596 27.244 67.580 o
7 21 2 4518.290 4730.120 90.740 1.407 o
7 21 3 655.043 731.192 32.078 20.134 o
7 21 4 560.941 369.771 23.509 29.381 o
7 21 5 15.128 32.078 19.334 540.104 o
7 21 6 5681.320 5944.670 104.582 0.965 o
7 21 7 50.427 40.426 21.092 286.259 o
7 21 8 1707.090 2034.070 55.586 5.677 o
7 21 9 415.030 641.111 33.835 28.914 o
7 21 10 5311.950 5362.880 94.914 1.103 o
7 21 11 221.869 209.603 31.418 66.710 o
7 21 12 677.620 885.428 37.570 17.837 o
7 21 13 126.224 238.604 24.827 92.125 o
7 21 14 3596.040 3514.250 75.580 2.102 o
7 21 15 172.663 82.171 28.343 101.315 o
7 21 16 410.067 412.174 32.737 35.096 o
7 21 17 38.079 43.502 24.827 295.264 o
7 21 18 2192.130 2579.830 69.428 3.982 o
7 21 19 157.838 211.580 25.926 85.339 o
7 22 0 270.636 105.241 40.426 62.444 o
7 22 1 311.261 139.076 25.486 59.677 o
7 22 2 434.454 875.102 35.593 23.845 o
7 22 3 924.896 1136.120 34.494 12.722 o
7 22 4 834.846 737.344 28.343 16.705 o
7 22 5 436.451 630.346 32.078 28.412 o
7 22 6 941.846 1258.710 41.745 11.799 o
7 22 7 620.905 749.867 33.176 20.658 o
7 22 8 1165.000 1454.040 41.745 9.343 o
7 22 9 407.048 497.422 35.593 32.474 o
7 22 10 2844.800 3193.250 69.428 2.798 o
7 22 11 88.023 172.252 27.903 121.913 o
7 22 12 516.317 553.008 41.086 25.961 o
7 22 13 748.819 520.271 28.343 20.575 o
7 22 14 1047.970 1336.270 45.260 10.512 o
7 22 15 222.740 286.501 30.320 60.279 o
7 22 16 338.103 288.258 32.737 45.199 o
7 22 17 31.234 1.318 23.509 453.910 o
7 22 18 26.094 102.824 24.168 249.272 o
7 23 0 513.259 550.591 48.336 25.335 o
7 23 1 1057.630 1210.380 37.570 11.072 o
7 23 2 667.822 860.601 33.176 18.445 o
7 23 3 2357.870 2430.640 55.586 3.885 o
7 23 4 249.542 257.939 29.661 58.574 o
7 23 5 93.382 151.599 29.002 123.239 o
7 23 6 124.250 174.010 27.903 102.856 o
7 23 7 6176.800 6784.180 117.764 0.813 o
7 23 8 1808.190 1876.980 54.927 5.618 o
7 23 9 2975.490 3002.330 68.330 2.768 o
7 23 10 241.264 288.918 44.161 51.727 o
7 23 11 3760.330 4276.860 87.005 1.798 o
7 23 12 2569.140 2389.560 68.989 3.565 o
7 23 13 1841.340 1979.140 58.662 5.369 o
7 23 14 168.200 219.270 33.835 75.892 o
7 23 15 87.220 125.674 24.168 145.409 o
7 23 16 557.752 469.518 31.418 26.858 o
7 24 0 5264.450 5612.470 158.850 1.052 o
7 24 1 624.939 950.682 41.086 18.050 o
7 24 2 628.176 669.014 34.494 21.401 o
7 24 3 873.053 1153.030 42.843 12.992 o
7 24 4 2698.400 2913.340 69.428 3.088 o
7 24 5 589.578 450.843 30.320 26.119 o
7 24 6 8.086 -11.425 21.751 862.069 o
7 24 7 6738.420 7554.700 122.598 0.693 o
7 24 8 437.208 577.176 30.320 29.692 o
7 24 9 12.419 2.417 27.903 520.384 o
7 24 10 3.261 27.903 25.926 536.501 o
7 24 11 536.268 551.690 32.737 26.034 o
7 24 12 8.279 31.418 25.486 481.014 o
7 24 13 3251.860 3225.990 75.580 2.431 o
7 24 14 149.774 204.330 33.835 82.772 o
7 24 15 70.536 85.247 25.486 180.954 o
7 25 0 49.115 393.939 51.412 68.729 o
7 25 1 292.666 387.347 35.593 44.114 o
7 25 2 1354.390 1438.220 42.404 8.293 o
7 25 3 507.631 625.512 36.911 25.399 o
7 25 4 28.273 17.577 29.002 342.217 o
7 25 5 512.562 475.670 33.176 28.358 o
7 25 6 448.264 513.680 35.154 30.117 o
7 25 7 464.753 480.504 35.154 30.121 o
7 25 8 72.430 91.179 24.827 176.731 o
7 25 9 824.846 785.680 39.987 16.090 o
7 25 10 224.829 200.594 32.737 66.329 o
7 25 11 391.313 265.189 33.176 41.454 o
7 25 12 76.843 90.081 32.078 152.468 o
7 25 13 377.856 321.435 32.078 40.509 o
7 26 0 1172.410 1594.870 67.011 8.496 o
7 26 1 966.163 805.014 37.570 14.071 o
7 26 2 7249.000 7546.130 131.826 0.638 o
7 26 3 4916.960 4624.220 100.847 1.295 o
7 26 4 1957.400 2055.380 55.586 5.008 o
7 26 5 5162.600 5620.160 110.074 1.101 o
7 26 6 1864.510 1877.630 53.829 5.470 o
7 26 7 189.274 230.255 24.168 75.203 o
7 26 8 2061.490 2402.740 59.761 4.405 o
7 26 9 5082.360 5586.330 116.006 1.120 o
7 26 10 1840.390 2150.290 58.662 5.157 o
7 26 11 570.597 718.010 49.654 21.176 o
7 27 0 2779.920 3170.180 119.082 2.738 o
7 27 1 778.481 854.449 36.911 16.392 o
7 27 2 3195.570 2854.240 66.572 2.641 o
7 27 3 12.529 25.486 32.737 345.755 o
7 27 4 297.261 261.674 33.176 50.770 o
7 27 5 973.780 1239.380 53.829 11.321 o
7 27 6 1180.710 1373.620 41.745 9.500 o
7 27 7 296.967 213.338 28.343 55.386 o
7 27 8 0.974 -76.239 42.843 297.479 o
7 28 0 831.025 752.284 113.590 12.196 o
7 28 1 4268.020 3713.520 142.591 1.631 o
7 28 2 973.057 921.021 75.580 12.053 o
7 28 3 1021.870 1107.770 74.262 10.883 o
7 28 4 139.030 199.935 68.330 55.795 o
8 0 0 160523.000 212105.000 4706.390 0.001 o
8 0 1 670.983 1377.800 53.170 13.683 o
8 0 2 6108.560 7099.020 154.016 0.789 o
8 0 3 331.244 818.856 34.494 28.631 o
8 0 4 10271.500 8223.710 157.751 0.400 o
8 0 5 91.572 99.748 17.577 165.741 o
8 0 6 32616.900 29226.400 501.596 0.044 o
8 0 7 7600.760 7550.960 206.087 0.588 o
8 0 8 127935.000 156206.000 2489.300 0.002 o
8 0 9 2814.440 3334.090 74.921 2.750 o
8 0 10 8345.640 7154.610 136.659 0.557 o
8 0 11 122.868 210.262 16.918 104.992 o
8 0 12 11604.500 9887.350 281.008 0.303 o
8 0 13 391.124 492.588 24.827 34.831 o
8 0 14 30485.400 30200.600 597.170 0.046 o
8 0 15 4707.330 5370.570 151.599 1.214 o
8 0 16 5142.080 4752.310 112.931 1.209 o
8 0 17 209.674 348.678 27.903 58.365 o
8 0 18 5819.310 6688.170 179.502 0.849 o
8 0 19 154.101 206.087 27.903 85.932 o
8 0 20 21556.500 23963.200 595.851 0.081 o
8 0 21 801.853 835.115 42.843 15.954 o
8 0 22 910.479 911.354 43.502 13.931 o
8 0 23 2792.400 2856.660 93.596 2.954 o
8 0 24 13377.500 13961.200 370.430 0.206 o
8 0 25 107.461 71.406 27.244 145.197 o
8 0 26 115.064 148.743 23.070 119.342 o
8 0 27 10.121 -32.737 74.921 94.807 o
8 1 0 8505.320 8392.230 186.753 0.492 o
8 1 1 2897.350 2896.430 43.502 2.935 o
8 1 2 392.324 233.771 13.842 45.900 o
8 1 3 10433.600 8729.480 132.924 0.383 o
8 1 4 13715.500 12090.800 151.599 0.228 o
8 1 5 521.245 283.425 11.425 34.373 o
8 1 6 10681.500 10352.700 144.349 0.338 o
8 1 7 16359.600 14842.200 188.510 0.162 o
8 1 8 12214.000 11384.200 204.330 0.269 o
8 1 9 8181.870 7504.610 111.173 0.560 o
8 1 10 12569.100 13664.400 196.420 0.234 o
8 1 11 1365.680 1441.290 25.926 8.367 o
8 1 12 11757.400 12375.300 167.418 0.270 o
8 1 13 6880.020 6913.370 107.657 0.716 o
8 1 14 4407.720 5065.390 97.990 1.384 o
8 1 15 3292.380 3588.510 62.178 2.290 o
8 1 16 7034.090 9612.940 180.162 0.556 o
8 1 17 702.714 902.346 21.751 17.754 o
8 1 18 846.143 1166.440 29.661 13.523 o
8 1 19 232.288 218.171 13.842 70.474 o
8 1 20 2448.660 3429.000 70.746 3.076 o
8 1 21 2406.080 2548.410 93.157 3.588 o
8 1 22 1656.160 2045.050 50.753 5.840 o
8 1 23 103.255 179.502 19.334 121.381 o
8 1 24 4840.130 5441.980 161.267 1.164 o
8 1 25 1086.170 1118.540 45.260 11.075 o
8 1 26 49.025 89.422 19.994 232.003 o
8 1 27 228.360 218.830 24.168 67.826 o
8 1 28 2433.710 2651.230 103.922 3.437 o
8 2 0 139.369 563.774 21.092 54.947 o
8 2 1 1709.350 1418.880 30.759 6.835 o
8 2 2 33082.500 26360.700 319.677 0.046 o
8 2 3 4346.640 3827.110 56.905 1.659 o
8 2 4 4469.830 3786.690 56.905 1.617 o
8 2 5 790.854 665.938 23.509 18.278 o
8 2 6 127.455 100.407 10.986 139.793 o
8 2 7 61.845 192.246 9.667 158.562 o
8 2 8 952.174 1100.520 32.078 12.669 o
8 2 9 1454.900 1368.130 39.328 7.992 o
8 2 10 761.902 441.176 30.320 21.126 o
8 2 11 146.136 270.682 15.819 85.389 o
8 2 12 908.001 2016.710 56.245 8.979 o
8 2 13 36.123 87.664 10.326 308.465 o
8 2 14 2849.900 2755.150 74.262 2.999 o
8 2 15 81.123 126.992 10.326 172.590 o
8 2 16 703.601 678.682 19.334 20.104 o
8 2 17 61.387 141.932 12.084 186.034 o
8 2 18 1710.450 1544.560 36.911 6.564 o
8 2 19 41.398 96.013 17.577 251.477 o
8 2 20 19.619 49.654 12.743 506.503 o
8 2 21 115.876 102.824 18.236 140.521 o
8 2 22 5249.610 5791.310 136.000 1.050 o
8 2 23 168.373 149.842 29.002 89.539 o
8 2 24 38.304 92.498 23.070 238.565 o
8 2 25 960.292 1231.690 65.913 11.137 o
8 2 26 1865.250 1611.130 68.330 5.736 o
8 2 27 780.407 853.350 64.155 15.134 o
8 2 28 670.995 1021.870 66.572 15.349 o
8 3 0 1555.140 1072.620 39.987 8.225 o
8 3 1 86.367 122.158 12.084 167.258 o
8 3 2 61551.900 64610.800 936.181 0.012 o
8 3 3 1066.550 1176.100 23.070 11.342 o
8 3 4 16028.700 15354.600 191.586 0.162 o
8 3 5 1091.390 865.434 19.994 12.625 o
8 3 6 4777.110 3968.610 61.738 1.464 o
8 3 7 7.727 43.502 9.667 781.543 o
8 3 8 21033.400 21488.000 308.252 0.093 o
8 3 9 384.822 405.583 15.160 39.088 o
8 3 10 46279.700 47438.300 597.170 0.021 o
8 3 11 1309.950 1274.530 24.827 9.173 o
8 3 12 2011.030 1735.700 36.911 5.353 o
8 3 13 5893.650 6158.670 95.573 0.911 o
8 3 14 18738.700 19316.000 253.764 0.116 o
8 3 15 25.921 19.994 9.667 656.077 o
8 3 16 4466.820 4864.140 84.588 1.406 o
8 3 17 327.444 241.680 17.577 52.135 o
8 3 18 9128.100 11063.900 181.260 0.385 o
8 3 19 1538.110 1792.390 41.745 6.710 o
8 3 20 2952.130 2963.000 57.344 2.828 o
8 3 21 1057.110 1241.360 42.404 10.864 o
8 3 22 9790.880 12612.800 340.330 0.312 o
8 3 23 1312.550 1508.300 70.746 7.944 o
8 3 24 110.159 264.750 33.176 86.157 o
8 3 25 160.929 248.930 29.661 76.814 o
8 3 26 4989.130 5894.580 192.246 1.056 o
8 3 27 44.462 79.754 26.585 222.242 o
8 3 28 500.024 533.014 36.252 27.413 o
8 4 0 1563.880 1748.230 41.086 6.701 o
8 4 1 11276.400 12268.300 155.994 0.286 o
8 4 2 914.359 698.016 38.010 15.473 o
8 4 3 7.938 -0.659 9.667 2142.810 o
8 4 4 5503.980 4420.550 110.514 1.161 o
8 4 5 1291.860 1156.110 30.320 9.621 o
8 4 6 609.229 619.360 19.994 23.311 o
8 4 7 1550.980 1023.190 32.078 8.449 o
8 4 8 50203.100 50764.500 689.447 0.018 o
8 4 9 2320.310 2603.330 56.905 3.806 o
8 4 10 18244.200 18543.700 248.271 0.123 o
8 4 11 70.563 35.154 11.425 277.476 o
8 4 12 22918.000 21607.700 337.254 0.083 o
8 4 13 2275.150 2157.980 39.328 4.304 o
8 4 14 2872.860 2823.480 56.905 2.976 o
8 4 15 361.930 484.019 17.577 37.712 o
8 4 16 4680.420 4765.710 93.157 1.349 o
8 4 17 4323.480 4929.390 89.422 1.439 o
8 4 18 1628.840 1911.470 42.843 6.181 o
8 4 19 867.840 1108.430 30.759 13.587 o
8 4 20 982.797 1116.120 42.843 12.061 o
8 4 21 696.415 1035.710 29.002 16.509 o
8 4 22 150.098 178.843 18.236 99.117 o
8 4 23 207.566 444.252 53.829 43.433 o
8 4 24 237.177 310.669 35.593 54.357 o
8 4 25 277.038 190.268 29.661 59.555 o
8 4 26 539.896 732.950 59.322 20.891 o
8 4 27 27.989 53.170 24.827 314.000 o
8 4 28 2493.740 2611.240 74.921 3.499 o
8 5 0 36423.000 41899.000 987.373 0.029 o
8 5 1 30779.900 30009.600 411.515 0.047 o
8 5 2 2468.190 2758.670 58.003 3.485 o
8 5 3 7602.460 7141.210 99.748 0.628 o
8 5 4 708.778 574.100 25.486 21.013 o
8 5 5 32060.400 33178.100 422.940 0.042 o
8 5 6 81.224 47.677 12.084 232.829 o
8 5 7 25861.900 24566.300 351.754 0.066 o
8 5 8 207.958 313.086 21.751 63.631 o
8 5 9 44756.100 44505.600 611.011 0.022 o
8 5 10 14587.600 14588.500 231.354 0.187 o
8 5 11 7127.330 6082.430 89.422 0.740 o
8 5 12 55.682 139.515 10.986 197.844 o
8 5 13 20874.700 23021.800 324.510 0.090 o
8 5 14 4108.660 4390.450 74.921 1.630 o
8 5 15 8562.050 9320.500 131.826 0.466 o
8 5 16 161.244 132.924 9.667 109.132 o
8 5 17 11499.100 12214.100 177.745 0.279 o
8 5 18 610.258 765.686 21.092 21.247 o
8 5 19 359.573 579.593 21.751 34.435 o
8 5 20 1386.730 1979.140 44.821 6.908 o
8 5 21 7382.860 8368.720 183.018 0.578 o
8 5 22 167.795 185.435 18.675 90.904 o
8 5 23 3004.750 3173.920 67.011 2.667 o
8 5 24 47.117 141.932 33.176 152.950 o
8 5 25 752.174 785.021 44.161 17.106 o
8 5 26 212.324 268.924 32.078 62.721 o
8 5 27 2718.590 2429.980 73.163 3.334 o
8 6 0 3221.100 3647.170 110.074 2.242 o
8 6 1 1507.140 1613.540 33.176 7.243 o
8 6 2 35556.100 34067.000 568.607 0.036 o
8 6 3 2198.580 1954.970 35.154 4.665 o
8 6 4 2049.840 2589.490 58.003 4.261 o
8 6 5 1058.280 1327.040 43.502 10.499 o
8 6 6 12553.000 12662.900 172.911 0.246 o
8 6 7 12021.000 9966.010 166.759 0.297 o
8 6 8 5821.480 5784.500 102.824 0.954 o
8 6 9 157.727 197.079 16.918 93.387 o
8 6 10 9796.480 8995.990 126.333 0.407 o
8 6 11 3737.450 3173.920 62.837 2.134 o
8 6 12 2042.930 2006.380 58.662 4.854 o
8 6 13 3810.790 3824.260 60.420 1.909 o
8 6 14 3483.860 3797.670 59.322 2.102 o
8 6 15 840.413 737.783 18.236 16.848 o
8 6 16 1528.720 1116.780 26.585 8.359 o
8 6 17 876.203 728.116 21.751 16.269 o
8 6 18 4738.650 5165.140 91.179 1.274 o
8 6 19 3297.310 3727.370 68.330 2.232 o
8 6 20 584.553 817.758 39.328 20.375 o
8 6 21 4660.360 5180.960 106.998 1.285 o
8 6 22 2515.680 2789.650 59.322 3.400 o
8 6 23 718.280 860.601 32.737 17.514 o
8 6 24 735.244 744.594 33.176 18.262 o
8 6 25 496.093 464.026 41.086 28.418 o
8 6 26 4705.300 4721.550 115.347 1.333 o
8 6 27 183.295 224.103 30.320 73.988 o
8 7 0 117.817 414.591 23.070 70.930 o
8 7 1 49964.600 49018.700 809.848 0.018 o
8 7 2 13509.800 11401.800 157.092 0.239 o
8 7 3 35784.300 35090.600 522.029 0.035 o
8 7 4 139.231 68.989 10.326 143.510 o
8 7 5 29208.000 32271.500 619.360 0.047 o
8 7 6 2412.510 2310.900 55.586 3.894 o
8 7 7 2587.730 2685.720 49.654 3.396 o
8 7 8 3727.390 3006.500 60.420 2.196 o
8 7 9 70.487 136.659 15.160 172.859 o
8 7 10 1061.170 918.604 24.168 12.609 o
8 7 11 4579.510 5635.980 102.824 1.247 o
8 7 12 94.790 120.840 11.425 159.674 o
8 7 13 3333.410 4216.440 65.913 2.060 o
8 7 14 412.242 607.935 25.926 30.540 o
8 7 15 8351.760 8622.490 132.265 0.503 o
8 7 16 96.808 238.165 18.236 109.818 o
8 7 17 10443.800 10728.000 175.767 0.338 o
8 7 18 2626.960 2959.920 56.245 3.171 o
8 7 19 10148.900 11042.800 183.018 0.343 o
8 7 20 150.582 172.252 19.334 99.538 o
8 7 21 1369.520 1599.700 53.170 7.705 o
8 7 22 446.082 513.680 23.070 31.427 o
8 7 23 1133.140 1095.690 30.759 11.023 o
8 7 24 64.962 70.087 18.675 224.034 o
8 7 25 2946.800 3069.340 86.346 2.725 o
8 7 26 1204.280 1222.020 44.161 9.813 o
8 7 27 270.749 305.835 33.835 51.083 o
8 8 0 12123.900 11335.900 237.506 0.270 o
8 8 1 3242.800 2866.980 51.412 2.618 o
8 8 2 74.498 73.822 9.667 224.730 o
8 8 3 206.621 470.178 21.751 52.142 o
8 8 4 370.662 246.514 15.160 47.299 o
8 8 5 2101.140 2202.800 52.071 4.554 o
8 8 6 831.249 657.590 19.994 17.682 o
8 8 7 279.483 211.580 26.585 58.618 o
8 8 8 1359.140 1216.530 35.593 8.954 o
8 8 9 2187.370 2542.910 74.262 3.999 o
8 8 10 40.942 111.832 13.842 246.581 o
8 8 11 2185.450 2452.390 62.837 4.125 o
8 8 12 289.891 292.433 15.819 53.996 o
8 8 13 5602.700 5626.310 112.931 1.007 o
8 8 14 1511.000 1328.800 30.320 7.886 o
8 8 15 793.279 904.762 29.002 16.010 o
8 8 16 28.460 25.486 12.084 549.192 o
8 8 17 516.581 431.509 18.675 30.323 o
8 8 18 2379.690 2624.650 59.761 3.694 o
8 8 19 3461.930 2927.840 68.989 2.396 o
8 8 20 1830.360 1454.040 32.078 6.328 o
8 8 21 1627.340 1822.710 41.086 6.344 o
8 8 22 1414.630 1512.040 34.494 7.879 o
8 8 23 722.542 710.100 25.926 19.136 o
8 8 24 643.749 814.022 28.343 19.622 o
8 8 25 89.394 136.000 20.653 145.202 o
8 8 26 49.174 68.330 30.320 206.369 o
8 8 27 0.968 -12.084 28.343 670.512 o
8 9 0 1083.270 1029.780 49.654 11.382 o
8 9 1 6411.980 5439.560 112.931 0.880 o
8 9 2 8091.470 8117.380 178.184 0.532 o
8 9 3 22529.600 24665.000 439.418 0.078 o
8 9 4 68.033 131.826 12.084 183.863 o
8 9 5 1259.170 1668.470 45.260 8.160 o
8 9 6 487.629 526.863 21.092 29.318 o
8 9 7 1063.650 931.787 30.759 12.414 o
8 9 8 527.670 653.854 22.410 25.238 o
8 9 9 8101.210 7596.440 137.758 0.559 o
8 9 10 524.478 496.103 18.675 28.538 o
8 9 11 635.464 920.362 33.835 18.467 o
8 9 12 868.995 946.287 23.509 14.737 o
8 9 13 912.956 1093.930 25.486 13.247 o
8 9 14 58.913 23.070 10.986 344.994 o
8 9 15 1359.840 1270.800 33.176 8.815 o
8 9 16 238.428 200.594 15.160 70.705 o
8 9 17 1556.760 1988.150 48.995 6.252 o
8 9 18 5573.260 5726.060 95.573 1.009 o
8 9 19 3081.550 3461.520 85.247 2.454 o
8 9 20 819.519 819.515 23.070 16.417 o
8 9 21 908.090 1111.290 36.911 12.982 o
8 9 22 14.148 29.661 14.501 679.256 o
8 9 23 696.816 652.756 23.509 20.430 o
8 9 24 247.474 245.415 23.070 62.214 o
8 9 25 0.075 -13.402 20.653 1289.520 o
8 9 26 837.867 842.365 30.320 15.770 o
8 10 0 1791.460 1946.620 65.913 5.495 o
8 10 1 4877.520 5580.390 131.166 1.160 o
8 10 2 1184.550 770.520 32.078 11.995 o
8 10 3 18543.400 17617.400 283.425 0.124 o
8 10 4 2760.140 2518.750 52.511 3.281 o
8 10 5 10562.700 10503.200 151.599 0.339 o
8 10 6 944.469 774.695 30.320 14.732 o
8 10 7 25840.000 23061.600 359.664 0.069 o
8 10 8 336.738 206.746 18.236 53.047 o
8 10 9 7548.530 7115.940 115.347 0.632 o
8 10 10 490.596 681.098 24.827 25.916 o
8 10 11 22128.500 20648.000 325.829 0.090 o
8 10 12 31.613 84.588 16.259 303.690 o
8 10 13 6891.550 6242.160 112.491 0.755 o
8 10 14 1484.360 1492.700 43.502 7.525 o
8 10 15 6680.580 7320.710 101.506 0.717 o
8 10 16 350.881 322.094 18.236 45.108 o
8 10 17 928.986 850.934 24.827 14.548 o
8 10 18 43.761 90.740 16.259 257.400 o
8 10 19 2077.510 2173.140 50.094 4.640 o
8 10 20 608.340 742.178 24.168 21.479 o
8 10 21 4265.430 4178.210 77.997 1.607 o
8 10 22 23.205 5.493 16.918 668.884 o
8 10 23 612.015 551.250 19.994 24.269 o
8 10 24 419.629 369.331 23.070 37.121 o
8 10 25 1132.750 1306.610 38.669 10.100 o
8 10 26 797.631 805.674 32.078 16.642 o
8 11 0 5710.430 5338.710 126.333 1.008 o
8 11 1 4096.240 4136.030 70.746 1.691 o
8 11 2 735.182 979.683 32.737 16.225 o
8 11 3 5357.790 5735.730 80.414 1.058 o
8 11 4 3127.200 2809.420 58.003 2.735 o
8 11 5 4808.590 4912.480 84.588 1.294 o
8 11 6 115.923 313.086 19.994 86.216 o
8 11 7 2086.330 2945.420 52.071 3.918 o
8 11 8 1366.320 1234.550 27.244 8.934 o
8 11 9 5600.440 6234.250 98.430 0.955 o
8 11 10 3688.630 3512.270 59.761 2.064 o
8 11 11 6.001 -9.667 13.402 1817.870 o
8 11 12 4133.190 4605.540 79.754 1.573 o
8 11 13 1692.860 2170.730 39.987 5.611 o
8 11 14 188.690 199.935 15.819 83.212 o
8 11 15 1639.270 2235.980 42.843 5.657 o
8 11 16 235.854 330.003 22.410 57.521 o
8 11 17 73.956 166.100 19.994 146.568 o
8 11 18 130.344 150.501 16.259 116.859 o
8 11 19 919.784 1030.440 33.176 13.386 o
8 11 20 817.618 784.362 30.320 16.544 o
8 11 21 1807.310 1812.380 40.426 5.795 o
8 11 22 493.992 509.506 24.168 29.203 o
8 11 23 291.782 429.751 20.653 45.264 o
8 11 24 144.856 133.583 16.259 113.546 o
8 11 25 556.875 541.583 28.343 25.812 o
8 11 26 653.543 658.029 29.002 21.188 o
8 12 0 45.865 105.680 23.509 209.119 o
8 12 1 17616.600 17262.500 244.756 0.134 o
8 12 2 3630.700 3153.270 53.170 2.218 o
8 12 3 8338.430 7526.360 119.082 0.545 o
8 12 4 192.159 148.084 12.084 91.965 o
8 12 5 54079.200 59474.600 804.355 0.014 o
8 12 6 9829.010 9566.360 137.099 0.391 o
8 12 7 12057.900 12089.500 184.336 0.265 o
8 12 8 111.669 133.583 13.402 137.121 o
8 12 9 47455.800 51723.500 704.607 0.019 o
8 12 10 488.829 701.092 24.168 25.665 o
8 12 11 18256.600 19835.800 286.501 0.117 o
8 12 12 2017.820 2019.130 44.161 4.961 o
8 12 13 25962.200 26368.000 452.601 0.062 o
8 12 14 448.548 484.019 23.509 32.016 o
8 12 15 12609.700 12967.000 195.102 0.241 o
8 12 16 1126.310 1205.100 28.343 10.665 o
8 12 17 94.110 25.486 16.918 216.477 o
8 12 18 44.112 44.821 13.402 350.429 o
8 12 19 15015.300 15296.600 258.598 0.175 o
8 12 20 116.835 83.490 16.918 149.688 o
8 12 21 34.327 73.822 18.236 301.840 o
8 12 22 1168.450 1347.700 32.737 9.781 o
8 12 23 5656.930 5573.140 84.588 1.012 o
8 12 24 40.465 32.078 17.577 370.112 o
8 12 25 4656.370 4059.790 88.323 1.475 o
8 13 0 3680.570 3922.030 85.247 1.928 o
8 13 1 59.504 25.926 13.842 322.036 o
8 13 2 538.766 478.087 25.926 27.856 o
8 13 3 7989.710 6585.340 106.998 0.617 o
8 13 4 13590.800 15091.800 221.687 0.199 o
8 13 5 3864.370 4168.540 73.822 1.786 o
8 13 6 782.220 656.930 24.827 18.497 o
8 13 7 10144.100 9258.760 148.743 0.383 o
8 13 8 6950.030 7507.460 122.158 0.672 o
8 13 9 13028.500 13969.500 227.838 0.220 o
8 13 10 3807.800 4027.930 65.254 1.855 o
8 13 11 11355.800 11335.900 152.258 0.298 o
8 13 12 5004.480 5090.220 79.754 1.218 o
8 13 13 7696.340 7694.220 117.764 0.592 o
8 13 14 384.133 363.838 18.236 40.432 o
8 13 15 4746.800 4447.790 91.179 1.379 o
8 13 16 988.403 1111.290 29.661 12.286 o
8 13 17 1923.340 1726.040 38.669 5.594 o
8 13 18 221.001 236.846 21.092 68.665 o
8 13 19 37.203 21.092 21.751 375.443 o
8 13 20 1510.770 1603.220 35.593 7.234 o
8 13 21 424.339 454.359 25.486 33.938 o
8 13 22 2360.810 2594.330 49.654 3.772 o
8 13 23 306.103 290.675 19.994 51.309 o
8 13 24 663.033 734.927 25.486 20.188 o
8 13 25 590.045 508.187 33.176 24.906 o
8 14 0 4864.530 4154.700 88.763 1.389 o
8 14 1 198.539 215.754 20.653 76.344 o
8 14 2 11427.600 10524.900 157.751 0.308 o
8 14 3 618.142 756.019 25.926 20.987 o
8 14 4 553.920 297.926 23.070 31.429 o
8 14 5 26.353 31.418 12.743 530.995 o
8 14 6 1920.520 1821.390 44.161 5.447 o
8 14 7 917.575 1826.880 44.821 9.696 o
8 14 8 5873.710 6283.680 95.573 0.904 o
8 14 9 385.416 266.507 18.236 44.473 o
8 14 10 1746.470 1440.190 36.252 6.626 o
8 14 11 113.888 119.741 23.509 128.576 o
8 14 12 3201.750 3710.010 70.746 2.300 o
8 14 13 118.985 288.918 21.092 88.507 o
8 14 14 1479.380 1824.460 54.488 6.769 o
8 14 15 2199.650 2206.320 50.094 4.367 o
8 14 16 434.998 366.914 18.236 36.675 o
8 14 17 216.956 359.664 25.486 57.242 o
8 14 18 2009.610 2073.400 46.578 4.909 o
8 14 19 841.229 545.098 22.410 18.506 o
8 14 20 59.261 25.926 17.577 302.261 o
8 14 21 1267.580 1198.950 36.252 9.574 o
8 14 22 2200.500 2402.300 51.412 4.183 o
8 14 23 809.628 730.533 25.926 17.264 o
8 14 24 588.411 485.777 24.168 25.949 o
8 15 0 4373.020 5494.490 109.415 1.321 o
8 15 1 973.714 808.530 23.070 14.273 o
8 15 2 16557.900 17212.900 248.930 0.145 o
8 15 3 78.888 312.426 19.994 99.739 o
8 15 4 1852.800 2111.410 46.578 5.236 o
8 15 5 5896.070 5677.720 82.830 0.957 o
8 15 6 2633.310 3430.760 73.822 2.878 o
8 15 7 8419.220 10346.100 178.843 0.439 o
8 15 8 1098.650 1364.610 34.494 10.194 o
8 15 9 7605.540 8558.990 114.249 0.563 o
8 15 10 800.410 843.024 26.585 16.451 o
8 15 11 2216.130 2576.310 54.488 3.999 o
8 15 12 2665.830 2648.810 48.336 3.325 o
8 15 13 971.225 839.509 32.737 13.916 o
8 15 14 300.026 236.187 20.653 55.481 o
8 15 15 3138.010 3038.580 56.245 2.627 o
8 15 16 4468.010 4360.790 73.822 1.498 o
8 15 17 21.944 35.593 18.675 468.970 o
8 15 18 4243.790 4458.120 83.929 1.556 o
8 15 19 1056.360 920.362 30.320 12.554 o
8 15 20 92.977 129.848 17.577 149.379 o
8 15 21 221.307 154.016 21.092 78.225 o
8 15 22 2195.580 2199.730 47.677 4.389 o
8 15 23 538.482 550.591 25.486 26.502 o
8 16 0 13657.200 15453.900 325.170 0.191 o
8 16 1 424.911 482.921 23.509 33.304 o
8 16 2 5895.260 6791.430 110.074 0.856 o
8 16 3 2335.870 2524.900 49.654 3.863 o
8 16 4 2567.300 2226.310 45.919 3.748 o
8 16 5 5726.120 5025.630 90.081 1.052 o
8 16 6 3681.010 4004.860 79.754 1.912 o
8 16 7 1962.640 2383.410 60.420 4.616 o
8 16 8 0.026 -16.918 12.743 3388.230 o
8 16 9 8134.820 8129.900 148.743 0.534 o
8 16 10 251.181 337.913 27.244 53.512 o
8 16 11 60.151 100.407 18.675 205.310 o
8 16 12 4886.870 5066.710 100.847 1.242 o
8 16 13 1102.330 1045.380 35.593 11.429 o
8 16 14 534.600 472.594 23.509 28.308 o
8 16 15 3330.050 2932.240 54.927 2.514 o
8 16 16 1276.040 1050.210 32.078 10.077 o
8 16 17 757.511 829.842 33.835 17.055 o
8 16 18 106.213 83.929 20.653 153.462 o
8 16 19 417.143 451.502 29.661 33.948 o
8 16 20 1790.430 1673.960 44.821 6.032 o
8 16 21 1.555 -15.160 18.675 1449.340 o
8 16 22 706.819 706.365 28.343 19.422 o
8 16 23 1099.790 1186.870 42.843 10.733 o
8 17 0 7569.500 7032.450 174.669 0.622 o
8 17 1 802.389 710.100 29.661 17.461 o
8 17 2 18.567 39.328 15.819 527.334 o
8 17 3 52.637 63.496 15.160 274.920 o
8 17 4 361.402 739.761 25.486 29.878 o
8 17 5 3476.520 3082.080 71.845 2.326 o
8 17 6 893.458 1234.550 33.176 12.562 o
8 17 7 35.944 59.322 13.402 354.837 o
8 17 8 6856.050 8233.820 119.082 0.645 o
8 17 9 1720.710 2044.390 46.578 5.678 o
8 17 10 156.075 158.850 17.577 101.231 o
8 17 11 22.250 39.328 22.410 401.084 o
8 17 12 10529.900 10898.900 164.342 0.332 o
8 17 13 3.490 4.834 18.236 1214.200 o
8 17 14 3782.230 3626.520 81.073 1.957 o
8 17 15 3623.880 3662.110 76.239 2.041 o
8 17 16 78.368 32.078 18.236 237.259 o
8 17 17 6.940 18.675 20.653 722.665 o
8 17 18 54.796 81.073 22.410 219.374 o
8 17 19 998.949 1154.350 38.010 11.829 o
8 17 20 380.596 313.086 27.244 41.496 o
8 17 21 33.567 29.002 21.751 373.730 o
8 17 22 158.161 136.000 21.751 102.180 o
8 18 0 1107.770 1136.120 48.995 10.753 o
8 18 1 468.745 690.766 27.244 26.372 o
8 18 2 8681.760 10460.400 168.078 0.423 o
8 18 3 3466.050 3269.930 62.178 2.280 o
8 18 4 167.658 96.672 15.160 112.055 o
8 18 5 809.966 1242.460 35.154 13.385 o
8 18 6 1374.600 1220.700 36.252 8.844 o
8 18 7 752.508 1008.030 32.737 15.739 o
8 18 8 1179.930 1586.300 41.086 8.860 o
8 18 9 1677.740 1714.390 46.578 6.322 o
8 18 10 42.545 -5.493 18.236 452.500 o
8 18 11 438.076 426.675 21.092 34.376 o
8 18 12 50.707 50.094 13.842 309.344 o
8 18 13 955.014 875.102 32.737 13.897 o
8 18 14 2079.810 1949.040 52.071 4.867 o
8 18 15 964.207 1122.930 38.669 12.300 o
8 18 16 1552.550 1885.540 56.245 6.383 o
8 18 17 169.945 146.766 19.994 96.430 o
8 18 18 197.298 190.927 24.168 78.138 o
8 18 19 117.261 123.916 24.168 124.125 o
8 18 20 347.553 242.998 25.926 48.096 o
8 18 21 1156.980 1176.100 41.086 10.364 o
8 19 0 596.062 529.279 37.570 24.041 o
8 19 1 22.259 -4.834 13.402 860.411 o
8 19 2 2329.520 3198.090 79.095 3.322 o
8 19 3 1286.460 1644.300 39.328 8.144 o
8 19 4 1591.660 2187.640 48.995 5.831 o
8 19 5 4574.670 4854.030 80.414 1.375 o
8 19 6 106.089 110.074 22.410 139.380 o
8 19 7 3583.200 3361.330 62.178 2.173 o
8 19 8 5625.940 6106.160 110.514 0.958 o
8 19 9 5239.010 5755.060 112.491 1.068 o
8 19 10 4713.760 5195.460 89.422 1.278 o
8 19 11 261.842 330.003 23.509 53.627 o
8 19 12 3028.460 3052.420 64.594 2.704 o
8 19 13 84.457 111.832 21.092 160.337 o
8 19 14 59.651 99.748 16.918 211.654 o
8 19 15 349.618 404.265 34.494 39.058 o
8 19 16 2290.080 2716.480 68.989 3.728 o
8 19 17 1474.360 1532.470 42.843 7.487 o
8 19 18 202.915 226.520 23.070 72.933 o
8 19 19 578.099 494.346 35.154 25.381 o
8 19 20 25.209 58.003 22.410 337.388 o
8 20 0 280.549 749.428 64.155 27.832 o
8 20 1 1099.970 1241.360 38.669 10.588 o
8 20 2 2045.040 2242.570 51.412 4.630 o
8 20 3 41.524 96.672 19.334 243.201 o
8 20 4 685.422 997.699 38.669 16.675 o
8 20 5 3025.490 3500.850 69.428 2.510 o
8 20 6 1541.660 1925.310 45.919 6.431 o
8 20 7 390.536 529.279 36.252 32.414 o
8 20 8 158.673 193.344 27.903 86.495 o
8 20 9 765.858 843.024 32.737 16.839 o
8 20 10 281.920 323.851 27.244 50.599 o
8 20 11 1475.940 1344.620 43.502 7.907 o
8 20 12 1412.660 1272.120 36.911 8.481 o
8 20 13 50.240 30.759 19.334 315.399 o
8 20 14 1715.590 1739.220 53.829 6.106 o
8 20 15 800.304 1093.270 35.593 14.399 o
8 20 16 583.009 579.593 34.494 23.900 o
8 20 17 605.091 489.512 28.343 25.053 o
8 20 18 388.786 302.759 20.653 42.247 o
8 20 19 72.859 79.754 25.926 180.165 o
8 21 0 567.577 666.598 46.578 22.160 o
8 21 1 2742.760 2649.250 57.344 3.214 o
8 21 2 765.512 620.678 31.418 18.966 o
8 21 3 78.087 108.097 24.827 160.803 o
8 21 4 505.782 618.262 28.343 26.267 o
8 21 5 12108.700 13326.000 211.580 0.247 o
8 21 6 58.087 97.990 21.751 201.328 o
8 21 7 36.068 59.761 24.827 276.039 o
8 21 8 468.635 460.510 30.759 30.896 o
8 21 9 6826.050 6786.600 114.249 0.729 o
8 21 10 2014.290 1768.220 47.237 5.259 o
8 21 11 322.237 554.107 33.176 36.068 o
8 21 12 215.709 336.594 25.486 59.173 o
8 21 13 246.169 551.690 26.585 42.880 o
8 21 14 848.337 1024.940 52.071 13.711 o
8 21 15 3011.410 3347.930 71.845 2.579 o
8 21 16 322.711 392.840 25.926 43.248 o
8 21 17 449.787 412.174 29.661 33.224 o
8 21 18 132.298 221.687 27.903 90.508 o
8 22 0 372.621 362.081 48.995 35.859 o
8 22 1 63.010 173.351 18.675 155.377 o
8 22 2 14019.500 14172.100 224.103 0.200 o
8 22 3 1754.870 1742.290 41.086 6.058 o
8 22 4 134.871 225.422 23.509 92.373 o
8 22 5 107.569 166.759 30.320 109.380 o
8 22 6 2467.770 2761.090 56.905 3.486 o
8 22 7 685.658 734.268 36.252 19.230 o
8 22 8 99.504 190.268 28.343 110.091 o
8 22 9 380.285 633.422 30.759 30.988 o
8 22 10 1969.310 2067.460 59.761 4.945 o
8 22 11 469.719 538.507 35.154 28.634 o
8 22 12 1361.150 1866.870 50.094 7.191 o
8 22 13 1658.790 1507.860 45.919 6.761 o
8 22 14 230.469 325.170 36.911 53.780 o
8 22 15 74.463 27.903 24.168 225.413 o
8 22 16 1574.870 1837.210 59.322 6.363 o
8 22 17 312.070 259.916 34.494 48.801 o
8 23 0 711.296 850.274 49.654 16.975 o
8 23 1 1709.130 2078.230 52.511 5.629 o
8 23 2 459.431 281.008 30.320 36.459 o
8 23 3 3056.790 3514.690 71.406 2.477 o
8 23 4 2165.440 2484.470 56.905 4.154 o
8 23 5 174.999 214.436 28.343 78.465 o
8 23 6 324.217 281.008 26.585 48.414 o
8 23 7 5668.740 5749.570 112.931 0.982 o
8 23 8 1316.330 1643.860 49.654 7.891 o
8 23 9 3349.360 3465.910 74.921 2.277 o
8 23 10 870.658 918.604 40.426 14.480 o
8 23 11 3424.700 3263.340 73.163 2.297 o
8 23 12 49.073 58.662 25.926 237.752 o
8 23 13 4170.010 3639.920 81.073 1.761 o
8 23 14 337.829 414.591 34.494 39.544 o
8 23 15 904.141 1067.790 43.502 13.100 o
8 23 16 98.804 129.848 26.585 130.715 o
8 24 0 9032.100 9912.840 229.596 0.412 o
8 24 1 2343.970 2727.250 70.087 3.640 o
8 24 2 1088.520 1237.620 37.570 10.710 o
8 24 3 302.416 364.498 33.835 44.703 o
8 24 4 2072.080 2145.460 59.761 4.638 o
8 24 5 3033.340 3436.250 68.989 2.530 o
8 24 6 834.608 1109.530 42.843 13.672 o
8 24 7 7560.250 9005.660 159.509 0.542 o
8 24 8 797.204 959.031 40.426 15.201 o
8 24 9 563.628 835.774 42.843 20.433 o
8 24 10 1268.680 1640.130 49.654 8.134 o
8 24 11 2001.750 2686.820 70.087 4.210 o
8 24 12 74.590 98.430 29.002 158.866 o
8 24 13 244.293 357.247 30.759 52.131 o
8 24 14 2582.320 2881.490 87.005 3.185 o
8 25 0 9475.510 10658.500 314.843 0.362 o
8 25 1 393.116 672.090 36.252 28.931 o
8 25 2 271.430 240.582 32.737 55.531 o
8 25 3 239.287 369.771 33.176 51.232 o
8 25 4 3571.570 4176.450 85.247 1.918 o
8 25 5 232.194 147.425 32.078 70.582 o
8 25 6 67.731 112.491 30.759 154.043 o
8 25 7 436.041 294.410 28.343 37.862 o
8 25 8 1535.680 2065.050 50.094 6.187 o
8 25 9 350.628 264.090 36.911 44.108 o
8 25 10 498.440 535.431 33.176 27.721 o
8 25 11 63.258 68.989 30.759 183.239 o
8 25 12 1853.080 1802.050 52.511 5.612 o
8 26 0 79.767 70.746 44.821 123.962 o
8 26 1 22.157 13.402 30.320 363.365 o
8 26 2 1142.840 1264.210 49.654 10.001 o
8 26 3 1604.000 1856.980 53.170 6.283 o
8 26 4 135.130 116.006 21.751 118.714 o
8 26 5 1520.420 1673.310 50.753 6.934 o
8 26 6 1189.510 1078.770 44.821 10.422 o
8 26 7 3594.270 4209.190 101.506 1.879 o
8 26 8 82.781 81.512 29.661 157.380 o
8 26 9 567.432 624.194 42.404 23.093 o
8 26 10 57.212 38.669 30.759 215.971 o
8 27 1 64.707 78.656 47.677 123.338 o
8 27 2 144.160 322.753 32.078 70.661 o
8 27 3 52.283 68.330 47.237 136.171 o
8 27 4 315.446 298.585 49.654 41.943 o
8 27 5 15.273 24.827 48.336 189.584 o
8 27 6 353.243 272.659 52.071 39.315 o
8 27 7 120.288 152.918 37.570 97.355 o
9 1 0 471.394 476.769 24.827 30.942 o
9 1 1 10043.200 9781.010 126.333 0.377 o
9 1 2 7921.920 7742.550 122.598 0.570 o
9 1 3 5795.080 6231.170 106.998 0.918 o
9 1 4 2069.800 2719.560 42.404 4.161 o
9 1 5 5549.780 4511.950 66.572 1.158 o
9 1 6 7007.520 6832.520 92.498 0.709 o
9 1 7 4641.150 4606.200 101.506 1.380 o
9 1 8 40023.900 38862.800 537.189 0.028 o
9 1 9 1815.640 1662.540 34.494 6.025 o
9 1 10 35405.000 37294.800 505.771 0.034 o
9 1 11 1861.910 1479.960 30.320 6.188 o
9 1 12 1937.590 1519.950 29.002 5.892 o
9 1 13 1617.060 1435.800 29.002 7.179 o
9 1 14 10801.900 10693.500 230.255 0.321 o
9 1 15 2467.110 2306.070 52.071 3.823 o
9 1 16 2406.080 2081.300 41.086 4.134 o
9 1 17 1351.840 1550.710 40.426 8.040 o
9 1 18 1939.670 2882.580 72.504 4.137 o
9 1 19 2968.830 3298.930 70.746 2.637 o
9 1 20 192.337 198.837 19.994 80.510 o
9 1 21 556.384 694.940 19.994 23.764 o
9 1 22 376.068 304.517 27.244 42.226 o
9 1 23 1229.130 1296.280 64.594 9.061 o
9 1 24 29.496 70.746 19.334 318.307 o
9 1 25 27.900 85.247 19.334 297.609 o
9 1 26 706.747 647.263 32.078 19.914 o
9 1 27 32.995 81.512 21.092 276.717 o
9 2 0 1615.460 1990.570 68.989 5.906 o
9 2 1 3156.010 3337.160 48.336 2.500 o
9 2 2 31822.000 31287.700 469.518 0.043 o
9 2 3 207.727 203.670 17.577 76.798 o
9 2 4 9083.180 8676.970 123.916 0.455 o
9 2 5 4500.070 4703.970 67.670 1.431 o
9 2 6 2414.450 1944.650 35.593 4.254 o
9 2 7 420.770 314.843 12.743 39.989 o
9 2 8 5286.860 6187.010 93.157 1.021 o
9 2 9 23606.000 22822.900 282.766 0.078 o
9 2 10 8934.260 7891.290 140.174 0.487 o
9 2 11 445.646 468.859 14.501 33.234 o
9 2 12 3230.190 3385.940 74.921 2.389 o
9 2 13 852.326 554.766 18.236 18.297 o
9 2 14 6910.960 6363.000 95.573 0.748 o
9 2 15 11.002 10.326 12.084 1147.610 o
9 2 16 1943.040 1376.700 30.759 6.091 o
9 2 17 5171.200 6007.510 132.924 1.046 o
9 2 18 6781.540 6076.500 106.339 0.781 o
9 2 19 86.835 66.572 13.402 202.008 o
9 2 20 223.111 307.593 17.577 62.629 o
9 2 21 41.393 87.005 21.092 247.105 o
9 2 22 4435.230 4740.230 90.740 1.433 o
9 2 23 8.308 -10.986 18.236 1094.460 o
9 2 24 791.359 635.179 35.593 18.135 o
9 2 25 315.830 236.187 24.827 52.400 o
9 2 26 2151.880 2333.970 73.163 4.242 o
9 2 27 20.716 -4.834 22.410 592.302 o
9 3 0 14313.000 12543.400 223.664 0.209 o
9 3 1 918.777 916.846 25.486 14.240 o
9 3 2 16037.000 14862.700 232.672 0.165 o
9 3 3 75.188 71.406 10.326 224.556 o
9 3 4 5963.610 5012.880 71.406 1.010 o
9 3 5 769.492 769.861 19.334 17.801 o
9 3 6 7012.090 5549.410 83.490 0.790 o
9 3 7 2801.660 2620.910 52.511 3.172 o
9 3 8 27136.200 29702.000 515.438 0.054 o
9 3 9 2474.990 2426.470 39.987 3.750 o
9 3 10 9775.460 9281.170 132.265 0.401 o
9 3 11 59.570 8.569 12.084 371.775 o
9 3 12 33570.000 34633.200 439.858 0.038 o
9 3 13 3533.610 3956.520 76.678 2.008 o
9 3 14 4553.790 4448.450 72.504 1.453 o
9 3 15 47.681 114.249 11.425 234.917 o
9 3 16 3925.260 3974.100 88.323 1.790 o
9 3 17 4039.210 4037.600 67.011 1.741 o
9 3 18 3087.750 3568.520 70.746 2.434 o
9 3 19 214.564 182.578 15.160 78.628 o
9 3 20 1926.830 2242.570 50.753 4.887 o
9 3 21 7.513 9.008 16.259 1075.850 o
9 3 22 3238.370 3259.820 65.254 2.444 o
9 3 23 488.079 396.355 23.509 32.238 o
9 3 24 118.763 165.002 24.168 111.628 o
9 3 25 74.637 141.493 25.486 146.881 o
9 3 26 3581.090 3325.520 116.006 2.105 o
9 3 27 823.425 880.594 47.237 15.135 o
9 4 0 12723.400 13428.200 333.519 0.226 o
9 4 1 22031.900 20777.200 268.924 0.090 o
9 4 2 1778.550 1008.680 57.344 7.166 o
9 4 3 240.347 252.666 13.402 65.445 o
9 4 4 341.121 162.585 15.160 55.985 o
9 4 5 3347.660 3645.850 52.511 2.243 o
9 4 6 5666.290 4849.200 71.406 1.090 o
9 4 7 3793.180 4493.710 93.157 1.726 o
9 4 8 37595.200 39959.200 505.771 0.030 o
9 4 9 1045.340 1372.520 28.343 10.644 o
9 4 10 13303.300 14727.300 218.830 0.208 o
9 4 11 2053.800 1898.290 35.154 5.051 o
9 4 12 3326.860 3071.750 63.496 2.451 o
9 4 13 8538.490 10156.900 165.661 0.440 o
9 4 14 2739.030 2843.920 60.420 3.101 o
9 4 15 2243.570 2322.990 47.237 4.190 o
9 4 16 841.522 726.359 26.585 16.735 o
9 4 17 6440.460 7074.860 102.165 0.761 o
9 4 18 1423.330 1768.880 35.154 7.256 o
9 4 19 244.870 327.586 18.675 57.282 o
9 4 20 801.792 640.013 25.486 18.259 o
9 4 21 514.450 835.115 34.494 22.201 o
9 4 22 984.411 986.274 38.010 12.809 o
9 4 23 190.630 123.916 16.259 95.114 o
9 4 24 1852.670 1707.140 76.239 5.571 o
9 4 25 2944.030 2898.400 85.247 2.809 o
9 4 26 4725.160 4504.040 137.758 1.341 o
9 4 27 28.467 -7.910 28.343 395.715 o
9 5 0 30436.700 31378.400 616.943 0.045 o
9 5 1 13528.800 14214.300 180.601 0.210 o
9 5 2 585.045 611.011 18.675 24.231 o
9 5 3 5242.150 4502.280 64.594 1.239 o
9 5 4 36921.900 36163.500 458.094 0.033 o
9 5 5 2270.830 1837.650 35.154 4.637 o
9 5 6 8315.060 8803.310 189.829 0.491 o
9 5 7 1890.750 1934.980 56.905 5.309 o
9 5 8 7764.670 7072.440 111.832 0.615 o
9 5 9 748.464 733.609 27.244 18.329 o
9 5 10 114.154 211.580 15.819 109.591 o
9 5 11 566.448 799.522 19.994 21.982 o
9 5 12 166.868 232.013 15.160 85.225 o
9 5 13 85.085 92.498 12.084 187.449 o
9 5 14 3554.650 4227.200 85.906 1.913 o
9 5 15 1172.310 1165.120 27.903 10.468 o
9 5 16 1623.310 1626.950 34.494 6.747 o
9 5 17 2476.080 3041.650 50.753 3.312 o
9 5 18 3462.000 3218.740 64.594 2.298 o
9 5 19 969.966 1066.030 24.168 12.794 o
9 5 20 8109.300 8900.420 171.593 0.504 o
9 5 21 160.581 152.918 16.259 101.401 o
9 5 22 4.039 -35.154 19.994 1142.430 o
9 5 23 221.188 285.183 23.509 63.180 o
9 5 24 2139.800 2090.310 80.414 4.451 o
9 5 25 40.777 67.670 34.494 200.130 o
9 5 26 520.091 748.110 64.594 20.665 o
9 5 27 609.193 492.588 34.494 24.440 o
9 6 0 15808.200 15931.800 388.006 0.156 o
9 6 1 4878.960 4905.230 73.163 1.280 o
9 6 2 1139.070 1157.210 33.176 10.692 o
9 6 3 1360.310 1366.370 35.593 8.521 o
9 6 4 3991.630 3381.760 59.322 1.932 o
9 6 5 4391.340 4045.290 64.594 1.592 o
9 6 6 21363.200 20782.100 329.344 0.093 o
9 6 7 1828.850 1387.460 29.661 6.460 o
9 6 8 1025.030 1417.780 43.502 10.407 o
9 6 9 3168.490 2451.080 53.170 2.873 o
9 6 10 4568.660 2804.150 52.071 1.792 o
9 6 11 3232.640 2481.400 52.071 2.798 o
9 6 12 100.236 139.515 12.084 145.178 o
9 6 13 84.962 47.677 12.084 225.115 o
9 6 14 7401.170 8366.960 132.924 0.586 o
9 6 15 449.874 260.355 15.160 39.653 o
9 6 16 172.129 85.247 11.425 115.036 o
9 6 17 413.621 472.594 18.236 34.707 o
9 6 18 818.373 892.019 25.926 15.800 o
9 6 19 129.951 184.995 15.819 108.357 o
9 6 20 994.448 834.675 24.827 13.822 o
9 6 21 312.198 259.916 19.994 52.450 o
9 6 22 18.601 13.842 20.653 577.043 o
9 6 23 216.668 273.098 25.486 64.357 o
9 6 24 1135.710 1249.050 35.154 10.338 o
9 6 25 8.289 -4.174 35.154 392.280 o
9 6 26 111.595 82.830 29.661 132.776 o
9 6 27 150.125 108.756 33.176 99.727 o
9 7 0 6948.690 7117.700 186.094 0.677 o
9 7 1 1259.120 1233.450 27.244 9.611 o
9 7 2 16966.600 17966.500 324.510 0.135 o
9 7 3 572.677 347.580 23.070 29.384 o
9 7 4 1805.030 1331.880 38.010 6.600 o
9 7 5 4347.060 3343.750 75.580 1.752 o
9 7 6 164.709 160.168 12.084 100.281 o
9 7 7 6358.510 5390.560 130.507 0.886 o
9 7 8 879.938 878.178 33.176 14.833 o
9 7 9 480.314 801.938 19.994 24.471 o
9 7 10 473.647 446.010 16.259 32.239 o
9 7 11 7822.120 6586.440 136.000 0.628 o
9 7 12 108.595 73.163 12.743 168.993 o
9 7 13 1578.850 1481.280 34.494 7.211 o
9 7 14 325.126 237.506 15.819 52.984 o
9 7 15 1642.140 1780.300 37.570 6.386 o
9 7 16 292.014 236.846 14.501 57.849 o
9 7 17 108.510 89.422 13.402 159.448 o
9 7 18 552.765 577.176 23.509 25.634 o
9 7 19 52.971 52.071 15.160 291.698 o
9 7 20 12.978 19.994 14.501 803.319 o
9 7 21 350.514 301.002 24.168 45.219 o
9 7 22 701.917 811.606 33.835 18.232 o
9 7 23 132.539 172.252 25.926 101.666 o
9 7 24 1113.840 1223.780 46.578 10.415 o
9 7 25 97.710 53.170 20.653 179.756 o
9 7 26 89.221 112.491 33.176 131.083 o
9 8 1 4513.530 4421.210 101.506 1.452 o
9 8 2 1750.750 1687.810 58.003 6.045 o
9 8 3 11388.900 10199.100 222.346 0.310 o
9 8 4 10977.900 9551.420 157.092 0.341 o
9 8 5 202.524 128.090 10.986 92.222 o
9 8 6 27.528 1.758 11.425 765.656 o
9 8 7 1093.780 954.197 21.092 12.139 o
9 8 8 1268.790 941.454 23.509 10.633 o
9 8 9 3312.900 3276.080 65.254 2.383 o
9 8 10 720.693 817.098 27.244 18.061 o
9 8 11 317.897 255.522 14.501 52.959 o
9 8 12 338.981 282.326 18.675 48.267 o
9 8 13 696.870 640.013 22.410 20.618 o
9 8 14 291.316 326.927 19.994 50.909 o
9 8 15 1.826 -3.076 10.986 3485.350 o
9 8 16 6315.270 6587.100 106.998 0.810 o
9 8 17 2288.090 1997.380 42.843 4.421 o
9 8 18 499.675 554.107 19.994 28.288 o
9 8 19 2103.750 2674.080 54.488 4.105 o
9 8 20 21.998 30.320 17.577 509.738 o
9 8 21 3803.600 3454.270 65.913 2.009 o
9 8 22 32.231 68.330 13.402 351.033 o
9 8 23 37.983 67.670 23.070 270.480 o
9 8 24 2880.950 2602.240 72.504 3.051 o
9 8 25 406.569 340.330 26.585 38.576 o
9 8 26 39.906 92.498 20.653 246.140 o
9 9 1 7958.310 6764.850 148.084 0.605 o
9 9 2 101.924 54.488 16.918 181.735 o
9 9 3 1157.590 786.119 46.578 11.882 o
9 9 4 1519.260 1785.800 44.161 6.776 o
9 9 5 6441.660 4535.460 107.657 0.954 o
9 9 6 2874.700 3317.170 76.239 2.701 o
9 9 7 11181.800 10622.700 225.422 0.310 o
9 9 8 2205.000 2152.710 46.578 4.419 o
9 9 9 22606.700 23461.600 361.422 0.080 o
9 9 10 1151.300 1265.960 33.176 10.186 o
9 9 11 4515.550 3960.040 87.664 1.545 o
9 9 12 3662.770 3695.510 65.254 2.021 o
9 9 13 9955.010 9533.840 182.578 0.382 o
9 9 14 176.130 172.252 14.501 92.393 o
9 9 15 10683.200 11097.700 188.510 0.322 o
9 9 16 8.067 1.318 17.577 1127.850 o
9 9 17 1959.510 2050.550 39.328 5.080 o
9 9 18 173.401 189.829 16.918 89.149 o
9 9 19 149.270 74.262 16.259 128.700 o
9 9 20 497.953 617.602 28.343 26.565 o
9 9 21 204.060 145.667 18.236 85.726 o
9 9 22 159.017 128.750 16.259 107.603 o
9 9 23 1283.180 1140.290 28.343 9.752 o
9 9 24 1.850 -33.176 24.168 887.063 o
9 9 25 967.059 1065.370 35.154 12.637 o
9 9 26 276.745 307.593 25.486 52.658 o
9 10 0 6857.020 7507.020 200.594 0.662 o
9 10 1 6616.760 7365.530 137.758 0.714 o
9 10 2 1778.290 1392.960 35.154 6.603 o
9 10 3 279.839 455.677 25.486 44.357 o
9 10 4 1824.700 1793.710 45.919 5.743 o
9 10 5 2228.270 1714.390 45.260 4.827 o
9 10 6 3073.010 3395.610 68.989 2.515 o
9 10 7 3682.880 3966.190 64.155 1.936 o
9 10 8 2285.420 2271.130 41.745 4.177 o
9 10 9 36.968 47.237 18.236 344.620 o
9 10 10 2124.630 1875.880 39.328 4.899 o
9 10 11 1511.730 1634.640 59.761 6.956 o
9 10 12 3921.150 3404.830 62.178 1.961 o
9 10 13 8.009 -6.591 15.160 1395.890 o
9 10 14 1132.220 1354.290 41.086 9.900 o
9 10 15 348.896 261.674 16.259 48.671 o
9 10 16 2534.430 2278.820 48.336 3.752 o
9 10 17 1688.750 2003.970 40.426 5.862 o
9 10 18 13.818 32.737 16.259 618.822 o
9 10 19 6264.560 6220.850 96.672 0.847 o
9 10 20 1095.360 933.764 33.835 12.037 o
9 10 21 388.106 375.922 22.410 39.184 o
9 10 22 2099.200 1927.290 39.987 4.896 o
9 10 23 471.807 343.845 19.334 34.987 o
9 10 24 20.405 70.746 24.168 315.214 o
9 10 25 34.512 10.986 25.926 366.540 o
9 11 0 8374.640 8236.900 309.351 0.480 o
9 11 1 2108.160 2271.130 71.845 4.386 o
9 11 2 3409.650 3830.190 74.921 2.120 o
9 11 3 5441.660 4678.050 97.990 1.151 o
9 11 4 777.968 1028.020 36.911 15.100 o
9 11 5 6547.730 5528.980 112.931 0.852 o
9 11 6 415.082 542.023 27.903 31.826 o
9 11 7 5659.130 6603.360 120.181 0.905 o
9 11 8 544.616 691.425 26.585 23.863 o
9 11 9 13611.200 14109.700 297.926 0.205 o
9 11 10 1840.510 2034.070 44.821 5.375 o
9 11 11 11598.300 11899.700 179.502 0.281 o
9 11 12 2318.660 2319.910 51.412 4.051 o
9 11 13 7970.590 8316.210 145.667 0.540 o
9 11 14 1044.870 930.029 38.010 12.473 o
9 11 15 3618.760 4189.190 75.580 1.901 o
9 11 16 86.693 127.431 15.819 159.071 o
9 11 17 2885.750 3371.440 61.738 2.694 o
9 11 18 301.364 270.682 19.994 53.141 o
9 11 19 218.248 277.493 24.827 63.921 o
9 11 20 141.182 119.082 18.675 117.511 o
9 11 21 682.945 663.522 35.154 20.117 o
9 11 22 0.233 -5.493 18.675 1561.270 o
9 11 23 320.501 406.682 26.585 42.723 o
9 11 24 156.281 174.669 18.675 97.182 o
9 11 25 573.072 535.431 30.320 25.224 o
9 12 0 16771.800 16353.600 331.761 0.145 o
9 12 1 24654.100 24537.300 297.267 0.071 o
9 12 2 109.434 184.995 13.402 121.167 o
9 12 3 16122.900 15514.800 208.504 0.160 o
9 12 4 11369.900 11057.300 184.995 0.300 o
9 12 5 24808.900 23757.800 308.252 0.071 o
9 12 6 1447.030 1838.310 38.669 6.993 o
9 12 7 13131.500 15071.200 207.186 0.208 o
9 12 8 3365.750 3106.250 60.420 2.413 o
9 12 9 34248.500 36631.200 621.777 0.035 o
9 12 10 364.238 265.189 22.410 45.932 o
9 12 11 24206.600 25454.200 330.662 0.070 o
9 12 12 1274.710 1322.210 38.010 9.117 o
9 12 13 24387.400 24821.400 352.414 0.071 o
9 12 14 102.419 93.596 18.236 156.549 o
9 12 15 1476.130 1382.630 44.821 7.803 o
9 12 16 2002.320 1738.560 36.911 5.372 o
9 12 17 4897.460 4989.810 87.664 1.256 o
9 12 18 264.931 347.580 20.653 52.748 o
9 12 19 13373.200 12863.100 176.426 0.226 o
9 12 20 2587.740 3096.580 55.586 3.139 o
9 12 21 3444.070 3135.910 61.079 2.344 o
9 12 22 341.371 356.588 23.509 43.609 o
9 12 23 3640.360 3626.520 76.239 2.042 o
9 12 24 1549.640 1849.730 39.987 6.575 o
9 12 25 1617.430 1602.780 40.426 6.777 o
9 13 0 12650.900 12563.400 228.937 0.243 o
9 13 1 1321.940 1119.860 24.827 9.592 o
9 13 2 177.609 315.502 19.334 70.139 o
9 13 3 7667.300 6911.610 93.596 0.634 o
9 13 4 3017.800 3567.420 65.913 2.495 o
9 13 5 3847.540 3184.250 61.738 2.065 o
9 13 6 1007.260 990.449 24.168 12.799 o
9 13 7 68.953 191.586 17.577 143.456 o
9 13 8 124.751 79.754 19.334 141.173 o
9 13 9 2729.240 2161.720 48.995 3.557 o
9 13 10 2515.840 3027.590 62.837 3.246 o
9 13 11 3204.850 2846.330 47.237 2.664 o
9 13 12 2212.390 2163.480 54.488 4.367 o
9 13 13 389.479 406.023 21.092 38.156 o
9 13 14 4470.280 4325.850 82.830 1.498 o
9 13 15 2916.960 2420.320 64.594 3.130 o
9 13 16 2310.230 2457.890 58.003 3.932 o
9 13 17 196.445 112.491 17.577 94.350 o
9 13 18 79.054 53.170 18.675 213.449 o
9 13 19 721.239 643.089 29.002 19.771 o
9 13 20 828.747 862.358 33.176 15.675 o
9 13 21 449.213 330.662 21.751 36.589 o
9 13 22 7.975 24.827 19.334 692.834 o
9 13 23 372.881 447.767 24.827 37.417 o
9 13 24 1186.260 1135.460 39.328 10.325 o
9 14 0 921.361 795.347 41.745 14.582 o
9 14 1 5363.190 6086.820 93.157 1.016 o
9 14 2 5514.230 5850.420 108.756 1.004 o
9 14 3 13525.700 15073.600 211.580 0.201 o
9 14 4 9117.010 8895.150 122.158 0.447 o
9 14 5 4103.950 4783.290 77.338 1.552 o
9 14 6 2294.090 1881.810 47.237 4.507 o
9 14 7 22821.800 24615.300 326.927 0.077 o
9 14 8 5004.800 5200.300 88.323 1.199 o
9 14 9 1537.690 1934.980 44.821 6.435 o
9 14 10 904.145 777.111 28.343 15.324 o
9 14 11 10920.400 12418.800 180.162 0.293 o
9 14 12 298.468 691.864 32.737 33.468 o
9 14 13 1663.890 2217.960 58.662 5.523 o
9 14 14 665.726 685.273 29.661 20.531 o
9 14 15 97.212 76.678 15.160 176.844 o
9 14 16 56.208 66.572 15.819 258.155 o
9 14 17 9823.260 10087.300 169.176 0.377 o
9 14 18 90.221 37.570 23.070 194.180 o
9 14 19 670.176 873.344 36.911 18.119 o
9 14 20 770.544 820.174 29.002 17.074 o
9 14 21 5948.500 5498.660 96.672 0.959 o
9 14 22 462.424 488.194 25.926 31.003 o
9 14 23 592.426 565.092 30.759 24.088 o
9 15 0 843.900 728.116 36.252 16.380 o
9 15 1 7031.020 7169.770 112.931 0.683 o
9 15 2 4209.570 3092.410 67.670 1.886 o
9 15 3 5473.000 5149.540 82.171 1.096 o
9 15 4 3026.330 3082.740 60.420 2.699 o
9 15 5 5444.630 5301.800 99.748 1.078 o
9 15 6 23.058 39.328 15.819 483.651 o
9 15 7 21063.400 24265.600 318.578 0.086 o
9 15 8 701.013 648.362 24.827 20.335 o
9 15 9 1482.180 1467.880 35.154 7.660 o
9 15 10 1776.330 2244.550 44.821 5.269 o
9 15 11 5532.900 5597.970 96.672 1.030 o
9 15 12 4157.420 4042.870 81.073 1.677 o
9 15 13 5224.970 4986.960 90.081 1.170 o
9 15 14 2493.050 2843.260 57.344 3.399 o
9 15 15 34.686 36.911 16.259 401.289 o
9 15 16 740.280 895.535 30.320 16.906 o
9 15 17 5913.320 6272.260 126.992 0.888 o
9 15 18 132.354 123.257 21.751 118.226 o
9 15 19 1017.370 900.368 36.911 12.941 o
9 15 20 9.942 1.318 19.994 891.619 o
9 15 21 3672.170 3867.100 76.678 1.957 o
9 15 22 1425.810 1289.030 39.328 8.341 o
9 15 23 873.865 817.758 30.759 15.407 o
9 16 0 13389.300 14284.400 300.342 0.207 o
9 16 1 1315.880 1666.710 38.669 7.948 o
9 16 2 5684.130 6419.680 130.507 0.913 o
9 16 3 1669.500 1543.460 38.010 6.709 o
9 16 4 8281.500 8989.400 133.583 0.495 o
9 16 5 1459.500 1798.540 40.426 7.010 o
9 16 6 18622.000 19223.700 281.008 0.117 o
9 16 7 2.651 -4.174 21.092 1104.880 o
9 16 8 2990.690 3458.000 69.428 2.555 o
9 16 9 351.311 430.850 21.092 40.050 o
9 16 10 1961.840 2156.880 47.237 4.920 o
9 16 11 110.383 80.414 16.918 157.259 o
9 16 12 1458.220 1445.030 46.578 7.723 o
9 16 13 2564.860 2314.640 52.071 3.672 o
9 16 14 5177.940 6454.840 111.832 1.009 o
9 16 15 109.594 253.764 23.070 96.866 o
9 16 16 3657.360 4100.430 82.830 1.896 o
9 16 17 58.319 35.154 18.236 286.248 o
9 16 18 1629.930 1871.700 45.260 6.228 o
9 16 19 791.266 756.678 27.244 17.320 o
9 16 20 2767.100 3256.750 83.490 2.811 o
9 16 21 282.357 170.934 20.653 63.380 o
9 16 22 1395.120 1342.860 42.404 8.330 o
9 17 0 157.908 508.187 30.320 53.645 o
9 17 1 1574.720 1675.720 40.426 6.801 o
9 17 2 622.498 1030.880 47.237 17.072 o
9 17 3 422.714 486.436 21.751 33.489 o
9 17 4 191.306 129.409 21.751 90.613 o
9 17 5 8387.390 9539.330 149.183 0.469 o
9 17 6 159.653 233.331 21.092 84.429 o
9 17 7 2374.460 2365.830 45.260 3.939 o
9 17 8 3330.640 4244.120 77.997 2.041 o
9 17 9 5653.840 6490.430 110.514 0.919 o
9 17 10 30.989 70.087 18.675 318.356 o
9 17 11 732.479 740.859 25.926 18.617 o
9 17 12 24.887 64.155 15.819 382.660 o
9 17 13 264.150 135.341 20.653 70.429 o
9 17 14 57.211 116.666 19.994 193.502 o
9 17 15 262.442 216.853 21.092 62.712 o
9 17 16 31.118 60.420 21.092 319.101 o
9 17 17 42.136 37.570 19.994 329.341 o
9 17 18 395.848 511.922 31.418 33.232 o
9 17 19 2500.470 2398.570 53.829 3.700 o
9 17 20 92.923 111.832 21.751 150.893 o
9 17 21 59.871 15.160 17.577 320.124 o
9 18 0 2850.730 2932.240 81.512 2.891 o
9 18 1 71.298 36.911 22.410 230.402 o
9 18 2 18267.100 18583.000 252.666 0.122 o
9 18 3 167.251 304.077 21.092 73.058 o
9 18 4 400.477 592.336 27.903 31.299 o
9 18 5 571.795 405.583 25.926 27.986 o
9 18 6 3017.250 2861.490 58.003 2.813 o
9 18 7 141.524 211.580 25.486 90.992 o
9 18 8 445.482 819.515 36.911 24.263 o
9 18 9 480.028 455.677 35.593 29.940 o
9 18 10 62.629 168.078 25.926 144.914 o
9 18 11 92.938 105.680 19.994 156.949 o
9 18 12 391.927 801.938 32.078 26.789 o
9 18 13 81.646 201.254 21.092 126.125 o
9 18 14 169.514 213.338 19.994 85.058 o
9 18 15 43.888 68.989 21.092 263.607 o
9 18 16 2870.660 3386.600 70.746 2.685 o
9 18 17 202.733 310.669 32.737 60.546 o
9 18 18 1976.320 2318.150 62.178 4.646 o
9 18 19 47.377 66.572 22.410 250.877 o
9 18 20 160.423 129.409 24.168 100.555 o
9 19 0 2398.920 2683.310 83.490 3.546 o
9 19 1 128.273 133.583 21.092 118.321 o
9 19 2 1314.650 1400.210 37.570 8.661 o
9 19 3 1762.690 1438.220 35.593 6.575 o
9 19 4 38.930 12.743 18.236 431.918 o
9 19 5 847.787 1142.710 33.176 13.569 o
9 19 6 294.984 500.937 24.827 41.212 o
9 19 7 858.106 988.032 37.570 14.279 o
9 19 8 282.718 264.750 21.092 55.800 o
9 19 9 212.150 347.580 29.002 57.695 o
9 19 10 1038.200 904.762 33.835 12.760 o
9 19 11 135.157 259.257 24.827 85.720 o
9 19 12 284.172 468.420 30.759 42.403 o
9 19 13 125.847 129.848 19.994 122.041 o
9 19 14 88.601 147.425 24.168 135.669 o
9 19 15 152.140 117.764 20.653 110.193 o
9 19 16 335.086 367.354 27.244 43.044 o
9 19 17 375.376 323.851 27.903 41.370 o
9 19 18 387.386 429.751 39.987 34.756 o
9 19 19 0.714 3.735 21.751 1048.630 o
9 19 20 1.961 1.318 22.410 992.243 o
9 20 0 28162.200 34671.400 679.780 0.046 o
9 20 1 1054.570 668.355 30.320 13.998 o
9 20 2 256.569 534.333 28.343 42.415 o
9 20 3 62.432 139.515 35.154 136.185 o
9 20 4 14627.300 16029.800 246.514 0.175 o
9 20 5 1250.770 1310.130 45.260 9.209 o
9 20 6 1895.270 2177.980 42.843 5.068 o
9 20 7 3179.370 3438.010 77.997 2.402 o
9 20 8 730.769 834.016 30.759 17.599 o
9 20 9 200.852 284.743 29.002 64.737 o
9 20 10 1008.510 1255.860 41.086 11.232 o
9 20 11 279.558 311.767 32.078 50.251 o
9 20 12 2621.070 3366.600 73.163 2.923 o
9 20 13 1038.270 1171.270 42.404 11.315 o
9 20 14 11088.000 12463.000 212.678 0.285 o
9 20 15 209.526 263.431 28.343 65.393 o
9 20 16 2355.650 2614.980 61.079 3.732 o
9 20 17 231.720 188.510 23.070 70.742 o
9 20 18 1239.220 1566.970 47.237 8.508 o
9 20 19 75.604 76.678 25.926 178.631 o
9 21 0 5712.860 5069.790 140.174 1.027 o
9 21 1 6270.420 7412.110 118.423 0.758 o
9 21 2 1771.880 1932.560 48.995 5.678 o
9 21 3 66.817 114.249 21.751 177.511 o
9 21 4 2952.840 3460.860 70.746 2.583 o
9 21 5 77.269 100.407 18.675 180.231 o
9 21 6 249.850 215.754 26.585 63.130 o
9 21 7 4681.290 5459.550 99.748 1.245 o
9 21 8 655.141 651.438 30.320 21.167 o
9 21 9 289.360 426.016 32.078 43.510 o
9 21 10 424.998 572.342 33.835 29.989 o
9 21 11 1322.380 1359.780 35.154 8.756 o
9 21 12 773.221 942.772 39.987 15.681 o
9 21 13 298.591 256.840 25.926 52.991 o
9 21 14 2265.710 2249.380 66.572 4.146 o
9 21 15 598.310 664.181 36.252 22.134 o
9 21 16 1852.460 1782.060 53.170 5.638 o
9 21 17 807.931 754.262 32.737 16.878 o
9 22 0 235.489 459.192 39.987 44.867 o
9 22 1 3355.320 4263.020 83.490 2.014 o
9 22 2 4008.450 5164.040 102.824 1.498 o
9 22 3 1406.750 1669.130 41.745 7.493 o
9 22 4 1156.080 1866.870 54.927 8.064 o
9 22 5 518.605 607.935 35.593 25.436 o
9 22 6 263.700 427.334 29.002 46.551 o
9 22 7 2185.380 2580.480 58.003 4.035 o
9 22 8 640.197 1108.430 42.404 16.361 o
9 22 9 734.457 998.358 38.010 15.916 o
9 22 10 21.437 23.070 25.486 413.300 o
9 22 11 103.672 206.746 34.494 97.147 o
9 22 12 4143.820 4620.040 95.573 1.554 o
9 22 13 2267.240 2686.160 61.738 3.809 o
9 22 14 74.670 112.491 25.486 160.506 o
9 22 15 377.576 424.258 29.002 37.325 o
9 22 16 1142.960 1014.620 46.578 11.008 o
9 23 0 2760.870 3118.990 96.013 2.849 o
9 23 1 101.937 110.074 31.418 126.814 o
9 23 2 3418.400 4634.550 92.498 1.871 o
9 23 3 97.795 37.570 21.751 187.203 o
9 23 4 661.931 676.924 35.593 20.424 o
9 23 5 3985.810 4116.030 78.656 1.738 o
9 23 6 725.821 871.367 49.654 16.561 o
9 23 7 307.142 364.498 33.835 44.269 o
9 23 8 272.227 190.268 19.994 63.658 o
9 23 9 2307.890 2449.320 50.753 3.964 o
9 23 10 526.681 682.197 30.759 24.313 o
9 23 11 1106.460 1360.880 55.586 9.808 o
9 23 12 156.018 237.506 39.328 72.599 o
9 23 13 221.133 194.003 44.161 61.107 o
9 23 14 398.461 493.687 24.827 34.366 o
9 23 15 466.821 459.192 29.002 31.200 o
9 24 0 2610.030 2944.980 103.263 3.065 o
9 24 1 6626.520 7583.040 135.341 0.701 o
9 24 2 492.819 409.758 33.835 30.613 o
9 24 3 2660.240 2954.650 68.330 3.109 o
9 24 4 7132.020 7048.270 128.750 0.676 o
9 24 5 4529.680 5593.580 96.672 1.270 o
9 24 6 546.513 677.363 39.987 23.123 o
9 24 7 1166.820 1292.110 50.094 9.733 o
9 24 8 2989.650 3286.850 73.163 2.621 o
9 24 9 8258.980 9140.340 172.252 0.486 o
9 24 10 24.075 67.011 35.154 226.128 o
9 24 11 4565.460 4774.720 89.422 1.385 o
9 24 12 1770.280 1849.290 59.322 5.735 o
9 24 13 2509.300 2429.320 66.572 3.628 o
9 25 0 1573.960 1563.450 68.989 6.754 o
9 25 1 372.643 361.422 25.926 40.418 o
9 25 2 607.550 650.339 30.320 22.426 o
9 25 3 22.358 4.834 25.926 465.201 o
9 25 4 1030.090 756.019 39.987 13.532 o
9 25 5 1989.740 2089.210 54.488 4.901 o
9 25 6 24.264 21.092 23.070 439.200 o
9 25 7 82.417 52.511 22.410 196.759 o
9 25 8 18.067 61.738 31.418 274.717 o
9 25 9 728.505 785.680 37.570 17.818 o
9 25 10 436.957 539.166 30.320 30.578 o
9 25 11 404.088 471.935 35.593 33.313 o
9 26 0 801.963 778.869 58.003 15.679 o
9 26 1 21.368 12.743 18.236 607.264 o
9 26 2 703.412 788.097 40.426 18.135 o
9 26 3 1.129 -41.086 26.585 756.127 o
9 26 4 796.211 852.032 33.176 16.255 o
9 26 5 18.943 122.598 22.410 251.912 o
9 26 6 41.018 148.084 32.737 157.083 o
9 26 7 4101.890 3536.440 79.095 1.819 o
9 26 8 0.726 -55.586 39.328 353.482 o
9 27 0 131.533 88.763 96.672 42.028 o
9 27 2 2796.980 2757.570 122.598 2.901 o
9 27 3 2639.840 2651.670 123.257 3.112 o
9 27 4 133.857 207.845 68.989 55.445 o
10 0 0 10328.100 9270.850 253.764 0.364 o
10 0 1 5975.180 6780.440 157.092 0.829 o
10 0 2 9164.070 9648.090 178.184 0.418 o
10 0 3 15259.300 16886.600 349.997 0.159 o
10 0 4 5652.210 6918.200 131.826 0.877 o
10 0 5 6464.930 5265.990 129.848 0.880 o
10 0 6 9836.110 11248.900 204.330 0.349 o
10 0 7 29166.000 27833.400 480.504 0.052 o
10 0 8 9613.440 9566.360 202.352 0.395 o
10 0 9 3440.790 2978.820 81.073 2.374 o
10 0 10 6731.600 6068.590 192.685 0.760 o
10 0 11 11523.500 8443.640 183.018 0.340 o
10 0 12 3516.220 3309.260 69.428 2.225 o
10 0 13 8042.010 7617.540 144.349 0.562 o
10 0 14 8.037 12.084 22.410 695.398 o
10 0 15 6731.830 6954.670 156.433 0.719 o
10 0 16 58.396 66.572 25.486 213.561 o
10 0 17 3182.320 2553.900 88.323 2.740 o
10 0 18 2121.060 1927.290 56.905 4.778 o
10 0 19 113.096 92.498 21.751 141.843 o
10 0 20 3922.040 4074.950 94.914 1.761 o
10 0 21 3036.520 3412.520 113.590 2.446 o
10 0 22 5937.090 5351.240 126.333 0.964 o
10 0 23 779.211 1099.860 75.580 13.090 o
10 0 24 734.408 769.202 44.161 17.555 o
10 0 25 22.614 26.585 27.903 361.676 o
10 0 26 3783.040 3398.680 126.333 1.953 o
10 0 27 1342.540 1089.100 58.003 9.123 o
10 1 0 42213.900 44666.900 742.617 0.024 o
10 1 1 1364.330 870.927 24.168 10.169 o
10 1 2 11013.400 10865.100 151.599 0.316 o
10 1 3 1782.440 1608.050 29.002 6.244 o
10 1 4 7815.100 8314.890 122.598 0.555 o
10 1 5 974.330 901.686 22.410 13.699 o
10 1 6 13198.600 13946.700 228.937 0.217 o
10 1 7 16.211 73.822 12.084 439.197 o
10 1 8 0.647 4.834 10.986 3000.780 o
10 1 9 3596.740 4420.110 106.998 1.818 o
10 1 10 1967.230 2060.210 38.669 5.052 o
10 1 11 362.757 449.086 13.842 39.218 o
10 1 12 12.752 53.170 10.326 595.836 o
10 1 13 262.994 255.082 14.501 60.995 o
10 1 14 1479.950 1649.800 34.494 7.273 o
10 1 15 134.027 116.666 14.501 126.330 o
10 1 16 3390.200 3158.100 69.428 2.364 o
10 1 17 222.735 111.832 14.501 86.818 o
10 1 18 4253.280 3603.010 68.989 1.741 o
10 1 19 12.189 32.078 15.160 676.061 o
10 1 20 2780.650 2425.810 54.927 3.307 o
10 1 21 428.265 435.683 18.236 34.935 o
10 1 22 249.724 190.268 15.160 69.389 o
10 1 23 11.023 29.002 16.918 676.211 o
10 1 24 1805.100 1693.960 51.412 5.916 o
10 1 25 6.796 29.002 19.994 655.896 o
10 1 26 212.723 204.330 22.410 73.523 o
10 1 27 7.219 26.585 21.751 614.292 o
10 2 0 22502.900 23809.200 471.935 0.079 o
10 2 1 1153.310 1409.210 26.585 9.737 o
10 2 2 19.031 64.155 10.986 464.304 o
10 2 3 529.960 481.603 18.236 28.637 o
10 2 4 8446.760 7862.950 105.241 0.526 o
10 2 5 2631.710 2396.810 42.843 3.542 o
10 2 6 2966.830 3412.080 51.412 2.621 o
10 2 7 3136.080 2856.660 78.656 2.669 o
10 2 8 2975.250 2320.570 53.829 3.143 o
10 2 9 1293.060 1038.780 24.827 10.072 o
10 2 10 2514.490 1958.710 40.426 4.056 o
10 2 11 717.446 826.106 21.092 18.214 o
10 2 12 333.361 260.355 23.509 49.209 o
10 2 13 165.382 90.081 13.402 116.240 o
10 2 14 4729.710 4884.790 83.490 1.321 o
10 2 15 100.797 284.743 15.819 99.081 o
10 2 16 261.188 191.586 13.402 67.329 o
10 2 17 267.488 477.428 24.827 44.613 o
10 2 18 33.147 13.842 14.501 528.006 o
10 2 19 468.166 429.092 25.486 32.240 o
10 2 20 4866.450 5066.050 93.157 1.251 o
10 2 21 609.593 603.102 28.343 23.145 o
10 2 22 169.214 109.415 16.259 107.349 o
10 2 23 99.667 157.092 16.259 134.477 o
10 2 24 1087.770 1070.860 45.919 11.249 o
10 2 25 878.982 819.515 41.745 14.989 o
10 2 26 335.392 306.494 24.168 46.429 o
10 2 27 282.054 203.670 32.078 56.877 o
10 3 0 10867.300 10106.600 181.260 0.333 o
10 3 1 1345.970 1437.780 38.669 8.377 o
10 3 2 13974.200 15435.000 192.246 0.191 o
10 3 3 1537.480 1471.610 35.154 7.404 o
10 3 4 720.595 363.838 16.259 23.945 o
10 3 5 5204.330 5445.490 87.005 1.121 o
10 3 6 7605.430 6964.780 101.506 0.637 o
10 3 7 3449.890 3107.350 52.511 2.360 o
10 3 8 9609.830 9280.080 152.918 0.407 o
10 3 9 7524.150 7487.030 117.764 0.617 o
10 3 10 23175.600 22012.000 290.675 0.082 o
10 3 11 1006.890 1253.880 29.002 11.452 o
10 3 12 22464.900 23105.700 304.077 0.082 o
10 3 13 19.837 90.740 13.402 356.778 o
10 3 14 7962.180 7633.800 137.099 0.569 o
10 3 15 11.183 9.008 13.402 1093.860 o
10 3 16 196.893 110.514 12.743 96.988 o
10 3 17 212.745 385.590 19.994 57.440 o
10 3 18 356.984 304.077 23.070 44.653 o
10 3 19 1126.730 1328.800 35.593 10.105 o
10 3 20 866.681 1105.360 48.336 13.167 o
10 3 21 661.926 531.696 21.092 23.009 o
10 3 22 1359.950 1046.690 36.252 9.468 o
10 3 23 76.969 116.006 18.236 171.890 o
10 3 24 705.315 916.846 65.254 15.684 o
10 3 25 95.936 137.758 26.585 129.968 o
10 3 26 329.069 230.914 62.178 39.288 o
10 3 27 327.230 260.355 32.737 47.663 o
10 4 0 9829.500 10270.500 213.997 0.368 o
10 4 1 241.703 427.774 14.501 51.715 o
10 4 2 18024.300 18641.000 226.520 0.124 o
10 4 3 3030.580 2628.820 42.843 2.937 o
10 4 4 6375.830 6400.350 124.575 0.810 o
10 4 5 10521.200 9933.270 139.076 0.353 o
10 4 6 3447.630 3480.850 64.155 2.219 o
10 4 7 420.790 388.006 18.675 36.877 o
10 4 8 687.047 761.951 28.343 19.251 o
10 4 9 1209.700 1350.770 34.494 9.476 o
10 4 10 13323.900 12158.500 204.330 0.233 o
10 4 11 4957.550 4107.020 71.845 1.377 o
10 4 12 1586.730 1391.860 29.661 7.398 o
10 4 13 1580.650 1780.300 34.494 6.621 o
10 4 14 5271.730 5794.170 94.914 1.065 o
10 4 15 8686.500 8886.580 148.743 0.470 o
10 4 16 4441.990 4815.370 74.921 1.428 o
10 4 17 78.022 73.822 12.743 212.143 o
10 4 18 1269.850 1184.450 30.759 9.668 o
10 4 19 957.470 1086.680 27.244 12.770 o
10 4 20 1840.470 1475.130 41.086 6.213 o
10 4 21 2.546 32.737 16.259 840.774 o
10 4 22 446.519 380.756 29.002 34.374 o
10 4 23 237.233 363.838 28.343 53.324 o
10 4 24 242.726 143.910 27.903 70.957 o
10 4 25 558.319 572.342 39.987 24.347 o
10 4 26 171.467 181.919 35.593 78.465 o
10 5 0 6502.290 6355.750 147.425 0.788 o
10 5 1 933.393 573.441 17.577 16.678 o
10 5 2 22121.400 21863.300 385.590 0.086 o
10 5 3 7590.910 7514.270 98.430 0.612 o
10 5 4 2263.490 1980.460 46.578 4.473 o
10 5 5 17110.400 17802.800 232.672 0.136 o
10 5 6 648.240 545.098 21.751 23.184 o
10 5 7 4955.370 5203.810 78.656 1.216 o
10 5 8 2389.080 3021.000 68.330 3.390 o
10 5 9 9207.180 9044.330 139.076 0.436 o
10 5 10 6996.270 6121.100 130.507 0.745 o
10 5 11 7731.820 7899.640 116.006 0.580 o
10 5 12 3275.980 3087.570 58.662 2.491 o
10 5 13 1465.990 1283.540 27.244 8.246 o
10 5 14 593.104 937.938 35.154 19.088 o
10 5 15 10178.500 9484.190 136.000 0.377 o
10 5 16 2676.950 2566.640 46.578 3.365 o
10 5 17 1780.490 1345.280 32.737 6.695 o
10 5 18 478.403 401.848 18.236 33.032 o
10 5 19 869.447 910.035 24.168 14.966 o
10 5 20 916.953 796.446 27.244 15.031 o
10 5 21 67.399 87.005 23.070 191.404 o
10 5 22 93.638 124.575 16.918 152.124 o
10 5 23 1208.940 1180.940 45.919 9.894 o
10 5 24 37.231 114.249 25.486 208.896 o
10 5 25 707.279 509.945 41.745 20.962 o
10 5 26 123.422 160.168 37.570 94.792 o
10 6 0 1082.630 2219.060 84.588 7.173 o
10 6 1 3587.850 2941.250 93.596 2.263 o
10 6 2 7440.540 7700.810 168.078 0.605 o
10 6 3 5768.130 5045.400 98.430 1.038 o
10 6 4 1786.780 807.431 48.995 7.653 o
10 6 5 5363.690 4482.290 141.493 1.168 o
10 6 6 46.892 233.771 15.819 146.515 o
10 6 7 2410.540 3122.510 64.594 3.311 o
10 6 8 43.254 53.170 14.501 329.235 o
10 6 9 16.998 38.010 12.084 616.258 o
10 6 10 370.454 261.014 15.819 46.496 o
10 6 11 20.288 18.236 13.842 687.493 o
10 6 12 4000.790 4702.220 81.073 1.606 o
10 6 13 340.473 468.420 19.994 39.575 o
10 6 14 185.350 190.927 18.236 84.517 o
10 6 15 7327.570 7521.520 120.840 0.633 o
10 6 16 2330.300 1951.460 41.086 4.389 o
10 6 17 37.234 42.843 13.402 392.096 o
10 6 18 1107.090 1332.540 30.320 10.301 o
10 6 19 1197.260 1367.690 39.328 9.444 o
10 6 20 27.479 43.502 14.501 445.620 o
10 6 21 127.419 191.586 15.160 108.420 o
10 6 22 728.370 606.837 30.759 19.942 o
10 6 23 1715.240 1362.200 39.987 6.866 o
10 6 24 762.431 681.758 39.987 18.045 o
10 6 25 4.825 35.154 23.509 542.473 o
10 6 26 206.484 291.334 40.426 57.886 o
10 7 0 4578.510 4778.890 109.415 1.367 o
10 7 1 4293.130 3551.600 85.247 1.721 o
10 7 2 3629.380 3026.490 72.504 2.239 o
10 7 3 124.853 93.596 10.986 144.730 o
10 7 4 15.652 -3.735 12.743 1134.230 o
10 7 5 11096.400 11050.700 153.577 0.310 o
10 7 6 2890.350 3031.990 53.829 2.860 o
10 7 7 2092.660 2466.890 65.913 4.262 o
10 7 8 1536.330 1462.380 50.753 7.297 o
10 7 9 409.574 534.772 22.410 32.827 o
10 7 10 2236.590 1825.560 43.502 4.695 o
10 7 11 934.046 981.441 25.926 13.647 o
10 7 12 1530.230 1953.870 59.761 6.314 o
10 7 13 2660.450 2561.810 59.322 3.361 o
10 7 14 58.174 122.158 17.577 194.168 o
10 7 15 1658.160 1635.950 36.911 6.588 o
10 7 16 1624.850 1566.310 59.761 6.659 o
10 7 17 1753.880 1762.290 38.669 6.042 o
10 7 18 1458.830 1447.880 33.835 7.826 o
10 7 19 341.172 115.347 23.509 57.516 o
10 7 20 242.785 229.596 19.994 65.455 o
10 7 21 20.153 24.827 14.501 621.733 o
10 7 22 13.041 -8.569 24.168 646.299 o
10 7 23 2292.500 2061.970 59.322 4.294 o
10 7 24 17.931 35.154 28.343 357.847 o
10 7 25 147.414 175.767 23.509 96.980 o
10 7 26 1030.170 945.189 35.154 12.606 o
10 8 0 3584.390 3338.260 108.756 2.113 o
10 8 1 1792.380 1399.550 46.578 6.469 o
10 8 2 270.846 275.515 15.819 57.883 o
10 8 3 1705.460 1467.220 63.496 6.512 o
10 8 4 1326.570 1008.030 24.827 9.943 o
10 8 5 344.516 392.840 24.168 41.681 o
10 8 6 2227.650 2448.660 45.260 4.114 o
10 8 7 2429.060 2703.080 61.079 3.566 o
10 8 8 31.976 72.504 12.084 349.812 o
10 8 9 242.409 199.935 20.653 68.217 o
10 8 10 2287.500 2056.480 45.260 4.358 o
10 8 11 18.479 84.588 19.334 335.156 o
10 8 12 341.434 215.754 13.842 52.589 o
10 8 13 962.578 1318.690 41.086 11.357 o
10 8 14 3758.700 3360.010 71.406 2.056 o
10 8 15 975.328 1102.940 39.328 12.275 o
10 8 16 70.693 52.511 17.577 234.106 o
10 8 17 2606.490 3147.990 76.678 3.042 o
10 8 18 71.078 63.496 18.236 220.024 o
10 8 19 23.851 67.011 18.675 356.277 o
10 8 20 931.121 886.527 26.585 14.255 o
10 8 21 1210.820 956.614 30.759 10.956 o
10 8 22 301.003 255.522 24.168 53.217 o
10 8 23 207.948 180.601 30.320 73.313 o
10 8 24 16.675 31.418 25.486 417.146 o
10 8 25 230.979 190.268 26.585 69.165 o
10 8 26 4.816 -38.669 24.827 771.079 o
10 9 0 45561.000 49250.700 1135.020 0.020 o
10 9 1 460.922 505.771 24.827 30.749 o
10 9 2 3289.560 3468.330 76.678 2.314 o
10 9 3 14412.900 13612.500 197.079 0.199 o
10 9 4 2394.920 2043.730 52.071 4.154 o
10 9 5 2578.040 1932.120 50.094 3.948 o
10 9 6 4134.780 3658.600 79.095 1.774 o
10 9 7 8777.760 7548.550 132.265 0.510 o
10 9 8 7829.690 7967.310 152.918 0.563 o
10 9 9 5012.630 5606.320 148.743 1.114 o
10 9 10 6316.510 6144.170 109.415 0.841 o
10 9 11 993.306 783.703 19.334 14.240 o
10 9 12 221.631 159.509 13.402 80.418 o
10 9 13 1329.980 1024.280 25.486 9.856 o
10 9 14 9100.270 9218.340 134.242 0.438 o
10 9 15 1680.350 1581.470 41.745 6.576 o
10 9 16 166.824 113.590 15.819 107.790 o
10 9 17 3234.840 3376.270 85.906 2.371 o
10 9 18 1996.300 1681.210 42.843 5.438 o
10 9 19 82.671 112.931 18.675 166.297 o
10 9 20 195.853 183.018 20.653 81.423 o
10 9 21 3858.100 3586.750 77.338 1.931 o
10 9 22 8.164 11.425 17.577 925.688 o
10 9 23 887.771 835.774 26.585 15.180 o
10 9 24 1071.630 1138.530 42.404 11.169 o
10 9 25 1315.580 1193.460 33.835 9.309 o
10 10 1 519.282 850.934 27.903 22.224 o
10 10 2 17740.800 18468.800 318.578 0.126 o
10 10 3 8112.460 8047.730 174.010 0.534 o
10 10 4 1093.700 1077.450 25.926 11.505 o
10 10 5 115.190 204.330 15.819 110.895 o
10 10 6 11254.900 9913.280 151.599 0.325 o
10 10 7 6884.260 6019.590 125.674 0.767 o
10 10 8 105.988 105.241 13.842 153.603 o
10 10 9 1250.530 1214.110 36.911 9.628 o
10 10 10 6877.820 6579.190 140.174 0.729 o
10 10 11 4096.710 4184.360 77.338 1.676 o
10 10 12 168.960 149.183 14.501 99.638 o
10 10 13 993.664 1301.780 38.010 11.219 o
10 10 14 7713.450 6709.260 113.590 0.637 o
10 10 15 496.503 829.182 28.343 23.146 o
10 10 16 124.752 149.183 15.819 120.852 o
10 10 17 5551.830 5614.230 109.415 1.019 o
10 10 18 2403.100 2530.830 51.412 3.752 o
10 10 19 182.877 195.102 25.926 80.446 o
10 10 20 1591.500 1432.940 36.252 7.248 o
10 10 21 1701.190 2012.320 47.237 5.777 o
10 10 22 1690.020 1748.890 41.745 6.254 o
10 10 23 3.738 -7.250 18.236 1347.110 o
10 10 24 54.849 79.754 16.918 241.349 o
10 10 25 66.526 47.237 24.168 222.032 o
10 11 0 69.163 106.339 22.410 177.861 o
10 11 1 19509.900 17611.200 437.002 0.113 o
10 11 2 6868.990 7008.940 122.598 0.709 o
10 11 3 26175.600 27210.300 458.094 0.061 o
10 11 4 1537.080 1163.360 29.661 8.172 o
10 11 5 33813.000 34321.400 584.426 0.038 o
10 11 6 68.449 45.260 21.092 233.201 o
10 11 7 33689.000 32997.200 553.008 0.039 o
10 11 8 543.967 628.588 29.661 24.690 o
10 11 9 29782.400 30107.400 421.842 0.049 o
10 11 10 2981.210 2793.820 54.927 2.885 o
10 11 11 22056.400 25230.500 441.176 0.078 o
10 11 12 2301.170 2749.000 71.845 3.679 o
10 11 13 25980.200 25556.400 439.418 0.064 o
10 11 14 62.327 52.511 19.334 246.189 o
10 11 15 5299.260 4586.210 96.013 1.199 o
10 11 16 391.570 285.842 24.168 42.217 o
10 11 17 5053.810 4797.790 86.346 1.240 o
10 11 18 4075.800 3745.600 65.913 1.793 o
10 11 19 7280.740 7034.870 120.840 0.663 o
10 11 20 16.100 19.994 19.334 602.684 o
10 11 21 6551.890 6287.420 110.074 0.797 o
10 11 22 311.796 369.771 25.486 45.391 o
10 11 23 4419.680 4105.710 74.921 1.563 o
10 11 24 45.381 52.511 26.585 249.607 o
10 12 0 8480.380 7711.130 206.087 0.514 o
10 12 1 244.862 87.664 13.842 83.944 o
10 12 2 2564.280 3235.000 87.005 3.013 o
10 12 3 3924.580 3162.490 73.163 2.016 o
10 12 4 16100.300 16964.000 297.926 0.150 o
10 12 5 313.238 273.098 17.577 51.949 o
10 12 6 27.327 116.006 16.259 267.611 o
10 12 7 13745.500 12896.300 235.089 0.216 o
10 12 8 5904.790 6408.920 120.181 0.881 o
10 12 9 86.019 29.002 16.918 228.808 o
10 12 10 184.568 142.591 18.675 92.554 o
10 12 11 6683.570 6550.850 128.750 0.757 o
10 12 12 2924.280 3361.330 92.498 2.605 o
10 12 13 2497.590 2985.410 61.738 3.295 o
10 12 14 296.245 230.255 23.070 55.830 o
10 12 15 745.393 878.617 33.176 16.869 o
10 12 16 3617.100 3626.520 73.163 2.059 o
10 12 17 6515.620 5796.150 100.407 0.840 o
10 12 18 69.825 39.987 18.236 247.806 o
10 12 19 590.456 597.609 34.494 23.406 o
10 12 20 2307.860 2174.460 46.578 4.210 o
10 12 21 1362.950 1490.950 38.010 8.157 o
10 12 22 423.684 352.853 24.168 37.272 o
10 12 23 1.011 1.318 22.410 1028.550 o
10 12 24 996.063 821.932 35.154 13.667 o
10 13 0 18038.700 17426.900 357.247 0.127 o
10 13 1 3309.120 3751.750 72.504 2.211 o
10 13 2 24426.900 24533.200 342.746 0.071 o
10 13 3 1277.000 1304.190 36.911 9.171 o
10 13 4 4516.490 4588.630 79.754 1.438 o
10 13 5 6184.160 6865.030 121.499 0.805 o
10 13 6 13482.400 14755.900 221.247 0.204 o
10 13 7 1318.860 1112.610 43.502 9.426 o
10 13 8 7726.110 7836.370 157.751 0.576 o
10 13 9 5231.600 6401.670 119.741 1.001 o
10 13 10 2750.390 2978.160 55.586 3.026 o
10 13 11 2638.860 2735.160 54.488 3.292 o
10 13 12 9135.750 9788.920 171.593 0.417 o
10 13 13 1302.600 1394.270 35.593 8.766 o
10 13 14 31.040 2.417 15.160 612.842 o
10 13 15 1695.040 1963.540 41.086 5.901 o
10 13 16 9201.570 8852.080 133.583 0.442 o
10 13 17 299.990 381.415 28.343 45.391 o
10 13 18 3201.020 3475.580 67.011 2.389 o
10 13 19 2404.330 2718.900 62.837 3.584 o
10 13 20 6428.130 6367.170 109.415 0.809 o
10 13 21 189.790 221.247 29.002 73.575 o
10 13 22 4431.140 4244.780 82.830 1.527 o
10 13 23 1278.900 1227.300 38.010 9.387 o
10 14 0 175.646 176.426 19.994 89.013 o
10 14 1 6545.210 6144.830 92.498 0.812 o
10 14 2 12541.700 14236.700 197.519 0.228 o
10 14 3 3316.370 3312.990 55.586 2.379 o
10 14 4 224.292 166.100 15.819 78.008 o
10 14 5 12049.900 12724.700 176.426 0.258 o
10 14 6 138.255 357.247 25.926 71.453 o
10 14 7 3108.750 2946.740 65.254 2.678 o
10 14 8 170.724 265.848 16.918 78.584 o
10 14 9 10695.500 12742.700 212.678 0.293 o
10 14 10 1112.000 1140.290 47.237 10.738 o
10 14 11 5910.570 6642.690 101.506 0.868 o
10 14 12 913.256 999.018 38.669 13.513 o
10 14 13 41.112 98.430 19.994 239.406 o
10 14 14 88.056 113.590 19.994 157.870 o
10 14 15 5561.270 6119.340 112.491 0.968 o
10 14 16 969.474 1131.940 34.494 12.287 o
10 14 17 990.055 1035.270 34.494 12.568 o
10 14 18 1085.870 1265.520 35.593 10.650 o
10 14 19 2428.450 2251.140 50.753 3.930 o
10 14 20 46.041 58.003 20.653 275.430 o
10 14 21 1196.000 1149.960 35.593 10.252 o
10 14 22 1527.170 1825.560 48.995 6.637 o
10 14 23 1035.530 972.872 32.078 12.467 o
10 15 0 32233.100 32270.400 621.777 0.041 o
10 15 1 1725.160 1805.790 47.237 6.016 o
10 15 2 7331.430 8004.220 137.758 0.607 o
10 15 3 185.006 105.680 22.410 96.838 o
10 15 4 8350.060 8502.740 128.750 0.507 o
10 15 5 961.718 1046.690 32.737 12.840 o
10 15 6 3599.840 3302.010 85.247 2.152 o
10 15 7 771.498 1072.180 35.593 14.923 o
10 15 8 1579.290 1739.220 44.821 6.635 o
10 15 9 254.059 525.764 28.343 42.998 o
10 15 10 7419.520 8253.810 135.341 0.589 o
10 15 11 117.985 109.415 19.994 134.099 o
10 15 12 1005.040 952.439 29.661 12.939 o
10 15 13 1035.830 801.938 42.404 13.143 o
10 15 14 4196.870 4348.700 84.588 1.595 o
10 15 15 33.334 96.013 16.918 276.164 o
10 15 16 2564.030 2809.420 61.738 3.321 o
10 15 17 920.425 868.510 34.494 14.328 o
10 15 18 2290.790 2029.230 48.995 4.366 o
10 15 19 1030.490 1082.290 42.843 11.772 o
10 15 20 4424.160 4279.930 87.005 1.520 o
10 15 21 9.105 -11.425 21.751 834.536 o
10 15 22 2748.320 2860.170 64.155 3.074 o
10 16 0 23188.300 25200.400 530.598 0.073 o
10 16 1 20.471 62.178 16.918 404.706 o
10 16 2 2654.960 2884.340 57.344 3.180 o
10 16 3 290.596 358.346 25.486 48.114 o
10 16 4 9004.450 10031.700 194.662 0.415 o
10 16 5 507.878 505.771 29.002 28.308 o
10 16 6 225.108 138.417 22.410 78.641 o
10 16 7 819.473 1209.940 39.987 13.345 o
10 16 8 3937.200 4483.390 82.171 1.676 o
10 16 9 502.711 482.921 32.078 28.724 o
10 16 10 215.109 139.076 19.334 82.849 o
10 16 11 276.481 226.081 16.918 60.654 o
10 16 12 423.096 475.011 29.002 33.044 o
10 16 13 187.007 272.000 30.759 67.765 o
10 16 14 2179.960 2666.390 66.572 3.943 o
10 16 15 492.924 361.422 25.926 32.675 o
10 16 16 339.571 476.110 20.653 39.280 o
10 16 17 98.822 132.924 18.236 142.141 o
10 16 18 76.662 49.654 21.092 212.950 o
10 16 19 66.704 98.430 23.509 183.157 o
10 16 20 2751.580 3096.580 71.845 2.930 o
10 16 21 32.782 68.330 22.410 289.482 o
10 17 0 406.215 316.161 36.252 37.840 o
10 17 1 1020.090 945.848 25.486 12.881 o
10 17 2 926.684 653.195 30.320 15.857 o
10 17 3 235.989 456.775 24.827 48.839 o
10 17 4 74.325 97.990 17.577 188.275 o
10 17 5 111.359 213.997 17.577 109.106 o
10 17 6 55.825 58.662 23.070 237.234 o
10 17 7 433.220 409.758 27.903 34.438 o
10 17 8 2292.360 1930.800 45.919 4.467 o
10 17 9 3283.350 3079.660 73.163 2.467 o
10 17 10 1311.090 1321.550 40.426 8.875 o
10 17 11 1127.010 1396.690 42.404 9.771 o
10 17 12 39.183 0.659 16.918 497.434 o
10 17 13 1276.270 1136.120 33.835 9.755 o
10 17 14 205.720 223.005 20.653 73.719 o
10 17 15 3142.570 3358.250 60.420 2.487 o
10 17 16 283.254 310.010 24.827 51.865 o
10 17 17 486.592 459.851 27.903 30.346 o
10 17 18 323.512 264.750 23.070 50.167 o
10 17 19 346.997 398.772 24.827 41.137 o
10 17 20 33.750 80.414 24.827 254.292 o
10 17 21 1.186 -4.174 19.334 1385.900 o
10 18 0 7228.940 8250.300 195.761 0.593 o
10 18 1 114.638 198.837 19.994 109.268 o
10 18 2 1697.500 1855.880 48.336 6.017 o
10 18 3 784.215 636.937 27.903 18.555 o
10 18 4 2268.880 2529.730 56.245 3.946 o
10 18 5 786.463 1059.880 39.987 14.672 o
10 18 6 146.542 121.499 25.486 107.238 o
10 18 7 33.794 52.071 21.092 325.090 o
10 18 8 1029.880 716.032 29.661 14.022 o
10 18 9 1744.510 2066.800 53.829 5.539 o
10 18 10 219.865 192.685 29.002 70.067 o
10 18 11 80.169 120.181 23.509 155.579 o
10 18 12 117.318 147.425 19.334 122.585 o
10 18 13 14.319 50.094 19.994 452.412 o
10 18 14 48.177 65.913 18.236 270.493 o
10 18 15 160.783 210.262 19.994 88.330 o
10 18 16 29.199 41.745 25.486 325.516 o
10 18 17 84.788 172.252 21.751 133.015 o
10 18 18 28.915 41.745 21.092 371.690 o
10 18 19 8.202 -9.667 25.486 673.860 o
10 18 20 569.707 519.173 38.669 24.949 o
10 19 0 631.633 1066.690 69.428 15.420 o
10 19 1 93.521 69.428 19.334 177.805 o
10 19 2 196.200 401.189 29.661 55.906 o
10 19 3 34.678 64.155 18.236 318.505 o
10 19 4 2349.780 2327.160 54.488 3.984 o
10 19 5 2586.370 2822.820 52.071 3.308 o
10 19 6 108.745 253.105 26.585 94.424 o
10 19 7 7282.520 7760.130 141.932 0.622 o
10 19 8 59.346 142.591 25.926 159.737 o
10 19 9 894.506 829.842 29.661 15.055 o
10 19 10 424.265 491.270 27.244 32.738 o
10 19 11 1431.320 1368.790 42.404 8.078 o
10 19 12 226.441 136.000 19.334 80.072 o
10 19 13 211.025 157.751 19.994 81.028 o
10 19 14 1193.570 1269.040 43.502 9.736 o
10 19 15 2149.400 1839.620 49.654 4.845 o
10 19 16 67.979 87.664 22.410 192.081 o
10 19 17 344.406 281.008 23.070 47.012 o
10 19 18 2.361 0.659 20.653 1145.020 o
10 19 19 829.689 948.704 40.426 14.824 o
10 20 0 3512.890 3116.570 102.165 2.239 o
10 20 1 845.947 798.863 29.002 16.015 o
10 20 2 1165.700 1143.370 39.328 10.449 o
10 20 3 102.755 99.748 21.092 148.624 o
10 20 4 2328.060 2039.560 54.488 4.268 o
10 20 5 795.353 1067.350 37.570 14.578 o
10 20 6 27.902 338.352 30.759 105.907 o
10 20 7 550.094 543.341 25.926 26.182 o
10 20 8 1099.720 1287.280 33.176 10.492 o
10 20 9 355.812 406.023 30.320 39.292 o
10 20 10 98.789 152.918 21.751 129.974 o
10 20 11 29.940 34.494 19.994 398.549 o
10 20 12 3262.190 3629.600 79.754 2.273 o
10 20 13 141.556 174.010 25.926 97.589 o
10 20 14 573.191 739.102 35.154 21.875 o
10 20 15 104.087 148.743 23.070 126.080 o
10 20 16 336.594 450.184 29.661 39.192 o
10 20 17 95.933 118.423 22.410 144.228 o
10 20 18 276.265 339.670 29.661 49.713 o
10 21 0 1117.350 1418.880 68.330 9.290 o
10 21 1 1284.170 1290.790 40.426 9.127 o
10 21 2 349.167 583.108 36.252 33.182 o
10 21 3 1405.600 1614.200 45.919 7.583 o
10 21 4 2009.490 1617.720 48.336 5.461 o
10 21 5 698.298 758.436 35.154 18.771 o
10 21 6 52.120 56.905 24.168 242.085 o
10 21 7 2624.620 2963.000 70.746 3.138 o
10 21 8 36.149 41.745 18.675 357.917 o
10 21 9 22.134 -3.076 18.236 697.085 o
10 21 10 3333.500 2993.760 65.913 2.473 o
10 21 11 1461.210 1409.870 40.426 7.850 o
10 21 12 1060.220 1187.530 44.821 11.013 o
10 21 13 1803.670 2000.890 63.496 5.408 o
10 21 14 1065.480 1159.630 38.669 11.201 o
10 21 15 2.713 -1.758 24.168 862.371 o
10 21 16 561.296 664.181 36.911 23.117 o
10 21 17 1462.930 1402.620 52.071 7.741 o
10 22 0 711.986 705.266 58.003 17.733 o
10 22 1 2755.840 3349.690 61.738 2.823 o
10 22 2 8137.910 8720.480 181.919 0.507 o
10 22 3 4325.230 5237.650 95.573 1.384 o
10 22 4 70.611 102.824 25.926 168.979 o
10 22 5 414.156 513.021 33.835 31.935 o
10 22 6 4118.060 4286.530 83.929 1.640 o
10 22 7 1191.550 1300.460 44.161 9.635 o
10 22 8 47.912 125.674 21.092 197.614 o
10 22 9 1619.010 2152.710 58.003 5.743 o
10 22 10 1295.910 1570.040 49.654 8.173 o
10 22 11 1168.050 1349.450 42.404 9.654 o
10 22 12 484.875 808.090 38.010 23.166 o
10 22 13 447.441 415.690 26.585 33.607 o
10 22 14 689.927 972.872 42.404 16.653 o
10 22 15 1490.530 1358.460 39.987 7.837 o
10 23 0 2119.060 2266.300 84.588 4.302 o
10 23 1 69.579 131.826 24.827 157.417 o
10 23 2 7443.920 7885.140 126.333 0.604 o
10 23 3 785.302 943.431 49.654 15.131 o
10 23 4 5082.470 5608.080 97.990 1.126 o
10 23 5 172.549 112.931 20.653 101.823 o
10 23 6 3697.870 4092.520 75.580 1.885 o
10 23 7 2.610 -5.493 21.751 1047.440 o
10 23 8 2885.990 3382.420 80.414 2.654 o
10 23 9 225.215 229.596 21.751 68.305 o
10 23 10 713.728 1087.120 52.511 15.007 o
10 23 11 297.536 275.076 27.244 51.642 o
10 23 12 3459.520 3422.850 76.678 2.215 o
10 23 13 113.410 203.670 30.759 98.127 o
10 23 14 3312.640 3759.000 85.247 2.189 o
10 24 0 87.821 183.677 44.821 93.849 o
10 24 1 122.816 117.764 25.926 120.237 o
10 24 2 4434.990 4862.380 87.005 1.415 o
10 24 3 67.379 64.155 23.509 207.838 o
10 24 4 56.563 131.166 27.903 163.517 o
10 24 5 507.710 416.349 35.154 29.631 o
10 24 6 186.490 198.178 29.002 77.182 o
10 24 7 977.934 1203.130 45.919 11.632 o
10 24 8 254.698 580.691 35.154 39.420 o
10 24 9 2158.540 1959.810 53.829 4.678 o
10 24 10 0.728 -6.152 23.070 1008.770 o
10 24 11 806.762 751.845 36.252 16.793 o
10 24 12 613.184 573.002 33.176 23.189 o
10 25 0 1565.450 1538.620 71.406 6.803 o
10 25 1 2975.590 2833.150 67.011 2.850 o
10 25 2 160.288 90.081 25.486 108.176 o
10 25 3 1811.740 2022.640 70.746 5.308 o
10 25 4 413.194 516.097 39.987 31.090 o
10 25 5 2808.140 2738.240 65.913 3.072 o
10 25 6 786.448 836.433 40.426 16.277 o
10 25 7 4593.730 4994.210 109.415 1.329 o
10 25 8 94.101 142.591 33.835 117.491 o
10 25 9 538.007 657.590 43.502 23.369 o
10 26 1 114.720 81.512 33.176 124.520 o
10 26 2 899.145 900.368 61.738 13.476 o
10 26 3 44.525 39.987 33.835 221.006 o
10 26 4 177.293 241.021 32.078 72.360 o
10 26 5 78.796 85.906 41.086 129.076 o
10 26 6 1920.430 1872.140 70.087 5.229 o
11 1 0 372.127 685.932 37.570 29.388 o
11 1 1 71.521 160.168 12.084 162.713 o
11 1 2 6008.190 5975.650 82.830 0.911 o
11 1 3 9047.080 9955.680 163.244 0.418 o
11 1 4 6438.560 5371.890 81.512 0.890 o
11 1 5 2478.860 2553.240 52.071 3.625 o
11 1 6 1096.060 1182.040 27.903 11.009 o
11 1 7 14131.300 13978.100 203.011 0.200 o
11 1 8 616.740 807.431 30.320 20.219 o
11 1 9 360.781 206.746 23.509 49.140 o
11 1 10 597.508 910.695 34.494 19.312 o
11 1 11 7480.790 7802.970 120.181 0.606 o
11 1 12 1515.200 1111.950 30.759 8.413 o
11 1 13 643.030 603.102 19.994 22.573 o
11 1 14 17.750 31.418 18.236 536.526 o
11 1 15 1379.330 1725.380 36.911 7.529 o
11 1 16 5099.940 5086.050 84.588 1.191 o
11 1 17 1517.630 1464.360 44.821 7.429 o
11 1 18 2353.800 2585.980 65.254 3.743 o
11 1 19 4.282 -7.250 19.334 1194.060 o
11 1 20 56.656 100.847 20.653 204.813 o
11 1 21 1175.060 1505.450 54.927 8.933 o
11 1 22 369.078 403.166 24.827 39.265 o
11 1 23 24.612 -1.318 17.577 673.170 o
11 1 24 123.298 120.181 24.168 121.561 o
11 1 25 263.008 183.018 23.509 64.851 o
11 1 26 33.707 30.759 20.653 380.179 o
11 2 1 10320.300 9950.850 129.848 0.361 o
11 2 2 88.436 130.507 12.084 160.523 o
11 2 3 913.495 771.619 25.486 15.295 o
11 2 4 3101.910 3219.840 56.905 2.580 o
11 2 5 3711.080 2769.650 54.488 2.292 o
11 2 6 55.583 67.011 13.842 266.554 o
11 2 7 3622.560 3445.920 51.412 2.132 o
11 2 8 76.110 44.821 14.501 240.705 o
11 2 9 13194.600 12218.200 186.094 0.236 o
11 2 10 2011.790 2170.730 48.995 4.786 o
11 2 11 2392.480 2679.570 43.502 3.678 o
11 2 12 4377.740 4515.460 71.406 1.504 o
11 2 13 4799.740 3899.620 96.013 1.448 o
11 2 14 100.326 81.073 14.501 171.484 o
11 2 15 4450.710 3601.250 64.155 1.659 o
11 2 16 5547.990 5509.650 88.763 1.039 o
11 2 17 2810.130 2731.640 51.412 3.102 o
11 2 18 908.285 1029.780 28.343 13.621 o
11 2 19 2214.940 2001.550 54.488 4.518 o
11 2 20 875.948 615.186 31.418 16.948 o
11 2 21 39.948 75.580 16.259 290.576 o
11 2 22 302.299 219.929 29.002 54.021 o
11 2 23 495.088 416.349 21.751 31.516 o
11 2 24 1493.060 1414.710 54.927 7.544 o
11 2 25 1319.430 1414.050 60.420 8.306 o
11 2 26 64.351 63.496 22.410 217.940 o
11 3 0 21785.500 21065.100 362.081 0.090 o
11 3 1 7.107 27.244 13.402 905.449 o
11 3 2 8609.120 9987.100 181.919 0.438 o
11 3 3 2138.510 1924.870 36.252 4.823 o
11 3 4 6449.560 6879.530 99.089 0.774 o
11 3 5 154.631 324.510 19.994 74.063 o
11 3 6 264.053 395.257 19.334 50.220 o
11 3 7 3080.440 2615.420 54.488 2.876 o
11 3 8 76.918 47.677 12.084 242.378 o
11 3 9 70.806 83.929 11.425 218.786 o
11 3 10 1282.740 1701.210 54.488 7.858 o
11 3 11 137.029 280.349 17.577 85.944 o
11 3 12 549.835 618.921 28.343 24.741 o
11 3 13 2663.870 2161.720 43.502 3.660 o
11 3 14 1066.330 1032.190 43.502 11.659 o
11 3 15 127.158 146.766 16.918 119.204 o
11 3 16 424.991 525.764 28.343 31.691 o
11 3 17 398.986 516.756 19.334 34.181 o
11 3 18 484.836 514.779 21.751 29.667 o
11 3 19 725.672 714.275 36.252 18.615 o
11 3 20 221.456 169.176 16.259 78.193 o
11 3 21 22.858 30.759 16.918 509.760 o
11 3 22 2682.270 2020.880 56.905 3.702 o
11 3 23 70.388 123.257 17.577 176.769 o
11 3 24 20.000 25.926 19.994 508.465 o
11 3 25 451.927 325.170 36.252 34.659 o
11 3 26 38.371 35.154 35.154 229.385 o
11 4 0 1863.080 2466.240 89.422 4.567 o
11 4 1 1093.670 1488.530 33.835 9.798 o
11 4 2 6349.120 7740.130 169.835 0.714 o
11 4 3 7207.170 6440.990 87.005 0.709 o
11 4 4 3658.530 2669.910 47.677 2.372 o
11 4 5 936.671 1209.940 41.745 12.078 o
11 4 6 1663.700 1858.300 38.010 6.181 o
11 4 7 13590.000 13339.900 219.270 0.215 o
11 4 8 2448.420 2840.400 61.738 3.447 o
11 4 9 3273.720 3881.600 81.073 2.181 o
11 4 10 5467.890 4267.850 93.157 1.198 o
11 4 11 9618.330 9997.430 149.183 0.390 o
11 4 12 118.728 74.921 16.259 152.798 o
11 4 13 6421.120 6917.760 104.582 0.774 o
11 4 14 131.222 162.585 23.070 107.203 o
11 4 15 5569.300 6408.260 100.847 0.944 o
11 4 16 154.889 158.410 17.577 101.836 o
11 4 17 182.174 187.851 15.819 87.091 o
11 4 18 3655.730 2892.250 50.094 2.292 o
11 4 19 77.274 81.512 12.743 206.770 o
11 4 20 376.866 422.940 23.509 38.164 o
11 4 21 2743.220 2674.740 71.406 3.165 o
11 4 22 210.748 130.507 20.653 84.764 o
11 4 23 590.271 751.845 29.002 21.603 o
11 4 24 1280.180 1310.130 41.086 9.084 o
11 4 25 16.496 -21.751 27.244 509.196 o
11 4 26 13.015 35.593 36.911 275.564 o
11 5 0 2710.140 2812.500 91.179 3.069 o
11 5 1 12250.600 12204.800 168.517 0.259 o
11 5 2 6.973 10.326 12.084 1389.560 o
11 5 3 10840.800 10228.800 140.834 0.335 o
11 5 4 8554.450 9227.350 139.076 0.469 o
11 5 5 4016.830 3908.850 62.178 1.785 o
11 5 6 98.603 85.247 11.425 175.391 o
11 5 7 14853.900 14574.400 217.512 0.183 o
11 5 8 85.377 100.407 16.259 174.874 o
11 5 9 6347.500 6147.900 91.179 0.841 o
11 5 10 2145.280 2405.820 49.654 4.284 o
11 5 11 9366.880 8597.220 123.916 0.441 o
11 5 12 3338.000 3904.010 84.588 2.129 o
11 5 13 8438.550 7776.390 122.598 0.528 o
11 5 14 2383.260 2289.810 48.995 3.977 o
11 5 15 13165.500 14092.100 261.014 0.215 o
11 5 16 113.611 19.994 30.759 154.391 o
11 5 17 1414.170 1323.530 28.343 8.406 o
11 5 18 633.582 717.350 23.070 21.197 o
11 5 19 116.254 180.162 15.160 117.298 o
11 5 20 328.362 363.179 17.577 45.385 o
11 5 21 3855.780 3398.680 80.414 1.980 o
11 5 22 0.414 45.260 23.509 535.411 o
11 5 23 1561.510 1718.780 46.578 6.725 o
11 5 24 146.148 173.351 33.835 88.645 o
11 5 25 1234.290 1185.110 40.426 9.789 o
11 5 26 385.170 420.084 44.821 34.278 o
11 6 0 322.334 485.777 34.494 38.101 o
11 6 1 1635.610 1705.380 39.987 6.526 o
11 6 2 146.401 184.995 12.743 102.513 o
11 6 3 4135.870 4390.450 70.087 1.622 o
11 6 4 111.311 29.002 13.842 192.393 o
11 6 5 394.642 248.271 14.501 44.905 o
11 6 6 150.644 87.005 15.819 124.048 o
11 6 7 5514.300 5269.720 110.074 1.062 o
11 6 8 4911.010 5195.460 77.997 1.229 o
11 6 9 112.765 129.409 13.842 137.472 o
11 6 10 255.619 298.585 18.236 57.939 o
11 6 11 132.334 36.911 13.402 161.972 o
11 6 12 9014.770 7702.120 112.931 0.491 o
11 6 13 1961.900 1785.140 36.252 5.419 o
11 6 14 3153.640 3352.760 71.845 2.464 o
11 6 15 42.192 38.669 16.259 355.319 o
11 6 16 704.120 749.867 21.751 19.238 o
11 6 17 92.259 156.433 15.160 141.654 o
11 6 18 78.221 84.588 15.160 197.752 o
11 6 19 14.159 36.911 15.160 607.666 o
11 6 20 468.202 419.425 20.653 32.923 o
11 6 21 1748.020 1704.280 48.995 6.092 o
11 6 22 273.645 205.428 22.410 61.376 o
11 6 23 213.986 125.015 24.168 82.619 o
11 6 24 194.911 144.349 27.244 83.394 o
11 6 25 24.928 -8.569 26.585 450.835 o
11 7 1 7876.080 8609.740 158.410 0.534 o
11 7 2 13093.300 13149.600 166.759 0.229 o
11 7 3 208.553 275.515 15.819 68.909 o
11 7 4 1163.600 1234.110 25.926 10.294 o
11 7 5 5834.100 6131.420 99.089 0.923 o
11 7 6 3105.640 3180.510 75.580 2.564 o
11 7 7 5047.840 6582.930 125.015 1.016 o
11 7 8 4073.200 4632.130 79.095 1.592 o
11 7 9 8498.380 8488.900 122.158 0.498 o
11 7 10 1695.280 1605.630 32.078 6.535 o
11 7 11 3504.320 3512.270 59.761 2.177 o
11 7 12 6487.240 6090.340 100.847 0.822 o
11 7 13 1804.760 2239.060 48.336 5.189 o
11 7 14 60.370 138.417 17.577 179.855 o
11 7 15 1422.290 1748.230 37.570 7.287 o
11 7 16 2984.800 2733.400 53.170 2.915 o
11 7 17 2321.760 2445.140 61.738 3.911 o
11 7 18 395.924 297.926 21.751 41.704 o
11 7 19 1138.730 1303.530 29.661 10.182 o
11 7 20 1546.330 1359.120 33.176 7.629 o
11 7 21 8.606 -32.737 18.236 1081.210 o
11 7 22 567.028 589.919 24.168 24.897 o
11 7 23 474.622 580.252 33.835 27.715 o
11 7 24 190.224 105.241 25.486 92.571 o
11 7 25 71.856 65.254 29.002 180.788 o
11 8 1 1034.880 974.850 29.002 12.517 o
11 8 2 347.256 424.918 26.585 39.828 o
11 8 3 514.578 484.019 21.751 29.033 o
11 8 4 4030.350 3726.270 80.414 1.807 o
11 8 5 1785.820 1877.630 59.322 5.651 o
11 8 6 71.205 32.737 13.842 270.823 o
11 8 7 158.651 114.249 17.577 110.394 o
11 8 8 10477.500 9776.180 152.258 0.357 o
11 8 9 1196.610 1193.460 30.320 10.154 o
11 8 10 362.967 534.333 25.486 35.196 o
11 8 11 1926.780 2020.230 40.426 5.192 o
11 8 12 6923.400 6536.350 108.097 0.733 o
11 8 13 224.748 183.677 15.819 75.653 o
11 8 14 1018.260 1216.530 33.835 11.445 o
11 8 15 2072.530 1902.460 42.843 4.975 o
11 8 16 6734.080 6331.580 106.339 0.771 o
11 8 17 533.538 689.008 34.494 23.741 o
11 8 18 597.136 679.341 25.486 22.560 o
11 8 19 884.957 723.283 40.426 15.636 o
11 8 20 515.938 614.527 26.585 26.088 o
11 8 21 45.254 73.822 19.334 262.339 o
11 8 22 284.487 180.601 19.334 62.537 o
11 8 23 286.491 236.846 25.926 55.944 o
11 8 24 245.062 243.438 32.737 59.170 o
11 8 25 28.042 49.654 27.903 292.990 o
11 9 0 3.453 -15.160 15.160 1833.020 o
11 9 1 7183.230 7276.770 136.000 0.657 o
11 9 2 3832.120 4345.190 118.423 1.713 o
11 9 3 171.450 256.181 16.259 79.941 o
11 9 4 77.251 64.594 13.402 220.628 o
11 9 5 2627.220 3219.840 55.586 3.029 o
11 9 6 1220.380 1059.440 40.426 10.336 o
11 9 7 2479.100 2454.810 52.071 3.695 o
11 9 8 709.304 696.258 27.244 19.519 o
11 9 9 2909.160 2525.560 88.763 3.018 o
11 9 10 1622.350 1432.280 68.330 6.826 o
11 9 11 3200.180 2900.820 56.905 2.632 o
11 9 12 60.707 66.572 21.751 224.554 o
11 9 13 226.440 334.178 19.334 59.437 o
11 9 14 475.999 485.777 39.328 29.015 o
11 9 15 3032.340 3186.660 64.155 2.642 o
11 9 16 141.109 99.089 18.236 123.955 o
11 9 17 1951.700 2127.880 48.995 4.968 o
11 9 18 137.787 117.325 18.675 119.987 o
11 9 19 1561.700 1712.630 40.426 6.780 o
11 9 20 1.855 -16.918 19.994 1260.170 o
11 9 21 212.128 95.573 21.751 89.281 o
11 9 22 1560.560 1419.540 39.328 7.386 o
11 9 23 4.300 -20.653 19.334 1193.110 o
11 9 24 732.039 667.696 32.737 19.117 o
11 9 25 77.256 91.838 30.320 155.974 o
11 10 0 7749.070 8371.800 223.005 0.539 o
11 10 1 596.492 667.257 27.903 22.627 o
11 10 2 6044.830 5543.480 103.263 0.936 o
11 10 3 7.544 21.751 15.160 902.361 o
11 10 4 50.981 85.906 13.842 253.745 o
11 10 5 1256.180 914.869 48.336 10.473 o
11 10 6 2239.540 2536.980 61.079 3.971 o
11 10 7 1244.360 1218.290 30.759 9.726 o
11 10 8 53.822 33.176 14.501 326.858 o
11 10 9 3204.300 2895.330 106.998 2.532 o
11 10 10 240.295 239.922 21.751 64.398 o
11 10 11 1462.320 1567.620 41.745 7.472 o
11 10 12 365.576 412.834 27.903 38.721 o
11 10 13 26.288 76.239 19.334 320.123 o
11 10 14 1178.740 1557.960 59.761 8.685 o
11 10 15 4314.560 4816.460 86.346 1.464 o
11 10 16 6.393 48.995 19.334 543.172 o
11 10 17 169.586 254.423 21.092 78.626 o
11 10 18 2875.940 2929.160 58.003 2.918 o
11 10 19 91.588 96.013 23.070 157.135 o
11 10 20 445.533 465.344 28.343 32.185 o
11 10 21 139.768 96.672 24.168 118.781 o
11 10 22 327.019 288.918 21.751 48.678 o
11 10 23 0.812 -4.834 20.653 1245.240 o
11 10 24 145.644 216.853 27.903 86.899 o
11 11 0 6364.710 6474.830 168.078 0.791 o
11 11 1 6457.660 6799.340 147.425 0.765 o
11 11 2 540.919 507.528 27.244 27.098 o
11 11 3 182.925 149.183 20.653 90.785 o
11 11 4 1690.510 1338.030 30.759 7.069 o
11 11 5 7521.570 6421.000 121.499 0.669 o
11 11 6 229.695 153.577 23.070 75.228 o
11 11 7 1377.080 951.780 40.426 9.613 o
11 11 8 181.798 256.840 22.410 74.629 o
11 11 9 8131.540 7766.280 139.076 0.549 o
11 11 10 694.463 681.098 35.593 19.643 o
11 11 11 4349.920 4499.200 112.931 1.486 o
11 11 12 2213.970 2346.490 79.095 4.096 o
11 11 13 1037.400 899.929 48.995 12.432 o
11 11 14 2161.410 2446.900 75.580 4.116 o
11 11 15 151.406 129.409 19.334 108.815 o
11 11 16 1005.030 977.266 39.328 12.611 o
11 11 17 267.986 350.436 22.410 51.815 o
11 11 18 3843.540 3566.760 74.262 1.948 o
11 11 19 7354.490 6918.860 117.764 0.661 o
11 11 20 0.466 -30.320 21.092 1214.560 o
11 11 21 180.631 170.494 23.070 86.508 o
11 11 22 25.923 15.819 21.751 468.901 o
11 11 23 361.954 424.918 27.244 38.646 o
11 11 24 530.307 569.266 32.737 25.934 o
11 12 0 6783.660 6751.440 197.079 0.711 o
11 12 1 2512.190 1997.820 46.578 4.011 o
11 12 2 2815.440 3204.240 86.346 2.783 o
11 12 3 7356.930 7298.520 195.102 0.624 o
11 12 4 370.675 507.528 28.343 35.196 o
11 12 5 4317.680 4727.700 106.998 1.463 o
11 12 6 1320.570 1393.620 45.919 8.553 o
11 12 7 2099.600 2260.810 62.178 4.458 o
11 12 8 2589.070 2489.300 63.496 3.488 o
11 12 9 2323.380 2218.400 47.677 4.141 o
11 12 10 1601.340 1783.380 43.502 6.486 o
11 12 11 730.573 779.528 25.926 18.273 o
11 12 12 1707.450 1321.550 38.669 6.985 o
11 12 13 12.001 22.410 16.918 718.842 o
11 12 14 176.276 181.919 18.675 88.615 o
11 12 15 489.447 338.352 20.653 33.998 o
11 12 16 1448.460 1193.460 41.745 8.450 o
11 12 17 2345.980 2097.560 52.071 4.193 o
11 12 18 54.208 53.829 20.653 258.614 o
11 12 19 709.465 671.431 32.737 19.557 o
11 12 20 9.969 -18.236 21.751 812.533 o
11 12 21 1657.130 1471.610 39.328 6.884 o
11 12 22 434.275 535.431 39.328 29.753 o
11 12 23 404.182 274.417 25.926 41.368 o
11 13 0 904.679 1151.940 47.677 12.536 o
11 13 1 7943.480 8680.490 164.342 0.525 o
11 13 2 11570.900 12640.700 228.498 0.268 o
11 13 3 8573.520 8770.570 135.341 0.483 o
11 13 4 2730.430 3017.930 61.738 3.014 o
11 13 5 3153.260 3305.740 111.173 2.405 o
11 13 6 2082.000 2340.560 48.336 4.470 o
11 13 7 3564.010 4006.620 78.656 1.975 o
11 13 8 1193.150 1866.870 49.654 7.947 o
11 13 9 4775.940 5044.300 130.507 1.255 o
11 13 10 5.621 -13.402 15.160 1595.430 o
11 13 11 8733.860 9021.260 178.184 0.460 o
11 13 12 4403.770 4393.960 88.323 1.506 o
11 13 13 154.235 173.351 19.994 97.380 o
11 13 14 480.208 473.693 32.737 29.841 o
11 13 15 2069.350 1639.030 57.344 5.230 o
11 13 16 216.066 219.929 18.675 72.432 o
11 13 17 3012.420 3132.830 58.662 2.692 o
11 13 18 1690.270 1672.210 47.677 6.343 o
11 13 19 2097.760 2077.130 56.905 4.669 o
11 13 20 2607.000 2467.990 54.927 3.501 o
11 13 21 3184.910 2842.820 64.594 2.658 o
11 13 22 2083.160 2040.220 49.654 4.770 o
11 13 23 1400.730 1432.940 44.161 8.053 o
11 14 0 3991.300 4421.870 141.493 1.602 o
11 14 1 19261.300 19164.400 339.011 0.111 o
11 14 2 15359.500 16747.100 246.514 0.161 o
11 14 3 1523.180 1397.130 39.328 7.601 o
11 14 4 1896.360 2656.060 82.830 4.363 o
11 14 5 3779.140 3225.990 76.239 2.078 o
11 14 6 14090.200 14778.700 223.664 0.194 o
11 14 7 2356.370 3181.170 67.670 3.333 o
11 14 8 62.046 22.410 15.819 308.465 o
11 14 9 7104.140 8206.800 158.850 0.615 o
11 14 10 4311.980 4772.300 111.173 1.453 o
11 14 11 636.165 592.336 22.410 22.823 o
11 14 12 113.590 161.267 20.653 119.277 o
11 14 13 35.288 40.426 16.918 381.363 o
11 14 14 6791.140 7565.030 189.829 0.669 o
11 14 15 2865.990 3523.920 66.572 2.636 o
11 14 16 294.007 393.499 21.092 46.763 o
11 14 17 1549.580 1675.720 50.094 6.823 o
11 14 18 4734.100 4707.710 82.171 1.347 o
11 14 19 4581.000 4169.200 79.754 1.488 o
11 14 20 629.077 468.859 28.343 24.604 o
11 14 21 724.114 691.864 30.759 19.113 o
11 14 22 2751.580 2477.220 58.003 3.304 o
11 15 0 4757.120 6188.990 187.851 1.078 o
11 15 1 249.173 149.183 17.577 73.338 o
11 15 2 5016.090 5795.490 133.583 1.101 o
11 15 3 66.031 105.241 18.675 192.363 o
11 15 4 2563.890 2802.830 71.406 3.300 o
11 15 5 208.394 182.578 24.827 76.028 o
11 15 6 853.981 902.785 38.669 14.861 o
11 15 7 2683.750 2523.140 80.414 3.297 o
11 15 8 789.481 1054.600 37.570 14.741 o
11 15 9 2152.080 2202.150 61.738 4.415 o
11 15 10 254.744 327.586 27.244 53.720 o
11 15 11 32.557 58.003 17.577 345.254 o
11 15 12 1063.480 1001.430 29.661 12.088 o
11 15 13 517.852 551.250 23.070 27.428 o
11 15 14 6554.280 6733.430 129.848 0.762 o
11 15 15 1032.990 937.938 29.002 12.729 o
11 15 16 487.357 632.762 28.343 26.677 o
11 15 17 1487.790 1465.460 44.161 7.565 o
11 15 18 856.361 875.761 35.154 15.121 o
11 15 19 758.276 899.270 33.176 16.485 o
11 15 20 374.505 343.845 33.176 39.701 o
11 15 21 46.902 71.845 23.509 240.299 o
11 16 0 5174.440 5092.640 134.242 1.145 o
11 16 1 1783.280 2021.980 49.654 5.518 o
11 16 2 10423.400 11344.500 174.010 0.327 o
11 16 3 8819.070 9364.660 148.743 0.448 o
11 16 4 4647.460 4481.630 76.678 1.414 o
11 16 5 101.727 148.084 18.675 133.515 o
11 16 6 870.513 988.691 29.661 14.313 o
11 16 7 3016.340 3016.170 57.344 2.743 o
11 16 8 1630.830 1849.730 49.654 6.231 o
11 16 9 147.825 168.078 16.259 103.671 o
11 16 10 167.398 380.097 29.661 61.953 o
11 16 11 30.482 56.905 15.819 371.880 o
11 16 12 2801.390 2955.090 73.822 2.947 o
11 16 13 724.605 972.872 37.570 16.283 o
11 16 14 143.335 122.158 21.751 112.525 o
11 16 15 131.087 144.349 21.751 113.129 o
11 16 16 4431.530 4615.870 76.678 1.464 o
11 16 17 1602.160 1757.890 47.677 6.499 o
11 16 18 2088.470 2088.560 51.412 4.700 o
11 16 19 299.225 292.433 25.486 50.843 o
11 16 20 1892.950 1617.280 43.502 5.814 o
11 16 21 1408.470 1189.290 42.843 8.669 o
11 17 0 3004.380 3370.340 100.407 2.518 o
11 17 1 61.923 39.987 14.501 285.234 o
11 17 2 6009.270 7067.600 119.082 0.816 o
11 17 3 167.858 40.426 21.751 121.707 o
11 17 4 8056.840 8701.140 177.086 0.514 o
11 17 5 2450.450 2518.750 54.927 3.682 o
11 17 6 4145.420 4461.630 71.406 1.603 o
11 17 7 843.235 1227.300 49.654 12.725 o
11 17 8 4186.740 4187.440 91.179 1.626 o
11 17 9 3565.660 4197.540 90.081 1.910 o
11 17 10 257.522 192.685 18.236 66.700 o
11 17 11 485.989 858.184 34.494 22.665 o
11 17 12 3146.060 3698.360 74.921 2.337 o
11 17 13 61.643 56.245 23.509 225.625 o
11 17 14 3503.080 4181.940 85.906 1.953 o
11 17 15 12.843 9.008 23.070 619.011 o
11 17 16 3213.780 3492.500 81.512 2.352 o
11 17 17 526.127 522.029 27.903 27.340 o
11 17 18 1635.900 1719.220 45.260 6.466 o
11 17 19 1226.490 1050.870 42.404 10.291 o
11 17 20 2454.540 2350.230 61.738 3.780 o
11 18 0 11370.000 11245.800 213.338 0.295 o
11 18 1 131.585 57.344 16.918 148.187 o
11 18 2 452.631 529.279 31.418 29.968 o
11 18 3 374.264 544.000 30.759 33.621 o
11 18 4 4313.930 5281.810 96.013 1.380 o
11 18 5 1661.510 1573.120 43.502 6.648 o
11 18 6 4.208 62.837 18.675 506.168 o
11 18 7 16.060 97.331 32.078 231.327 o
11 18 8 130.490 131.826 17.577 121.062 o
11 18 9 3399.810 4391.110 88.323 1.949 o
11 18 10 1003.740 1087.780 30.320 12.240 o
11 18 11 1154.100 1240.040 42.404 10.129 o
11 18 12 69.579 132.265 21.751 163.886 o
11 18 13 81.965 58.662 19.994 199.993 o
11 18 14 1676.880 1776.130 56.245 6.153 o
11 18 15 641.829 768.103 43.502 19.407 o
11 18 16 597.501 522.029 29.002 24.725 o
11 18 17 21.029 66.572 21.751 343.026 o
11 18 18 6.778 -6.591 22.410 859.374 o
11 18 19 238.273 155.334 21.751 73.562 o
11 19 0 2397.980 3289.270 91.179 3.150 o
11 19 1 6.387 -18.675 19.334 1091.280 o
11 19 2 3262.310 3467.010 105.241 2.284 o
11 19 3 4.691 -18.236 19.994 1111.430 o
11 19 4 2493.970 2401.640 53.170 3.709 o
11 19 5 28.313 74.921 19.334 314.811 o
11 19 6 4132.550 4268.950 76.678 1.643 o
11 19 7 20.243 92.498 20.653 303.055 o
11 19 8 1252.630 1551.810 39.987 8.559 o
11 19 9 389.332 342.746 21.751 40.434 o
11 19 10 2357.700 2663.310 55.586 3.710 o
11 19 11 19.399 0.659 24.827 538.248 o
11 19 12 5900.160 6237.760 106.339 0.900 o
11 19 13 610.290 447.108 32.737 25.282 o
11 19 14 1706.590 2304.310 63.496 5.268 o
11 19 15 0.885 12.084 22.410 855.255 o
11 19 16 1789.800 1893.890 62.837 5.593 o
11 19 17 204.295 216.414 21.092 74.659 o
11 19 18 1319.620 1275.190 44.821 8.907 o
11 20 0 410.198 360.103 34.494 36.430 o
11 20 1 2468.260 2569.500 56.905 3.616 o
11 20 2 9025.200 10496.600 170.494 0.405 o
11 20 3 1411.230 1401.520 45.260 8.067 o
11 20 4 193.984 103.263 16.259 97.839 o
11 20 5 66.738 116.006 18.675 183.826 o
11 20 6 2070.730 2475.900 58.662 4.324 o
11 20 7 2635.690 2875.330 71.406 3.174 o
11 20 8 589.705 534.772 30.759 24.655 o
11 20 9 47.186 52.071 18.236 295.001 o
11 20 10 806.618 518.514 24.168 19.445 o
11 20 11 65.321 172.911 20.653 150.131 o
11 20 12 2961.770 2985.410 56.245 2.810 o
11 20 13 2214.410 2143.040 60.420 4.359 o
11 20 14 1685.560 1664.960 52.511 6.336 o
11 20 15 144.573 181.919 28.343 92.805 o
11 20 16 1176.040 994.184 35.593 11.018 o
11 20 17 1041.930 1097.450 53.829 11.345 o
11 21 0 4337.990 4215.120 101.506 1.552 o
11 21 1 132.159 110.514 21.092 122.872 o
11 21 2 2055.840 1965.300 48.995 4.916 o
11 21 3 399.387 412.834 25.486 36.732 o
11 21 4 684.707 1033.290 39.987 16.347 o
11 21 5 2406.200 2588.830 56.245 3.692 o
11 21 6 2916.240 3425.930 73.163 2.624 o
11 21 7 98.012 151.160 23.070 129.305 o
11 21 8 26.445 68.330 23.509 302.902 o
11 21 9 1210.170 1197.850 41.086 9.902 o
11 21 10 897.623 917.945 35.593 14.275 o
11 21 11 30.344 42.843 25.926 314.669 o
11 21 12 202.445 316.161 24.827 63.292 o
11 21 13 74.105 112.931 21.092 171.064 o
11 21 14 1062.600 1037.690 35.154 11.832 o
11 21 15 518.600 351.754 31.418 31.038 o
11 22 0 9435.410 9631.170 223.664 0.399 o
11 22 1 3593.130 3754.610 71.406 2.038 o
11 22 2 1301.160 1346.380 48.336 8.762 o
11 22 3 4137.160 3928.620 81.512 1.710 o
11 22 4 6658.030 6843.280 118.423 0.745 o
11 22 5 3254.260 3818.110 73.822 2.224 o
11 22 6 1620.640 1679.460 41.745 6.615 o
11 22 7 23.015 5.493 19.994 590.496 o
11 22 8 180.994 160.168 23.509 87.767 o
11 22 9 2299.660 2448.660 57.344 3.958 o
11 22 10 3660.430 4394.620 91.179 1.813 o
11 22 11 1154.810 1218.290 35.593 10.304 o
11 22 12 533.569 653.195 36.252 24.160 o
11 22 13 940.986 1197.850 39.328 12.147 o
11 22 14 2972.270 2869.400 62.178 2.845 o
11 23 0 566.475 609.254 40.426 23.499 o
11 23 1 2968.550 3380.670 68.330 2.607 o
11 23 2 1966.110 2057.800 57.344 4.976 o
11 23 3 1811.620 1847.970 54.488 5.652 o
11 23 4 903.262 1187.530 40.426 12.551 o
11 23 5 1497.740 1748.890 47.237 6.905 o
11 23 6 1682.900 1612.450 42.843 6.505 o
11 23 7 83.574 100.847 22.410 164.307 o
11 23 8 3772.070 4375.950 94.914 1.761 o
11 23 9 1329.060 1616.620 50.753 7.882 o
11 23 10 1214.390 1487.870 45.919 8.886 o
11 23 11 490.810 680.439 45.919 24.223 o
11 23 12 318.785 403.166 29.661 42.451 o
11 24 0 122.268 33.176 44.821 110.994 o
11 24 1 937.142 1099.200 49.654 12.420 o
11 24 2 571.272 490.171 37.570 25.478 o
11 24 3 828.138 664.181 37.570 17.124 o
11 24 4 1328.300 1400.870 39.987 8.558 o
11 24 5 144.304 89.422 24.827 117.445 o
11 24 6 413.171 387.347 35.154 35.289 o
11 24 7 2842.180 2641.560 76.678 3.061 o
11 24 8 15.302 41.745 21.751 450.100 o
11 24 9 211.135 307.593 30.320 60.449 o
11 24 10 1268.890 1324.630 55.586 8.903 o
11 25 0 2650.190 2825.240 116.006 3.039 o
11 25 1 1119.540 1082.950 38.010 11.079 o
11 25 2 535.994 636.937 28.343 24.900 o
11 25 3 618.417 687.690 32.737 21.510 o
11 25 4 170.016 211.580 27.903 80.470 o
11 25 5 38.981 16.918 28.343 307.711 o
11 25 6 776.574 798.863 39.328 16.786 o
11 25 7 1307.390 1187.530 44.821 9.244 o
11 25 8 136.607 139.076 24.168 109.179 o
11 26 0 643.785 553.667 67.670 19.778 o
11 26 1 77.645 110.074 32.737 141.535 o
11 26 2 88.170 69.428 30.759 155.078 o
11 26 3 182.962 156.433 41.086 74.323 o
12 0 0 254.974 163.244 29.661 65.670 o
12 0 1 1.986 0.000 17.577 1577.420 o
12 0 2 5934.940 6600.500 124.575 0.860 o
12 0 3 5201.010 5293.890 108.097 1.130 o
12 0 4 62.355 73.822 18.236 227.003 o
12 0 5 3707.070 3710.450 77.997 1.979 o
12 0 6 8391.050 7499.770 169.176 0.535 o
12 0 7 7492.490 5690.910 158.850 0.704 o
12 0 8 1813.300 2486.230 99.748 4.571 o
12 0 9 414.212 276.834 23.070 40.894 o
12 0 10 4845.480 4285.210 111.832 1.359 o
12 0 11 1910.530 1409.210 61.738 5.953 o
12 0 12 2064.560 1554.220 57.344 5.349 o
12 0 13 1182.860 1007.370 35.593 10.907 o
12 0 14 213.945 122.158 23.509 83.441 o
12 0 15 56.729 119.082 27.244 171.907 o
12 0 16 353.277 479.186 44.161 34.538 o
12 0 17 4209.840 3967.950 98.430 1.655 o
12 0 18 5371.600 5333.220 152.918 1.063 o
12 0 20 1888.830 1551.370 50.753 5.882 o
12 0 21 2119.620 1697.470 58.662 5.031 o
12 0 22 3184.410 3001.010 81.512 2.562 o
12 0 23 22.195 21.092 24.168 436.260 o
12 0 24 10.673 5.493 22.410 707.614 o
12 0 25 434.377 439.858 36.911 32.368 o
12 1 0 10753.900 11488.800 207.186 0.311 o
12 1 1 283.033 354.171 19.994 50.283 o
12 1 2 2202.220 1860.060 32.078 4.767 o
12 1 3 1749.630 1702.970 30.759 6.189 o
12 1 4 159.586 74.921 11.425 125.574 o
12 1 5 1160.240 1306.610 26.585 10.047 o
12 1 6 14967.000 13012.300 165.661 0.195 o
12 1 7 4.922 -6.152 14.501 1769.360 o
12 1 8 16609.000 16472.700 204.769 0.149 o
12 1 9 1405.050 1393.620 27.903 8.272 o
12 1 10 10784.000 10884.000 190.268 0.322 o
12 1 11 800.724 667.696 19.994 18.162 o
12 1 12 2255.790 2451.080 62.178 4.011 o
12 1 13 2575.440 2425.810 43.502 3.598 o
12 1 14 6430.730 6121.100 103.922 0.828 o
12 1 15 693.481 693.842 27.903 19.869 o
12 1 16 868.996 852.691 36.252 15.073 o
12 1 17 51.814 64.594 19.994 254.159 o
12 1 18 2762.930 2661.340 57.344 3.184 o
12 1 19 117.541 82.830 21.751 142.160 o
12 1 20 1160.740 1133.040 32.078 10.632 o
12 1 21 9.913 41.745 19.334 544.358 o
12 1 22 167.609 158.850 18.675 95.847 o
12 1 23 429.284 350.436 21.092 37.327 o
12 1 24 426.670 398.772 18.675 36.143 o
12 1 25 345.988 330.662 25.926 43.945 o
12 2 0 2110.220 2629.920 81.512 4.021 o
12 2 1 3884.680 4036.940 71.406 1.810 o
12 2 2 852.953 743.276 19.994 16.559 o
12 2 3 3494.010 3433.830 54.488 2.215 o
12 2 4 37.937 77.997 13.402 307.049 o
12 2 5 28558.200 26172.600 334.837 0.056 o
12 2 6 1585.640 1372.960 39.987 7.373 o
12 2 7 869.221 903.444 24.827 15.002 o
12 2 8 1073.830 1061.200 27.244 11.743 o
12 2 9 13652.600 13579.800 174.010 0.213 o
12 2 10 201.577 325.170 20.653 64.036 o
12 2 11 4172.600 4341.450 65.254 1.620 o
12 2 12 10294.100 11251.300 286.501 0.324 o
12 2 13 2797.490 3020.340 57.344 2.952 o
12 2 14 110.612 154.675 16.259 127.660 o
12 2 15 2682.880 2930.480 49.654 3.137 o
12 2 16 610.802 706.365 28.343 21.692 o
12 2 17 89.727 59.322 14.501 200.934 o
12 2 18 1108.800 949.363 32.078 11.866 o
12 2 19 5282.860 5249.070 107.657 1.117 o
12 2 20 1306.320 1053.940 35.593 9.809 o
12 2 21 20.887 65.254 19.334 369.745 o
12 2 22 296.316 367.354 23.509 47.437 o
12 2 23 860.612 880.594 33.176 15.083 o
12 2 24 114.426 85.247 18.675 148.540 o
12 2 25 2048.170 1780.300 56.245 5.115 o
12 3 0 6615.430 8421.230 219.270 0.634 o
12 3 1 1436.040 717.350 21.092 10.233 o
12 3 2 2891.280 2606.410 50.753 3.083 o
12 3 3 12113.400 11852.000 172.911 0.267 o
12 3 4 9636.560 8755.410 119.741 0.422 o
12 3 5 19237.100 19187.900 252.006 0.113 o
12 3 6 5689.540 6143.510 94.255 0.949 o
12 3 7 5447.540 4878.200 85.247 1.132 o
12 3 8 4069.340 4291.360 63.496 1.675 o
12 3 9 24596.100 24797.300 348.019 0.070 o
12 3 10 1358.450 1482.380 29.661 8.271 o
12 3 11 2624.530 2558.070 47.237 3.436 o
12 3 12 18109.100 18175.700 229.596 0.126 o
12 3 13 10717.000 9794.200 141.493 0.348 o
12 3 14 184.148 62.837 16.259 111.495 o
12 3 15 3789.920 3008.260 52.071 2.163 o
12 3 16 3593.130 3344.410 60.420 2.174 o
12 3 17 2286.230 2066.150 39.987 4.367 o
12 3 18 129.333 134.242 25.926 112.104 o
12 3 19 2502.190 1682.970 48.995 4.295 o
12 3 20 341.723 401.848 24.827 41.439 o
12 3 21 561.561 591.677 29.661 24.718 o
12 3 22 992.742 1029.120 56.245 12.031 o
12 3 23 1785.200 1400.870 42.404 6.520 o
12 3 24 744.893 645.506 35.593 18.952 o
12 3 25 869.540 810.947 32.078 15.484 o
12 4 0 238.657 224.103 24.827 65.070 o
12 4 1 512.065 672.090 23.070 25.424 o
12 4 2 629.617 639.354 21.751 22.375 o
12 4 3 1593.160 1664.300 50.753 6.676 o
12 4 4 280.242 195.102 15.160 63.039 o
12 4 5 826.561 701.092 26.585 17.207 o
12 4 6 28.110 43.502 13.402 451.928 o
12 4 7 1638.490 2065.490 39.987 5.924 o
12 4 8 648.624 628.588 23.509 21.936 o
12 4 9 241.141 224.762 15.819 67.439 o
12 4 10 4235.950 4304.540 67.670 1.600 o
12 4 11 1262.890 1321.550 30.759 9.269 o
12 4 12 2051.530 2444.480 70.087 4.338 o
12 4 13 766.729 1089.100 42.404 14.663 o
12 4 14 6214.270 6746.610 108.756 0.813 o
12 4 15 348.836 230.914 20.653 49.682 o
12 4 16 750.538 749.428 29.002 18.078 o
12 4 17 103.169 157.092 15.160 133.044 o
12 4 18 236.680 213.997 17.577 68.951 o
12 4 19 197.091 227.179 18.236 76.265 o
12 4 20 263.206 316.161 18.675 55.474 o
12 4 21 858.482 707.683 35.593 16.333 o
12 4 22 77.715 137.758 22.410 151.748 o
12 4 23 10.844 -18.675 22.410 759.685 o
12 4 24 205.419 209.603 25.486 73.171 o
12 4 25 16.709 82.830 23.070 315.592 o
12 5 0 6359.070 6856.680 128.090 0.780 o
12 5 1 5184.550 5370.130 79.095 1.138 o
12 5 2 3006.730 2902.580 63.496 2.794 o
12 5 3 14059.500 14528.500 257.499 0.195 o
12 5 4 3287.080 3037.920 65.254 2.493 o
12 5 5 15439.500 16018.800 215.754 0.165 o
12 5 6 1971.220 2010.560 42.843 5.086 o
12 5 7 26232.800 29398.600 402.507 0.058 o
12 5 8 622.907 658.029 23.509 22.232 o
12 5 9 8234.100 9338.080 173.351 0.481 o
12 5 10 1190.130 1122.930 42.404 10.294 o
12 5 11 20509.600 20919.400 301.661 0.098 o
12 5 12 113.977 129.409 17.577 132.694 o
12 5 13 16106.200 16382.000 257.939 0.154 o
12 5 14 3882.750 3244.670 64.155 2.025 o
12 5 15 4404.660 4801.960 101.506 1.425 o
12 5 16 55.899 122.158 18.675 194.845 o
12 5 17 548.373 616.504 21.751 25.203 o
12 5 18 1302.850 1154.790 31.418 9.541 o
12 5 19 2401.660 2437.890 46.578 3.837 o
12 5 20 604.922 578.275 32.737 23.382 o
12 5 21 1403.570 1318.690 70.746 7.963 o
12 5 22 48.745 59.322 22.410 256.521 o
12 5 23 1457.740 1222.020 39.328 8.350 o
12 5 24 480.971 445.350 29.661 30.783 o
12 5 25 2482.660 2072.740 58.662 3.962 o
12 6 0 1990.380 1428.550 59.322 5.708 o
12 6 1 1132.780 731.192 18.236 12.919 o
12 6 2 1058.980 1087.780 35.154 11.635 o
12 6 3 3408.600 3103.830 63.496 2.378 o
12 6 4 709.641 922.119 35.593 17.021 o
12 6 5 8246.970 7745.630 111.173 0.545 o
12 6 6 8376.870 7935.900 110.514 0.528 o
12 6 7 5584.400 5324.650 109.415 1.042 o
12 6 8 306.080 212.019 18.236 56.875 o
12 6 9 6523.780 5602.140 97.331 0.854 o
12 6 10 3257.100 3587.850 68.989 2.306 o
12 6 11 3489.360 3569.830 82.830 2.141 o
12 6 12 52.860 237.506 20.653 134.014 o
12 6 13 5998.870 5504.150 117.325 0.943 o
12 6 14 5078.320 4631.470 104.582 1.246 o
12 6 15 94.209 68.989 19.334 177.219 o
12 6 16 512.039 580.691 24.168 27.014 o
12 6 17 1670.200 1571.800 42.404 6.626 o
12 6 18 650.017 586.843 27.903 22.260 o
12 6 19 1220.540 1125.350 35.154 10.168 o
12 6 20 6.182 -0.659 16.259 1407.770 o
12 6 21 621.494 439.858 27.903 25.365 o
12 6 22 1694.450 1517.970 44.161 6.623 o
12 6 23 1060.040 871.367 30.320 12.772 o
12 6 24 1175.440 1077.010 43.502 10.559 o
12 6 25 886.036 885.867 38.669 14.546 o
12 7 0 2255.770 2080.650 47.677 4.388 o
12 7 1 1086.380 808.090 20.653 12.977 o
12 7 2 249.438 99.089 13.402 81.091 o
12 7 3 6056.130 6001.580 91.179 0.899 o
12 7 4 2852.940 2487.990 44.161 3.204 o
12 7 5 1273.420 1044.280 23.070 10.210 o
12 7 6 2401.080 2714.070 47.237 3.633 o
12 7 7 2371.070 2368.250 43.502 3.947 o
12 7 8 595.120 548.834 35.593 23.921 o
12 7 9 1998.070 2419.220 53.829 4.537 o
12 7 10 757.274 1204.450 44.821 13.971 o
12 7 11 573.452 786.779 28.343 21.618 o
12 7 12 4212.240 4127.460 105.680 1.614 o
12 7 13 553.651 519.173 23.509 26.646 o
12 7 14 362.854 471.276 39.987 34.978 o
12 7 15 3742.210 3791.520 71.845 1.944 o
12 7 16 1474.880 1472.710 47.237 7.577 o
12 7 17 2098.100 1944.650 42.404 4.871 o
12 7 18 862.611 929.370 28.343 14.839 o
12 7 19 582.314 486.436 28.343 25.887 o
12 7 20 678.263 657.590 25.486 20.739 o
12 7 21 904.623 750.527 30.320 15.460 o
12 7 22 34.893 33.176 18.675 387.412 o
12 7 23 5.387 10.326 24.827 661.337 o
12 7 24 21.116 49.654 30.759 289.745 o
12 8 0 363.542 171.593 24.168 50.690 o
12 8 1 622.457 748.769 21.751 21.130 o
12 8 2 176.684 151.160 16.918 94.880 o
12 8 3 627.754 699.774 30.320 21.247 o
12 8 4 68.868 82.171 15.160 215.545 o
12 8 5 1533.050 1141.610 33.835 8.217 o
12 8 6 4061.650 3801.190 79.095 1.775 o
12 8 7 5980.810 5620.160 95.573 0.943 o
12 8 8 6634.460 6553.920 128.090 0.764 o
12 8 9 2466.790 3013.750 67.670 3.300 o
12 8 10 400.244 357.247 19.334 39.335 o
12 8 11 864.206 1011.100 26.585 14.314 o
12 8 12 4468.240 4244.120 90.740 1.508 o
12 8 13 249.458 343.186 21.751 54.821 o
12 8 14 17.655 32.078 21.751 470.061 o
12 8 15 3121.010 2940.150 62.178 2.676 o
12 8 16 41.265 71.406 24.168 250.577 o
12 8 17 169.581 97.990 19.334 107.620 o
12 8 18 612.177 734.268 27.903 21.320 o
12 8 19 461.582 511.263 25.486 30.530 o
12 8 20 592.466 452.601 27.903 26.158 o
12 8 21 794.361 811.606 29.661 16.723 o
12 8 22 58.961 38.669 21.092 263.844 o
12 8 23 312.978 298.585 33.176 47.045 o
12 8 24 539.466 495.005 31.418 27.067 o
12 9 0 2978.970 2483.150 131.826 2.824 o
12 9 1 3399.490 3249.500 53.829 2.343 o
12 9 2 492.408 495.005 26.585 29.401 o
12 9 3 1649.510 1781.620 43.502 6.324 o
12 9 4 2111.000 2399.880 58.662 4.320 o
12 9 5 833.570 922.779 33.835 15.149 o
12 9 6 259.530 110.514 19.994 74.564 o
12 9 7 4946.280 4607.300 105.241 1.286 o
12 9 8 398.555 261.674 35.593 40.514 o
12 9 9 314.035 301.661 23.070 49.151 o
12 9 10 489.909 541.583 22.410 28.811 o
12 9 11 1948.550 1685.390 56.905 5.484 o
12 9 12 1839.540 1961.560 57.344 5.405 o
12 9 13 18.689 50.094 16.259 469.073 o
12 9 14 1542.240 2117.560 56.245 6.039 o
12 9 15 304.248 282.326 42.404 45.982 o
12 9 16 3279.180 3604.770 81.512 2.267 o
12 9 17 534.131 520.271 22.410 27.438 o
12 9 18 2766.700 2411.970 49.654 3.344 o
12 9 19 1484.580 1490.950 41.086 7.549 o
12 9 20 1.770 -10.986 23.509 936.872 o
12 9 21 218.363 216.853 23.509 70.381 o
12 9 22 115.200 117.325 24.827 126.628 o
12 9 23 256.197 278.591 29.661 56.089 o
12 9 24 170.034 128.750 36.252 85.808 o
12 10 0 1132.350 1240.040 52.071 10.116 o
12 10 1 625.753 704.607 42.843 20.513 o
12 10 2 607.053 455.677 25.926 25.716 o
12 10 3 2950.450 2812.500 54.488 2.907 o
12 10 4 31.491 133.583 18.236 229.009 o
12 10 5 4582.800 4203.700 120.840 1.449 o
12 10 6 3970.800 4007.280 76.239 1.772 o
12 10 7 6791.230 7223.600 112.931 0.707 o
12 10 8 510.619 568.168 21.092 27.499 o
12 10 9 6047.670 6035.410 117.764 0.889 o
12 10 10 9682.200 8606.230 166.759 0.420 o
12 10 11 9952.210 9699.940 189.170 0.378 o
12 10 12 1239.340 1258.710 32.078 9.610 o
12 10 13 1344.690 1121.620 35.593 9.333 o
12 10 14 8854.130 8276.880 134.682 0.481 o
12 10 15 4895.430 4561.380 108.097 1.305 o
12 10 16 18.334 38.010 19.994 468.786 o
12 10 17 34.884 24.827 18.675 413.055 o
12 10 18 1.394 -27.244 22.410 1039.570 o
12 10 19 1229.590 1417.120 59.761 8.795 o
12 10 20 284.314 199.935 23.509 59.750 o
12 10 21 1058.400 1025.600 33.176 11.963 o
12 10 22 180.237 241.021 24.168 76.102 o
12 10 23 1257.110 1259.370 37.570 9.429 o
12 11 0 15931.300 17647.500 422.501 0.144 o
12 11 1 248.250 123.916 16.259 77.112 o
12 11 2 7826.380 7723.880 125.015 0.578 o
12 11 3 96.358 64.155 21.092 173.586 o
12 11 4 7421.460 7179.440 125.674 0.640 o
12 11 5 734.769 788.536 41.745 17.492 o
12 11 6 1566.950 1338.030 33.176 7.583 o
12 11 7 573.195 563.774 27.244 24.948 o
12 11 8 3413.820 3879.840 82.830 2.093 o
12 11 9 47.120 68.989 17.577 272.266 o
12 11 10 2700.260 2915.760 73.822 3.073 o
12 11 11 1244.610 1210.380 37.570 9.672 o
12 11 12 1475.990 1198.950 41.745 8.290 o
12 11 13 2197.900 1942.890 45.919 4.645 o
12 11 14 897.149 802.598 27.244 15.268 o
12 11 15 113.681 152.918 19.994 122.427 o
12 11 16 2311.520 2453.490 54.927 3.943 o
12 11 17 56.147 90.081 21.751 211.183 o
12 11 18 2823.390 2947.840 62.178 2.953 o
12 11 19 379.458 291.993 25.926 42.699 o
12 11 20 2342.410 2024.400 59.761 4.236 o
12 11 21 173.879 140.834 24.827 92.565 o
12 11 22 1388.140 1184.450 39.328 8.838 o
12 11 23 13.408 3.076 26.585 543.128 o
12 12 0 6109.940 5770.660 157.751 0.885 o
12 12 1 990.941 950.682 29.661 13.103 o
12 12 2 2125.510 2082.400 54.488 4.617 o
12 12 3 2831.890 2584.000 91.179 3.061 o
12 12 4 1807.960 1550.050 50.094 6.140 o
12 12 5 731.152 873.783 36.911 17.016 o
12 12 6 149.054 116.666 19.334 113.257 o
12 12 7 3412.640 2600.920 65.913 2.566 o
12 12 8 2385.170 2300.140 59.761 3.932 o
12 12 9 165.161 265.848 21.092 78.285 o
12 12 10 185.841 408.000 30.320 56.663 o
12 12 11 611.690 536.750 44.161 22.932 o
12 12 12 6433.520 5907.980 166.759 0.822 o
12 12 13 6534.900 6370.250 108.097 0.794 o
12 12 14 2896.200 2738.240 59.761 2.991 o
12 12 15 66.458 84.588 18.675 208.007 o
12 12 16 2750.320 3089.330 74.262 2.930 o
12 12 17 483.025 527.522 33.835 28.443 o
12 12 18 376.638 281.667 24.168 43.697 o
12 12 19 55.442 74.262 22.410 224.697 o
12 12 20 299.890 302.100 26.585 49.942 o
12 12 21 927.969 1093.270 44.821 12.674 o
12 12 22 278.578 311.767 29.002 51.242 o
12 13 0 4387.850 4633.450 155.334 1.408 o
12 13 1 2353.530 2281.240 86.346 3.889 o
12 13 2 2327.170 2878.410 55.586 3.601 o
12 13 3 1301.970 1296.940 36.252 9.048 o
12 13 4 4357.120 4282.790 90.740 1.541 o
12 13 5 666.673 416.349 29.661 24.162 o
12 13 6 2996.580 3589.170 85.906 2.469 o
12 13 7 4058.260 4368.700 89.422 1.643 o
12 13 8 1354.620 1450.300 47.237 8.208 o
12 13 9 223.763 296.168 18.675 63.231 o
12 13 10 5915.900 6261.490 144.349 0.882 o
12 13 11 27.275 37.570 18.675 421.292 o
12 13 12 1498.610 1357.360 52.071 7.681 o
12 13 13 30.468 48.336 19.994 357.828 o
12 13 14 3752.060 4540.950 139.515 1.677 o
12 13 15 27.590 82.830 22.410 282.968 o
12 13 16 271.753 222.346 21.751 60.489 o
12 13 17 2898.180 2973.980 61.738 2.867 o
12 13 18 3773.070 3698.360 72.504 1.952 o
12 13 19 26.712 32.078 24.827 366.034 o
12 13 20 1000.360 1007.370 33.176 12.632 o
12 13 21 1521.810 1499.950 42.404 7.355 o
12 13 22 435.770 476.769 30.759 32.126 o
12 14 0 23608.400 27880.000 549.273 0.067 o
12 14 1 1325.950 1222.460 36.911 9.121 o
12 14 2 5869.690 6159.990 127.431 0.905 o
12 14 3 3263.680 3155.240 62.837 2.469 o
12 14 4 7367.790 9209.990 159.509 0.549 o
12 14 5 3.051 56.245 17.577 576.622 o
12 14 6 2788.630 3054.840 59.761 2.939 o
12 14 7 7224.530 7476.040 125.674 0.645 o
12 14 8 8183.760 8933.160 160.168 0.500 o
12 14 9 463.134 368.672 21.751 34.547 o
12 14 10 3863.790 4299.270 73.822 1.756 o
12 14 11 135.566 155.334 23.070 106.863 o
12 14 12 250.576 257.939 20.653 61.360 o
12 14 13 269.263 401.848 30.759 46.859 o
12 14 14 3132.130 3249.500 61.738 2.537 o
12 14 15 192.552 158.850 23.070 84.617 o
12 14 16 2935.910 3043.410 58.662 2.803 o
12 14 17 2468.040 2205.880 47.677 3.911 o
12 14 18 2743.670 2709.230 60.420 3.172 o
12 14 19 225.955 166.759 27.244 72.483 o
12 14 20 3924.340 4151.190 88.323 1.749 o
12 14 21 1080.320 1026.040 33.835 11.745 o
12 15 0 506.044 640.013 36.252 25.264 o
12 15 1 251.914 461.609 24.168 47.029 o
12 15 2 306.675 513.021 33.176 38.481 o
12 15 3 197.270 351.754 27.244 60.294 o
12 15 4 809.464 933.105 33.835 15.419 o
12 15 5 685.770 1160.280 32.737 15.599 o
12 15 6 74.052 90.740 19.994 187.923 o
12 15 7 357.588 467.102 38.669 35.656 o
12 15 8 74.366 210.921 19.994 129.079 o
12 15 9 457.945 569.926 24.827 29.410 o
12 15 10 5675.480 5476.470 110.074 1.008 o
12 15 11 231.712 263.431 21.751 63.824 o
12 15 12 54.709 129.848 24.168 176.564 o
12 15 13 308.950 221.687 38.010 50.139 o
12 15 14 235.106 293.092 25.486 59.542 o
12 15 15 13.589 15.160 19.334 678.965 o
12 15 16 77.364 118.423 21.751 162.964 o
12 15 17 9.363 44.161 24.168 445.846 o
12 15 18 346.609 268.265 25.926 46.879 o
12 15 19 522.456 587.502 28.343 26.220 o
12 15 20 31.893 30.759 23.509 358.499 o
12 15 21 14.362 -3.076 39.328 299.332 o
12 16 0 4228.460 4586.210 119.082 1.508 o
12 16 1 625.490 809.848 32.078 19.913 o
12 16 2 2823.790 2778.660 74.921 3.012 o
12 16 3 96.372 83.490 18.675 167.432 o
12 16 4 604.701 931.347 51.412 18.046 o
12 16 5 80.203 100.407 18.675 176.518 o
12 16 6 2366.500 3113.500 78.656 3.329 o
12 16 7 10390.300 11793.300 214.436 0.318 o
12 16 8 90.819 113.590 25.926 144.122 o
12 16 9 218.666 338.352 27.903 57.790 o
12 16 10 620.235 626.611 32.737 22.265 o
12 16 11 2002.470 2023.300 47.237 4.979 o
12 16 12 213.506 187.851 23.509 74.789 o
12 16 13 396.174 437.441 21.751 36.566 o
12 16 14 1019.050 1171.710 43.502 11.458 o
12 16 15 108.573 155.994 20.653 123.905 o
12 16 16 60.858 44.821 25.926 227.522 o
12 16 17 57.413 81.073 25.926 201.257 o
12 16 18 817.327 820.174 30.759 16.247 o
12 16 19 312.654 345.163 29.661 45.629 o
12 16 20 715.236 841.266 41.086 17.401 o
12 17 0 189.116 213.997 29.002 74.588 o
12 17 1 2127.660 2259.050 52.511 4.445 o
12 17 2 88.088 163.244 21.751 133.884 o
12 17 3 541.104 398.333 29.661 29.117 o
12 17 4 716.425 854.449 33.835 17.562 o
12 17 5 290.533 250.688 26.585 54.257 o
12 17 6 872.039 825.008 28.343 15.443 o
12 17 7 371.366 103.922 28.343 52.792 o
12 17 8 2460.300 2661.340 55.586 3.567 o
12 17 9 552.607 324.510 43.502 28.664 o
12 17 10 3158.700 3300.250 68.330 2.486 o
12 17 11 160.008 94.255 19.334 113.390 o
12 17 12 348.417 397.674 25.486 40.966 o
12 17 13 115.167 103.922 19.334 139.185 o
12 17 14 85.054 82.830 22.410 172.814 o
12 17 15 464.012 305.835 34.494 34.788 o
12 17 16 22.613 21.092 21.751 474.590 o
12 17 17 636.625 798.863 31.418 19.817 o
12 17 18 167.049 149.183 25.926 92.652 o
12 17 19 83.504 108.756 24.168 156.507 o
12 18 0 255.076 468.420 45.260 41.286 o
12 18 1 304.840 364.498 21.092 47.138 o
12 18 2 3898.060 3962.450 77.997 1.816 o
12 18 3 319.016 450.843 30.320 40.379 o
12 18 4 65.567 224.103 21.751 128.365 o
12 18 5 481.676 545.098 31.418 28.366 o
12 18 6 165.501 194.003 25.926 85.687 o
12 18 7 157.417 105.680 20.653 110.578 o
12 18 8 402.167 375.922 26.585 37.639 o
12 18 9 54.127 111.832 21.751 196.708 o
12 18 10 4.217 13.402 27.244 570.149 o
12 18 11 283.746 201.254 22.410 60.064 o
12 18 12 0.144 38.669 21.751 629.381 o
12 18 13 75.785 54.488 21.092 210.241 o
12 18 14 524.913 424.918 33.176 28.904 o
12 18 15 10.374 -23.509 18.675 979.751 o
12 18 16 5.971 6.152 21.092 873.413 o
12 18 17 9.688 18.675 23.070 595.655 o
12 18 18 1076.240 1160.280 46.578 10.958 o
12 19 0 1240.130 2405.820 99.748 6.075 o
12 19 1 1455.150 2313.320 50.753 6.044 o
12 19 2 448.597 422.501 33.176 32.578 o
12 19 3 3137.010 3115.920 58.662 2.592 o
12 19 4 318.304 206.087 22.410 54.623 o
12 19 5 200.369 90.081 27.903 89.736 o
12 19 6 3473.820 3892.370 78.656 2.059 o
12 19 7 1138.020 1173.030 40.426 10.530 o
12 19 8 33.436 50.094 16.259 370.754 o
12 19 9 379.078 432.607 29.661 36.851 o
12 19 10 2021.540 1873.460 40.426 5.140 o
12 19 11 1859.980 1590.470 48.995 5.921 o
12 19 12 618.220 549.932 33.176 23.379 o
12 19 13 852.973 883.011 35.154 15.117 o
12 19 14 397.003 437.002 24.168 36.260 o
12 19 15 69.341 39.987 25.486 217.827 o
12 19 16 0.938 -19.994 22.410 1058.330 o
12 19 17 1274.970 1186.210 38.669 9.537 o
12 20 0 514.389 610.352 47.677 24.403 o
12 20 1 18.746 74.262 27.244 288.791 o
12 20 2 11.498 47.677 31.418 320.413 o
12 20 3 90.121 201.254 19.334 122.759 o
12 20 4 95.045 57.344 17.577 187.718 o
12 20 5 30.546 50.094 17.577 374.971 o
12 20 6 47.247 62.837 18.236 277.701 o
12 20 7 1365.420 1446.130 45.260 8.185 o
12 20 8 5.482 -58.662 21.092 988.965 o
12 20 9 294.198 253.105 19.334 55.409 o
12 20 10 802.920 836.433 38.010 16.109 o
12 20 11 29.401 18.675 17.577 494.559 o
12 20 12 167.444 134.682 33.176 88.631 o
12 20 13 140.857 213.997 25.926 90.469 o
12 20 14 940.537 1042.960 37.570 12.986 o
12 20 15 13.544 25.486 21.092 557.045 o
12 20 16 221.843 236.187 23.509 67.654 o
12 21 0 2283.980 2542.470 114.908 3.652 o
12 21 1 923.854 1070.200 41.086 12.935 o
12 21 2 985.138 1162.700 33.176 12.008 o
12 21 3 267.527 297.267 23.070 55.165 o
12 21 4 2458.560 2365.830 77.338 3.708 o
12 21 5 281.962 230.255 23.509 57.777 o
12 21 6 267.579 429.751 29.661 45.899 o
12 21 7 50.399 60.420 19.994 263.276 o
12 21 8 729.552 832.698 44.161 17.085 o
12 21 9 1246.520 1264.210 36.911 9.490 o
12 21 10 2998.900 3412.520 79.095 2.550 o
12 21 11 54.602 61.079 20.653 248.556 o
12 21 12 838.895 1148.200 45.260 13.329 o
12 21 13 15.992 9.667 26.585 484.733 o
12 21 14 186.356 187.851 35.154 74.374 o
12 22 0 3437.820 3847.110 106.339 2.053 o
12 22 1 1608.280 1643.200 57.344 6.603 o
12 22 2 1499.520 1501.710 51.412 7.364 o
12 22 3 511.507 611.011 36.911 25.514 o
12 22 4 4627.810 4953.120 97.331 1.333 o
12 22 5 154.499 80.414 31.418 106.166 o
12 22 6 867.023 937.279 40.426 14.407 o
12 22 7 348.649 404.265 24.827 40.786 o
12 22 8 4664.100 4809.210 92.498 1.347 o
12 22 9 260.420 214.436 25.486 61.829 o
12 22 10 3193.020 3286.410 71.406 2.460 o
12 22 11 185.266 246.514 27.903 72.322 o
12 22 12 3001.100 2906.750 69.428 2.786 o
12 22 13 441.363 413.932 30.320 33.561 o
12 23 0 42.946 69.428 33.176 201.881 o
12 23 1 336.838 263.431 27.903 47.706 o
12 23 2 60.977 121.499 19.994 184.752 o
12 23 3 1100.600 968.039 39.328 11.725 o
12 23 4 391.311 507.528 27.244 34.112 o
12 23 5 121.856 76.239 23.509 138.513 o
12 23 6 372.022 354.830 25.926 40.725 o
12 23 7 103.263 158.850 23.509 122.838 o
12 23 8 18.891 39.987 20.653 446.314 o
12 23 9 99.791 96.013 21.751 151.851 o
12 23 10 1669.300 1510.280 58.003 6.616 o
12 23 11 8.282 9.667 25.926 584.941 o
12 24 0 135.913 185.435 50.094 73.648 o
12 24 1 2.480 -21.092 23.070 946.165 o
12 24 2 1265.450 1226.860 40.426 9.444 o
12 24 3 1.667 21.751 20.653 804.443 o
12 24 4 4.456 -31.418 24.168 816.409 o
12 24 5 223.660 194.003 23.070 71.915 o
12 24 6 298.821 279.909 23.509 52.113 o
12 24 7 617.332 807.431 33.835 20.040 o
12 24 8 23.170 28.343 22.410 431.238 o
12 25 0 674.391 544.000 58.003 20.092 o
12 25 1 95.100 41.745 29.002 167.101 o
12 25 2 371.919 242.998 32.078 44.314 o
12 25 3 94.795 82.830 25.486 155.247 o
12 25 4 580.124 477.428 36.252 25.508 o
12 25 5 60.890 45.260 23.070 240.878 o
13 1 0 188.783 336.594 20.653 65.342 o
13 1 1 672.267 972.872 21.751 17.666 o
13 1 2 157.668 102.165 13.402 117.179 o
13 1 3 9.208 72.504 13.842 484.034 o
13 1 4 25.777 67.670 14.501 378.399 o
13 1 5 182.084 226.520 17.577 80.580 o
13 1 6 140.038 94.255 15.160 129.220 o
13 1 7 2218.400 2207.640 67.011 4.264 o
13 1 8 247.578 110.074 14.501 79.723 o
13 1 9 125.290 18.236 13.842 180.511 o
13 1 10 1824.910 2124.810 57.344 5.234 o
13 1 11 2779.540 2714.070 45.260 3.157 o
13 1 12 3940.740 3249.500 65.913 1.989 o
13 1 13 52.452 71.406 15.819 261.687 o
13 1 14 5235.780 5106.480 81.512 1.156 o
13 1 15 1260.810 816.439 29.002 11.147 o
13 1 16 1867.790 1409.210 33.176 6.273 o
13 1 17 349.702 294.850 25.926 45.264 o
13 1 18 45.618 93.157 23.070 222.716 o
13 1 19 74.153 122.598 21.751 164.165 o
13 1 20 51.868 20.653 28.343 262.023 o
13 1 21 19.678 102.824 21.092 284.840 o
13 1 22 376.791 410.856 30.320 37.634 o
13 1 23 254.694 210.262 21.092 64.691 o
13 1 24 26.563 16.918 18.236 519.951 o
13 1 25 90.898 96.672 17.577 168.207 o
13 2 0 61.486 85.247 24.168 197.976 o
13 2 1 206.865 120.181 16.259 89.928 o
13 2 2 8.663 -8.569 12.084 1697.410 o
13 2 3 4323.910 4087.690 74.262 1.604 o
13 2 4 739.287 810.947 21.092 17.941 o
13 2 5 1229.820 1314.300 30.320 9.508 o
13 2 6 1.877 -32.078 13.402 2527.810 o
13 2 7 8520.370 8024.880 115.347 0.514 o
13 2 8 3284.850 2625.740 47.237 2.691 o
13 2 9 2093.010 2290.910 50.094 4.490 o
13 2 10 3371.490 2827.660 69.428 2.503 o
13 2 11 714.868 912.452 38.669 16.895 o
13 2 12 2438.160 2593.230 68.989 3.605 o
13 2 13 2165.840 1905.540 49.654 4.737 o
13 2 14 35.236 85.247 16.918 286.879 o
13 2 15 22.149 41.745 15.819 480.996 o
13 2 16 3341.740 3048.250 56.245 2.458 o
13 2 17 1318.550 1154.350 29.661 9.457 o
13 2 18 441.323 282.766 21.092 38.856 o
13 2 19 15.131 31.418 18.675 557.495 o
13 2 20 643.162 629.027 27.244 21.910 o
13 2 21 2558.300 1978.040 56.905 3.922 o
13 2 22 11.350 7.910 18.236 849.726 o
13 2 23 558.189 539.166 25.486 25.995 o
13 2 24 357.664 333.079 23.070 43.276 o
13 2 25 7.636 9.008 21.751 761.993 o
13 3 0 8852.930 8201.300 154.016 0.481 o
13 3 1 7911.260 8943.480 131.166 0.523 o
13 3 2 2871.930 2720.000 48.995 3.046 o
13 3 3 4547.570 3655.520 53.829 1.613 o
13 3 4 5239.360 4604.450 64.155 1.226 o
13 3 5 9247.740 8320.390 177.086 0.450 o
13 3 6 2871.090 2794.920 73.822 2.958 o
13 3 7 16315.500 17456.600 219.929 0.146 o
13 3 8 2995.320 2875.990 59.761 2.824 o
13 3 9 10852.000 11750.500 211.580 0.303 o
13 3 10 2494.420 2277.070 47.677 3.815 o
13 3 11 13872.700 12963.300 176.426 0.215 o
13 3 12 449.890 539.166 52.511 27.257 o
13 3 13 9513.030 9577.340 149.842 0.405 o
13 3 14 2140.460 1765.800 54.927 4.923 o
13 3 15 1193.910 1466.120 53.829 8.955 o
13 3 16 682.348 631.444 30.759 20.725 o
13 3 17 2321.770 2430.640 49.654 3.960 o
13 3 18 435.345 422.940 23.509 34.414 o
13 3 19 807.535 694.281 35.154 17.315 o
13 3 20 846.254 739.761 27.244 16.528 o
13 3 21 1969.590 1711.970 41.745 5.473 o
13 3 22 756.165 662.423 29.661 18.799 o
13 3 23 1211.200 1137.870 36.911 10.167 o
13 3 24 1031.790 858.184 31.418 13.130 o
13 3 25 687.875 643.528 40.426 19.942 o
13 4 0 2488.130 2268.720 80.414 3.723 o
13 4 1 2995.170 2462.720 43.502 3.060 o
13 4 2 1976.290 1912.130 47.677 5.172 o
13 4 3 6459.380 5056.390 71.845 0.915 o
13 4 4 111.260 109.415 13.402 147.364 o
13 4 5 79.926 88.323 13.842 194.960 o
13 4 6 4770.900 4618.290 69.428 1.356 o
13 4 7 14104.100 12462.300 208.504 0.214 o
13 4 8 32.909 74.921 13.402 333.073 o
13 4 9 1192.050 959.031 31.418 11.093 o
13 4 10 1528.610 1563.450 50.753 7.120 o
13 4 11 2759.180 2324.740 54.488 3.397 o
13 4 12 4809.930 4990.470 116.006 1.264 o
13 4 13 3429.600 3398.020 64.155 2.259 o
13 4 14 849.800 1166.440 47.677 13.037 o
13 4 15 143.138 174.010 21.092 100.998 o
13 4 16 176.534 68.330 16.259 114.053 o
13 4 17 1195.640 1073.940 27.903 10.641 o
13 4 18 2408.930 2328.480 65.913 3.851 o
13 4 19 112.401 224.103 19.334 104.868 o
13 4 20 67.668 89.422 25.486 181.969 o
13 4 21 3242.730 2998.150 69.428 2.537 o
13 4 22 247.683 257.499 30.320 58.645 o
13 4 23 301.373 316.601 21.751 50.000 o
13 4 24 23.786 9.667 18.236 595.204 o
13 5 0 1321.210 1325.940 56.245 8.594 o
13 5 1 1492.210 1270.360 29.002 8.133 o
13 5 2 3824.350 3228.850 62.837 2.065 o
13 5 3 1645.540 2084.820 41.086 5.867 o
13 5 4 5002.930 5357.390 81.512 1.183 o
13 5 5 5584.950 5494.490 100.847 1.028 o
13 5 6 4655.150 4384.300 93.157 1.417 o
13 5 7 522.810 591.677 21.751 26.547 o
13 5 8 139.924 81.512 17.577 131.277 o
13 5 9 8401.330 9049.160 128.750 0.486 o
13 5 10 4499.700 5207.550 129.409 1.311 o
13 5 11 2172.780 2380.330 47.677 4.264 o
13 5 12 781.389 1156.110 38.669 14.156 o
13 5 13 3361.350 4125.700 82.830 2.051 o
13 5 14 8849.310 8122.650 180.601 0.480 o
13 5 15 1032.470 1068.450 30.759 12.047 o
13 5 16 142.142 128.750 19.334 113.719 o
13 5 17 524.339 626.611 23.070 25.788 o
13 5 18 1872.210 1537.960 47.677 5.972 o
13 5 19 2244.210 2044.390 40.426 4.467 o
13 5 20 72.463 87.664 16.918 200.322 o
13 5 21 21.624 67.670 19.994 353.826 o
13 5 22 1199.300 1076.360 35.593 10.504 o
13 5 23 103.360 148.084 23.070 126.767 o
13 5 24 1143.700 830.940 45.260 11.833 o
13 6 0 10116.900 9661.270 199.496 0.371 o
13 6 1 5493.200 5967.740 110.074 0.996 o
13 6 2 6926.140 6360.580 100.407 0.745 o
13 6 3 1622.420 1605.200 35.154 6.787 o
13 6 4 14734.400 14607.100 184.995 0.186 o
13 6 5 16007.800 17301.200 268.924 0.150 o
13 6 6 4877.700 4660.470 77.338 1.314 o
13 6 7 4670.970 4724.630 76.239 1.367 o
13 6 8 1512.970 1289.690 38.010 7.912 o
13 6 9 11873.700 11219.200 170.494 0.283 o
13 6 10 10312.200 10050.600 146.766 0.358 o
13 6 11 9509.380 10702.700 210.262 0.373 o
13 6 12 299.525 261.014 22.410 53.475 o
13 6 13 3479.500 3620.590 73.163 2.144 o
13 6 14 6146.330 6307.410 109.415 0.855 o
13 6 15 1717.960 1966.400 49.654 5.781 o
13 6 16 784.556 884.110 32.078 16.220 o
13 6 17 737.033 741.518 30.320 18.367 o
13 6 18 2043.040 2076.470 44.161 4.840 o
13 6 19 4568.640 4841.950 108.097 1.361 o
13 6 20 1967.910 1797.220 38.010 5.381 o
13 6 21 126.285 129.409 21.092 120.705 o
13 6 22 3849.200 3332.770 70.746 2.013 o
13 6 23 1325.620 1007.370 36.911 9.820 o
13 6 24 1259.060 1272.120 49.654 9.211 o
13 7 0 277.651 247.173 28.343 55.718 o
13 7 1 2761.050 2861.490 74.262 3.036 o
13 7 2 70.382 55.586 15.819 237.342 o
13 7 3 2758.020 2416.140 51.412 3.348 o
13 7 4 3855.740 4255.110 79.095 1.766 o
13 7 5 4955.230 5369.470 105.241 1.182 o
13 7 6 2717.290 2451.080 55.586 3.368 o
13 7 7 534.429 378.998 17.577 30.790 o
13 7 8 496.682 415.250 19.994 31.596 o
13 7 9 3754.500 3260.260 71.845 2.088 o
13 7 10 2925.880 3572.690 79.095 2.544 o
13 7 11 421.982 331.761 21.751 38.409 o
13 7 12 10.935 -18.236 16.259 1125.100 o
13 7 13 530.818 536.090 27.903 26.891 o
13 7 14 5336.800 5754.400 120.181 1.044 o
13 7 15 227.137 277.493 20.653 63.726 o
13 7 16 828.027 910.695 35.154 15.275 o
13 7 17 1068.930 980.782 27.903 12.163 o
13 7 18 2307.310 2244.990 50.094 4.138 o
13 7 19 1527.810 1609.370 50.094 7.037 o
13 7 20 23.634 54.927 19.334 382.865 o
13 7 21 1055.030 783.263 32.737 13.262 o
13 7 22 69.632 116.006 22.410 171.442 o
13 7 23 1360.790 1093.930 42.843 9.230 o
13 7 24 434.151 323.851 35.154 35.952 o
13 8 0 55.284 233.331 24.827 127.886 o
13 8 1 1816.300 1472.710 31.418 6.348 o
13 8 2 3685.340 3908.190 73.822 1.941 o
13 8 3 2270.830 2476.560 56.245 3.986 o
13 8 4 4178.250 4299.270 78.656 1.617 o
13 8 5 4688.700 4784.390 83.490 1.349 o
13 8 6 82.751 77.997 17.577 190.509 o
13 8 7 1564.250 1550.710 50.753 7.003 o
13 8 8 6510.370 7418.040 122.598 0.727 o
13 8 9 3029.610 3303.330 54.927 2.609 o
13 8 10 1639.150 1323.530 39.328 7.255 o
13 8 11 258.741 322.094 24.827 54.219 o
13 8 12 6867.950 7036.850 119.741 0.708 o
13 8 13 7942.370 8416.400 148.743 0.537 o
13 8 14 936.606 1024.940 32.737 13.235 o
13 8 15 1634.400 1670.450 40.426 6.590 o
13 8 16 2151.950 2176.220 50.753 4.485 o
13 8 17 1784.140 1842.040 48.995 5.773 o
13 8 18 965.817 1070.860 35.593 12.613 o
13 8 19 227.555 248.930 23.509 65.316 o
13 8 20 1549.270 1492.040 43.502 7.246 o
13 8 21 54.846 88.323 26.585 197.125 o
13 8 22 4.935 7.250 19.994 957.032 o
13 8 23 593.532 545.758 32.737 24.222 o
13 9 0 1553.830 1358.460 53.829 7.413 o
13 9 1 2415.710 2258.390 44.161 3.962 o
13 9 2 2529.720 2524.900 53.829 3.570 o
13 9 3 52.536 61.079 15.160 278.830 o
13 9 4 1070.930 751.845 21.751 13.454 o
13 9 5 1129.740 979.683 27.903 11.595 o
13 9 6 3045.760 2982.990 66.572 2.716 o
13 9 7 167.859 142.591 16.259 100.500 o
13 9 8 36.351 56.905 21.092 306.016 o
13 9 9 766.205 677.363 23.070 18.666 o
13 9 10 703.449 832.698 42.843 17.605 o
13 9 11 62.425 52.511 21.092 238.409 o
13 9 12 380.407 403.606 25.926 38.279 o
13 9 13 42.160 63.496 19.334 286.436 o
13 9 14 2914.440 3388.350 72.504 2.643 o
13 9 15 283.233 170.934 19.334 63.609 o
13 9 16 1748.770 1762.730 41.086 6.045 o
13 9 17 203.128 149.842 18.675 85.152 o
13 9 18 492.088 467.761 25.486 30.122 o
13 9 19 2590.610 2043.300 47.677 3.847 o
13 9 20 0.847 -33.176 24.168 917.612 o
13 9 21 123.112 73.163 24.827 136.544 o
13 9 22 269.033 284.743 25.926 55.046 o
13 9 23 100.898 70.746 21.751 163.288 o
13 10 0 190.203 222.346 27.244 74.329 o
13 10 1 1293.780 1071.520 26.585 9.934 o
13 10 2 1547.840 1664.960 44.161 6.898 o
13 10 3 1962.970 1615.300 38.010 5.641 o
13 10 4 2009.620 1631.780 47.677 5.445 o
13 10 5 285.174 254.423 21.092 56.183 o
13 10 6 59.456 53.170 18.675 255.271 o
13 10 7 102.522 181.919 19.334 121.095 o
13 10 8 391.375 522.029 24.168 34.025 o
13 10 9 202.921 238.604 17.577 73.700 o
13 10 10 41.684 108.097 21.751 221.172 o
13 10 11 31.329 83.490 22.410 270.894 o
13 10 12 2048.690 1950.800 45.260 4.965 o
13 10 13 56.756 57.344 20.653 247.869 o
13 10 14 1745.450 1620.790 54.927 6.192 o
13 10 15 2409.680 2404.720 48.336 3.846 o
13 10 16 502.073 473.693 25.926 29.499 o
13 10 17 2187.960 2141.730 46.578 4.463 o
13 10 18 334.335 293.092 27.903 46.445 o
13 10 19 50.335 17.577 23.070 311.808 o
13 10 20 31.513 52.511 23.509 313.279 o
13 10 21 29.426 63.496 24.827 290.819 o
13 10 22 664.584 555.425 28.343 22.269 o
13 11 0 2514.750 2595.640 70.087 3.497 o
13 11 1 447.233 529.939 21.751 31.074 o
13 11 2 713.971 546.417 23.070 21.325 o
13 11 3 2333.800 2300.570 56.245 4.027 o
13 11 4 184.094 149.183 19.334 91.167 o
13 11 5 85.851 71.406 14.501 197.527 o
13 11 6 674.106 717.350 25.486 20.135 o
13 11 7 3966.640 4238.630 93.157 1.706 o
13 11 8 512.637 820.174 42.843 21.879 o
13 11 9 5.144 -26.585 18.236 1257.880 o
13 11 10 552.292 378.998 31.418 28.888 o
13 11 11 1296.940 1058.120 41.745 9.776 o
13 11 12 937.956 1801.400 62.178 9.342 o
13 11 13 104.064 187.851 23.509 114.066 o
13 11 14 1675.570 1507.860 58.003 6.598 o
13 11 15 136.159 214.436 22.410 94.715 o
13 11 16 1310.330 1778.550 48.995 7.612 o
13 11 17 1715.910 1639.470 45.260 6.328 o
13 11 18 165.112 149.842 24.168 94.641 o
13 11 19 108.445 120.181 24.168 131.189 o
13 11 20 1154.850 951.780 33.835 11.408 o
13 11 21 1113.250 1022.530 34.494 11.452 o
13 11 22 7.846 0.000 24.168 739.624 o
13 12 0 1458.900 1366.370 59.761 7.750 o
13 12 1 66.170 50.753 19.994 236.706 o
13 12 2 890.168 1202.690 31.418 12.797 o
13 12 3 253.511 470.837 31.418 44.880 o
13 12 4 1966.960 2030.550 51.412 5.035 o
13 12 5 1085.390 1478.860 45.919 9.721 o
13 12 6 2966.060 3120.750 63.496 2.731 o
13 12 7 409.503 406.023 28.343 35.933 o
13 12 8 157.415 148.743 19.334 101.616 o
13 12 9 1902.820 1666.710 35.593 5.751 o
13 12 10 3173.550 3410.770 71.406 2.427 o
13 12 11 188.045 223.005 22.410 77.277 o
13 12 12 212.827 116.006 19.334 87.089 o
13 12 13 536.363 435.024 32.737 28.257 o
13 12 14 2470.200 2397.910 54.488 3.743 o
13 12 15 352.990 328.685 23.509 43.819 o
13 12 16 139.589 137.099 24.827 107.528 o
13 12 17 152.610 137.758 22.410 103.677 o
13 12 18 796.507 758.436 31.418 17.081 o
13 12 19 134.246 145.667 24.827 108.035 o
13 12 20 19.844 -1.758 24.168 554.410 o
13 12 21 9.446 31.418 25.926 462.102 o
13 12 22 667.311 575.418 57.344 19.957 o
13 13 1 1508.210 1546.530 43.502 7.304 o
13 13 2 898.669 914.869 32.737 14.354 o
13 13 3 2301.620 2062.630 71.406 4.225 o
13 13 4 398.440 556.523 35.593 31.412 o
13 13 5 2331.500 2729.230 52.071 3.710 o
13 13 6 355.925 354.171 21.092 42.800 o
13 13 7 1637.690 1601.460 61.738 6.531 o
13 13 8 11.061 66.572 20.653 408.325 o
13 13 9 2027.640 1694.620 51.412 5.297 o
13 13 10 127.930 360.762 25.926 73.393 o
13 13 11 233.289 281.667 23.070 61.546 o
13 13 12 310.148 210.262 25.926 54.522 o
13 13 13 722.906 782.604 29.661 18.267 o
13 13 14 1133.780 992.866 40.426 11.298 o
13 13 15 833.541 940.355 33.176 15.044 o
13 13 16 284.494 268.924 25.926 54.034 o
13 13 17 395.544 207.845 27.244 44.785 o
13 13 18 62.989 73.163 25.486 200.345 o
13 13 19 1274.470 1217.190 36.911 9.461 o
13 13 20 298.521 288.918 29.002 50.244 o
13 13 21 227.338 200.594 34.494 64.938 o
13 14 0 561.229 573.002 35.593 24.604 o
13 14 1 17.628 3.076 17.577 781.443 o
13 14 2 1218.430 1450.960 49.654 8.919 o
13 14 3 1462.480 1300.460 30.759 8.195 o
13 14 4 584.124 859.942 29.661 20.396 o
13 14 5 1633.650 2046.810 64.155 5.809 o
13 14 6 145.576 175.328 18.675 101.459 o
13 14 7 167.421 140.834 18.675 99.521 o
13 14 8 4104.550 4874.470 90.081 1.526 o
13 14 9 886.424 1262.450 44.161 12.256 o
13 14 10 70.651 131.826 28.343 148.501 o
13 14 11 21.476 -32.737 20.653 632.940 o
13 14 12 8455.410 9614.910 160.827 0.461 o
13 14 13 1545.220 1895.870 69.428 6.270 o
13 14 14 2980.430 2646.400 54.927 2.960 o
13 14 15 111.511 177.086 25.486 110.777 o
13 14 16 1415.930 1409.210 49.654 7.976 o
13 14 17 82.489 70.087 23.509 181.042 o
13 14 18 61.910 68.330 23.509 213.726 o
13 14 19 168.834 161.926 24.168 91.111 o
13 14 20 1223.210 1082.950 41.086 10.219 o
13 15 0 7209.080 8925.250 200.594 0.565 o
13 15 1 1323.430 1770.640 40.426 7.651 o
13 15 2 5155.010 6138.230 132.924 1.036 o
13 15 3 168.909 123.257 18.675 102.632 o
13 15 4 6572.310 7961.380 163.244 0.679 o
13 15 5 126.728 233.331 21.092 95.650 o
13 15 6 1954.950 2050.550 40.426 5.087 o
13 15 7 2093.130 1443.710 82.171 5.240 o
13 15 8 4497.910 4114.270 76.678 1.530 o
13 15 9 2606.100 3458.000 102.165 2.817 o
13 15 10 31.635 49.654 18.675 360.692 o
13 15 11 576.609 567.509 29.661 24.622 o
13 15 12 6181.790 6538.760 131.166 0.826 o
13 15 13 575.802 383.173 23.070 28.484 o
13 15 14 893.303 969.357 38.669 13.926 o
13 15 15 45.557 39.328 23.070 290.521 o
13 15 16 4912.540 5123.400 99.089 1.228 o
13 15 17 32.837 12.084 23.070 411.224 o
13 15 18 1413.570 1287.280 39.328 8.411 o
13 15 19 249.348 228.498 28.343 61.449 o
13 15 20 2660.610 2688.580 100.407 3.160 o
13 16 0 341.344 319.677 28.343 44.406 o
13 16 1 3710.630 3730.000 67.670 1.982 o
13 16 2 2668.660 3210.830 82.171 2.932 o
13 16 3 95.675 58.003 17.577 186.386 o
13 16 4 827.881 702.191 33.176 16.966 o
13 16 5 223.262 223.005 20.653 69.799 o
13 16 6 156.576 132.265 20.653 104.615 o
13 16 7 1777.380 1371.860 42.843 6.597 o
13 16 8 82.146 84.588 20.653 179.570 o
13 16 9 1878.100 2061.310 43.502 5.249 o
13 16 10 1172.810 1172.370 30.759 10.404 o
13 16 11 485.431 377.021 33.835 31.770 o
13 16 12 1275.650 1387.020 37.570 8.923 o
13 16 13 67.567 94.255 19.994 194.767 o
13 16 14 48.803 79.095 19.334 246.738 o
13 16 15 1046.380 1111.290 37.570 11.600 o
13 16 16 938.902 749.428 29.661 14.997 o
13 16 17 1.467 -45.919 23.070 981.381 o
13 16 18 59.426 89.422 23.070 201.688 o
13 16 19 689.452 671.431 32.078 20.031 o
13 17 0 808.471 1008.030 43.502 14.610 o
13 17 1 57.888 30.320 18.236 295.590 o
13 17 2 1336.610 1156.770 43.502 9.177 o
13 17 3 2043.690 2108.990 47.237 4.791 o
13 17 4 428.091 316.161 25.926 38.001 o
13 17 5 67.971 48.336 19.994 235.415 o
13 17 6 414.942 562.016 33.835 30.695 o
13 17 7 194.169 222.346 29.661 72.080 o
13 17 8 887.274 826.766 32.078 15.116 o
13 17 9 340.655 522.688 24.168 37.145 o
13 17 10 633.676 769.202 36.252 19.980 o
13 17 11 328.206 291.993 25.926 47.553 o
13 17 12 276.146 424.258 23.070 46.669 o
13 17 13 111.921 85.906 20.653 147.374 o
13 17 14 2348.750 2529.070 60.420 3.809 o
13 17 15 4.595 4.834 20.653 965.896 o
13 17 16 2.529 1.758 21.751 1015.670 o
13 17 17 464.583 479.186 27.244 30.995 o
13 17 18 782.631 747.451 37.570 17.191 o
13 18 0 8.590 51.412 38.669 249.877 o
13 18 1 1433.950 1304.190 38.010 8.272 o
13 18 2 251.090 247.832 21.092 62.000 o
13 18 3 410.600 389.764 21.092 37.260 o
13 18 4 1590.860 1707.140 45.919 6.644 o
13 18 5 4460.880 5356.730 108.756 1.316 o
13 18 6 653.221 365.596 36.252 24.932 o
13 18 7 1230.300 1086.020 34.494 10.250 o
13 18 8 62.961 70.087 25.486 202.841 o
13 18 9 3505.840 3239.830 75.580 2.246 o
13 18 10 690.197 543.341 39.987 21.086 o
13 18 11 496.097 565.751 25.486 27.841 o
13 18 12 428.739 406.682 28.343 34.738 o
13 18 13 8.012 -7.250 22.410 826.472 o
13 18 14 75.223 89.422 23.070 179.160 o
13 18 15 338.368 319.677 29.002 44.545 o
13 18 16 436.293 442.275 27.903 33.342 o
13 18 17 2.357 2.417 24.168 839.271 o
13 19 0 89.106 49.654 39.328 139.237 o
13 19 1 1.335 27.903 16.918 915.599 o
13 19 2 46.816 71.845 21.092 252.342 o
13 19 3 44.150 73.822 18.675 268.565 o
13 19 4 52.409 99.089 22.410 207.552 o
13 19 5 576.707 465.344 24.168 26.749 o
13 19 6 52.839 50.094 30.759 213.572 o
13 19 7 1896.710 1708.460 47.677 5.649 o
13 19 8 139.562 152.258 21.092 107.513 o
13 19 9 1810.780 2146.560 64.155 5.201 o
13 19 10 327.753 351.095 39.987 41.563 o
13 19 11 220.535 343.845 22.410 58.791 o
13 19 12 139.626 125.015 20.653 114.828 o
13 19 13 329.224 306.934 23.070 47.240 o
13 19 14 281.264 259.916 28.343 54.360 o
13 19 15 164.995 186.094 23.509 88.765 o
13 19 16 36.636 23.070 25.486 333.414 o
13 20 0 0.510 -39.328 24.168 928.370 o
13 20 1 47.376 76.239 18.675 256.663 o
13 20 2 1254.080 1265.960 53.829 9.194 o
13 20 3 30.026 39.328 19.994 383.889 o
13 20 4 720.340 678.682 35.593 19.117 o
13 20 5 3881.460 4418.130 81.073 1.715 o
13 20 6 123.188 215.754 23.070 99.031 o
13 20 7 633.143 522.688 25.486 23.794 o
13 20 8 718.152 591.018 30.759 20.356 o
13 20 9 43.656 23.509 21.092 344.099 o
13 20 10 63.372 66.572 20.653 223.553 o
13 20 11 368.616 268.924 24.827 44.905 o
13 20 12 26.677 94.914 21.751 271.752 o
13 20 13 63.400 86.346 20.653 205.652 o
13 20 14 25.388 36.911 25.486 352.885 o
13 21 0 2567.780 2099.980 67.670 3.778 o
13 21 1 632.537 660.006 35.154 21.366 o
13 21 2 374.858 419.425 34.494 36.798 o
13 21 3 441.736 534.772 24.168 31.030 o
13 21 4 1018.670 837.531 44.161 13.088 o
13 21 5 238.518 354.171 27.244 54.105 o
13 21 6 21.100 39.328 22.410 408.274 o
13 21 7 52.355 24.827 31.418 235.364 o
13 21 8 4502.230 4638.720 103.922 1.418 o
13 21 9 113.015 93.596 21.751 141.465 o
13 21 10 761.485 705.926 42.843 17.702 o
13 21 11 21.660 29.002 22.410 439.758 o
13 21 12 1332.670 1263.550 59.761 8.648 o
13 21 13 112.847 132.265 22.410 126.608 o
13 22 0 209.557 329.344 47.237 51.731 o
13 22 1 426.535 308.252 23.070 38.766 o
13 22 2 1034.470 757.118 33.176 13.641 o
13 22 3 2534.560 2318.810 58.662 3.695 o
13 22 4 43.514 90.740 23.509 227.392 o
13 22 5 928.582 905.202 38.669 13.887 o
13 22 6 1465.080 1692.640 42.843 7.184 o
13 22 7 1587.810 1573.560 42.404 6.933 o
13 22 8 2378.970 2228.070 52.511 4.024 o
13 22 9 26.473 23.070 24.827 391.989 o
13 22 10 1086.320 947.606 40.426 11.930 o
13 22 11 464.082 474.352 32.737 30.569 o
13 23 0 2.304 51.412 30.759 361.206 o
13 23 1 369.246 287.599 35.593 41.816 o
13 23 2 492.827 460.510 25.486 30.255 o
13 23 3 1209.770 1118.540 31.418 10.320 o
13 23 4 62.021 44.161 18.236 262.297 o
13 23 5 233.822 201.913 19.994 70.033 o
13 23 6 17.668 -0.659 19.334 745.893 o
13 23 7 933.629 1068.450 45.260 12.733 o
13 23 8 283.482 145.008 24.827 64.103 o
13 23 9 19.053 14.501 22.410 526.401 o
13 24 0 1731.910 1483.700 112.491 5.812 o
13 24 1 191.425 116.666 23.070 91.912 o
13 24 2 1181.940 1099.860 42.843 10.434 o
13 24 3 65.388 51.412 32.078 187.027 o
13 24 4 624.307 552.349 28.343 23.458 o
13 24 5 306.535 238.165 23.509 53.787 o
13 24 6 701.038 612.769 32.078 20.439 o
14 0 0 689.595 847.199 38.010 17.950 o
14 0 1 804.606 1185.770 46.578 13.466 o
14 0 2 3755.550 3933.450 91.179 1.879 o
14 0 3 3682.590 3267.510 70.746 2.130 o
14 0 4 1279.870 1185.770 42.404 9.457 o
14 0 5 5991.150 6507.350 172.252 0.840 o
14 0 6 15342.000 15638.700 315.502 0.166 o
14 0 7 1003.740 991.767 38.010 12.578 o
14 0 9 4639.610 4507.110 99.748 1.398 o
14 0 10 2176.610 1363.950 50.753 5.342 o
14 0 11 1822.500 1353.630 45.919 6.448 o
14 0 12 5809.890 5875.900 190.927 0.908 o
14 0 13 648.689 831.599 30.759 19.230 o
14 0 14 7006.700 6703.110 203.670 0.687 o
14 0 15 2033.790 1669.790 74.921 5.165 o
14 0 16 1100.170 776.452 59.322 12.117 o
14 0 17 3310.720 3778.780 114.908 2.134 o
14 0 18 4920.730 4189.850 115.347 1.348 o
14 0 19 2885.030 2210.710 68.989 3.277 o
14 0 20 11.536 5.493 30.320 454.290 o
14 0 21 457.203 355.270 34.494 33.758 o
14 0 22 1094.350 842.365 46.578 12.217 o
14 0 23 78.565 91.179 44.821 118.708 o
14 0 24 219.209 234.430 32.078 64.556 o
14 1 0 378.721 449.525 33.176 35.805 o
14 1 1 177.593 172.911 14.501 91.751 o
14 1 2 118.091 97.990 14.501 145.207 o
14 1 3 306.214 259.257 14.501 54.244 o
14 1 4 576.754 681.758 27.244 23.016 o
14 1 5 1659.870 1922.890 33.835 6.109 o
14 1 6 2132.460 2076.470 43.502 4.651 o
14 1 7 2215.640 1951.460 36.911 4.628 o
14 1 8 7037.410 6702.670 101.506 0.711 o
14 1 9 3585.760 3676.170 60.420 2.076 o
14 1 10 8.292 28.343 16.259 755.614 o
14 1 11 1157.660 1122.270 27.244 10.758 o
14 1 12 2016.360 2110.310 40.426 4.875 o
14 1 13 2335.900 2056.480 37.570 4.290 o
14 1 14 457.782 573.002 27.903 29.098 o
14 1 15 1884.260 1861.380 48.995 5.466 o
14 1 16 909.576 860.601 29.002 14.655 o
14 1 17 560.176 461.170 19.994 27.718 o
14 1 18 279.985 232.672 24.827 57.508 o
14 1 19 230.481 149.183 21.751 76.189 o
14 1 20 366.128 296.827 22.410 44.250 o
14 1 21 36.825 44.161 22.410 318.026 o
14 1 22 122.069 143.910 21.751 118.202 o
14 1 23 111.784 79.754 22.410 147.204 o
14 1 24 290.826 225.422 21.751 57.298 o
14 2 0 8217.120 8952.490 190.268 0.492 o
14 2 1 46.655 178.184 15.160 176.601 o
14 2 2 5650.930 5157.230 90.740 1.053 o
14 2 3 1071.510 951.780 24.168 12.334 o
14 2 4 20309.200 19484.700 296.168 0.104 o
14 2 5 2576.510 2397.910 41.745 3.620 o
14 2 6 1534.560 1293.870 41.086 7.772 o
14 2 7 3527.920 3128.660 58.003 2.291 o
14 2 8 5316.130 4952.460 106.998 1.144 o
14 2 9 1394.180 1588.060 33.835 7.800 o
14 2 10 10755.300 13197.300 232.672 0.283 o
14 2 11 251.340 294.850 21.751 58.009 o
14 2 12 1510.020 1383.950 36.911 7.711 o
14 2 13 439.302 412.834 24.827 34.342 o
14 2 14 9680.120 10569.100 275.515 0.361 o
14 2 15 2097.830 1910.370 42.843 4.908 o
14 2 16 3504.950 3929.280 74.262 2.035 o
14 2 17 1142.120 1195.440 32.078 10.534 o
14 2 18 1163.140 931.787 36.911 11.371 o
14 2 19 707.704 558.501 36.252 20.704 o
14 2 20 2790.110 2349.570 53.170 3.346 o
14 2 21 570.023 643.089 30.759 23.581 o
14 2 22 787.286 703.509 34.494 17.620 o
14 2 23 2.011 -7.250 19.334 1329.040 o
14 2 24 1543.610 1173.030 47.237 7.956 o
14 3 0 120.487 240.582 23.509 94.872 o
14 3 1 11644.200 10978.900 136.000 0.295 o
14 3 2 1625.710 1432.280 38.669 7.091 o
14 3 3 8611.860 7473.630 120.840 0.526 o
14 3 4 1692.590 1623.870 50.094 6.400 o
14 3 5 6083.580 5106.480 98.430 0.970 o
14 3 6 3364.340 3454.270 53.170 2.297 o
14 3 7 11764.200 12956.000 264.090 0.257 o
14 3 8 1032.750 937.938 34.494 12.630 o
14 3 9 5467.190 5140.970 82.830 1.098 o
14 3 10 6711.330 7653.790 139.515 0.686 o
14 3 11 14575.700 14969.200 202.352 0.185 o
14 3 12 771.708 734.268 37.570 17.500 o
14 3 13 519.382 573.002 32.078 26.311 o
14 3 14 3199.650 3412.520 62.837 2.419 o
14 3 15 232.913 155.994 18.675 76.037 o
14 3 16 382.622 257.499 32.078 42.727 o
14 3 17 2658.540 2381.650 54.488 3.491 o
14 3 18 2862.470 2428.230 67.670 3.179 o
14 3 19 5248.260 4972.460 116.006 1.153 o
14 3 20 20.648 29.002 23.509 429.769 o
14 3 21 1796.300 1059.440 47.677 7.084 o
14 3 22 363.803 224.103 23.070 47.957 o
14 3 23 1516.370 1287.280 39.328 7.890 o
14 3 24 281.519 169.835 25.926 61.875 o
14 4 0 52.335 -5.493 21.751 352.210 o
14 4 1 6803.270 6656.090 112.491 0.740 o
14 4 2 5676.740 5072.650 85.247 1.059 o
14 4 3 5209.850 4496.790 76.239 1.243 o
14 4 4 85.206 79.095 20.653 179.169 o
14 4 5 3602.240 3655.520 54.927 2.077 o
14 4 6 1635.110 1815.460 41.745 6.326 o
14 4 7 10927.800 11429.500 239.922 0.304 o
14 4 8 2821.050 2787.670 45.919 3.069 o
14 4 9 5102.860 5091.980 89.422 1.188 o
14 4 10 669.635 527.522 19.994 22.890 o
14 4 11 10573.800 10328.500 198.178 0.339 o
14 4 12 2081.490 3062.750 70.087 3.777 o
14 4 13 1387.670 1233.450 53.829 8.519 o
14 4 14 134.971 105.680 17.577 126.447 o
14 4 15 356.005 264.090 19.994 47.221 o
14 4 16 2863.910 2731.640 52.071 3.043 o
14 4 17 1827.580 1970.130 44.161 5.497 o
14 4 18 53.218 54.488 23.070 247.984 o
14 4 19 1770.870 1663.640 38.669 6.146 o
14 4 20 225.955 173.351 21.751 74.344 o
14 4 21 1952.510 1605.200 49.654 5.626 o
14 4 22 718.264 465.344 28.343 22.036 o
14 4 23 1249.680 898.611 33.176 10.842 o
14 5 0 12405.700 11391.500 205.428 0.264 o
14 5 1 20.372 91.838 14.501 344.797 o
14 5 2 13330.200 13362.900 214.436 0.220 o
14 5 3 768.170 986.274 33.835 15.635 o
14 5 4 8487.090 8626.220 196.420 0.484 o
14 5 5 1147.700 709.441 29.661 12.713 o
14 5 6 2398.120 2424.050 44.821 3.857 o
14 5 7 589.665 497.861 23.509 25.730 o
14 5 8 7028.620 6807.690 119.741 0.703 o
14 5 9 181.696 223.664 18.675 80.617 o
14 5 10 495.699 453.919 25.486 30.275 o
14 5 11 657.846 480.943 22.410 23.828 o
14 5 12 4895.620 5050.890 81.512 1.251 o
14 5 13 729.263 781.945 30.759 18.111 o
14 5 14 368.970 348.019 24.168 41.513 o
14 5 15 65.749 48.995 18.236 246.784 o
14 5 16 3231.810 2919.500 54.488 2.601 o
14 5 17 128.364 159.509 24.168 108.218 o
14 5 18 1152.940 976.607 32.078 11.343 o
14 5 19 126.204 114.908 17.577 129.218 o
14 5 20 2803.670 2640.900 57.344 3.149 o
14 5 21 65.503 28.343 24.168 244.147 o
14 5 22 4190.630 3404.170 73.163 1.814 o
14 5 23 21.168 52.511 21.751 377.210 o
14 6 0 1075.600 990.449 38.010 11.878 o
14 6 1 5929.490 5162.730 105.680 0.991 o
14 6 2 3940.650 4604.450 95.573 1.638 o
14 6 3 10254.900 11094.900 233.331 0.333 o
14 6 4 3966.950 3743.840 78.656 1.835 o
14 6 5 731.876 993.525 33.835 16.133 o
14 6 6 147.377 122.158 18.236 113.652 o
14 6 7 7888.620 7766.280 139.515 0.569 o
14 6 8 3238.470 3030.010 53.170 2.551 o
14 6 9 2391.970 2265.640 51.412 3.975 o
14 6 10 1651.680 1660.780 50.753 6.473 o
14 6 11 4644.510 4799.550 97.990 1.351 o
14 6 12 2679.240 2579.170 53.829 3.340 o
14 6 13 1578.140 1954.310 61.079 6.145 o
14 6 14 6.151 14.501 21.751 735.404 o
14 6 15 1247.730 1225.540 39.987 9.570 o
14 6 16 2078.500 2118.660 49.654 4.697 o
14 6 17 2984.080 2798.660 60.420 2.871 o
14 6 18 16.302 -13.842 25.926 546.565 o
14 6 19 263.897 334.178 27.903 51.964 o
14 6 20 389.958 306.934 20.653 41.973 o
14 6 21 2634.190 2333.310 59.761 3.542 o
14 6 22 294.147 203.011 30.320 55.842 o
14 6 23 661.987 513.021 32.078 22.720 o
14 7 0 1093.490 1213.450 56.905 10.396 o
14 7 1 427.774 431.509 20.653 34.883 o
14 7 2 30.807 50.753 17.577 371.804 o
14 7 3 1019.540 1149.960 32.078 11.763 o
14 7 4 685.553 664.840 19.994 20.671 o
14 7 5 95.950 125.015 15.160 152.126 o
14 7 6 188.595 250.249 20.653 74.551 o
14 7 7 7268.610 6863.930 116.006 0.674 o
14 7 8 50.529 118.423 24.827 187.572 o
14 7 9 671.991 579.593 25.926 21.862 o
14 7 10 1740.580 1867.970 59.322 5.794 o
14 7 11 1069.190 1224.440 42.843 10.827 o
14 7 12 869.813 1128.210 44.161 13.127 o
14 7 13 89.971 159.509 18.675 138.036 o
14 7 14 87.679 81.073 19.994 176.357 o
14 7 15 108.934 105.241 19.334 143.692 o
14 7 16 650.651 587.942 30.759 22.079 o
14 7 17 1568.030 1381.530 35.154 7.467 o
14 7 18 191.903 162.585 19.994 85.986 o
14 7 19 15.077 1.318 21.092 716.045 o
14 7 20 478.660 511.263 25.926 29.706 o
14 7 21 195.830 145.667 23.509 85.363 o
14 7 22 34.882 33.176 20.653 367.421 o
14 7 23 3.659 -13.402 23.509 878.647 o
14 8 0 3524.590 3450.750 94.255 2.139 o
14 8 1 135.293 250.688 26.585 85.805 o
14 8 2 3670.000 2990.240 56.905 2.243 o
14 8 3 103.108 236.187 16.259 108.666 o
14 8 4 59.697 76.678 15.819 237.649 o
14 8 5 54.883 54.488 14.501 284.568 o
14 8 6 834.841 795.787 31.418 16.143 o
14 8 7 1666.110 1595.970 39.987 6.613 o
14 8 8 259.429 134.242 19.334 72.078 o
14 8 9 63.326 107.657 16.918 198.967 o
14 8 10 294.163 386.688 26.585 46.066 o
14 8 11 107.452 68.330 16.259 167.797 o
14 8 12 110.057 66.572 21.092 157.339 o
14 8 13 174.384 158.850 18.675 93.301 o
14 8 14 587.272 386.688 27.244 27.646 o
14 8 15 20.336 49.654 22.410 382.069 o
14 8 16 1247.610 1084.700 35.593 10.114 o
14 8 17 1291.940 1563.890 45.260 8.260 o
14 8 18 372.356 434.585 29.661 37.232 o
14 8 19 727.191 606.178 30.320 19.995 o
14 8 20 669.826 592.336 29.002 21.608 o
14 8 21 6.461 -3.076 22.410 868.247 o
14 8 22 58.322 71.406 28.343 197.916 o
14 9 0 7034.060 7358.940 201.913 0.651 o
14 9 1 1897.650 1777.890 36.252 5.604 o
14 9 2 55.767 79.754 18.675 232.958 o
14 9 3 246.743 299.683 19.994 58.795 o
14 9 4 2020.940 2162.380 50.094 4.771 o
14 9 5 1467.130 1727.130 54.488 7.003 o
14 9 6 1548.270 1915.640 39.987 6.463 o
14 9 7 7.639 36.252 19.334 607.279 o
14 9 8 4653.130 4934.230 102.824 1.325 o
14 9 9 1435.070 1684.290 45.260 7.307 o
14 9 10 85.722 148.743 22.410 140.195 o
14 9 11 0.634 -25.926 18.236 1597.130 o
14 9 12 2095.830 2156.230 70.087 4.529 o
14 9 13 1062.460 1007.370 41.086 11.860 o
14 9 14 86.594 204.769 26.585 115.250 o
14 9 15 74.034 24.168 19.994 249.205 o
14 9 16 2111.180 2046.150 52.071 4.694 o
14 9 17 854.721 1047.350 32.078 14.087 o
14 9 18 46.337 24.168 21.092 330.920 o
14 9 19 595.769 447.767 26.585 26.215 o
14 9 20 592.336 609.254 29.661 23.486 o
14 9 21 86.848 102.165 25.486 153.610 o
14 9 22 157.786 150.501 25.486 96.222 o
14 10 0 2647.660 2244.990 67.011 3.563 o
14 10 1 194.674 144.349 16.918 89.645 o
14 10 2 1139.820 1348.360 40.426 9.877 o
14 10 3 2076.750 2353.300 52.511 4.452 o
14 10 4 169.948 115.347 24.168 99.518 o
14 10 5 192.278 170.494 18.675 85.314 o
14 10 6 163.172 137.099 21.092 100.331 o
14 10 7 622.439 878.178 28.343 19.389 o
14 10 8 1689.700 1731.970 42.843 6.276 o
14 10 9 13.954 32.078 18.675 567.677 o
14 10 10 1165.440 1360.880 36.252 9.715 o
14 10 11 1289.870 1299.360 37.570 9.100 o
14 10 12 7805.090 7162.520 138.417 0.602 o
14 10 13 89.785 85.247 19.334 172.704 o
14 10 14 814.216 793.370 28.343 16.583 o
14 10 15 2364.440 2390.000 68.330 3.864 o
14 10 16 251.735 247.173 21.092 61.946 o
14 10 17 105.791 94.255 25.486 140.631 o
14 10 18 124.303 128.090 24.827 117.822 o
14 10 19 21.561 9.008 22.410 528.913 o
14 10 20 44.178 58.662 24.827 255.419 o
14 10 21 261.665 176.426 27.244 64.269 o
14 10 22 0.432 -22.410 33.176 497.506 o
14 11 0 1915.120 1736.140 54.488 5.521 o
14 11 1 647.464 626.171 23.070 22.017 o
14 11 2 9.354 3.076 17.577 1033.030 o
14 11 3 203.903 155.994 23.070 81.700 o
14 11 4 280.819 305.835 24.168 52.585 o
14 11 5 206.407 168.517 26.585 77.338 o
14 11 6 2149.340 2336.830 56.905 4.314 o
14 11 7 9.536 -6.152 23.509 736.070 o
14 11 8 322.514 257.499 22.410 50.846 o
14 11 9 36.611 45.260 23.509 307.815 o
14 11 10 79.311 45.260 26.585 192.750 o
14 11 11 153.663 130.507 19.334 107.456 o
14 11 12 125.598 62.178 21.092 145.102 o
14 11 13 628.926 555.425 29.002 23.239 o
14 11 14 199.214 318.578 29.661 61.775 o
14 11 15 4.876 33.176 24.827 519.911 o
14 11 16 396.920 380.756 25.486 37.982 o
14 11 17 696.561 524.006 28.343 21.834 o
14 11 18 184.007 172.252 24.827 84.088 o
14 11 19 83.918 92.498 26.585 158.627 o
14 11 20 133.567 109.415 27.903 113.919 o
14 11 21 68.858 34.494 27.903 212.833 o
14 12 1 474.904 662.863 28.343 26.580 o
14 12 2 1.500 -29.661 19.994 1281.630 o
14 12 3 242.546 273.098 19.334 61.798 o
14 12 4 692.745 782.604 33.176 18.726 o
14 12 5 137.833 126.992 20.653 115.266 o
14 12 6 125.956 125.674 23.070 119.718 o
14 12 7 82.307 58.662 23.070 190.344 o
14 12 8 54.357 56.905 21.751 248.955 o
14 12 9 128.098 324.510 27.903 76.646 o
14 12 10 2116.700 2823.480 77.997 3.873 o
14 12 11 1.977 -15.160 19.994 1252.960 o
14 12 12 6529.050 6009.920 114.908 0.819 o
14 12 13 809.052 781.286 28.343 16.769 o
14 12 14 4007.170 4090.110 84.588 1.729 o
14 12 15 6.237 -21.751 24.827 740.659 o
14 12 16 61.228 95.573 24.168 190.687 o
14 12 17 3.194 -4.174 23.509 892.297 o
14 12 18 130.025 121.499 29.002 111.190 o
14 12 19 79.506 65.913 26.585 178.496 o
14 12 20 248.168 247.173 28.343 60.117 o
14 12 21 1.776 -21.751 57.344 166.021 o
14 13 0 51.731 112.931 29.002 176.133 o
14 13 1 1634.210 1349.450 33.835 7.260 o
14 13 2 289.232 412.834 27.244 45.145 o
14 13 3 1088.780 1154.790 55.586 10.685 o
14 13 4 587.400 690.107 35.154 22.148 o
14 13 5 5625.520 6446.930 148.084 0.913 o
14 13 6 110.815 133.583 24.168 125.144 o
14 13 7 554.478 907.619 36.252 20.206 o
14 13 8 65.511 248.930 24.827 116.906 o
14 13 9 331.621 265.189 32.737 46.964 o
14 13 10 2195.090 2096.900 73.822 4.376 o
14 13 11 18.112 38.669 24.827 395.301 o
14 13 12 350.223 427.334 29.661 39.031 o
14 13 13 769.294 1033.950 37.570 15.160 o
14 13 14 323.875 383.173 33.176 42.147 o
14 13 15 1645.430 1562.130 42.843 6.732 o
14 13 16 288.895 421.842 27.903 44.621 o
14 13 17 499.236 425.357 27.903 30.562 o
14 13 18 265.208 249.590 27.903 57.470 o
14 13 19 555.487 469.518 29.002 27.136 o
14 13 20 60.179 59.761 26.585 211.743 o
14 14 0 92.665 87.005 41.745 118.768 o
14 14 1 126.582 119.082 23.509 120.758 o
14 14 2 239.000 368.672 33.176 51.331 o
14 14 3 969.193 881.693 27.903 13.787 o
14 14 4 237.954 223.005 21.751 66.429 o
14 14 5 2771.020 2649.250 54.927 3.186 o
14 14 6 548.206 634.520 25.486 24.710 o
14 14 7 48.842 52.071 20.653 275.920 o
14 14 8 64.977 137.099 23.070 163.353 o
14 14 9 10611.900 10532.900 202.352 0.333 o
14 14 10 131.341 146.766 22.410 111.702 o
14 14 11 119.271 146.766 21.751 118.992 o
14 14 12 445.060 418.107 28.343 33.475 o
14 14 13 1199.440 1182.690 39.328 10.056 o
14 14 14 34.878 34.494 23.509 336.102 o
14 14 15 713.523 718.449 29.661 19.100 o
14 14 16 119.666 146.326 24.827 115.331 o
14 14 17 35.444 55.586 24.168 289.055 o
14 14 18 293.544 345.603 26.585 48.239 o
14 14 19 659.176 594.094 33.176 21.640 o
14 15 0 161.279 172.252 29.002 88.178 o
14 15 1 633.614 444.691 28.343 24.850 o
14 15 2 681.020 839.509 45.919 17.796 o
14 15 3 791.748 914.430 27.903 15.988 o
14 15 4 11.384 25.486 24.168 508.745 o
14 15 5 331.502 364.937 23.070 44.196 o
14 15 6 713.044 552.349 25.926 21.159 o
14 15 7 389.512 371.089 25.926 38.790 o
14 15 8 1500.040 1566.970 45.260 7.280 o
14 15 9 265.132 276.174 32.078 54.214 o
14 15 10 800.495 971.774 39.328 15.102 o
14 15 11 157.440 187.851 22.410 91.800 o
14 15 12 340.717 350.436 30.759 42.610 o
14 15 13 22.799 23.070 27.244 378.900 o
14 15 14 23.906 35.593 22.410 402.387 o
14 15 15 17.531 25.926 22.410 485.776 o
14 15 16 123.540 155.994 28.343 106.762 o
14 15 17 220.810 205.428 27.903 69.081 o
14 15 18 172.722 128.750 24.827 95.220 o
14 16 0 1098.660 1339.130 56.905 9.909 o
14 16 1 335.956 230.914 21.092 51.098 o
14 16 2 350.781 415.690 25.926 40.011 o
14 16 3 430.549 652.756 33.835 28.028 o
14 16 4 343.055 272.659 24.827 47.241 o
14 16 5 457.793 433.926 32.737 31.863 o
14 16 6 1126.050 1202.690 31.418 10.639 o
14 16 7 2862.980 3376.270 74.921 2.688 o
14 16 8 674.679 497.861 44.161 21.757 o
14 16 9 2898.520 2671.220 59.761 3.024 o
14 16 10 1309.670 1192.360 32.737 9.362 o
14 16 11 460.602 507.089 34.494 29.782 o
14 16 12 59.121 64.594 20.653 234.291 o
14 16 13 96.529 105.680 25.926 142.672 o
14 16 14 1320.210 1499.950 50.094 8.223 o
14 16 15 15.254 11.425 23.070 570.748 o
14 16 16 13.456 0.659 24.168 634.791 o
14 16 17 730.638 795.347 35.154 17.791 o
14 16 18 1022.200 892.678 54.927 12.448 o
14 17 0 9193.690 10121.800 271.341 0.393 o
14 17 1 57.684 185.435 32.078 129.922 o
14 17 2 1947.810 1978.480 58.003 5.109 o
14 17 3 531.338 613.428 34.494 25.006 o
14 17 4 94.956 82.830 18.675 169.409 o
14 17 5 2575.320 2186.550 62.178 3.721 o
14 17 6 865.880 1048.450 33.176 13.917 o
14 17 7 1850.980 2691.000 70.087 4.485 o
14 17 8 834.937 633.422 25.486 17.695 o
14 17 9 659.381 535.431 33.835 22.375 o
14 17 10 414.956 589.260 35.154 29.913 o
14 17 11 792.020 835.774 39.328 16.237 o
14 17 12 57.614 63.496 29.002 202.476 o
14 17 13 1314.050 1405.040 54.927 8.439 o
14 17 14 1062.040 1137.430 39.987 11.301 o
14 17 15 294.803 258.598 27.244 53.004 o
14 17 16 238.075 271.341 25.486 60.812 o
14 17 17 129.848 152.258 38.010 93.359 o
14 18 0 162.913 79.754 33.176 100.433 o
14 18 1 33.562 44.821 20.653 345.483 o
14 18 2 108.988 165.661 20.653 120.695 o
14 18 3 279.576 398.772 35.593 44.789 o
14 18 4 35.399 24.168 19.994 396.759 o
14 18 5 858.418 826.106 30.759 15.572 o
14 18 6 56.784 41.745 21.751 262.022 o
14 18 7 993.871 960.788 32.737 12.957 o
14 18 8 174.280 186.753 21.751 86.746 o
14 18 9 2374.710 2193.800 64.594 4.018 o
14 18 10 33.592 18.236 19.994 427.726 o
14 18 11 57.767 69.428 20.653 232.033 o
14 18 12 110.820 108.756 21.751 137.241 o
14 18 13 0.476 -41.086 23.070 1018.440 o
14 18 14 14.112 41.745 26.585 384.658 o
14 18 15 6.769 13.402 24.168 639.612 o
14 18 16 90.582 80.414 36.252 134.602 o
14 19 0 463.986 300.342 37.570 34.469 o
14 19 1 1706.960 1736.140 44.161 6.204 o
14 19 2 289.321 480.504 24.827 42.529 o
14 19 3 582.834 847.858 41.086 19.967 o
14 19 4 848.154 912.452 33.835 15.017 o
14 19 5 2595.300 2857.320 96.672 3.152 o
14 19 6 762.968 921.680 31.418 16.284 o
14 19 7 1351.210 1666.710 57.344 7.587 o
14 19 8 268.513 563.774 36.252 38.814 o
14 19 9 303.577 183.018 34.494 54.429 o
14 19 10 21.030 29.661 19.994 481.496 o
14 19 11 280.287 317.919 25.926 51.475 o
14 19 12 1287.430 994.623 33.176 10.183 o
14 19 13 931.932 827.864 30.759 14.535 o
14 19 14 60.689 73.163 21.092 220.729 o
14 20 0 1461.180 1169.290 68.989 8.074 o
14 20 1 2281.850 2320.570 46.578 4.127 o
14 20 2 280.389 304.517 22.410 53.138 o
14 20 3 379.998 624.194 36.252 30.589 o
14 20 4 276.494 316.601 26.585 51.848 o
14 20 5 288.100 273.758 25.926 53.250 o
14 20 6 838.938 769.861 31.418 16.283 o
14 20 7 1598.440 1678.800 54.488 6.599 o
14 20 8 1008.020 785.680 45.919 13.448 o
14 20 9 130.726 175.767 25.486 102.115 o
14 20 10 297.532 386.688 25.486 45.954 o
14 20 11 197.134 137.758 24.168 85.768 o
14 20 12 108.346 107.657 24.827 134.703 o
14 20 13 233.934 227.179 24.168 65.920 o
14 21 0 470.339 470.837 33.835 30.237 o
14 21 1 279.556 296.827 25.926 52.869 o
14 21 2 115.359 114.249 21.092 132.794 o
14 21 3 875.188 867.851 33.176 14.969 o
14 21 4 294.635 395.257 23.070 46.269 o
14 21 5 1595.240 1580.810 49.654 6.833 o
14 21 6 938.847 1060.540 30.759 13.051 o
14 21 7 280.894 339.670 33.176 48.246 o
14 21 8 1169.810 1302.880 47.677 9.717 o
14 21 9 1007.520 1102.280 57.344 11.531 o
14 21 10 849.242 800.840 33.176 15.830 o
14 21 11 1166.900 950.682 42.404 11.158 o
14 22 0 165.440 237.506 45.260 66.293 o
14 22 1 490.865 489.512 27.244 29.535 o
14 22 2 290.255 278.591 24.827 52.951 o
14 22 3 738.476 617.602 36.252 19.346 o
14 22 4 416.729 369.331 23.070 37.316 o
14 22 5 872.471 835.774 35.154 15.175 o
14 22 6 4.457 13.402 21.751 784.065 o
14 22 7 36.063 71.845 20.653 284.722 o
14 22 8 264.929 175.767 39.987 58.003 o
14 22 9 742.613 660.006 35.593 18.851 o
14 23 0 159.645 277.932 34.494 70.692 o
14 23 1 188.683 163.683 21.092 86.220 o
14 23 2 867.113 801.938 32.078 15.586 o
14 23 3 4.314 -0.659 21.751 981.818 o
14 23 4 0.772 -15.819 25.486 829.490 o
14 23 5 14.719 29.002 22.410 497.455 o
14 23 6 185.024 271.341 28.343 69.455 o
15 1 0 605.870 466.443 26.585 25.529 o
15 1 1 233.536 265.189 16.918 64.730 o
15 1 2 23.075 15.819 15.160 631.415 o
15 1 3 103.395 256.181 19.994 101.262 o
15 1 4 175.185 190.268 16.918 88.479 o
15 1 5 90.478 106.998 19.994 158.747 o
15 1 6 595.237 974.190 30.320 18.876 o
15 1 7 1422.560 1314.960 39.987 8.284 o
15 1 8 1708.160 1856.540 35.154 6.055 o
15 1 9 235.526 625.512 35.593 39.097 o
15 1 10 4977.660 4727.700 68.989 1.279 o
15 1 11 532.595 378.339 16.918 30.934 o
15 1 12 1932.930 2028.140 42.404 5.159 o
15 1 13 36.722 68.330 16.259 314.876 o
15 1 14 4387.390 3781.850 78.656 1.637 o
15 1 15 650.613 529.279 36.911 22.501 o
15 1 16 1825.910 2213.130 59.761 5.110 o
15 1 17 163.904 50.094 26.585 115.265 o
15 1 18 51.812 80.414 24.827 215.723 o
15 1 19 47.855 83.490 29.002 202.097 o
15 1 20 225.368 122.158 24.168 79.822 o
15 1 21 874.557 875.102 44.161 14.593 o
15 1 22 85.746 82.171 21.751 173.966 o
15 1 23 178.818 154.016 25.486 88.123 o
15 2 0 1253.210 983.858 37.570 10.417 o
15 2 1 2848.880 2489.300 46.578 3.204 o
15 2 2 1913.160 1985.730 40.426 5.269 o
15 2 3 40.963 83.929 15.819 276.421 o
15 2 4 533.074 609.693 21.092 25.884 o
15 2 5 936.332 963.205 25.926 13.728 o
15 2 6 27.657 52.511 19.334 367.664 o
15 2 7 1122.890 1097.450 40.426 10.950 o
15 2 8 160.753 100.847 16.918 113.287 o
15 2 9 342.913 317.260 18.236 46.118 o
15 2 10 64.013 134.242 22.410 167.446 o
15 2 11 1.629 -29.661 17.577 1611.370 o
15 2 12 1149.200 869.609 33.176 11.842 o
15 2 13 2073.810 1750.200 62.837 5.053 o
15 2 14 19.656 65.254 18.675 382.855 o
15 2 15 235.965 136.659 19.994 77.168 o
15 2 16 2221.340 1874.120 41.086 4.684 o
15 2 17 118.022 132.265 18.675 127.694 o
15 2 18 1.793 -16.918 28.343 656.909 o
15 2 19 1278.870 1299.800 41.745 9.115 o
15 2 20 39.333 19.334 24.827 336.591 o
15 2 21 76.553 44.821 24.168 206.227 o
15 2 22 78.240 36.911 30.320 186.312 o
15 2 23 207.468 137.099 22.410 83.785 o
15 3 0 943.193 978.365 50.094 12.972 o
15 3 1 488.456 578.275 21.751 28.147 o
15 3 2 440.000 507.089 19.994 32.146 o
15 3 3 0.698 -10.986 15.819 2085.880 o
15 3 4 772.946 757.777 44.821 16.953 o
15 3 5 4018.640 3830.850 62.837 1.802 o
15 3 6 115.137 140.834 19.334 126.043 o
15 3 7 113.470 39.328 25.926 157.244 o
15 3 8 101.365 147.425 16.918 136.085 o
15 3 9 2182.280 1814.800 43.502 4.824 o
15 3 10 13.195 -57.344 33.835 389.277 o
15 3 11 208.546 219.270 26.585 70.851 o
15 3 12 2759.960 2496.990 60.420 3.277 o
15 3 13 819.864 760.853 27.244 16.790 o
15 3 14 65.897 67.011 21.092 216.730 o
15 3 15 317.720 281.667 19.994 50.465 o
15 3 16 129.970 48.995 22.410 144.797 o
15 3 17 86.695 172.911 21.092 132.318 o
15 3 18 1140.610 997.699 29.661 11.393 o
15 3 19 1071.330 1047.790 30.759 11.777 o
15 3 20 73.673 48.995 18.675 227.707 o
15 3 21 0.562 -9.667 24.168 926.697 o
15 3 22 341.084 331.761 29.661 43.615 o
15 3 23 103.730 94.255 32.078 129.613 o
15 4 0 6754.460 5984.000 246.514 0.739 o
15 4 1 6594.830 5741.660 117.764 0.828 o
15 4 2 5956.330 5423.740 81.512 0.969 o
15 4 3 211.279 79.095 19.334 94.003 o
15 4 4 605.019 685.932 32.078 21.917 o
15 4 5 5330.850 5473.390 125.015 1.073 o
15 4 6 3460.730 2938.830 64.155 2.399 o
15 4 7 125.952 50.094 15.819 158.473 o
15 4 8 396.574 432.607 37.570 34.543 o
15 4 9 6002.880 5660.150 94.255 0.936 o
15 4 10 656.800 399.431 23.070 25.139 o
15 4 11 389.335 315.502 32.078 39.857 o
15 4 12 63.528 22.410 28.343 232.495 o
15 4 13 234.174 156.433 19.334 75.411 o
15 4 14 1771.190 1417.780 33.176 6.594 o
15 4 15 2644.260 2372.640 47.237 3.533 o
15 4 16 386.140 281.667 30.320 41.772 o
15 4 17 443.459 449.086 26.585 32.909 o
15 4 18 1938.740 1668.030 42.843 5.613 o
15 4 19 2504.870 2096.460 65.913 3.882 o
15 4 20 1537.690 1178.960 43.502 8.010 o
15 4 21 22.489 25.486 19.334 498.501 o
15 4 22 473.114 521.590 32.078 29.163 o
15 5 0 19321.700 19689.500 353.512 0.109 o
15 5 1 2825.930 2957.510 62.837 2.945 o
15 5 2 3630.230 3740.770 84.588 2.005 o
15 5 3 1478.350 1287.720 39.328 8.075 o
15 5 4 2675.670 2971.570 51.412 3.119 o
15 5 5 1108.940 1335.610 29.002 10.291 o
15 5 6 35.850 50.753 15.160 364.925 o
15 5 7 114.045 47.677 16.918 170.942 o
15 5 8 5974.110 6337.510 116.006 0.877 o
15 5 9 4203.810 4064.180 75.580 1.657 o
15 5 10 41.959 73.822 23.070 251.849 o
15 5 11 115.186 90.740 18.675 145.484 o
15 5 12 2930.680 3305.090 85.906 2.637 o
15 5 13 6.323 -8.569 19.334 1094.130 o
15 5 14 322.475 300.342 24.827 47.947 o
15 5 15 1102.670 809.848 25.926 12.719 o
15 5 16 2569.830 2196.210 62.178 3.722 o
15 5 17 75.139 44.821 19.334 226.621 o
15 5 18 239.806 207.845 18.236 68.738 o
15 5 19 711.924 580.691 29.661 20.676 o
15 5 20 3718.140 2881.490 63.496 2.240 o
15 5 21 749.574 789.195 39.328 17.331 o
15 5 22 378.141 112.931 38.669 48.293 o
15 6 0 296.467 652.756 39.328 33.692 o
15 6 1 74.763 58.662 23.509 200.258 o
15 6 2 5947.930 6127.250 97.990 0.904 o
15 6 3 9.101 -2.417 15.819 1258.850 o
15 6 4 73.785 52.071 16.259 232.375 o
15 6 5 647.279 617.602 30.320 21.799 o
15 6 6 381.631 424.258 18.675 38.321 o
15 6 7 0.938 -35.154 24.168 914.766 o
15 6 8 1772.780 2005.070 53.170 5.550 o
15 6 9 194.039 168.078 23.070 82.801 o
15 6 10 13.403 56.245 18.675 454.460 o
15 6 11 44.634 24.827 19.994 346.346 o
15 6 12 108.080 75.580 23.070 151.168 o
15 6 13 111.791 63.496 20.653 157.970 o
15 6 14 146.758 154.675 23.070 101.959 o
15 6 15 239.832 221.247 20.653 66.609 o
15 6 16 1692.950 1545.210 53.829 6.506 o
15 6 17 110.521 164.342 24.827 115.406 o
15 6 18 244.780 215.095 24.827 64.770 o
15 6 19 45.187 47.677 33.835 212.817 o
15 6 20 186.587 154.016 19.994 89.102 o
15 6 21 15.087 28.343 19.334 562.091 o
15 6 22 217.456 212.678 29.002 68.489 o
15 7 0 2810.150 2510.400 87.664 3.136 o
15 7 1 4886.750 5238.970 97.331 1.221 o
15 7 2 13423.100 13916.400 188.510 0.214 o
15 7 3 1257.160 1848.630 49.654 7.688 o
15 7 4 925.897 1009.120 32.737 13.447 o
15 7 5 3483.560 3632.670 68.330 2.143 o
15 7 6 6667.790 6083.090 108.097 0.796 o
15 7 7 523.715 601.344 30.320 25.787 o
15 7 8 979.245 812.924 31.418 14.011 o
15 7 9 27.243 20.653 14.501 555.959 o
15 7 10 5127.680 5290.160 99.089 1.153 o
15 7 11 233.242 227.838 24.827 65.735 o
15 7 12 203.081 216.853 22.410 74.320 o
15 7 13 148.300 86.346 23.509 117.651 o
15 7 14 2138.190 2000.890 48.336 4.700 o
15 7 15 1001.620 1251.460 33.835 11.438 o
15 7 16 1740.170 1437.120 41.086 6.625 o
15 7 17 900.690 982.539 38.669 13.758 o
15 7 18 1715.560 1502.370 42.843 6.584 o
15 7 19 1656.540 1267.940 41.745 7.280 o
15 7 20 2119.980 1740.980 45.260 5.043 o
15 7 21 266.156 206.746 24.168 61.963 o
15 7 22 1451.600 1474.030 45.919 7.693 o
15 8 0 8647.820 10591.300 270.242 0.408 o
15 8 1 3016.660 3286.850 72.504 2.599 o
15 8 2 137.953 141.932 18.236 113.405 o
15 8 3 124.469 88.323 21.751 134.673 o
15 8 4 1528.270 1886.200 50.094 6.516 o
15 8 5 3160.080 3442.180 68.989 2.429 o
15 8 6 2435.230 2475.900 59.761 3.722 o
15 8 7 129.098 294.850 23.509 83.000 o
15 8 8 123.978 119.741 19.334 127.159 o
15 8 9 2960.870 2689.900 55.586 2.957 o
15 8 10 2809.820 3192.590 64.155 2.842 o
15 8 11 20.995 56.905 18.236 404.217 o
15 8 12 215.295 177.745 19.334 77.481 o
15 8 13 477.951 615.186 27.903 27.402 o
15 8 14 2610.070 2405.160 70.087 3.497 o
15 8 15 63.987 100.847 24.168 183.248 o
15 8 16 31.753 24.827 25.926 346.375 o
15 8 17 69.546 106.998 24.827 170.723 o
15 8 18 878.450 814.682 29.661 15.391 o
15 8 19 1750.920 1381.530 38.010 6.707 o
15 8 20 538.654 475.670 28.343 27.725 o
15 8 21 232.757 228.937 23.509 66.226 o
15 9 0 91.714 281.667 35.154 87.457 o
15 9 1 19.651 10.986 21.092 570.808 o
15 9 2 41.728 39.328 21.751 313.733 o
15 9 3 1812.710 1798.980 47.237 5.763 o
15 9 4 3.946 -11.425 23.070 899.453 o
15 9 5 124.030 160.168 18.675 115.617 o
15 9 6 149.466 160.168 24.168 98.729 o
15 9 7 493.918 587.502 24.168 27.585 o
15 9 8 879.849 810.507 29.002 15.418 o
15 9 9 1249.040 1154.350 31.418 9.907 o
15 9 10 635.073 658.029 35.593 21.302 o
15 9 11 395.090 386.688 26.585 37.755 o
15 9 12 9.834 34.494 22.410 518.360 o
15 9 13 76.615 77.997 23.070 184.821 o
15 9 14 428.212 377.680 31.418 35.231 o
15 9 15 7.263 5.493 27.903 560.038 o
15 9 16 51.946 81.073 23.070 222.162 o
15 9 17 1733.820 1288.370 39.328 6.942 o
15 9 18 1168.320 1072.620 38.669 10.714 o
15 9 19 19.572 12.084 24.827 480.679 o
15 9 20 31.530 67.670 25.926 270.186 o
15 9 21 130.232 92.498 27.244 121.485 o
15 10 0 1899.290 2353.740 84.588 4.639 o
15 10 1 0.003 -8.569 18.236 1659.710 o
15 10 2 434.076 346.262 27.903 36.329 o
15 10 3 92.432 108.756 19.334 157.086 o
15 10 4 81.001 129.848 19.334 157.966 o
15 10 5 21.462 36.911 19.994 448.146 o
15 10 6 629.770 705.926 30.320 21.120 o
15 10 7 1009.110 945.848 30.320 12.919 o
15 10 8 15.116 41.086 19.994 483.277 o
15 10 9 12.555 70.746 21.092 381.795 o
15 10 10 1075.380 1391.200 39.987 10.189 o
15 10 11 134.006 224.103 22.410 93.718 o
15 10 12 81.692 288.918 23.509 100.701 o
15 10 13 24.013 78.656 21.751 306.511 o
15 10 14 309.962 298.585 25.926 49.161 o
15 10 15 218.380 171.593 24.827 74.928 o
15 10 16 105.138 188.510 27.903 108.298 o
15 10 17 388.252 491.929 24.827 35.023 o
15 10 18 8.662 -39.987 25.926 648.438 o
15 10 19 1.833 2.417 25.926 751.089 o
15 10 20 94.527 56.245 24.168 172.914 o
15 10 21 11.378 -37.570 52.071 187.322 o
15 11 0 790.590 841.926 50.094 15.765 o
15 11 1 271.777 393.939 29.002 47.430 o
15 11 2 1624.940 1907.300 65.254 6.036 o
15 11 3 9.265 -19.994 20.653 892.957 o
15 11 4 192.512 161.267 21.751 85.030 o
15 11 5 318.446 367.354 25.926 44.792 o
15 11 6 1768.520 1634.200 42.404 6.180 o
15 11 7 269.874 253.105 25.926 57.160 o
15 11 8 1120.650 1073.940 38.669 11.097 o
15 11 9 344.832 329.344 20.653 44.993 o
15 11 10 5.565 140.174 24.168 253.826 o
15 11 11 557.641 681.758 41.745 22.612 o
15 11 12 96.307 157.751 24.827 125.774 o
15 11 13 26.759 27.903 25.486 368.432 o
15 11 14 34.069 107.657 26.585 215.594 o
15 11 15 783.740 747.451 33.176 17.340 o
15 11 16 70.332 64.155 21.092 211.323 o
15 11 17 254.894 171.593 27.244 65.975 o
15 11 18 371.405 469.518 29.002 36.246 o
15 11 19 108.288 111.173 27.244 129.526 o
15 11 20 27.633 4.834 31.418 342.453 o
15 12 0 11.331 6.152 29.661 468.534 o
15 12 1 86.002 60.420 24.168 180.887 o
15 12 2 1715.210 1588.060 40.426 6.449 o
15 12 3 92.129 158.850 22.410 131.637 o
15 12 4 327.072 458.753 25.486 40.244 o
15 12 5 30.570 39.328 24.168 337.871 o
15 12 6 266.105 261.014 25.926 57.133 o
15 12 7 1313.560 1553.780 52.071 8.096 o
15 12 8 455.605 503.354 25.926 30.966 o
15 12 9 6.795 -29.661 23.509 796.399 o
15 12 10 14.316 7.250 24.827 558.527 o
15 12 11 620.020 663.522 27.903 22.035 o
15 12 12 1230.590 995.942 33.176 10.607 o
15 12 13 175.343 161.926 25.926 87.650 o
15 12 14 22.265 4.174 23.070 531.883 o
15 12 15 203.443 178.184 25.926 77.234 o
15 12 16 565.864 523.347 30.320 25.677 o
15 12 17 4.643 -18.236 26.585 687.702 o
15 12 18 9.761 36.911 27.903 404.395 o
15 12 19 69.513 63.496 29.002 185.022 o
15 13 0 1709.070 2286.730 68.989 5.247 o
15 13 1 1427.040 1658.800 37.570 7.460 o
15 13 2 232.381 199.935 23.070 69.382 o
15 13 3 558.241 595.192 33.835 24.478 o
15 13 4 69.508 111.832 21.092 177.269 o
15 13 5 542.931 452.601 25.486 28.237 o
15 13 6 209.835 177.745 25.926 75.688 o
15 13 7 1737.520 2054.060 51.412 5.590 o
15 13 8 473.420 461.609 25.486 31.155 o
15 13 9 34.499 45.919 24.168 308.922 o
15 13 10 73.139 81.073 28.343 171.669 o
15 13 11 406.412 288.918 26.585 40.509 o
15 13 12 810.813 855.108 42.404 15.685 o
15 13 13 3501.360 3231.920 71.845 2.257 o
15 13 14 31.227 16.918 24.168 391.152 o
15 13 15 7.795 -67.670 24.168 740.682 o
15 13 16 17.705 16.259 24.827 478.763 o
15 13 17 353.411 272.000 27.244 45.744 o
15 13 18 52.822 28.343 26.585 261.320 o
15 13 19 204.049 173.351 29.002 75.894 o
15 14 0 1131.760 1101.620 59.761 10.462 o
15 14 1 1636.600 1651.550 46.578 6.574 o
15 14 2 2367.070 2649.250 87.005 3.599 o
15 14 3 1747.970 1936.300 64.155 5.640 o
15 14 4 422.594 459.192 25.926 33.852 o
15 14 5 702.565 627.929 27.903 20.416 o
15 14 6 0.804 -7.250 27.244 727.471 o
15 14 7 2623.580 3104.930 68.330 3.067 o
15 14 8 10.157 35.154 23.070 497.966 o
15 14 9 540.554 728.775 31.418 23.146 o
15 14 10 2316.530 2652.330 59.761 3.767 o
15 14 11 1920.540 2208.740 53.829 4.925 o
15 14 12 1191.390 1294.530 44.161 9.655 o
15 14 13 869.910 689.447 31.418 16.432 o
15 14 14 459.571 362.520 27.903 34.279 o
15 14 15 947.450 743.935 34.494 14.793 o
15 14 16 191.430 118.423 26.585 89.021 o
15 14 17 653.058 675.606 32.737 20.800 o
15 14 18 140.405 120.181 24.827 111.294 o
15 15 0 222.701 198.178 32.737 66.972 o
15 15 1 224.241 172.252 26.585 72.587 o
15 15 2 26.701 27.244 21.751 420.203 o
15 15 3 1099.780 1426.130 38.669 9.910 o
15 15 4 1.642 -67.670 24.168 893.248 o
15 15 5 943.115 1149.520 56.905 11.913 o
15 15 6 592.973 669.014 29.002 22.643 o
15 15 7 1048.810 1274.530 53.829 10.570 o
15 15 8 356.788 496.762 33.176 35.700 o
15 15 9 53.995 152.918 24.168 164.115 o
15 15 10 2531.410 2713.410 64.155 3.416 o
15 15 11 534.136 625.512 28.343 25.152 o
15 15 12 267.832 211.580 24.827 61.056 o
15 15 13 61.917 56.905 29.661 198.089 o
15 15 14 750.438 604.420 29.002 19.555 o
15 15 15 1081.010 907.179 37.570 12.235 o
15 15 16 317.308 265.848 27.244 49.863 o
15 15 17 9.007 33.835 25.486 464.635 o
15 16 0 475.812 519.173 46.578 27.448 o
15 16 1 136.295 83.490 22.410 127.224 o
15 16 2 643.068 643.089 25.486 21.808 o
15 16 3 1410.330 1469.200 38.010 7.975 o
15 16 4 342.775 358.346 25.486 43.078 o
15 16 5 1880.630 1961.120 64.594 5.255 o
15 16 6 202.090 134.242 24.827 84.365 o
15 16 7 3709.220 3772.850 73.163 1.966 o
15 16 8 879.242 1130.180 33.176 13.279 o
15 16 9 30.141 38.010 20.653 379.853 o
15 16 10 117.132 132.265 29.661 114.196 o
15 16 11 3038.390 2788.330 56.905 2.829 o
15 16 12 33.813 53.829 29.002 261.206 o
15 16 13 1876.080 1794.150 47.237 5.589 o
15 16 14 399.007 432.168 27.244 35.914 o
15 16 15 367.248 249.590 27.244 45.490 o
15 16 16 21.299 71.406 29.661 266.306 o
15 17 0 33.777 94.255 30.320 210.484 o
15 17 1 69.880 139.515 23.070 157.093 o
15 17 2 62.338 70.746 23.070 212.498 o
15 17 3 1100.240 1571.140 50.094 9.262 o
15 17 4 69.184 54.927 21.092 221.924 o
15 17 5 3236.520 3894.780 90.740 2.186 o
15 17 6 30.788 41.745 23.509 338.126 o
15 17 7 531.637 432.168 30.759 28.698 o
15 17 8 431.871 502.255 27.903 31.984 o
15 17 9 849.435 1010.440 46.578 13.973 o
15 17 10 65.907 70.746 26.585 193.718 o
15 17 11 381.085 386.249 22.410 39.322 o
15 17 12 720.667 691.864 27.903 19.298 o
15 17 13 194.988 208.504 25.486 75.791 o
15 17 14 365.363 331.761 27.903 41.866 o
15 17 15 237.178 223.664 25.926 64.958 o
15 18 0 790.466 805.014 42.404 16.384 o
15 18 1 4.605 7.250 24.168 731.812 o
15 18 2 964.774 858.184 32.737 13.881 o
15 18 3 904.356 1183.790 37.570 12.623 o
15 18 4 1956.520 1654.630 47.237 5.560 o
15 18 5 117.390 250.688 25.486 92.611 o
15 18 6 1773.240 1869.290 74.262 5.583 o
15 18 7 1273.720 729.434 50.753 11.017 o
15 18 8 115.703 159.509 24.168 114.680 o
15 18 9 464.549 496.103 28.343 30.488 o
15 18 10 757.619 698.675 29.002 18.432 o
15 18 11 221.789 261.674 26.585 64.037 o
15 18 12 490.551 667.257 39.328 25.059 o
15 18 13 194.167 181.260 28.343 77.794 o
15 18 14 202.428 182.578 26.585 76.564 o
15 19 0 684.694 615.845 39.987 20.354 o
15 19 1 2163.510 2098.220 59.322 4.504 o
15 19 2 95.895 85.906 21.751 160.589 o
15 19 3 2226.560 2181.710 47.677 4.348 o
15 19 4 17.436 36.911 23.070 431.405 o
15 19 5 287.391 427.774 21.751 45.609 o
15 19 6 55.297 39.328 21.751 269.406 o
15 19 7 792.295 708.342 29.661 17.660 o
15 19 8 349.847 374.165 26.585 41.624 o
15 19 9 443.262 458.094 25.926 32.745 o
15 19 10 402.718 340.769 30.759 38.194 o
15 19 11 1165.120 1221.360 42.404 10.117 o
15 19 12 101.506 111.173 26.585 135.457 o
15 19 13 579.314 473.693 42.843 24.996 o
15 20 0 968.845 832.698 58.003 13.219 o
15 20 1 95.888 136.659 19.994 140.570 o
15 20 2 394.624 312.426 26.585 40.511 o
15 20 3 2000.100 1981.560 44.821 5.044 o
15 20 4 11.883 13.402 23.070 601.634 o
15 20 5 1.717 -28.343 22.410 1026.670 o
15 20 6 29.558 48.995 21.751 344.204 o
15 20 7 1305.600 1119.860 36.911 9.576 o
15 20 8 730.066 719.108 42.843 18.164 o
15 20 9 108.968 83.929 23.509 145.870 o
15 20 10 170.707 216.853 30.759 77.688 o
15 20 11 74.705 85.247 24.168 179.454 o
15 21 0 1542.030 1672.210 90.081 6.412 o
15 21 1 184.281 225.422 24.168 77.047 o
15 21 2 309.263 224.762 22.410 54.583 o
15 21 3 628.637 801.938 30.759 19.991 o
15 21 4 205.420 247.173 23.509 69.907 o
15 21 5 175.933 199.496 25.926 81.774 o
15 21 6 939.438 1034.610 39.328 13.002 o
15 21 7 511.577 534.772 36.911 26.875 o
15 21 8 603.252 409.758 29.002 26.466 o
15 21 9 161.876 219.929 24.168 83.990 o
15 22 1 689.528 694.940 31.418 19.796 o
15 22 2 48.299 103.922 24.168 204.087 o
15 22 3 235.986 284.743 23.509 60.705 o
15 22 4 166.245 151.160 23.070 94.812 o
15 22 5 1420.050 1095.690 58.003 8.657 o
15 22 6 266.080 150.501 29.002 65.085 o
16 0 0 559.118 635.838 41.745 23.219 o
16 0 1 18.345 9.008 31.418 377.735 o
16 0 2 120.027 233.771 27.903 92.695 o
16 0 3 2104.710 2041.320 74.921 4.599 o
16 0 4 829.762 1205.100 38.669 13.289 o
16 0 5 1746.630 1886.640 67.011 5.692 o
16 0 6 1378.260 1558.620 53.170 7.759 o
16 0 7 2591.470 2987.170 94.914 3.091 o
16 0 8 832.803 1080.530 43.502 13.847 o
16 0 9 2329.950 2953.990 92.498 3.425 o
16 0 10 825.519 1740.980 68.989 10.136 o
16 0 11 709.111 934.203 35.593 16.927 o
16 0 12 1331.890 1351.870 68.989 8.264 o
16 0 13 49.471 91.838 27.244 200.182 o
16 0 15 2080.810 2048.570 85.247 4.577 o
16 0 16 129.733 108.097 31.418 111.452 o
16 0 17 1691.090 1339.130 58.662 6.846 o
16 0 18 99.023 90.081 33.835 130.675 o
16 0 19 12.938 -21.092 47.237 220.872 o
16 0 20 225.701 155.334 33.176 70.479 o
16 0 22 148.990 235.089 36.252 76.899 o
16 1 0 141.744 168.078 24.827 99.696 o
16 1 1 16.109 74.921 15.819 402.762 o
16 1 2 562.068 582.010 27.244 25.015 o
16 1 3 322.760 464.685 24.168 40.543 o
16 1 4 1039.080 1268.380 38.010 10.978 o
16 1 5 8.605 13.402 16.259 949.375 o
16 1 6 77.979 83.490 16.259 196.540 o
16 1 7 22.750 15.819 16.918 597.529 o
16 1 8 42.066 65.254 23.509 260.039 o
16 1 9 920.744 834.016 29.002 14.683 o
16 1 10 1232.470 1292.550 37.570 9.481 o
16 1 11 61.742 112.491 19.334 191.659 o
16 1 12 456.923 274.417 30.759 36.770 o
16 1 13 257.093 242.339 20.653 61.575 o
16 1 14 118.557 68.330 18.675 152.486 o
16 1 15 193.304 224.762 21.092 76.333 o
16 1 16 1452.590 1323.530 47.677 8.029 o
16 1 17 42.075 33.176 21.751 324.431 o
16 1 18 22.429 58.662 21.751 354.963 o
16 1 19 29.273 26.585 23.509 383.220 o
16 1 20 286.707 240.582 25.486 55.780 o
16 1 21 6.430 12.743 21.751 747.805 o
16 1 22 18.671 21.751 31.418 344.708 o
16 2 0 80.955 83.929 23.070 175.441 o
16 2 1 1785.650 1574.220 35.593 6.260 o
16 2 2 937.762 1035.270 28.343 13.249 o
16 2 3 1927.980 2240.810 55.586 4.864 o
16 2 4 971.885 1019.450 30.759 12.915 o
16 2 5 125.592 76.239 21.092 139.369 o
16 2 6 2136.530 2270.470 45.260 4.442 o
16 2 7 2462.090 3407.690 71.406 3.071 o
16 2 8 1349.530 1652.870 44.161 7.769 o
16 2 9 470.598 385.590 19.334 33.836 o
16 2 10 57.808 53.829 16.259 269.318 o
16 2 11 1051.690 1307.050 32.078 10.807 o
16 2 12 909.979 1663.200 64.594 9.926 o
16 2 13 641.764 640.013 32.737 21.522 o
16 2 14 267.212 322.094 27.903 52.300 o
16 2 15 93.636 176.426 27.903 117.428 o
16 2 16 397.777 270.682 25.486 42.122 o
16 2 17 1968.130 1535.550 56.905 5.636 o
16 2 18 186.215 101.506 33.176 87.921 o
16 2 19 19.274 56.245 24.168 350.747 o
16 2 20 27.235 19.334 23.509 417.786 o
16 2 21 620.413 429.092 30.759 25.390 o
16 2 22 373.612 364.498 36.911 38.297 o
16 3 0 7.526 43.502 24.168 462.808 o
16 3 1 721.325 615.186 25.926 20.207 o
16 3 2 1625.870 1530.710 34.494 6.921 o
16 3 3 841.903 560.258 25.486 18.254 o
16 3 4 87.761 150.501 17.577 144.914 o
16 3 5 6.541 71.845 17.577 462.093 o
16 3 6 869.247 812.265 32.078 15.479 o
16 3 7 2154.290 1827.540 56.245 4.818 o
16 3 8 2412.740 2509.080 47.677 3.763 o
16 3 9 10.474 3.076 23.070 706.930 o
16 3 10 5073.250 5876.560 170.494 1.057 o
16 3 11 23.213 59.761 16.918 395.297 o
16 3 12 1874.150 1814.140 44.161 5.583 o
16 3 13 6.033 31.418 18.236 704.348 o
16 3 14 207.123 122.158 26.585 83.513 o
16 3 15 1645.240 1794.150 43.502 6.317 o
16 3 16 24.159 38.010 19.994 424.577 o
16 3 17 506.757 349.338 27.903 32.065 o
16 3 18 1243.710 907.179 45.919 10.645 o
16 3 19 33.084 23.070 24.168 364.319 o
16 3 20 100.099 67.670 23.509 161.942 o
16 3 21 948.825 951.780 56.245 12.855 o
16 3 22 235.845 308.252 52.071 47.846 o
16 4 0 9995.800 10865.700 228.498 0.348 o
16 4 1 4291.980 4580.720 71.406 1.524 o
16 4 2 987.744 1113.270 29.661 12.283 o
16 4 3 4432.140 4293.780 87.005 1.514 o
16 4 4 8832.050 10320.600 174.010 0.418 o
16 4 5 497.373 557.182 35.593 27.114 o
16 4 6 919.228 1169.290 33.835 12.620 o
16 4 7 1642.840 1774.370 42.843 6.363 o
16 4 8 1367.700 1338.030 39.987 8.515 o
16 4 9 1063.680 1084.700 38.669 11.543 o
16 4 10 3725.160 3975.200 78.656 1.898 o
16 4 11 126.877 59.322 18.236 149.651 o
16 4 12 31.244 62.837 19.994 322.224 o
16 4 13 14.793 10.986 21.751 617.525 o
16 4 14 2435.730 2462.720 67.670 3.705 o
16 4 15 986.358 904.103 29.661 13.418 o
16 4 16 336.172 325.829 27.244 44.821 o
16 4 17 1169.060 1009.780 30.759 11.082 o
16 4 18 1250.540 929.370 33.176 10.712 o
16 4 19 751.112 573.002 30.759 19.812 o
16 4 20 1515.330 1025.600 50.094 8.443 o
16 4 21 1361.580 1206.860 42.843 8.886 o
16 5 0 407.700 455.018 37.570 33.287 o
16 5 1 946.866 797.764 52.071 13.891 o
16 5 2 5277.250 5667.400 129.409 1.061 o
16 5 3 3237.390 2901.260 56.905 2.600 o
16 5 4 630.141 813.363 25.486 20.043 o
16 5 5 1127.510 1252.120 37.570 10.354 o
16 5 6 2469.720 2593.230 50.753 3.613 o
16 5 7 1723.360 1745.810 38.669 6.166 o
16 5 8 75.040 79.754 18.236 199.147 o
16 5 9 64.328 62.178 25.486 207.099 o
16 5 10 2279.330 2023.300 41.086 4.418 o
16 5 11 942.397 777.111 27.244 14.814 o
16 5 12 287.836 333.519 21.751 50.589 o
16 5 13 37.418 30.759 16.259 403.425 o
16 5 14 1119.240 1095.030 38.669 11.020 o
16 5 15 288.589 186.753 25.926 59.348 o
16 5 16 2047.140 1907.300 53.829 4.980 o
16 5 17 724.140 606.178 31.418 20.015 o
16 5 18 288.112 241.680 26.585 55.191 o
16 5 19 10.686 1.318 24.827 648.517 o
16 5 20 658.781 535.431 29.002 22.670 o
16 5 21 1141.970 1037.030 36.911 11.102 o
16 6 0 539.395 569.266 46.578 24.375 o
16 6 1 595.173 743.935 30.759 21.490 o
16 6 2 3686.630 4619.390 117.764 1.718 o
16 6 3 586.584 537.189 29.661 24.791 o
16 6 4 891.797 660.446 26.585 16.449 o
16 6 5 17.139 67.011 23.070 347.047 o
16 6 6 3535.000 3236.100 70.746 2.235 o
16 6 7 1403.440 1118.100 31.418 9.024 o
16 6 8 1921.870 2036.480 47.237 5.155 o
16 6 9 718.772 683.515 29.002 19.385 o
16 6 10 25.454 47.237 18.236 406.581 o
16 6 11 12.811 27.903 20.653 561.808 o
16 6 12 1735.520 1562.790 40.426 6.423 o
16 6 13 8.834 17.577 21.092 681.343 o
16 6 14 62.856 48.995 19.994 246.248 o
16 6 15 78.229 102.824 19.994 174.611 o
16 6 16 1085.560 1038.780 29.661 11.704 o
16 6 17 259.308 201.913 24.827 63.338 o
16 6 18 345.405 268.924 23.070 47.534 o
16 6 19 323.614 146.766 33.835 54.418 o
16 6 20 429.375 475.670 27.244 32.882 o
16 6 21 74.734 113.590 21.092 169.954 o
16 7 0 291.153 277.493 29.002 51.791 o
16 7 1 11.785 15.819 23.070 586.836 o
16 7 2 1850.840 2184.570 52.071 5.125 o
16 7 3 24.081 43.502 15.160 465.232 o
16 7 4 140.859 122.598 24.827 110.454 o
16 7 5 17.562 67.670 23.070 343.606 o
16 7 6 986.347 1097.450 28.343 12.398 o
16 7 7 2348.100 2351.330 51.412 3.977 o
16 7 8 507.087 649.680 31.418 25.445 o
16 7 9 51.569 54.488 24.827 242.663 o
16 7 10 2226.810 2335.070 48.995 4.203 o
16 7 11 3.062 36.252 17.577 737.450 o
16 7 12 1041.730 1021.870 36.252 12.085 o
16 7 13 430.054 367.354 30.320 35.588 o
16 7 14 3.041 -4.834 25.486 774.912 o
16 7 15 1.945 -29.002 24.168 884.288 o
16 7 16 65.978 50.094 23.070 225.011 o
16 7 17 227.317 203.011 21.751 70.659 o
16 7 18 1866.500 1807.550 41.745 5.625 o
16 7 19 43.276 48.995 25.486 266.434 o
16 7 20 113.364 68.989 24.168 147.299 o
16 7 21 60.817 88.763 36.252 155.847 o
16 8 0 4729.400 4724.630 116.006 1.324 o
16 8 1 80.536 106.339 23.509 162.182 o
16 8 2 627.269 824.349 30.320 19.790 o
16 8 3 12.269 30.320 21.092 543.943 o
16 8 4 2993.890 2846.330 53.170 2.850 o
16 8 5 1.340 12.743 19.994 987.139 o
16 8 6 1332.340 1327.700 38.010 8.762 o
16 8 7 445.652 355.929 28.343 35.246 o
16 8 8 2398.740 2219.060 48.336 4.011 o
16 8 9 140.173 152.258 18.675 109.260 o
16 8 10 228.640 147.425 24.168 75.705 o
16 8 11 243.604 352.414 23.070 54.668 o
16 8 12 311.986 392.840 25.486 44.290 o
16 8 13 194.821 141.932 22.410 86.945 o
16 8 14 2332.230 2049.890 50.753 4.264 o
16 8 15 67.993 94.255 24.827 180.386 o
16 8 16 603.225 595.192 30.320 23.333 o
16 8 17 294.698 250.688 28.343 53.209 o
16 8 18 281.815 224.762 26.585 57.282 o
16 8 19 157.763 83.490 24.827 111.798 o
16 8 20 721.086 661.105 32.078 19.447 o
16 9 0 3025.560 3509.850 105.680 2.436 o
16 9 1 1310.970 1469.630 39.987 8.466 o
16 9 2 1925.130 2078.230 44.821 5.107 o
16 9 3 568.285 604.420 25.486 24.547 o
16 9 4 3072.800 2848.090 62.178 2.760 o
16 9 5 483.656 501.596 29.661 29.371 o
16 9 6 3.735 7.250 23.070 806.584 o
16 9 7 452.817 467.761 27.244 31.863 o
16 9 8 1530.140 1750.640 42.843 6.811 o
16 9 9 839.127 984.517 35.593 14.602 o
16 9 10 247.146 185.435 25.486 66.875 o
16 9 11 217.848 184.336 23.070 74.376 o
16 9 12 94.734 130.507 24.168 137.420 o
16 9 13 284.497 451.502 34.494 42.295 o
16 9 14 1325.870 1261.790 38.669 8.984 o
16 9 15 691.809 699.115 32.737 19.640 o
16 9 16 66.739 69.428 28.343 187.132 o
16 9 17 578.437 420.523 29.002 27.196 o
16 9 18 16.971 27.244 25.926 421.919 o
16 9 19 136.303 119.741 26.585 111.464 o
16 9 20 81.765 91.838 23.070 169.804 o
16 10 0 535.739 874.443 45.919 20.425 o
16 10 1 506.061 455.018 27.244 29.627 o
16 10 2 1936.850 2180.390 59.322 4.893 o
16 10 3 2689.240 3140.080 75.580 2.963 o
16 10 4 820.356 720.426 30.320 17.034 o
16 10 5 35.679 8.569 23.070 404.345 o
16 10 6 376.586 382.514 25.926 39.318 o
16 10 7 438.389 329.344 25.486 36.912 o
16 10 8 57.974 71.406 20.653 229.543 o
16 10 9 230.572 238.604 23.070 65.881 o
16 10 10 133.812 74.921 23.070 130.898 o
16 10 11 536.939 478.527 25.486 27.952 o
16 10 12 639.947 664.181 31.418 21.332 o
16 10 13 65.424 99.748 30.759 162.654 o
16 10 14 288.173 286.501 27.903 51.910 o
16 10 15 695.629 656.271 30.320 20.143 o
16 10 16 236.587 204.769 29.002 65.525 o
16 10 17 835.331 680.439 32.078 17.062 o
16 10 18 88.956 107.657 28.343 143.212 o
16 10 19 22.175 20.653 28.343 373.106 o
16 11 0 1041.720 1246.190 51.412 10.789 o
16 11 1 19.203 54.927 18.675 417.215 o
16 11 2 4515.760 4905.230 90.740 1.380 o
16 11 3 196.859 171.593 21.751 82.202 o
16 11 4 1839.870 1906.640 43.502 5.553 o
16 11 5 371.196 314.184 25.926 42.457 o
16 11 6 255.441 322.753 24.827 54.616 o
16 11 7 80.320 87.005 22.410 176.012 o
16 11 8 8.218 -3.076 23.509 763.901 o
16 11 9 316.248 273.098 25.926 49.887 o
16 11 10 386.619 444.252 30.320 35.899 o
16 11 11 3.591 -19.334 24.168 838.592 o
16 11 12 1756.930 1740.540 51.412 5.992 o
16 11 13 938.862 1128.210 38.669 12.530 o
16 11 14 586.469 488.853 29.661 25.608 o
16 11 15 34.299 53.829 22.410 309.285 o
16 11 16 1337.750 1328.800 46.578 8.629 o
16 11 17 144.799 142.591 25.926 102.779 o
16 11 18 570.409 458.753 32.737 26.479 o
16 11 19 144.590 82.830 33.835 106.965 o
16 12 0 74.160 191.586 37.570 108.945 o
16 12 1 2297.460 2565.320 62.837 3.851 o
16 12 2 2146.480 2183.470 52.511 4.482 o
16 12 3 523.282 427.774 28.343 29.371 o
16 12 4 35.312 26.585 25.486 331.580 o
16 12 5 2728.960 2924.330 73.163 3.040 o
16 12 6 1363.590 1731.970 46.578 7.502 o
16 12 7 977.610 1087.780 44.821 12.202 o
16 12 8 395.865 544.000 28.343 32.728 o
16 12 9 34.444 47.677 24.168 305.929 o
16 12 10 705.903 735.367 35.593 18.831 o
16 12 11 125.997 181.919 22.410 105.736 o
16 12 12 1623.820 2047.470 53.829 5.913 o
16 12 13 1329.660 1443.050 44.821 8.384 o
16 12 14 543.111 536.750 30.320 26.245 o
16 12 15 716.978 516.756 31.418 21.249 o
16 12 16 692.046 649.680 32.078 20.220 o
16 12 17 398.818 270.242 29.661 41.328 o
16 12 18 162.176 206.746 27.903 83.389 o
16 13 0 11.000 166.759 43.502 142.054 o
16 13 1 1956.040 2072.740 57.344 4.982 o
16 13 2 1339.120 1637.050 58.662 7.693 o
16 13 3 2892.710 3424.170 79.095 2.633 o
16 13 4 308.574 297.926 30.759 48.172 o
16 13 5 438.865 495.005 32.078 31.360 o
16 13 6 754.356 760.853 34.494 17.698 o
16 13 7 288.803 306.934 32.078 49.478 o
16 13 8 7.222 61.079 25.486 384.353 o
16 13 9 911.446 1021.870 39.987 13.368 o
16 13 10 591.687 575.858 32.078 23.858 o
16 13 11 2243.850 2297.720 54.927 4.187 o
16 13 12 183.444 223.664 25.926 76.540 o
16 13 13 672.176 748.110 32.737 19.535 o
16 13 14 5.966 -13.402 25.926 693.962 o
16 13 15 1244.770 1148.200 47.237 9.740 o
16 13 16 1.876 -4.834 27.903 675.402 o
16 13 17 247.736 198.837 29.002 64.023 o
16 14 1 97.885 110.074 24.827 141.827 o
16 14 2 1305.860 1409.210 44.161 8.612 o
16 14 3 35.320 21.751 25.926 337.311 o
16 14 4 456.595 651.438 42.404 26.197 o
16 14 5 369.240 415.250 33.176 37.533 o
16 14 6 86.232 137.099 25.486 139.165 o
16 14 7 1376.810 1545.870 62.837 7.674 o
16 14 8 222.794 212.678 25.926 68.839 o
16 14 9 121.512 153.577 24.827 112.422 o
16 14 10 75.162 157.751 25.926 138.952 o
16 14 11 19.494 -10.326 25.486 523.815 o
16 14 12 30.907 26.585 27.903 324.557 o
16 14 13 30.379 37.570 25.926 324.861 o
16 14 14 379.215 376.582 31.418 38.479 o
16 14 15 226.799 188.510 28.343 69.379 o
16 14 16 508.732 486.436 31.418 28.460 o
16 14 17 52.674 112.931 70.087 76.396 o
16 15 0 1227.000 1185.110 53.829 9.622 o
16 15 1 258.918 371.089 25.486 50.959 o
16 15 2 99.674 127.431 25.486 132.750 o
16 15 3 82.209 155.334 25.486 135.298 o
16 15 4 119.917 227.179 25.486 96.041 o
16 15 5 735.006 881.693 32.737 17.035 o
16 15 6 30.811 38.010 26.585 315.866 o
16 15 7 604.632 571.683 27.903 23.784 o
16 15 8 60.003 100.407 23.509 191.050 o
16 15 9 1297.700 992.866 33.176 10.114 o
16 15 10 37.142 81.512 25.486 241.227 o
16 15 11 1230.960 1158.530 38.010 9.937 o
16 15 12 7.083 13.402 28.343 507.008 o
16 15 13 121.370 114.249 39.328 102.347 o
16 15 14 71.704 54.927 28.343 190.327 o
16 15 15 1023.530 865.434 36.911 13.064 o
16 15 16 170.362 131.826 47.237 74.664 o
16 16 0 4807.240 5244.240 138.417 1.215 o
16 16 1 915.985 1067.790 48.995 12.818 o
16 16 2 175.114 189.829 24.827 84.119 o
16 16 3 626.627 745.693 36.911 20.373 o
16 16 4 917.334 949.363 38.669 13.757 o
16 16 5 4293.020 4933.790 106.339 1.436 o
16 16 6 1.799 -21.751 25.486 803.868 o
16 16 7 465.879 542.682 36.252 28.591 o
16 16 8 83.153 144.349 24.827 139.906 o
16 16 9 2280.770 2196.210 47.677 4.235 o
16 16 10 366.029 447.108 30.320 37.137 o
16 16 11 568.673 405.583 28.343 27.926 o
16 16 12 120.491 153.577 26.585 110.903 o
16 16 13 928.195 923.438 35.154 13.872 o
16 16 14 187.140 302.759 27.244 66.390 o
16 16 15 1686.910 1699.890 74.262 6.082 o
16 17 0 54.180 101.506 31.418 172.011 o
16 17 1 121.154 129.848 23.070 121.329 o
16 17 2 187.147 180.601 25.926 81.275 o
16 17 3 13.439 50.094 23.509 407.520 o
16 17 4 838.620 884.110 37.570 15.239 o
16 17 5 157.818 102.165 25.486 106.480 o
16 17 6 50.748 59.761 22.410 250.961 o
16 17 7 471.641 729.434 45.260 24.122 o
16 17 8 406.670 372.846 29.002 37.099 o
16 17 9 4.814 21.092 24.827 590.638 o
16 17 10 1.999 -30.320 24.827 839.364 o
16 17 11 246.025 216.414 25.926 64.005 o
16 17 12 584.327 622.436 35.154 23.177 o
16 17 13 158.140 136.659 25.926 98.425 o
16 17 14 73.296 87.005 58.662 93.220 o
16 18 0 290.239 269.583 46.578 46.524 o
16 18 1 64.630 81.073 25.926 190.398 o
16 18 2 1234.480 1119.860 36.252 10.073 o
16 18 3 172.827 180.162 23.509 87.176 o
16 18 4 112.264 90.740 23.509 140.348 o
16 18 5 73.564 96.672 24.827 172.058 o
16 18 6 6.546 26.585 22.410 604.152 o
16 18 7 40.215 64.594 21.092 280.441 o
16 18 8 182.304 172.252 25.926 83.884 o
16 18 9 53.685 26.585 23.070 284.905 o
16 18 10 64.083 70.746 24.168 205.409 o
16 18 11 310.817 257.499 30.759 50.156 o
16 18 12 23.500 29.661 29.002 336.652 o
16 19 0 204.538 136.000 32.078 78.482 o
16 19 1 232.518 299.244 29.002 58.263 o
16 19 2 145.716 119.082 30.320 102.776 o
16 19 3 120.636 155.334 28.343 108.298 o
16 19 4 371.892 387.347 30.320 38.801 o
16 19 5 237.035 224.762 25.486 65.056 o
16 19 6 3.351 -8.569 23.509 887.642 o
16 19 7 468.416 753.602 42.843 24.073 o
16 19 8 0.409 -24.827 27.903 701.398 o
16 19 9 29.878 77.997 30.320 233.396 o
16 19 10 476.594 439.858 33.176 30.744 o
16 19 11 80.061 77.997 29.661 161.903 o
16 20 0 66.393 52.511 49.654 124.844 o
16 20 1 1933.050 1740.980 41.745 5.533 o
16 20 2 83.890 111.173 23.509 156.340 o
16 20 3 1728.080 1582.130 62.837 6.247 o
16 20 4 0.026 -7.250 28.343 686.741 o
16 20 5 3215.660 3298.930 89.422 2.407 o
16 20 6 63.908 42.843 26.585 220.351 o
16 20 7 1175.050 1222.020 45.919 9.987 o
16 20 8 2.811 -10.986 27.903 659.806 o
16 20 9 3011.710 2793.820 98.430 2.760 o
16 21 0 265.073 221.247 43.502 53.242 o
16 21 1 160.422 157.092 28.343 91.585 o
16 21 2 51.540 87.005 27.244 200.729 o
16 21 3 204.734 177.086 26.585 76.675 o
16 21 4 57.230 34.494 29.002 229.372 o
16 21 5 183.871 164.342 31.418 80.706 o
16 21 6 0.231 -23.070 34.494 462.087 o
17 1 0 10.481 16.259 24.827 550.772 o
17 1 1 1700.480 1541.040 33.176 6.627 o
17 1 2 32.473 19.994 18.236 453.087 o
17 1 3 793.102 1000.120 35.154 15.136 o
17 1 4 356.804 449.525 21.092 38.939 o
17 1 5 3750.790 4038.690 94.255 1.852 o
17 1 6 36.329 59.761 24.827 275.273 o
17 1 7 223.260 88.323 19.994 87.835 o
17 1 8 329.301 472.594 23.509 39.825 o
17 1 9 3366.810 3291.680 110.074 2.263 o
17 1 10 2175.280 2163.480 40.426 4.486 o
17 1 11 132.383 41.086 16.259 155.927 o
17 1 12 2180.470 1841.380 43.502 4.799 o
17 1 13 389.389 330.003 21.092 41.018 o
17 1 14 1080.550 988.691 32.078 11.947 o
17 1 15 531.536 226.081 27.903 34.064 o
17 1 16 15.399 23.509 20.653 557.170 o
17 1 17 46.358 121.499 22.410 199.174 o
17 1 18 34.749 44.821 20.653 340.120 o
17 1 19 1757.430 1639.030 51.412 6.150 o
17 1 20 40.328 34.494 24.168 308.496 o
17 1 21 7.819 -15.819 47.237 230.674 o
17 2 0 804.959 809.848 33.835 16.431 o
17 2 1 178.278 170.494 17.577 90.451 o
17 2 2 439.183 582.010 26.585 29.836 o
17 2 3 831.468 833.357 27.903 16.001 o
17 2 4 100.937 196.420 21.092 116.021 o
17 2 5 581.146 726.359 24.827 22.382 o
17 2 6 441.457 378.339 24.168 35.313 o
17 2 7 146.719 152.918 30.759 95.060 o
17 2 8 69.872 46.578 18.675 238.353 o
17 2 9 678.790 962.766 47.237 16.700 o
17 2 10 58.684 83.490 16.918 228.996 o
17 2 11 963.993 1055.700 27.903 12.855 o
17 2 12 58.644 67.011 19.334 238.024 o
17 2 13 191.010 185.435 16.918 84.231 o
17 2 14 267.220 253.105 21.092 58.947 o
17 2 15 64.743 59.322 20.653 228.054 o
17 2 16 84.673 65.913 18.675 193.871 o
17 2 17 199.720 146.326 26.585 82.151 o
17 2 18 12.449 33.835 21.092 523.040 o
17 2 19 294.481 240.582 38.010 50.715 o
17 2 20 0.003 -40.426 29.002 656.265 o
17 3 1 48.995 36.911 23.070 283.431 o
17 3 2 724.637 847.858 27.903 17.679 o
17 3 3 773.601 759.095 23.509 17.723 o
17 3 4 51.265 16.259 19.994 335.845 o
17 3 5 155.622 297.926 19.994 77.093 o
17 3 6 94.897 221.247 19.334 114.252 o
17 3 7 2633.200 2658.920 52.071 3.351 o
17 3 8 738.960 749.428 29.661 18.277 o
17 3 9 986.286 1062.290 31.418 12.526 o
17 3 10 1.190 2.417 20.653 1159.570 o
17 3 11 746.967 668.355 22.410 19.175 o
17 3 12 708.903 612.769 23.509 20.617 o
17 3 13 678.207 526.863 24.168 22.486 o
17 3 14 2.219 -32.078 19.994 1238.920 o
17 3 15 1.992 -7.250 23.070 962.816 o
17 3 16 29.273 48.995 21.092 351.723 o
17 3 17 442.184 292.433 24.168 38.077 o
17 3 18 1104.380 970.455 36.252 11.737 o
17 3 19 48.448 31.418 23.509 290.856 o
17 3 20 5.766 31.418 23.070 564.545 o
17 4 0 4410.680 3789.760 85.247 1.621 o
17 4 1 0.326 -37.570 20.653 1274.080 o
17 4 2 269.206 289.577 36.252 51.423 o
17 4 3 191.415 174.669 24.168 81.969 o
17 4 4 10.155 16.918 15.819 867.672 o
17 4 5 131.770 250.688 25.486 87.703 o
17 4 6 936.928 980.123 35.154 13.434 o
17 4 7 796.640 923.438 50.094 15.094 o
17 4 8 70.367 59.322 18.236 225.475 o
17 4 9 1159.020 1302.880 35.154 9.973 o
17 4 10 287.807 268.265 26.585 53.463 o
17 4 11 198.667 190.927 18.236 80.640 o
17 4 12 685.958 712.517 33.835 19.571 o
17 4 13 118.185 143.910 23.509 118.411 o
17 4 14 78.842 85.247 24.827 172.568 o
17 4 15 43.192 40.426 23.070 296.557 o
17 4 16 100.509 21.092 40.426 138.368 o
17 4 17 234.920 228.498 31.418 62.609 o
17 4 18 514.075 401.189 29.661 30.264 o
17 4 19 100.211 71.406 21.092 165.051 o
17 4 20 222.879 219.270 25.486 68.340 o
17 5 0 484.712 364.937 27.903 32.812 o
17 5 1 2101.900 2060.650 46.578 4.720 o
17 5 2 2292.020 2715.830 57.344 3.763 o
17 5 3 1033.920 1212.790 31.418 11.361 o
17 5 4 540.138 694.940 29.002 23.808 o
17 5 5 169.587 74.921 21.751 111.168 o
17 5 6 654.041 679.341 32.737 20.732 o
17 5 7 11.863 3.076 20.653 784.077 o
17 5 8 493.628 462.268 24.827 30.232 o
17 5 9 998.249 1029.780 36.252 12.477 o
17 5 10 101.580 125.674 21.092 138.817 o
17 5 11 796.455 655.612 26.585 18.177 o
17 5 12 57.437 33.176 25.486 250.300 o
17 5 13 752.668 612.769 25.486 19.548 o
17 5 14 163.328 158.410 26.585 91.801 o
17 5 15 205.833 207.186 23.509 74.312 o
17 5 16 0.870 -26.585 21.751 1124.090 o
17 5 17 306.656 271.341 24.827 51.371 o
17 5 18 211.721 110.514 30.320 81.252 o
17 5 19 482.785 419.425 29.002 31.392 o
17 5 20 24.487 45.260 20.653 391.396 o
17 6 0 197.032 136.000 31.418 80.985 o
17 6 1 1632.210 1730.870 57.344 6.366 o
17 6 2 2611.240 2771.410 55.586 3.301 o
17 6 3 1010.280 974.190 35.154 12.662 o
17 6 4 149.313 150.501 26.585 98.585 o
17 6 5 193.551 148.084 19.994 87.779 o
17 6 6 1215.590 1191.040 39.987 9.904 o
17 6 7 65.576 64.594 21.751 217.145 o
17 6 8 2643.270 2920.150 74.921 3.131 o
17 6 9 59.768 98.430 22.410 196.285 o
17 6 10 536.789 569.926 29.661 25.927 o
17 6 11 350.396 274.417 27.903 45.782 o
17 6 12 490.834 345.163 27.903 33.015 o
17 6 13 511.483 427.774 25.486 30.149 o
17 6 14 63.879 30.759 20.653 263.553 o
17 6 15 264.880 323.412 23.070 53.768 o
17 6 16 323.457 303.418 28.343 46.923 o
17 6 17 48.036 87.005 19.994 236.723 o
17 6 18 422.610 325.829 35.154 36.624 o
17 6 19 475.697 356.588 25.486 33.797 o
17 6 20 6.916 -9.667 26.585 649.626 o
17 7 0 13563.600 14865.700 374.604 0.195 o
17 7 1 10.150 13.402 19.994 737.007 o
17 7 2 409.319 439.858 27.244 35.042 o
17 7 3 31.132 35.154 22.410 363.241 o
17 7 4 4813.030 4660.030 77.338 1.333 o
17 7 5 1620.880 1484.140 48.336 6.932 o
17 7 6 32.285 0.000 25.486 417.807 o
17 7 7 389.378 277.493 25.486 42.544 o
17 7 8 1668.570 1497.540 45.260 6.749 o
17 7 9 483.559 533.014 35.154 28.176 o
17 7 10 63.769 105.241 24.168 180.658 o
17 7 11 85.275 82.830 30.320 152.652 o
17 7 12 1032.520 988.691 34.494 12.373 o
17 7 13 693.883 508.846 32.737 21.871 o
17 7 14 888.062 850.274 38.669 14.756 o
17 7 15 117.784 143.910 23.509 118.642 o
17 7 16 337.040 298.585 27.244 46.045 o
17 7 17 124.824 98.430 23.070 129.003 o
17 7 18 1753.370 1492.040 58.662 6.349 o
17 7 19 173.653 199.496 29.661 79.948 o
17 8 0 690.645 1126.450 64.594 14.494 o
17 8 1 2.510 -8.569 24.168 868.054 o
17 8 2 704.744 632.103 33.835 20.046 o
17 8 3 474.389 553.008 30.320 28.604 o
17 8 4 2891.250 2904.990 68.330 2.894 o
17 8 5 29.908 10.326 21.751 458.763 o
17 8 6 1.427 -13.842 19.994 1286.160 o
17 8 7 89.045 53.170 21.751 188.529 o
17 8 8 53.675 62.178 22.410 241.218 o
17 8 9 1388.210 975.948 30.759 9.575 o
17 8 10 93.061 89.422 23.509 158.023 o
17 8 11 47.682 41.745 21.751 288.697 o
17 8 12 52.397 95.573 23.070 208.209 o
17 8 13 1.121 -20.653 19.334 1390.630 o
17 8 14 670.689 666.598 32.078 20.520 o
17 8 15 27.582 4.174 23.070 480.406 o
17 8 16 101.841 94.914 26.585 141.465 o
17 8 17 684.268 567.509 35.154 21.229 o
17 8 18 122.801 94.255 30.320 120.682 o
17 8 19 1.108 2.417 25.926 766.713 o
17 9 0 45.941 153.577 41.086 128.432 o
17 9 1 85.839 65.913 24.168 177.604 o
17 9 2 1318.420 1597.290 41.745 8.078 o
17 9 3 92.350 97.331 21.092 159.679 o
17 9 4 725.991 738.443 30.320 18.616 o
17 9 5 5.397 -39.328 25.926 704.399 o
17 9 6 1018.160 1150.620 35.593 11.713 o
17 9 7 764.807 1003.850 33.176 15.574 o
17 9 8 11.427 -35.154 23.509 699.484 o
17 9 9 144.031 151.599 29.002 98.131 o
17 9 10 8.395 47.677 26.585 400.783 o
17 9 11 290.570 233.331 28.343 54.895 o
17 9 12 921.878 996.601 36.911 13.471 o
17 9 13 1.516 0.659 25.926 777.219 o
17 9 14 347.767 427.334 31.418 38.914 o
17 9 15 4.325 4.174 25.486 705.808 o
17 9 16 108.940 41.745 28.343 154.682 o
17 9 17 33.549 53.170 25.486 289.137 o
17 9 18 845.884 728.775 34.494 16.403 o
17 10 0 41.412 38.010 36.911 210.046 o
17 10 1 165.909 178.843 23.509 89.674 o
17 10 2 85.403 115.347 25.926 148.000 o
17 10 3 32.682 9.008 22.410 432.338 o
17 10 4 13.563 50.094 19.994 458.388 o
17 10 5 183.660 313.745 23.509 67.535 o
17 10 6 245.370 163.244 23.070 70.522 o
17 10 7 176.611 168.078 25.486 86.571 o
17 10 8 99.257 160.168 25.926 121.641 o
17 10 9 91.162 96.013 25.926 151.506 o
17 10 10 106.000 111.832 23.070 137.725 o
17 10 11 77.338 42.404 24.827 204.462 o
17 10 12 938.762 598.927 32.078 16.038 o
17 10 13 5.521 -38.669 27.903 618.372 o
17 10 14 114.809 86.346 25.486 136.711 o
17 10 15 71.931 28.343 24.827 227.035 o
17 10 16 226.083 199.935 29.002 68.033 o
17 10 17 4.649 6.152 27.244 612.008 o
17 10 18 12.477 13.402 30.320 419.143 o
17 11 0 3720.800 4173.380 114.908 1.808 o
17 11 1 1.720 -39.328 28.343 658.101 o
17 11 2 554.051 408.000 27.244 28.566 o
17 11 3 38.468 29.002 26.585 304.247 o
17 11 4 1186.980 1367.690 47.237 9.400 o
17 11 5 6.566 -22.410 27.244 628.737 o
17 11 6 936.007 904.762 32.078 13.963 o
17 11 7 118.146 79.754 25.486 136.680 o
17 11 8 1130.270 1387.460 47.677 9.698 o
17 11 9 230.856 259.916 25.486 63.002 o
17 11 10 384.290 618.921 31.418 31.073 o
17 11 11 15.246 -16.259 27.244 521.706 o
17 11 12 97.911 88.763 28.343 143.617 o
17 11 13 90.441 42.404 28.343 174.067 o
17 11 14 832.170 827.864 31.418 15.936 o
17 11 15 54.130 47.237 29.002 222.884 o
17 11 16 67.907 109.415 31.418 153.564 o
17 11 17 15.528 4.174 23.070 615.161 o
17 12 0 2590.120 2371.320 126.333 3.311 o
17 12 1 1671.560 1539.280 45.919 6.655 o
17 12 2 181.375 139.076 24.827 90.244 o
17 12 3 82.568 120.840 25.926 148.078 o
17 12 4 4493.990 4706.390 105.241 1.408 o
17 12 5 552.763 609.693 30.320 24.668 o
17 12 6 166.280 165.661 26.585 89.534 o
17 12 7 107.007 143.910 27.903 119.072 o
17 12 8 3.263 -12.743 22.410 969.087 o
17 12 9 13.510 4.834 21.751 687.317 o
17 12 10 45.766 21.092 26.585 292.811 o
17 12 11 1.761 -18.236 29.002 629.109 o
17 12 12 598.978 587.502 32.737 23.421 o
17 12 13 394.381 383.832 30.759 37.289 o
17 12 14 1012.400 820.174 40.426 13.355 o
17 12 15 470.333 513.021 42.404 28.310 o
17 12 16 266.393 203.011 31.418 59.535 o
17 13 0 4291.620 4003.760 136.659 1.573 o
17 13 1 780.498 632.762 31.418 18.540 o
17 13 2 167.746 88.323 30.759 99.474 o
17 13 3 2987.160 2839.080 81.512 2.805 o
17 13 4 1830.840 1982.880 59.761 5.385 o
17 13 5 2061.060 2051.640 52.071 4.796 o
17 13 6 102.499 114.908 28.343 130.333 o
17 13 7 27.952 21.751 24.168 396.223 o
17 13 8 702.950 665.279 31.418 19.828 o
17 13 9 305.887 242.339 27.903 52.449 o
17 13 10 1154.770 1074.600 36.911 10.842 o
17 13 11 462.910 530.598 30.320 29.585 o
17 13 12 21.348 52.071 25.926 332.219 o
17 13 13 15.091 33.835 26.585 402.156 o
17 13 14 1284.290 1241.360 41.745 9.262 o
17 13 15 1689.790 1456.450 51.412 6.697 o
17 13 16 229.328 216.414 37.570 61.607 o
17 14 0 52.992 95.573 38.669 152.186 o
17 14 1 1.293 24.168 28.343 510.979 o
17 14 2 2927.550 3256.750 77.997 2.678 o
17 14 3 39.762 53.170 25.486 270.407 o
17 14 4 71.384 91.838 30.320 161.847 o
17 14 5 18.649 73.822 27.244 289.808 o
17 14 6 596.936 719.108 33.176 21.633 o
17 14 7 13.569 26.585 27.903 412.971 o
17 14 8 437.451 485.338 27.903 32.132 o
17 14 9 243.389 258.598 30.759 59.051 o
17 14 10 1.103 -66.572 30.320 585.971 o
17 14 11 347.232 389.764 28.343 40.908 o
17 14 12 25.753 20.653 28.343 355.079 o
17 14 13 8.460 -4.174 27.244 601.846 o
17 14 14 113.369 117.764 28.343 122.394 o
17 14 15 57.084 85.247 29.661 184.713 o
17 15 0 827.208 701.531 48.336 16.361 o
17 15 1 3747.170 3885.120 96.013 1.890 o
17 15 2 306.308 330.662 28.343 47.284 o
17 15 3 1770.090 1803.370 47.237 5.882 o
17 15 4 409.669 534.333 33.835 31.625 o
17 15 5 291.204 319.677 32.737 48.335 o
17 15 6 152.785 184.336 27.903 89.891 o
17 15 7 3155.020 3240.930 68.989 2.511 o
17 15 8 1179.750 1079.430 40.426 10.569 o
17 15 9 976.481 989.790 38.010 12.875 o
17 15 10 2.448 -25.486 26.585 728.924 o
17 15 11 896.137 912.013 33.835 14.378 o
17 15 12 615.919 621.338 32.737 22.455 o
17 15 13 2986.670 2545.990 59.322 2.998 o
17 15 14 30.985 28.343 29.002 309.507 o
17 16 0 312.510 345.603 38.669 43.413 o
17 16 1 1439.580 1492.700 39.987 7.761 o
17 16 2 0.744 -22.410 32.078 528.594 o
17 16 3 5.523 1.758 24.168 770.505 o
17 16 4 950.402 1027.360 42.404 12.847 o
17 16 5 1492.760 1499.300 53.170 7.380 o
17 16 6 376.629 459.192 29.002 36.242 o
17 16 7 159.835 225.422 29.002 80.634 o
17 16 8 6.130 -18.675 27.244 635.270 o
17 16 9 36.572 3.076 25.486 382.402 o
17 16 10 0.447 0.000 25.926 810.172 o
17 16 11 388.917 401.848 29.661 37.219 o
17 16 12 47.685 56.245 32.737 207.080 o
17 16 13 3.852 -21.751 44.161 271.956 o
17 17 0 391.967 277.932 63.496 33.597 o
17 17 1 157.929 246.514 26.585 79.836 o
17 17 2 1374.200 1326.380 37.570 8.536 o
17 17 3 74.463 72.504 24.168 188.281 o
17 17 4 504.604 413.932 34.494 29.898 o
17 17 5 1023.630 1065.370 36.911 12.037 o
17 17 6 872.722 898.611 39.328 14.618 o
17 17 7 4.193 3.076 24.827 751.205 o
17 17 8 274.967 447.108 26.585 45.004 o
17 17 9 274.742 301.661 28.343 52.511 o
17 17 10 1379.710 1487.210 50.753 7.950 o
17 17 11 163.302 126.333 29.002 95.547 o
17 18 0 435.675 410.417 41.745 32.340 o
17 18 1 214.844 236.187 25.926 68.064 o
17 18 2 143.181 91.838 28.343 112.909 o
17 18 3 2180.960 2180.390 53.170 4.416 o
17 18 4 368.957 446.010 27.244 37.423 o
17 18 5 604.680 671.431 32.737 22.081 o
17 18 6 8.794 -4.174 24.168 720.662 o
17 18 7 2123.190 1990.570 55.586 4.712 o
17 18 8 126.230 90.081 27.903 123.674 o
17 18 9 1272.970 1659.460 55.586 7.991 o
17 18 10 224.651 237.506 46.578 55.986 o
17 19 0 297.087 196.420 43.502 50.878 o
17 19 1 448.131 413.932 31.418 33.053 o
17 19 2 926.425 691.864 54.488 14.720 o
17 19 3 32.961 86.346 32.078 209.893 o
17 19 4 891.627 784.362 36.252 15.235 o
17 19 5 75.814 87.664 28.343 164.982 o
17 19 6 1012.720 970.455 39.328 12.566 o
17 19 7 1.899 12.743 28.343 566.545 o
17 19 8 1685.740 1553.120 66.572 6.402 o
17 20 0 4.911 -94.914 83.929 77.254 o
17 20 1 2895.100 2834.910 91.179 2.870 o
17 20 2 28.921 20.653 28.343 340.491 o
17 20 3 71.360 85.247 32.078 160.099 o
17 20 4 124.737 161.267 29.661 103.488 o
17 20 5 733.212 885.428 66.572 15.433 o
18 0 1 1448.790 1803.370 75.580 6.695 o
18 0 2 3.458 -15.819 27.903 649.424 o
18 0 3 85.338 38.669 34.494 162.059 o
18 0 4 1348.020 1653.530 64.155 7.545 o
18 0 5 4616.850 5733.310 161.926 1.183 o
18 0 6 28.252 39.328 42.404 197.234 o
18 0 7 327.837 147.425 33.835 53.821 o
18 0 9 3592.960 4795.370 138.417 1.692 o
18 0 10 980.054 963.205 59.322 12.376 o
18 0 11 673.609 1002.530 60.420 15.793 o
18 0 12 908.162 1059.880 48.336 12.963 o
18 0 13 1388.340 957.273 44.821 9.460 o
18 0 14 1.522 -15.160 25.926 784.611 o
18 0 15 2127.280 2092.070 97.990 4.362 o
18 0 16 5.842 -34.494 24.168 783.174 o
18 0 17 46.284 96.013 28.343 197.510 o
18 0 18 225.248 148.084 36.252 69.443 o
18 0 19 813.278 626.171 68.989 16.005 o
18 1 0 1508.590 1659.460 77.997 6.709 o
18 1 1 176.123 173.351 19.994 89.370 o
18 1 2 108.567 174.669 21.092 117.842 o
18 1 3 2505.210 2448.660 68.330 3.615 o
18 1 4 669.843 752.284 30.759 19.627 o
18 1 5 719.667 813.363 31.418 17.971 o
18 1 6 103.999 61.738 20.653 167.118 o
18 1 7 869.037 846.759 26.585 15.370 o
18 1 8 54.786 44.821 19.334 276.341 o
18 1 9 89.151 128.750 19.994 149.641 o
18 1 10 37.675 102.824 19.994 242.214 o
18 1 11 293.317 173.351 22.410 60.775 o
18 1 12 535.227 320.336 23.070 31.806 o
18 1 13 877.830 676.265 24.827 16.593 o
18 1 14 0.247 -25.486 20.653 1278.950 o
18 1 15 456.539 300.342 22.410 37.035 o
18 1 16 131.272 93.157 24.827 124.081 o
18 1 17 172.477 70.087 21.092 111.560 o
18 1 18 77.246 102.824 25.926 161.777 o
18 1 19 60.046 53.829 23.509 231.341 o
18 2 0 459.182 791.612 62.837 21.793 o
18 2 1 138.843 172.252 19.994 104.121 o
18 2 2 10.723 8.569 19.994 776.791 o
18 2 3 187.461 202.352 19.334 81.696 o
18 2 4 241.602 259.916 21.751 62.393 o
18 2 5 473.587 780.846 48.336 23.017 o
18 2 6 199.064 230.255 21.092 74.254 o
18 2 7 320.438 537.189 27.244 37.622 o
18 2 8 30.669 35.593 19.994 390.928 o
18 2 9 21.613 180.601 19.334 200.901 o
18 2 10 745.448 700.433 34.494 18.439 o
18 2 11 230.769 139.076 21.751 77.398 o
18 2 12 47.462 51.412 22.410 270.627 o
18 2 13 193.007 124.575 22.410 90.428 o
18 2 14 35.889 85.906 20.653 264.680 o
18 2 15 633.100 707.683 42.404 20.336 o
18 2 16 9.165 -16.259 22.410 797.920 o
18 2 17 88.732 114.249 26.585 144.283 o
18 2 18 36.138 50.753 36.252 212.054 o
18 2 19 95.983 37.570 32.078 159.308 o
18 3 0 280.570 255.522 33.835 52.953 o
18 3 1 0.158 -10.986 16.918 1907.090 o
18 3 2 1174.920 1224.440 41.086 10.056 o
18 3 3 285.273 307.593 20.653 52.704 o
18 3 4 758.402 578.275 24.827 19.825 o
18 3 5 694.713 573.002 27.903 21.273 o
18 3 6 87.869 150.501 19.334 142.399 o
18 3 7 357.463 478.527 30.320 36.667 o
18 3 8 115.308 142.591 24.827 118.821 o
18 3 9 2210.540 1678.140 63.496 4.821 o
18 3 10 121.694 81.073 19.334 143.131 o
18 3 11 46.041 90.740 21.751 229.764 o
18 3 12 351.284 295.509 37.570 42.515 o
18 3 13 47.123 59.322 18.236 283.452 o
18 3 14 75.477 29.002 21.092 235.563 o
18 3 15 17.106 -27.244 20.653 706.715 o
18 3 16 183.957 199.496 27.903 78.350 o
18 3 17 252.303 170.934 22.410 68.516 o
18 3 18 58.893 53.170 24.827 228.296 o
18 3 19 317.475 235.089 23.509 52.581 o
18 4 0 2.246 -13.402 23.509 921.479 o
18 4 1 891.097 949.363 28.343 14.329 o
18 4 2 2291.200 3188.420 83.490 3.360 o
18 4 3 703.536 805.014 27.903 18.488 o
18 4 4 74.634 28.343 26.585 213.962 o
18 4 5 2395.510 2238.400 46.578 4.005 o
18 4 6 1245.040 1165.120 48.336 9.664 o
18 4 7 718.619 753.602 33.835 18.471 o
18 4 8 359.042 352.853 23.070 42.303 o
18 4 9 1091.060 1189.290 30.320 10.990 o
18 4 10 45.361 27.244 24.827 298.136 o
18 4 11 148.184 128.750 21.092 109.031 o
18 4 12 275.302 305.176 23.509 53.491 o
18 4 13 1693.450 1493.360 45.260 6.664 o
18 4 14 177.266 163.244 25.486 87.132 o
18 4 15 1166.250 1040.540 35.593 10.908 o
18 4 16 211.631 180.601 24.827 75.474 o
18 4 17 158.366 152.918 21.751 98.546 o
18 4 18 339.392 301.661 29.002 45.295 o
18 4 19 439.414 336.594 32.737 35.610 o
18 5 0 1017.180 921.021 57.344 12.282 o
18 5 1 245.134 169.835 25.486 68.844 o
18 5 2 5.951 11.425 19.334 897.231 o
18 5 3 4.681 -18.675 19.994 1111.900 o
18 5 4 294.127 307.593 21.092 51.518 o
18 5 5 455.450 583.767 27.903 28.966 o
18 5 6 681.802 662.423 25.926 20.579 o
18 5 7 1104.310 1011.540 33.176 11.602 o
18 5 8 129.915 111.832 21.751 123.078 o
18 5 9 10.014 6.152 19.334 856.020 o
18 5 10 497.669 398.772 30.320 31.031 o
18 5 11 3.821 7.250 20.653 950.934 o
18 5 12 20.085 29.661 24.168 421.076 o
18 5 13 2.582 3.076 20.653 1078.880 o
18 5 14 74.968 68.989 25.486 185.859 o
18 5 15 189.774 219.929 29.661 73.354 o
18 5 16 104.052 108.097 26.585 134.715 o
18 5 17 5.387 -4.834 24.168 793.772 o
18 5 18 122.672 105.241 27.903 121.226 o
18 6 0 264.390 181.919 36.252 59.396 o
18 6 1 366.869 271.341 25.486 44.835 o
18 6 2 18.877 16.918 19.994 570.407 o
18 6 3 11.231 -23.070 18.236 977.016 o
18 6 4 3852.650 3577.520 79.095 1.935 o
18 6 5 300.967 383.832 24.168 46.008 o
18 6 6 175.899 116.006 28.343 93.395 o
18 6 7 1696.720 1739.880 41.745 6.246 o
18 6 8 1767.990 1718.130 45.260 6.031 o
18 6 9 84.727 64.155 23.509 181.990 o
18 6 10 1074.050 1088.440 36.911 11.466 o
18 6 11 525.829 484.019 37.570 27.231 o
18 6 12 172.736 184.336 24.827 85.683 o
18 6 13 76.507 79.754 26.585 173.692 o
18 6 14 198.939 166.759 24.168 80.960 o
18 6 15 112.226 129.848 26.585 122.034 o
18 6 16 257.286 272.000 30.320 56.173 o
18 6 17 264.275 241.021 23.509 59.670 o
18 6 18 156.972 192.246 31.418 84.428 o
18 7 0 2258.210 2238.400 59.761 4.196 o
18 7 1 8.609 -15.160 24.168 724.273 o
18 7 2 39.615 27.244 18.236 381.795 o
18 7 3 30.185 45.260 23.509 333.139 o
18 7 4 2660.560 3108.670 81.073 2.995 o
18 7 5 509.619 533.014 23.070 28.122 o
18 7 6 148.419 98.430 27.244 109.943 o
18 7 7 491.383 520.930 32.078 28.403 o
18 7 8 192.833 160.168 30.759 79.316 o
18 7 9 26.467 25.926 27.244 352.950 o
18 7 10 485.135 602.003 30.759 27.154 o
18 7 11 367.060 291.334 30.320 42.975 o
18 7 12 5.242 4.174 27.903 593.485 o
18 7 13 32.977 44.821 27.244 290.367 o
18 7 14 149.188 154.016 25.486 98.934 o
18 7 15 4.355 15.160 21.092 797.779 o
18 7 16 217.061 252.006 25.926 66.076 o
18 7 17 80.961 103.263 24.168 161.852 o
18 7 18 6.878 -14.501 22.410 856.596 o
18 8 0 1409.170 1027.360 44.821 9.111 o
18 8 1 136.519 210.921 27.244 91.456 o
18 8 2 2088.170 2191.380 49.654 4.601 o
18 8 3 333.949 278.591 29.002 46.968 o
18 8 4 219.620 228.937 27.244 67.253 o
18 8 5 388.716 473.693 29.002 35.044 o
18 8 6 37.659 27.244 22.410 350.687 o
18 8 7 1171.690 1059.880 36.911 10.765 o
18 8 8 221.922 275.515 25.486 63.201 o
18 8 9 934.650 917.945 31.418 13.914 o
18 8 10 386.930 417.667 25.926 37.343 o
18 8 11 509.755 466.003 27.244 29.221 o
18 8 12 552.578 656.930 36.911 23.477 o
18 8 13 208.172 294.850 29.002 62.540 o
18 8 14 56.554 80.414 21.751 219.220 o
18 8 15 211.334 245.855 31.418 65.272 o
18 8 16 118.115 75.580 24.827 139.452 o
18 8 17 382.184 304.517 31.418 40.959 o
18 9 0 2314.000 1978.040 65.913 4.304 o
18 9 1 99.751 49.654 27.903 160.977 o
18 9 2 2435.390 2529.070 47.677 3.715 o
18 9 3 43.167 36.911 26.585 276.279 o
18 9 4 109.635 119.082 28.343 124.291 o
18 9 5 2.502 -13.842 25.926 762.665 o
18 9 6 777.984 1008.680 42.404 15.055 o
18 9 7 28.388 38.010 23.509 357.909 o
18 9 8 107.941 71.845 25.486 148.207 o
18 9 9 108.383 83.490 29.661 134.851 o
18 9 10 750.745 631.005 36.252 18.950 o
18 9 11 393.154 444.252 32.078 35.244 o
18 9 12 1894.320 2185.890 63.496 4.961 o
18 9 13 39.871 38.669 28.343 270.172 o
18 9 14 63.733 81.512 28.343 183.045 o
18 9 15 9.790 -62.837 33.176 423.582 o
18 9 16 151.116 154.016 30.320 93.663 o
18 9 17 4.400 -13.842 34.494 431.006 o
18 10 0 1026.120 1306.610 76.239 10.058 o
18 10 1 129.191 178.843 25.926 101.689 o
18 10 2 3706.400 4050.120 81.512 1.885 o
18 10 3 19.323 -34.494 27.244 482.968 o
18 10 4 105.415 114.908 24.827 134.195 o
18 10 5 432.282 387.347 27.903 35.160 o
18 10 6 2190.810 2413.070 74.262 4.101 o
18 10 7 663.913 551.250 31.418 22.179 o
18 10 8 17.006 69.428 27.903 296.825 o
18 10 9 186.408 177.745 28.343 80.325 o
18 10 10 668.731 785.680 35.593 19.078 o
18 10 11 566.278 680.439 37.570 22.698 o
18 10 12 636.776 612.110 35.593 21.846 o
18 10 13 154.908 159.509 29.661 91.933 o
18 10 14 870.860 719.767 34.494 16.079 o
18 10 15 456.890 374.604 30.759 33.737 o
18 10 16 599.350 482.921 31.418 25.145 o
18 11 0 13.831 7.250 40.426 276.542 o
18 11 1 569.710 569.266 33.835 24.526 o
18 11 2 252.159 291.334 28.343 56.196 o
18 11 3 661.734 727.018 32.737 19.998 o
18 11 4 118.756 173.351 24.827 108.834 o
18 11 5 575.920 559.599 32.078 24.608 o
18 11 6 11.689 34.494 27.244 410.805 o
18 11 7 61.225 49.654 27.244 215.954 o
18 11 8 75.653 98.430 27.244 162.398 o
18 11 9 92.815 125.015 28.343 133.582 o
18 11 10 68.583 70.087 28.343 184.189 o
18 11 11 1.582 -20.653 28.343 660.339 o
18 11 12 119.246 94.914 25.926 129.737 o
18 11 13 275.237 238.165 32.737 55.175 o
18 11 14 211.475 276.174 35.593 60.620 o
18 11 15 81.377 79.095 28.343 163.614 o
18 12 0 5597.020 6625.770 184.995 0.885 o
18 12 1 1245.590 1272.780 54.488 9.214 o
18 12 2 3159.530 3884.020 111.173 2.203 o
18 12 3 862.536 938.598 33.835 14.644 o
18 12 4 4163.000 4832.720 106.339 1.499 o
18 12 5 134.277 139.515 27.244 106.851 o
18 12 6 168.809 187.412 27.244 84.761 o
18 12 7 5.208 38.669 25.486 476.217 o
18 12 8 1759.520 2029.890 47.677 5.583 o
18 12 9 540.367 612.769 33.176 24.820 o
18 12 10 1117.210 1485.450 52.511 9.385 o
18 12 11 444.780 572.342 33.835 29.113 o
18 12 12 2743.400 2833.150 64.155 3.094 o
18 12 13 381.046 459.851 31.418 35.603 o
18 12 14 1429.360 1494.460 53.170 7.672 o
18 12 15 390.045 447.108 35.154 34.885 o
18 13 0 6.512 -36.252 40.426 312.064 o
18 13 1 56.072 115.347 30.320 165.617 o
18 13 2 1688.480 1832.810 46.578 6.093 o
18 13 3 0.957 1.758 31.418 538.544 o
18 13 4 99.789 134.242 31.418 120.673 o
18 13 5 52.036 47.237 29.002 226.995 o
18 13 6 399.912 415.250 29.661 36.067 o
18 13 7 24.317 39.987 29.002 312.636 o
18 13 8 0.717 -18.675 24.827 874.584 o
18 13 9 103.815 157.092 32.078 111.231 o
18 13 10 4.277 46.578 30.320 369.952 o
18 13 11 0.114 -29.002 27.903 706.874 o
18 13 12 34.316 21.751 29.002 309.378 o
18 13 13 27.641 30.759 31.418 292.923 o
18 13 14 248.430 228.937 36.252 58.246 o
18 14 0 703.760 988.691 53.170 15.822 o
18 14 1 1459.790 1924.870 56.905 6.634 o
18 14 2 230.939 88.763 27.244 81.034 o
18 14 3 1449.740 1612.890 45.919 7.391 o
18 14 4 128.038 188.510 27.903 98.238 o
18 14 5 373.561 404.924 29.002 38.267 o
18 14 6 522.738 608.594 31.418 25.614 o
18 14 7 474.986 462.927 29.002 30.715 o
18 14 8 65.693 97.990 29.002 168.531 o
18 14 9 1510.600 1413.610 39.987 7.615 o
18 14 10 191.747 174.010 26.585 80.502 o
18 14 11 431.914 436.342 33.835 33.012 o
18 14 12 493.966 602.003 39.328 26.059 o
18 14 13 975.518 1067.350 61.079 11.867 o
18 15 0 2566.300 2513.910 97.990 3.383 o
18 15 1 728.142 699.774 37.570 18.649 o
18 15 2 3.013 17.577 24.827 641.371 o
18 15 3 530.825 369.771 29.661 30.216 o
18 15 4 585.084 594.753 31.418 23.815 o
18 15 5 205.165 238.604 29.002 68.353 o
18 15 6 23.559 18.675 26.585 396.770 o
18 15 7 181.118 201.913 27.244 79.190 o
18 15 8 41.172 41.745 27.903 265.539 o
18 15 9 329.896 311.328 29.002 45.743 o
18 15 10 85.473 107.657 32.737 136.434 o
18 15 11 350.865 325.170 35.154 41.882 o
18 15 12 64.551 68.330 41.086 146.218 o
18 16 0 457.714 423.599 45.919 30.302 o
18 16 1 370.624 367.354 29.661 39.741 o
18 16 2 659.573 705.926 33.176 20.267 o
18 16 3 94.631 82.830 27.244 151.454 o
18 16 4 40.800 33.176 26.585 289.306 o
18 16 5 120.973 130.507 27.244 115.893 o
18 16 6 217.909 230.914 28.343 66.897 o
18 16 7 815.013 814.022 39.987 16.023 o
18 16 8 4.931 -1.758 31.418 506.893 o
18 16 9 27.816 36.252 27.903 317.688 o
18 16 10 55.181 120.840 32.737 156.558 o
18 17 0 6.608 25.926 38.669 290.356 o
18 17 1 497.903 589.260 32.078 26.802 o
18 17 2 316.571 239.263 25.926 51.845 o
18 17 3 4.091 6.152 28.343 580.167 o
18 17 4 30.869 9.008 25.486 398.267 o
18 17 5 774.722 705.926 34.494 17.829 o
18 17 6 0.973 -8.569 27.244 724.134 o
18 17 7 523.500 481.603 40.426 27.068 o
18 17 8 107.558 90.740 30.320 131.582 o
18 17 9 1913.520 1881.810 83.490 5.134 o
18 18 0 1.131 -41.745 43.502 288.141 o
18 18 1 35.557 59.761 33.835 219.287 o
18 18 2 115.487 111.173 29.661 121.050 o
18 18 3 0.163 -15.160 34.494 462.628 o
18 18 4 141.961 140.834 27.903 102.367 o
18 18 5 32.888 14.501 31.418 302.674 o
18 18 6 55.266 34.494 38.010 185.973 o
18 18 7 27.008 83.929 42.404 170.062 o
18 19 0 219.164 143.250 58.003 56.338 o
18 19 1 15.084 -10.986 36.911 329.578 o
18 19 2 6.676 -39.328 55.586 171.017 o
19 1 0 72.318 97.990 27.903 164.405 o
19 1 1 54.795 48.995 19.334 270.259 o
19 1 2 256.246 206.087 22.410 64.356 o
19 1 3 1953.580 2251.140 45.260 4.840 o
19 1 4 162.709 155.334 24.168 94.513 o
19 1 5 123.597 68.989 21.751 142.868 o
19 1 6 168.388 141.932 19.994 98.002 o
19 1 7 1810.820 1976.060 42.404 5.543 o
19 1 8 16.843 18.236 24.827 477.665 o
19 1 9 158.195 100.407 29.661 102.168 o
19 1 10 350.959 275.076 23.070 46.647 o
19 1 11 870.115 891.360 29.661 14.967 o
19 1 12 33.256 18.236 19.334 438.950 o
19 1 13 680.551 719.767 29.002 19.824 o
19 1 14 488.723 422.940 24.827 31.412 o
19 1 15 30.680 -6.152 20.653 518.528 o
19 1 16 272.623 242.339 25.926 57.548 o
19 1 17 1200.870 893.118 41.086 11.139 o
19 1 18 50.721 79.754 29.002 200.516 o
19 2 0 136.691 197.079 29.661 91.733 o
19 2 1 878.913 747.011 25.926 15.984 o
19 2 2 220.477 224.103 29.661 66.443 o
19 2 3 2656.090 3090.430 83.490 3.002 o
19 2 4 218.977 202.352 20.653 73.036 o
19 2 5 698.424 752.284 42.843 18.453 o
19 2 6 204.213 247.832 28.343 67.932 o
19 2 7 1389.030 1842.040 70.746 6.905 o
19 2 8 47.840 38.669 21.751 293.214 o
19 2 9 125.611 68.330 20.653 143.205 o
19 2 10 0.797 -7.250 19.334 1414.470 o
19 2 11 1974.960 2186.550 42.404 4.875 o
19 2 12 136.640 131.166 22.410 113.001 o
19 2 13 1363.610 1239.380 41.086 8.801 o
19 2 14 7.775 -18.675 16.918 1234.990 o
19 2 15 1124.110 852.691 35.593 12.119 o
19 2 16 0.033 -21.751 29.002 655.775 o
19 2 17 705.626 503.354 36.252 21.433 o
19 3 0 399.719 352.414 32.737 37.671 o
19 3 1 25.473 25.486 18.236 489.033 o
19 3 2 427.998 505.771 25.486 32.335 o
19 3 3 285.126 231.354 19.334 58.309 o
19 3 4 60.658 14.501 19.994 302.484 o
19 3 5 323.581 371.089 24.168 44.457 o
19 3 6 53.092 56.245 19.994 261.655 o
19 3 7 12.321 32.078 18.236 598.720 o
19 3 8 65.597 36.252 21.092 249.924 o
19 3 9 1074.800 1100.520 33.835 11.458 o
19 3 10 76.532 96.013 19.994 181.021 o
19 3 11 157.206 180.162 19.334 95.335 o
19 3 12 76.438 57.344 19.994 210.238 o
19 3 13 39.196 48.336 21.751 306.427 o
19 3 14 0.581 -28.343 35.154 442.411 o
19 3 15 296.577 202.352 23.509 57.678 o
19 3 16 102.779 129.848 24.168 131.772 o
19 3 17 225.763 151.599 25.486 75.223 o
19 4 0 47.915 18.236 25.926 295.840 o
19 4 1 68.222 44.821 20.653 235.989 o
19 4 2 60.012 25.926 18.675 293.287 o
19 4 3 12.071 -21.092 19.334 885.060 o
19 4 4 170.457 103.263 33.176 92.986 o
19 4 5 129.365 184.336 29.002 97.456 o
19 4 6 896.612 1003.190 28.343 13.922 o
19 4 7 1008.310 894.436 44.161 12.893 o
19 4 8 325.038 296.168 26.585 47.523 o
19 4 9 1468.710 1826.880 77.338 6.561 o
19 4 10 330.199 245.415 21.751 50.788 o
19 4 11 556.510 491.929 24.827 26.968 o
19 4 12 248.549 343.845 25.486 53.953 o
19 4 13 180.108 126.333 24.168 93.441 o
19 4 14 66.872 75.580 23.070 200.851 o
19 4 15 31.932 71.406 25.486 266.816 o
19 4 16 0.322 -29.002 21.092 1222.560 o
19 4 17 64.247 102.165 22.410 187.087 o
19 5 0 803.545 1084.700 46.578 14.081 o
19 5 1 97.504 155.334 28.343 120.643 o
19 5 2 73.873 22.410 18.675 257.740 o
19 5 3 232.387 144.349 19.334 77.379 o
19 5 4 2126.850 2480.740 61.079 4.209 o
19 5 5 25.384 3.076 18.675 607.859 o
19 5 6 84.446 111.832 22.410 157.721 o
19 5 7 76.468 65.254 21.751 198.165 o
19 5 8 166.377 207.186 30.320 80.424 o
19 5 9 103.496 82.171 17.577 162.362 o
19 5 10 100.044 99.748 23.070 147.545 o
19 5 11 180.439 126.992 25.486 92.181 o
19 5 12 21.035 49.654 24.168 358.122 o
19 5 13 82.188 90.740 23.509 168.885 o
19 5 14 210.562 180.601 25.486 75.393 o
19 5 15 33.369 49.654 28.343 273.036 o
19 5 16 2.207 -12.743 24.827 833.906 o
19 5 17 146.235 90.740 29.661 109.918 o
19 6 0 753.736 867.192 47.677 16.244 o
19 6 1 833.637 789.195 29.002 16.284 o
19 6 2 26.422 49.654 22.410 350.838 o
19 6 3 2.099 -38.010 19.994 1245.850 o
19 6 4 379.987 323.412 35.593 39.581 o
19 6 5 39.724 76.678 21.751 260.943 o
19 6 6 99.796 50.753 23.070 172.731 o
19 6 7 159.596 169.176 29.661 88.686 o
19 6 8 88.601 55.586 22.410 185.625 o
19 6 9 1148.530 1077.450 33.176 10.938 o
19 6 10 77.422 81.512 29.661 162.822 o
19 6 11 10.549 4.174 25.486 605.838 o
19 6 12 81.245 70.087 24.827 178.896 o
19 6 13 13.111 14.501 25.926 504.343 o
19 6 14 20.295 36.911 20.653 447.334 o
19 6 15 0.161 -1.318 21.751 1158.620 o
19 6 16 248.384 192.685 23.509 66.709 o
19 6 17 83.120 15.160 54.488 113.049 o
19 7 0 11.812 54.488 30.759 313.640 o
19 7 1 81.758 105.241 25.926 156.027 o
19 7 2 1591.040 1748.890 47.677 6.555 o
19 7 3 25.750 83.929 21.751 291.428 o
19 7 4 105.596 79.095 27.903 142.199 o
19 7 5 36.479 34.494 24.827 317.243 o
19 7 6 323.688 344.504 27.903 44.984 o
19 7 7 70.761 45.919 26.585 205.514 o
19 7 8 13.917 -12.743 30.320 457.148 o
19 7 9 300.663 308.252 32.078 48.116 o
19 7 10 21.926 25.486 27.244 377.077 o
19 7 11 1.078 -55.586 20.653 1230.010 o
19 7 12 404.311 337.254 29.002 38.485 o
19 7 13 11.861 29.661 29.661 384.868 o
19 7 14 60.255 36.252 24.827 243.655 o
19 7 15 96.553 76.678 25.926 155.529 o
19 7 16 118.315 131.166 25.486 119.536 o
19 8 0 856.533 600.026 47.237 16.760 o
19 8 1 170.051 117.764 27.903 95.645 o
19 8 2 33.265 126.992 30.759 184.552 o
19 8 3 50.212 27.244 24.168 287.145 o
19 8 4 2386.760 2332.650 64.155 3.889 o
19 8 5 259.237 197.519 24.827 63.742 o
19 8 6 68.914 87.005 23.509 187.920 o
19 8 7 427.139 526.423 34.494 30.884 o
19 8 8 347.147 316.161 26.585 44.379 o
19 8 9 19.105 41.086 22.410 415.490 o
19 8 10 330.972 267.825 25.486 48.640 o
19 8 11 62.697 47.677 27.903 212.075 o
19 8 12 355.857 401.848 33.835 38.818 o
19 8 13 274.257 285.183 24.827 54.612 o
19 8 14 0.876 -12.743 24.827 870.039 o
19 8 15 53.786 23.070 26.585 265.805 o
19 8 16 288.116 259.916 44.821 47.873 o
19 9 0 1880.060 1722.300 61.079 5.593 o
19 9 1 704.747 854.449 34.494 17.750 o
19 9 2 9.776 -24.168 26.585 607.267 o
19 9 3 54.414 57.344 26.585 224.679 o
19 9 4 578.812 391.522 26.585 27.937 o
19 9 5 6.012 -7.910 24.827 745.305 o
19 9 6 10.020 10.986 28.343 490.814 o
19 9 7 688.726 704.607 36.252 19.480 o
19 9 8 59.862 145.667 25.486 158.701 o
19 9 9 495.371 389.105 35.154 30.826 o
19 9 10 462.594 587.942 36.252 27.804 o
19 9 11 92.622 74.262 29.002 153.117 o
19 9 12 52.435 54.488 32.078 204.000 o
19 9 13 38.942 66.572 27.244 244.290 o
19 9 14 265.585 250.249 29.661 56.769 o
19 9 15 6.025 12.743 32.078 429.379 o
19 10 0 1454.850 2007.480 93.596 6.107 o
19 10 1 88.480 93.157 29.002 148.316 o
19 10 2 1282.920 1193.460 39.328 9.453 o
19 10 3 11.274 12.743 27.244 498.204 o
19 10 4 911.556 1102.280 40.426 12.911 o
19 10 5 1.969 32.078 34.494 353.134 o
19 10 6 1301.000 1330.780 42.404 8.884 o
19 10 7 5.483 -24.168 29.002 578.388 o
19 10 8 288.889 355.270 30.759 47.233 o
19 10 9 216.405 253.764 33.835 62.499 o
19 10 10 2319.570 2570.160 60.420 3.822 o
19 10 11 31.068 56.905 31.418 247.130 o
19 10 12 116.030 151.160 32.078 106.744 o
19 10 13 3.401 -52.511 27.903 650.331 o
19 10 14 1381.050 1494.460 46.578 7.973 o
19 11 0 1355.390 1598.380 63.496 7.644 o
19 11 1 16.758 -20.653 31.418 413.675 o
19 11 2 1032.470 1125.350 42.843 11.558 o
19 11 3 29.136 65.254 28.343 263.169 o
19 11 4 218.320 290.675 29.661 60.920 o
19 11 5 59.898 72.504 27.244 198.996 o
19 11 6 425.116 364.937 31.418 35.813 o
19 11 7 20.834 80.414 27.903 268.295 o
19 11 8 153.196 139.515 29.002 96.899 o
19 11 9 416.910 227.179 32.737 41.014 o
19 11 10 243.077 249.590 32.078 59.272 o
19 11 11 40.593 43.502 32.078 236.349 o
19 11 12 67.306 177.745 30.320 129.356 o
19 11 13 2.333 -10.986 30.759 555.177 o
19 12 0 963.699 816.439 52.511 13.566 o
19 12 1 25.826 26.585 27.244 354.435 o
19 12 2 270.497 274.417 30.320 54.206 o
19 12 3 272.077 233.771 29.002 57.250 o
19 12 4 414.851 544.000 33.176 31.209 o
19 12 5 149.832 78.656 30.759 109.675 o
19 12 6 40.136 27.903 29.002 279.869 o
19 12 7 514.399 471.276 36.252 28.065 o
19 12 8 126.501 125.674 29.002 111.921 o
19 12 9 18.462 14.501 28.343 412.762 o
19 12 10 307.866 336.594 29.661 46.520 o
19 12 11 119.953 99.089 35.154 113.095 o
19 12 12 15.156 24.827 30.320 369.931 o
19 13 0 214.644 63.496 38.010 80.699 o
19 13 1 0.479 -50.753 25.926 809.370 o
19 13 2 2293.360 2384.060 66.572 3.988 o
19 13 3 163.749 161.267 29.002 89.175 o
19 13 4 288.222 373.506 30.759 46.379 o
19 13 5 348.711 308.252 33.835 43.075 o
19 13 6 1056.840 1176.100 41.086 11.160 o
19 13 7 25.499 32.078 27.903 335.627 o
19 13 8 210.061 245.855 30.320 66.041 o
19 13 9 51.542 29.661 29.661 242.944 o
19 13 10 38.244 27.903 32.737 255.217 o
19 13 11 2.053 -30.320 33.835 464.967 o
19 13 12 1223.010 1378.460 75.580 8.644 o
19 14 0 44.224 62.837 39.328 175.959 o
19 14 1 756.082 727.018 35.593 17.935 o
19 14 2 1089.060 1226.200 42.843 10.663 o
19 14 3 775.618 707.024 36.911 17.703 o
19 14 4 47.005 21.092 30.759 256.645 o
19 14 5 9.057 26.585 27.903 444.304 o
19 14 6 277.363 264.750 30.759 53.798 o
19 14 7 418.042 351.754 29.661 36.948 o
19 14 8 130.008 96.672 31.418 114.274 o
19 14 9 8.619 24.168 32.737 367.722 o
19 14 10 349.990 320.336 36.252 41.903 o
19 15 0 160.244 165.002 40.426 79.477 o
19 15 1 568.864 681.758 34.494 22.815 o
19 15 2 320.199 320.336 31.418 45.694 o
19 15 3 55.499 90.740 27.903 189.534 o
19 15 4 300.130 255.082 31.418 51.356 o
19 15 5 438.014 392.181 33.176 33.985 o
19 15 6 339.179 328.685 35.154 42.713 o
19 15 7 4.556 21.092 30.320 448.011 o
19 15 8 28.671 60.420 33.176 236.544 o
19 15 9 102.190 84.588 39.987 117.757 o
19 16 0 85.770 116.666 41.745 114.455 o
19 16 1 250.255 316.161 32.078 53.547 o
19 16 2 132.665 168.078 30.320 98.014 o
19 16 3 98.638 71.406 30.759 144.843 o
19 16 4 32.229 37.570 33.176 254.753 o
19 16 5 314.325 214.436 33.835 51.334 o
19 16 6 105.016 111.832 30.759 125.456 o
19 16 7 253.018 328.246 40.426 49.583 o
19 17 0 23.980 39.328 42.843 201.020 o
19 17 1 35.327 105.680 30.759 196.755 o
19 17 2 9.132 4.834 40.426 294.670 o
19 17 3 369.682 349.338 38.669 38.753 o
19 17 4 649.825 531.696 83.929 18.262 o
19 17 5 166.456 243.438 58.662 56.251 o
20 0 0 593.146 695.599 54.488 20.511 o
20 0 1 198.054 168.517 32.078 76.003 o
20 0 2 3679.260 2991.340 90.081 2.193 o
20 0 3 661.255 253.764 33.835 26.816 o
20 0 4 461.581 331.102 30.759 34.719 o
20 0 5 271.781 247.832 50.094 48.100 o
20 0 6 854.043 798.203 57.344 14.849 o
20 0 7 240.159 102.824 31.418 74.201 o
20 0 8 4.527 0.000 31.418 510.819 o
20 0 9 287.353 458.753 34.494 41.758 o
20 0 10 516.559 424.918 29.661 29.611 o
20 0 11 21.112 -25.926 30.759 398.809 o
20 0 12 118.902 103.263 30.759 119.625 o
20 0 13 438.818 182.578 28.343 41.882 o
20 0 14 1603.420 1578.390 78.656 6.508 o
20 0 15 385.682 242.339 67.011 33.940 o
20 0 16 189.646 296.168 52.511 53.538 o
20 1 0 21.612 4.174 65.913 114.136 o
20 1 1 2993.260 3020.340 54.927 2.766 o
20 1 2 87.476 96.672 20.653 166.073 o
20 1 3 397.993 423.599 22.410 36.830 o
20 1 4 129.624 56.245 24.168 139.148 o
20 1 5 2231.870 2491.060 50.753 4.055 o
20 1 6 21.063 58.003 19.994 381.787 o
20 1 7 366.574 427.774 28.343 38.056 o
20 1 8 104.415 119.741 23.509 135.251 o
20 1 9 568.139 653.195 32.078 23.404 o
20 1 10 232.637 231.354 24.827 65.518 o
20 1 11 572.234 574.100 25.486 24.913 o
20 1 12 94.433 76.678 21.092 168.536 o
20 1 13 575.377 507.528 24.827 25.987 o
20 1 14 8.561 15.819 24.168 596.498 o
20 1 15 1400.190 1359.120 40.426 8.281 o
20 1 16 112.064 90.081 29.661 129.932 o
20 2 0 2339.590 1587.620 65.254 4.635 o
20 2 1 224.378 181.919 23.509 72.929 o
20 2 2 479.881 523.347 29.002 29.120 o
20 2 3 708.519 602.443 24.827 20.701 o
20 2 4 530.749 507.528 29.661 27.305 o
20 2 5 808.171 621.777 33.176 18.042 o
20 2 6 11.247 1.758 19.994 848.244 o
20 2 7 107.011 244.756 23.070 99.720 o
20 2 8 224.684 245.415 22.410 66.597 o
20 2 9 320.477 261.674 24.168 50.459 o
20 2 10 35.015 38.669 20.653 353.089 o
20 2 11 962.172 926.953 33.835 13.479 o
20 2 12 136.604 102.824 24.827 118.012 o
20 2 13 346.222 374.165 24.168 42.318 o
20 2 14 51.274 37.570 24.168 268.595 o
20 2 15 177.516 99.089 29.661 94.691 o
20 2 16 800.705 565.092 34.494 18.685 o
20 3 0 181.941 99.089 28.343 94.282 o
20 3 1 331.253 264.750 24.827 48.921 o
20 3 2 227.983 195.761 24.827 70.011 o
20 3 3 22.008 30.759 18.675 489.556 o
20 3 4 617.380 515.438 24.827 24.435 o
20 3 5 677.993 796.446 31.418 18.958 o
20 3 6 18.125 44.161 19.334 455.483 o
20 3 7 363.253 381.855 21.751 40.949 o
20 3 8 73.193 56.905 33.176 169.778 o
20 3 9 730.715 745.034 31.418 18.415 o
20 3 10 64.595 118.423 26.585 165.253 o
20 3 11 119.724 166.759 24.168 110.693 o
20 3 12 10.562 8.569 19.994 780.455 o
20 3 13 21.300 19.994 24.827 435.566 o
20 3 14 146.138 140.174 24.168 104.433 o
20 3 15 1095.170 935.522 35.154 12.007 o
20 4 0 2106.490 1974.970 85.906 4.595 o
20 4 1 206.459 128.090 23.070 85.066 o
20 4 2 584.862 535.431 34.494 24.533 o
20 4 3 494.877 390.423 25.486 31.860 o
20 4 4 410.401 400.750 27.244 36.187 o
20 4 5 206.484 163.244 21.751 80.660 o
20 4 6 19.148 5.493 22.410 577.078 o
20 4 7 930.463 904.762 30.759 14.061 o
20 4 8 478.860 565.092 30.759 28.130 o
20 4 9 56.826 73.822 23.070 219.768 o
20 4 10 177.055 191.586 23.070 84.353 o
20 4 11 86.785 126.333 21.751 149.882 o
20 4 12 395.428 247.832 25.926 43.230 o
20 4 13 180.425 155.994 25.926 86.970 o
20 4 14 0.509 -41.086 23.070 1017.160 o
20 4 15 9.450 4.174 24.168 670.821 o
20 5 0 740.234 686.591 43.502 18.246 o
20 5 1 11.105 22.410 19.334 659.637 o
20 5 2 49.946 58.662 21.092 261.214 o
20 5 3 230.521 252.006 27.903 62.824 o
20 5 4 11.717 23.509 19.334 641.066 o
20 5 5 677.159 574.759 25.486 21.809 o
20 5 6 17.830 33.835 18.675 514.881 o
20 5 7 734.779 778.869 35.593 17.849 o
20 5 8 22.977 42.843 18.675 432.879 o
20 5 9 88.365 55.586 19.994 192.597 o
20 5 10 72.590 94.255 23.070 179.436 o
20 5 11 134.763 140.834 33.176 99.451 o
20 5 12 102.840 115.347 22.410 139.862 o
20 5 13 589.710 589.919 35.593 23.465 o
20 5 14 9.533 5.493 23.509 684.141 o
20 5 15 1.593 -58.003 27.903 680.261 o
20 6 0 54.709 145.008 40.426 127.115 o
20 6 1 75.159 54.927 20.653 212.438 o
20 6 2 676.640 549.932 42.404 21.178 o
20 6 3 174.663 94.255 23.509 102.572 o
20 6 4 36.897 82.171 21.751 261.155 o
20 6 5 180.584 149.183 24.168 89.271 o
20 6 6 1228.340 1095.690 36.252 10.205 o
20 6 7 131.923 137.099 21.751 114.616 o
20 6 8 80.931 54.927 25.486 187.324 o
20 6 9 86.699 105.680 27.244 148.320 o
20 6 10 143.075 153.577 24.827 102.200 o
20 6 11 62.737 48.995 28.343 208.883 o
20 6 12 160.017 103.263 26.585 104.075 o
20 6 13 1.136 -42.843 30.759 569.335 o
20 6 14 295.250 266.507 25.926 52.801 o
20 7 0 1075.550 909.596 59.322 11.727 o
20 7 1 55.345 16.918 25.486 277.777 o
20 7 2 3271.720 3226.430 68.330 2.427 o
20 7 3 24.385 18.236 31.418 327.734 o
20 7 4 9.884 21.092 23.509 565.322 o
20 7 5 352.944 316.161 30.320 43.123 o
20 7 6 266.821 271.341 31.418 54.535 o
20 7 7 75.699 97.990 27.903 160.858 o
20 7 8 496.563 497.422 36.911 28.189 o
20 7 9 0.520 -92.498 28.343 678.129 o
20 7 10 175.717 223.005 29.002 76.767 o
20 7 11 247.890 269.583 31.418 57.300 o
20 7 12 828.251 777.111 37.570 16.192 o
20 7 13 83.137 96.672 23.509 164.556 o
20 7 14 0.885 -9.667 23.509 966.853 o
20 8 0 49.787 42.404 39.328 181.725 o
20 8 1 0.507 -91.179 27.244 733.386 o
20 8 2 21.893 -9.008 19.994 646.345 o
20 8 3 69.126 85.906 25.926 181.011 o
20 8 4 0.017 -12.084 22.410 1098.380 o
20 8 5 436.792 317.260 27.244 37.190 o
20 8 6 31.902 29.661 23.509 361.177 o
20 8 7 4.397 -23.509 26.585 692.096 o
20 8 8 48.025 35.154 26.585 265.041 o
20 8 9 41.064 27.903 23.070 327.958 o
20 8 10 0.742 1.318 25.926 787.388 o
20 8 11 131.796 113.590 29.002 112.305 o
20 8 12 13.479 6.152 24.168 595.366 o
20 8 13 78.677 79.095 24.827 176.478 o
20 9 0 482.805 604.420 50.753 25.175 o
20 9 1 10.299 34.494 33.835 321.453 o
20 9 2 127.618 192.685 24.168 101.048 o
20 9 3 32.717 8.569 26.585 373.629 o
20 9 4 494.215 486.436 31.418 29.075 o
20 9 5 0.918 -4.834 28.343 671.357 o
20 9 6 382.857 439.858 31.418 36.115 o
20 9 7 243.169 194.003 32.078 63.881 o
20 9 8 63.380 85.247 27.903 182.551 o
20 9 9 19.549 27.903 25.486 409.896 o
20 9 10 612.180 640.672 39.328 21.874 o
20 9 11 22.444 20.653 30.320 344.762 o
20 9 12 9.025 10.986 39.328 298.808 o
20 9 13 163.742 294.410 49.654 58.866 o
20 10 0 98.149 77.997 55.586 91.748 o
20 10 1 13.509 9.667 29.661 438.082 o
20 10 2 370.104 292.433 34.494 41.792 o
20 10 3 93.655 93.157 28.343 145.336 o
20 10 4 0.551 -17.577 33.176 496.407 o
20 10 5 0.701 10.326 33.176 451.786 o
20 10 6 72.548 41.086 32.078 184.335 o
20 10 7 2.457 -41.086 29.002 618.970 o
20 10 8 545.963 468.859 34.494 27.048 o
20 10 9 113.273 58.662 33.835 131.681 o
20 10 10 49.068 51.412 33.835 203.193 o
20 10 11 36.917 46.578 35.593 218.358 o
20 10 12 306.922 292.433 44.821 44.479 o
20 11 0 2686.630 2677.820 94.914 3.156 o
20 11 1 5.668 15.160 28.343 512.251 o
20 11 2 1558.950 1533.790 47.677 7.085 o
20 11 3 5.235 -29.002 29.661 558.750 o
20 11 4 676.222 743.276 34.494 19.418 o
20 11 5 142.361 83.929 31.418 111.177 o
20 11 6 563.000 656.271 34.494 23.351 o
20 11 7 13.403 -32.737 27.244 541.302 o
20 11 8 323.524 356.588 30.320 43.938 o
20 11 9 4.928 11.425 32.078 441.913 o
20 11 10 796.557 949.363 44.161 15.146 o
20 11 11 20.564 62.837 41.086 198.944 o
20 12 0 6.691 -36.911 41.745 293.479 o
20 12 1 21.223 10.986 29.661 384.728 o
20 12 2 0.742 9.008 26.585 677.177 o
20 12 3 57.801 75.580 27.903 197.270 o
20 12 4 3.683 -6.152 28.343 627.743 o
20 12 5 59.289 41.086 27.903 224.499 o
20 12 6 562.078 569.926 35.154 24.661 o
20 12 7 0.188 -39.328 35.154 445.305 o
20 12 8 45.518 20.653 32.737 246.409 o
20 12 9 2.101 -41.086 30.759 557.870 o
20 12 10 340.427 392.840 51.412 36.326 o
20 13 0 2027.060 2015.390 74.921 4.787 o
20 13 1 95.230 155.334 30.320 118.953 o
20 13 2 4.262 -55.586 28.343 619.307 o
20 13 3 214.602 309.351 30.759 59.583 o
20 13 4 716.483 927.612 39.328 16.715 o
20 13 5 46.032 136.659 35.154 150.700 o
20 13 6 88.581 63.496 36.252 142.574 o
20 13 7 38.130 52.071 33.176 225.675 o
20 13 8 107.049 72.504 35.154 128.423 o
20 14 0 830.758 752.284 62.178 15.241 o
20 14 1 0.927 -21.751 28.343 671.197 o
20 14 2 185.961 212.019 31.418 74.107 o
20 14 3 16.210 9.667 32.078 376.657 o
20 14 4 2.626 5.493 31.418 502.679 o
20 14 5 21.106 21.751 39.987 243.793 o
20 14 6 27.540 27.244 40.426 221.468 o
20 14 7 197.702 190.927 58.662 55.584 o
20 15 0 355.408 397.014 53.170 34.877 o
20 15 1 7.797 -20.653 33.176 437.453 o
20 15 2 237.530 292.433 32.737 56.648 o
20 15 3 2.965 -1.758 33.176 475.102 o
20 15 4 135.842 124.575 46.578 85.458 o
20 15 5 82.674 155.334 63.496 73.873 o
21 1 0 106.860 129.848 44.821 96.755 o
21 1 1 193.274 126.333 33.835 81.494 o
21 1 2 101.123 106.998 25.486 139.289 o
21 1 3 788.864 702.850 27.244 17.852 o
21 1 4 42.252 36.911 22.410 311.161 o
21 1 5 215.178 236.187 24.827 68.466 o
21 1 6 13.514 45.260 21.751 450.330 o
21 1 7 488.730 636.278 24.827 26.802 o
21 1 8 1.275 27.244 21.092 732.631 o
21 1 9 125.389 61.079 20.653 146.457 o
21 1 10 18.963 19.334 25.926 435.603 o
21 1 11 242.835 194.003 24.168 67.415 o
21 1 12 3.193 -3.735 23.509 892.327 o
21 1 13 280.105 262.333 26.585 54.875 o
21 1 14 12.109 21.751 30.759 387.864 o
21 2 0 243.088 155.334 52.071 56.000 o
21 2 1 513.418 571.683 28.343 26.844 o
21 2 2 151.614 137.758 21.092 105.261 o
21 2 3 655.951 644.187 26.585 21.412 o
21 2 4 364.046 356.588 29.002 40.776 o
21 2 5 298.074 337.913 29.002 47.608 o
21 2 6 2.008 3.735 21.092 1051.580 o
21 2 7 46.814 72.504 21.092 251.532 o
21 2 8 593.982 557.182 24.168 24.552 o
21 2 9 295.160 414.591 27.903 44.377 o
21 2 10 54.502 12.743 20.653 324.355 o
21 2 11 649.666 666.598 27.244 21.258 o
21 2 12 182.734 198.178 24.827 80.716 o
21 2 13 315.538 329.344 27.244 46.655 o
21 3 0 1131.930 1058.120 43.502 10.981 o
21 3 1 391.849 482.921 30.759 34.358 o
21 3 2 54.205 64.594 21.092 243.338 o
21 3 3 419.735 435.024 23.509 34.982 o
21 3 4 0.406 -4.174 21.092 1217.920 o
21 3 5 218.042 299.244 24.827 62.055 o
21 3 6 56.787 46.578 24.168 243.219 o
21 3 7 132.840 121.499 23.509 116.463 o
21 3 8 14.852 13.842 21.751 596.820 o
21 3 9 1301.050 1405.040 47.237 8.613 o
21 3 10 84.471 63.496 26.585 173.890 o
21 3 11 732.027 785.680 48.995 17.206 o
21 3 12 27.045 36.252 20.653 403.141 o
21 3 13 287.925 345.163 30.320 47.970 o
21 4 0 30.893 13.842 27.244 360.792 o
21 4 1 71.654 77.997 20.653 199.072 o
21 4 2 452.812 417.008 24.168 33.520 o
21 4 3 92.271 110.074 21.751 152.304 o
21 4 4 79.215 89.422 24.827 169.711 o
21 4 5 50.875 78.656 22.410 229.473 o
21 4 6 492.867 385.590 24.168 32.210 o
21 4 7 365.212 279.250 30.759 43.575 o
21 4 8 0.533 -9.008 26.585 769.084 o
21 4 9 11.303 15.160 25.926 518.956 o
21 4 10 161.238 111.832 23.509 104.635 o
21 4 11 119.417 112.491 23.070 127.914 o
21 4 12 4.889 1.758 23.070 847.421 o
21 4 13 1.058 -10.326 27.244 722.474 o
21 5 0 141.425 102.824 39.987 95.685 o
21 5 1 7.186 28.343 25.926 494.960 o
21 5 2 489.727 478.527 27.903 29.774 o
21 5 3 51.442 150.501 21.092 175.700 o
21 5 4 8.876 5.493 21.751 773.481 o
21 5 5 128.492 238.165 27.244 89.536 o
21 5 6 82.975 95.573 25.486 160.665 o
21 5 7 164.854 155.994 23.070 94.427 o
21 5 8 502.369 596.510 27.903 26.825 o
21 5 9 498.962 571.683 25.486 27.608 o
21 5 10 41.292 64.155 24.168 259.656 o
21 5 11 187.075 185.435 32.737 76.176 o
21 5 12 443.425 342.087 59.322 30.447 o
21 5 13 46.217 36.911 61.738 106.818 o
21 6 0 544.942 650.779 52.511 22.448 o
21 6 1 235.415 298.585 30.759 57.247 o
21 6 2 683.118 594.094 38.669 20.726 o
21 6 3 310.917 261.674 27.903 50.674 o
21 6 4 743.649 644.846 29.661 19.241 o
21 6 5 264.321 288.918 24.168 55.900 o
21 6 6 313.729 319.018 24.827 47.884 o
21 6 7 1.424 -16.259 23.509 948.392 o
21 6 8 501.695 521.590 30.320 28.125 o
21 6 9 343.606 260.355 24.827 47.826 o
21 6 10 1150.380 1040.100 36.911 11.019 o
21 6 11 59.933 35.154 24.827 245.680 o
21 6 12 55.725 76.678 34.494 173.778 o
21 7 0 57.209 206.746 35.593 117.126 o
21 7 1 44.347 99.089 23.070 219.475 o
21 7 2 267.861 281.667 37.570 51.589 o
21 7 3 17.048 42.404 21.751 434.633 o
21 7 4 638.555 787.438 36.911 19.636 o
21 7 5 242.840 296.168 30.320 56.508 o
21 7 6 598.045 762.611 28.343 21.299 o
21 7 7 277.555 453.260 33.835 42.959 o
21 7 8 8.599 18.675 22.410 631.545 o
21 7 9 68.956 90.081 21.751 190.851 o
21 7 10 466.957 458.753 48.995 28.676 o
21 7 11 15.439 24.827 31.418 352.512 o
21 7 12 14.056 58.003 62.837 113.897 o
21 8 0 148.996 91.838 39.328 95.772 o
21 8 1 500.903 439.418 32.078 29.750 o
21 8 2 16.497 -3.076 29.002 466.632 o
21 8 3 24.324 57.344 22.410 342.782 o
21 8 4 244.950 194.662 29.661 64.616 o
21 8 5 59.005 58.003 27.244 212.456 o
21 8 6 2.916 12.084 26.585 618.818 o
21 8 7 355.393 316.161 29.002 43.173 o
21 8 8 20.310 65.254 26.585 304.362 o
21 8 9 121.354 79.095 27.244 131.573 o
21 8 10 389.510 451.942 39.987 33.995 o
21 8 11 1.361 -7.910 73.822 100.774 o
21 9 0 1343.980 1802.710 72.504 7.136 o
21 9 1 53.754 -13.402 32.737 251.382 o
21 9 2 483.497 570.585 30.320 27.870 o
21 9 3 101.198 140.834 28.343 122.782 o
21 9 4 1381.570 1229.710 39.987 8.739 o
21 9 5 191.013 218.171 34.494 70.374 o
21 9 6 402.100 481.603 33.176 33.492 o
21 9 7 70.499 125.015 29.661 148.576 o
21 9 8 151.300 281.008 33.835 72.608 o
21 9 9 51.008 83.929 35.154 172.566 o
21 9 10 83.425 92.498 40.426 125.553 o
21 10 0 72.728 21.751 74.262 75.868 o
21 10 1 15.910 24.827 32.737 332.464 o
21 10 2 478.685 482.262 36.911 29.259 o
21 10 3 224.496 154.675 36.911 68.508 o
21 10 4 803.446 635.179 37.570 17.824 o
21 10 5 4.202 -14.501 30.759 534.409 o
21 10 6 369.349 383.832 39.328 37.449 o
21 10 7 71.588 43.502 32.737 181.422 o
21 10 8 1503.290 1469.630 49.654 7.434 o
21 10 9 265.424 236.846 50.753 49.063 o
21 11 0 55.435 65.913 39.987 159.392 o
21 11 1 101.175 100.407 29.661 133.942 o
21 11 2 301.779 462.927 35.154 40.309 o
21 11 3 21.467 85.247 46.578 157.120 o
21 11 4 1.034 -42.404 34.494 455.761 o
21 11 5 88.440 66.572 35.154 144.360 o
21 11 6 134.531 136.659 35.593 97.458 o
21 11 7 411.608 381.415 49.654 32.955 o
21 12 0 241.094 272.659 39.328 54.848 o
21 12 1 0.585 -62.837 32.078 530.255 o
21 12 2 185.283 193.344 35.154 73.982 o
21 12 3 46.768 31.418 29.661 252.151 o
21 12 4 1.868 -15.819 32.737 497.199 o
21 12 5 237.475 252.006 44.161 54.507 o
21 12 6 47.960 114.908 52.511 110.628 o
21 13 0 30.504 27.244 54.927 140.188 o
21 13 1 10.140 40.426 35.593 290.835 o
21 13 2 196.947 255.522 48.336 57.640 o
21 13 3 0.611 -40.426 44.161 281.234 o
22 0 0 248.304 158.850 41.745 60.958 o
22 0 1 2146.720 1831.720 85.906 4.658 o
22 0 2 0.214 -14.501 30.320 597.609 o
22 0 3 327.089 311.328 79.095 31.706 o
22 0 4 131.640 105.680 33.835 107.682 o
22 0 5 651.290 592.775 45.919 21.023 o
22 0 6 73.577 144.349 44.161 108.942 o
22 0 8 7.879 -44.821 38.010 343.364 o
22 0 9 1040.080 1081.850 74.921 10.820 o
22 0 10 413.534 393.939 45.260 33.347 o
22 0 11 85.511 118.423 48.995 100.465 o
22 1 0 714.310 761.512 45.919 17.901 o
22 1 1 1.749 0.659 23.070 959.819 o
22 1 2 332.127 348.678 27.244 44.139 o
22 1 3 27.974 41.745 23.509 350.923 o
22 1 4 72.385 146.326 21.751 153.959 o
22 1 5 105.728 126.992 25.926 128.041 o
22 1 6 105.992 157.751 22.410 122.875 o
22 1 7 97.059 116.666 21.092 146.209 o
22 1 8 184.522 189.829 23.070 82.406 o
22 1 9 100.357 134.242 27.903 126.071 o
22 1 10 3.454 -3.735 21.092 1069.330 o
22 2 0 92.724 51.412 29.002 164.430 o
22 2 1 262.225 296.168 29.661 54.073 o
22 2 2 408.138 348.019 26.585 38.192 o
22 2 3 277.208 241.680 29.002 55.950 o
22 2 4 73.328 78.656 21.751 192.799 o
22 2 5 36.747 64.155 21.092 292.131 o
22 2 6 9.653 19.994 19.994 683.796 o
22 2 7 215.876 242.339 25.926 67.244 o
22 2 8 54.668 53.829 26.585 227.672 o
22 2 9 44.596 18.675 31.418 260.979 o
22 2 10 2.258 -1.318 25.926 768.011 o
22 2 11 87.629 134.242 50.094 94.754 o
22 3 0 25.235 16.259 30.320 342.099 o
22 3 1 132.169 184.336 24.827 100.297 o
22 3 2 633.345 597.609 26.585 22.637 o
22 3 3 412.222 488.853 26.585 33.531 o
22 3 4 54.115 91.838 24.168 204.456 o
22 3 5 338.582 361.422 29.661 42.542 o
22 3 6 77.092 117.764 31.418 141.977 o
22 3 7 527.959 785.021 49.654 21.402 o
22 3 8 57.903 114.249 26.585 175.326 o
22 3 9 109.903 86.346 31.418 129.389 o
22 3 10 506.562 499.838 30.759 28.332 o
22 4 0 229.204 258.598 29.661 61.775 o
22 4 1 0.015 -24.827 23.070 1036.630 o
22 4 2 213.248 255.082 25.486 66.694 o
22 4 3 0.596 7.910 23.070 881.500 o
22 4 4 429.596 404.265 28.343 34.759 o
22 4 5 25.396 55.586 21.092 354.505 o
22 4 6 178.081 216.853 25.486 79.057 o
22 4 7 114.957 68.330 26.585 141.606 o
22 4 8 143.970 59.761 27.903 122.093 o
22 4 9 178.077 218.830 31.418 75.173 o
22 4 10 261.991 192.685 41.086 56.675 o
22 5 0 997.859 624.194 64.594 13.808 o
22 5 1 262.260 257.939 24.168 58.470 o
22 5 2 43.405 72.504 23.509 247.628 o
22 5 3 51.489 41.745 31.418 220.154 o
22 5 4 597.602 620.019 27.903 23.272 o
22 5 5 59.505 131.826 23.070 172.441 o
22 5 6 71.422 121.499 33.835 139.324 o
22 5 7 89.793 94.255 32.078 139.723 o
22 5 8 489.642 531.696 32.737 28.191 o
22 5 9 12.471 55.586 54.927 143.146 o
22 5 10 403.435 621.338 99.089 20.322 o
22 6 0 775.444 864.775 56.245 15.529 o
22 6 1 229.005 93.596 20.653 84.824 o
22 6 2 100.501 167.418 25.926 118.774 o
22 6 3 19.100 45.919 26.585 348.519 o
22 6 4 223.020 221.687 29.002 66.496 o
22 6 5 0.552 -4.834 25.926 807.606 o
22 6 6 86.986 149.183 28.343 129.228 o
22 6 7 0.628 -70.746 45.260 267.784 o
22 6 8 185.874 187.412 32.737 76.229 o
22 7 0 32.287 39.987 36.911 224.813 o
22 7 1 20.753 44.161 22.410 395.518 o
22 7 2 1.114 -46.578 19.994 1305.790 o
22 7 3 0.010 -33.835 21.751 1166.260 o
22 7 4 53.438 43.502 31.418 214.967 o
22 7 5 14.315 50.753 39.328 232.529 o
22 7 6 370.996 386.249 39.987 37.127 o
22 7 8 270.806 181.919 76.678 39.387 o
22 8 0 639.217 546.856 58.662 20.804 o
22 8 1 23.118 25.486 28.343 356.130 o
22 8 2 766.106 646.604 30.320 18.733 o
22 8 3 36.336 33.835 24.168 325.151 o
22 8 4 489.908 560.918 34.494 27.433 o
22 8 5 18.650 43.502 32.737 288.425 o
22 8 6 596.422 697.357 47.237 20.988 o
22 8 7 14.044 22.410 68.330 106.294 o
22 9 0 672.954 694.281 60.420 18.387 o
22 9 1 20.823 32.737 35.154 274.574 o
22 9 2 346.221 389.764 39.328 38.844 o
22 9 3 37.854 97.990 36.911 172.855 o
22 9 4 453.907 368.672 39.987 32.754 o
22 9 5 3.598 -36.911 55.586 174.459 o
22 9 6 165.882 110.074 73.163 54.322 o
22 10 0 14.579 12.743 52.071 175.463 o
22 10 1 10.572 -26.585 38.669 322.053 o
22 10 2 0.439 0.000 76.239 94.825 o
22 10 3 322.957 389.764 56.905 36.088 o
23 1 0 282.534 222.346 32.737 55.258 o
23 1 1 89.127 116.666 24.827 146.383 o
23 1 2 116.059 180.162 23.070 110.314 o
23 1 3 61.481 48.336 30.759 200.631 o
23 1 4 82.234 48.995 25.486 189.652 o
23 1 5 1.902 -10.986 58.003 162.185 o
23 1 6 58.059 70.087 31.418 186.931 o
23 1 7 32.853 -64.594 33.176 309.383 o
23 2 0 59.409 36.252 30.759 214.195 o
23 2 1 0.176 -56.905 27.244 740.111 o
23 2 2 5.076 -61.738 30.320 538.985 o
23 2 3 0.564 -17.577 25.486 834.891 o
23 2 4 28.043 29.661 24.168 373.389 o
23 2 5 65.604 58.662 29.661 191.323 o
23 2 6 2.236 -78.656 31.418 534.235 o
23 2 7 244.721 257.499 47.677 51.619 o
23 3 0 62.390 93.596 41.086 137.915 o
23 3 1 98.320 113.590 28.343 133.731 o
23 3 2 15.645 -13.842 35.593 346.962 o
23 3 3 72.286 96.013 25.926 170.960 o
23 3 4 95.839 111.832 50.753 94.755 o
23 3 5 87.566 139.076 41.086 109.164 o
23 3 6 55.755 133.583 38.010 136.273 o
23 4 0 70.020 81.073 29.661 171.216 o
23 4 1 0.688 -61.738 36.252 415.549 o
23 4 2 25.366 23.070 32.078 307.095 o
23 4 3 4.932 32.737 27.244 466.160 o
23 4 4 46.182 38.010 36.911 202.233 o
23 4 5 176.500 203.011 41.086 70.582 o
23 4 6 15.940 35.154 33.835 299.629 o
23 5 0 115.982 211.580 45.919 79.573 o
23 5 1 101.829 120.840 37.570 112.775 o
23 5 2 29.890 53.829 33.835 236.536 o
23 5 3 123.876 116.666 31.418 112.255 o
23 5 4 105.314 109.415 74.262 61.688 o
23 5 5 45.354 51.412 58.662 111.886 o
23 6 3 3.034 -18.675 39.328 343.008 o
23 6 4 139.323 216.853 55.586 64.814 o
23 7 1 33.368 62.178 41.745 178.402 o
;
_olex2_submission_special_instructions 'No special instructions were received'
loop_
_space_group_symop_id
_space_group_symop_operation_xyz
1 x,y,z
2 x+1/2,-y+1/2,-z
3 -x+1/2,y+1/2,-z
4 -x,-y,z
5 -x,-y,-z
6 -x-1/2,y-1/2,z
7 x-1/2,-y-1/2,z
8 x,y,-z
loop_
_atom_site_label
_atom_site_type_symbol
_atom_site_fract_x
_atom_site_fract_y
_atom_site_fract_z
_atom_site_U_iso_or_equiv
_atom_site_adp_type
_atom_site_occupancy
_atom_site_site_symmetry_order
_atom_site_refinement_flags_posn
_atom_site_refinement_flags_adp
_atom_site_refinement_flags_occupancy
C1 C 0.3065(3) 0.56692(17) 0.06120(18) 0.0659(14) Uani 1.000000 1 . . .
C2 C 0.2689(3) 0.53238(16) 0.09011(16) 0.0636(13) Uani 1.000000 1 . . .
C3 C 0.2859(3) 0.48563(18) 0.0906(2) 0.0842(18) Uani 1.000000 1 . . .
H3 H 0.3207(3) 0.47573(18) 0.0739(2) 0.101(2) Uiso 1.000000 1 R . .
C4 C 0.2517(3) 0.45214(19) 0.1160(2) 0.095(2) Uani 1.000000 1 . . .
H4 H 0.2635(3) 0.41964(19) 0.1164(2) 0.114(2) Uiso 1.000000 1 R . .
C5 C 0.2031(3) 0.46573(17) 0.13947(16) 0.0611(13) Uani 1.000000 1 . . .
C6 C 0.1848(3) 0.51258(19) 0.1392(2) 0.092(2) Uani 1.000000 1 . . .
H6 H 0.1492(3) 0.52197(19) 0.1551(2) 0.111(2) Uiso 1.000000 1 R . .
C7 C 0.2190(3) 0.5456(2) 0.1154(2) 0.098(2) Uani 1.000000 1 . . .
H7 H 0.2079(3) 0.5782(2) 0.1165(2) 0.117(2) Uiso 1.000000 1 R . .
C8 C 0.1242(3) 0.22871(17) 0.06686(19) 0.0688(14) Uani 1.000000 1 . . .
C9 C 0.1289(3) 0.26461(16) 0.10582(18) 0.0647(13) Uani 1.000000 1 . . .
C10 C 0.0806(3) 0.2896(3) 0.1205(3) 0.117(3) Uani 1.000000 1 . . .
H10 H 0.0430(3) 0.2845(3) 0.1054(3) 0.140(3) Uiso 1.000000 1 R . .
C11 C 0.0840(3) 0.3230(2) 0.1574(3) 0.106(2) Uani 1.000000 1 . . .
H11 H 0.0489(3) 0.3388(2) 0.1683(3) 0.127(3) Uiso 1.000000 1 R . .
C12 C 0.1374(3) 0.33196(16) 0.17676(16) 0.0618(13) Uani 1.000000 1 . . .
C13 C 0.1881(3) 0.3071(2) 0.1622(2) 0.096(2) Uani 1.000000 1 . . .
H13 H 0.2262(3) 0.3134(2) 0.1760(2) 0.116(2) Uiso 1.000000 1 R . .
C14 C 0.1821(3) 0.2727(2) 0.1268(2) 0.0920(19) Uani 1.000000 1 . . .
H14 H 0.2163(3) 0.2548(2) 0.1175(2) 0.110(2) Uiso 1.000000 1 R . .
C15 C 0.1211(3) 0.28586(17) 0.43867(17) 0.0608(12) Uani 1.000000 1 . . .
C16 C 0.1361(2) 0.32910(16) 0.41087(17) 0.0591(12) Uani 1.000000 1 . . .
C17 C 0.1946(3) 0.3408(2) 0.4029(2) 0.0922(19) Uani 1.000000 1 . . .
H17 H 0.2255(3) 0.3198(2) 0.4130(2) 0.111(2) Uiso 1.000000 1 R . .
C18 C 0.2104(3) 0.3836(2) 0.3800(2) 0.0859(18) Uani 1.000000 1 . . .
H18 H 0.2513(3) 0.3923(2) 0.3760(2) 0.103(2) Uiso 1.000000 1 R . .
C19 C 0.1661(2) 0.41175(15) 0.36382(16) 0.0584(12) Uani 1.000000 1 . . .
C20 C 0.1072(3) 0.4003(2) 0.3693(3) 0.099(2) Uani 1.000000 1 . . .
H20 H 0.0767(3) 0.4202(2) 0.3567(3) 0.119(3) Uiso 1.000000 1 R . .
C21 C 0.0920(3) 0.3584(2) 0.3937(3) 0.103(2) Uani 1.000000 1 . . .
H21 H 0.0509(3) 0.3505(2) 0.3984(3) 0.124(3) Uiso 1.000000 1 R . .
C22 C 0.4897(2) 0.39525(19) 0.06692(16) 0.0628(13) Uani 1.000000 1 . . .
C23 C 0.4523(2) 0.40449(17) 0.10997(17) 0.0636(13) Uani 1.000000 1 . . .
C24 C 0.4272(3) 0.3684(2) 0.1345(2) 0.092(2) Uani 1.000000 1 . . .
H24 H 0.4316(3) 0.3366(2) 0.1237(2) 0.111(2) Uiso 1.000000 1 R . .
C25 C 0.3947(3) 0.37778(19) 0.1761(2) 0.098(2) Uani 1.000000 1 . . .
H25 H 0.3785(3) 0.35227(19) 0.1940(2) 0.117(3) Uiso 1.000000 1 R . .
C26 C 0.3866(2) 0.42284(15) 0.19010(16) 0.0566(12) Uani 1.000000 1 . . .
C27 C 0.4098(3) 0.4587(2) 0.16571(19) 0.090(2) Uani 1.000000 1 . . .
H27 H 0.4032(3) 0.4906(2) 0.17555(19) 0.108(2) Uiso 1.000000 1 R . .
C28 C 0.4439(3) 0.44938(19) 0.1256(2) 0.0901(19) Uani 1.000000 1 . . .
H28 H 0.4617(3) 0.47513(19) 0.1089(2) 0.108(2) Uiso 1.000000 1 R . .
C29 C 0.3322(3) 0.62313(17) 0.43409(18) 0.0661(14) Uani 1.000000 1 . . .
C30 C 0.3015(2) 0.59649(16) 0.39543(18) 0.0632(13) Uani 1.000000 1 . . .
C31 C 0.2419(3) 0.6022(2) 0.3865(2) 0.095(2) Uani 1.000000 1 . . .
H31 H 0.2202(3) 0.6251(2) 0.4043(2) 0.114(2) Uiso 1.000000 1 R . .
C32 C 0.2109(3) 0.5756(2) 0.3521(3) 0.110(3) Uani 1.000000 1 . . .
H32 H 0.1689(3) 0.5794(2) 0.3471(3) 0.132(3) Uiso 1.000000 1 R . .
C33 C 0.2446(3) 0.54396(15) 0.32621(16) 0.0593(12) Uani 1.000000 1 . . .
C34 C 0.3038(3) 0.5396(2) 0.3311(3) 0.106(2) Uani 1.000000 1 . . .
H34 H 0.3264(3) 0.5193(2) 0.3110(3) 0.127(3) Uiso 1.000000 1 R . .
C35 C 0.3321(3) 0.5663(2) 0.3674(3) 0.101(2) Uani 1.000000 1 . . .
H35 H 0.3742(3) 0.5627(2) 0.3721(3) 0.121(3) Uiso 1.000000 1 R . .
C36 C 0.4719(2) 0.33102(19) 0.43262(18) 0.0637(13) Uani 1.000000 1 . . .
C37 C 0.4335(2) 0.33938(18) 0.39065(18) 0.0677(14) Uani 1.000000 1 . . .
C38 C 0.4336(3) 0.3831(2) 0.3679(2) 0.101(2) Uani 1.000000 1 . . .
H38 H 0.4575(3) 0.4084(2) 0.3799(2) 0.121(3) Uiso 1.000000 1 R . .
C39 C 0.3994(3) 0.3904(2) 0.3280(2) 0.105(2) Uani 1.000000 1 . . .
H39 H 0.4016(3) 0.4198(2) 0.3115(2) 0.126(3) Uiso 1.000000 1 R . .
C40 C 0.3621(2) 0.35489(17) 0.31238(16) 0.0633(13) Uani 1.000000 1 . . .
C41 C 0.3583(3) 0.3120(2) 0.3352(2) 0.100(2) Uani 1.000000 1 . . .
H41 H 0.3315(3) 0.2880(2) 0.3245(2) 0.120(3) Uiso 1.000000 1 R . .
C42 C 0.3942(3) 0.3047(2) 0.3738(3) 0.108(2) Uani 1.000000 1 . . .
H42 H 0.3923(3) 0.2749(2) 0.3896(3) 0.130(3) Uiso 1.000000 1 R . .
Fe1 Fe 0.31394(5) 0.65725(3) 0.0 0.0611(3) Uani 1.000000 2 S T P
Fe2 Fe 0.41517(5) 0.57026(3) 0.0 0.0584(3) Uani 1.000000 2 S T P
Fe3 Fe 0.46223(5) 0.68052(3) 0.0 0.0580(3) Uani 1.000000 2 S T P
Fe4 Fe 0.56166(5) 0.37433(3) 0.5 0.0541(3) Uani 1.000000 2 S T P
Fe5 Fe 0.52543(4) 0.26018(3) 0.5 0.0528(3) Uani 1.000000 2 S T P
Fe6 Fe 0.67015(5) 0.29288(3) 0.5 0.0532(3) Uani 1.000000 2 S T P
N1 N 0.16474(19) 0.44476(13) 0.25283(13) 0.0614(10) Uani 1.000000 1 . . .
N2 N 0.27517(19) 0.43858(13) 0.29418(12) 0.0590(10) Uani 1.000000 1 . . .
N3 N 0.25309(19) 0.39275(13) 0.21194(12) 0.0585(10) Uani 1.000000 1 . . .
O1 O 0.16791(17) 0.43136(12) 0.16239(11) 0.0699(10) Uani 1.000000 1 . . .
O2 O 0.14006(16) 0.36626(11) 0.21334(11) 0.0654(9) Uani 1.000000 1 . . .
O3 O 0.35411(15) 0.43469(11) 0.23163(11) 0.0624(9) Uani 1.000000 1 . . .
O4 O 0.32450(16) 0.35885(11) 0.27196(11) 0.0676(9) Uani 1.000000 1 . . .
O5 O 0.17862(16) 0.45634(10) 0.34325(10) 0.0627(9) Uani 1.000000 1 . . .
O6 O 0.21377(16) 0.51777(10) 0.29088(10) 0.0611(9) Uani 1.000000 1 . . .
O7 O 0.3562(2) 0.55187(15) 0.04880(17) 0.1046(15) Uani 1.000000 1 . . .
O8 O 0.2849(2) 0.60697(13) 0.05139(14) 0.0867(12) Uani 1.000000 1 . . .
O9 O 0.51941(18) 0.42904(11) 0.04965(12) 0.0750(10) Uani 1.000000 1 . . .
O10 O 0.48895(18) 0.35282(12) 0.05127(12) 0.0746(10) Uani 1.000000 1 . . .
O11 O 0.0715(2) 0.22238(13) 0.05055(15) 0.0908(12) Uani 1.000000 1 . . .
O12 O 0.1702(2) 0.20818(13) 0.05336(13) 0.0799(11) Uani 1.000000 1 . . .
O13 O 0.47541(17) 0.29009(12) 0.44831(12) 0.0734(10) Uani 1.000000 1 . . .
O14 O 0.4996(2) 0.36651(13) 0.44877(14) 0.0861(12) Uani 1.000000 1 . . .
O15 O 0.16191(19) 0.25874(13) 0.45093(15) 0.0854(12) Uani 1.000000 1 . . .
O16 O 0.0667(2) 0.28031(13) 0.45095(15) 0.0886(12) Uani 1.000000 1 . . .
O17 O 0.3805(2) 0.60615(13) 0.44957(17) 0.0980(14) Uani 1.000000 1 . . .
O18 O 0.30681(17) 0.66022(12) 0.44995(13) 0.0743(10) Uani 1.000000 1 . . .
O19 O 0.3997(2) 0.63504(14) 0.0 0.0591(12) Uani 1.000000 2 S T P
O20 O 0.4347(2) 0.49554(17) 0.0 0.0815(15) Uani 1.000000 2 S T P
H20a H 0.4032(2) 0.47946(17) 0.010262000000000005 0.122(2) Uiso 0.500000 1 GR .
.
H20b H 0.4630(2) 0.48904(17) 0.02072800000000001 0.122(2) Uiso 0.500000 1 GR .
.
O21 O 0.5330(3) 0.72895(17) 0.0 0.0868(16) Uani 1.000000 2 S T P
H21a H 0.5447(3) 0.75149(17) 0.024498 0.130(2) Uiso 0.500000 1 GR . .
H21b H 0.5629(3) 0.73463(17) -0.024486 0.130(2) Uiso 0.500000 1 GR . .
O22 O 0.2272(3) 0.6811(2) 0.0 0.106(2) Uani 1.000000 2 S T P
O23 O 0.5852(2) 0.30963(13) 0.5 0.0517(11) Uani 1.000000 2 S T P
O24 O 0.4599(3) 0.20830(18) 0.5 0.0853(16) Uani 1.000000 2 S T P
H24a H 0.4238(3) 0.20734(18) 0.5172470000000001 0.128(2) Uiso 0.500000 1 GR . .
H24b H 0.4590(3) 0.17983(18) 0.482589 0.128(2) Uiso 0.500000 1 GR . .
O25 O 0.7601(3) 0.2775(2) 0.5 0.0953(18) Uani 1.000000 2 S T P
H25a H 0.7810(3) 0.2581(2) 0.520477 0.143(3) Uiso 0.500000 1 GR . .
H25b H 0.7893(3) 0.2884(2) 0.4796220000000001 0.143(3) Uiso 0.500000 1 GR . .
O26 O 0.5361(3) 0.44423(18) 0.5 0.108(2) Uani 1.000000 2 S T P
P1 P 0.20948(6) 0.46181(4) 0.29313(4) 0.0533(4) Uani 1.000000 1 . . .
P2 P 0.29832(6) 0.40733(4) 0.25244(4) 0.0545(3) Uani 1.000000 1 . . .
P3 P 0.18502(6) 0.41004(4) 0.21232(4) 0.0565(4) Uani 1.000000 1 . . .
H26a H 0.5295(3) 0.46244(18) 0.5242150073626143 0.162(3) Uiso 0.500000 1 GR . .
H26b H 0.5295(3) 0.46244(18) 0.4757849926373858 0.162(3) Uiso 0.500000 1 GR . .
H22a H 0.2045(3) 0.6872(2) 0.0242150073626142 0.159(3) Uiso 0.500000 1 GR . .
H22b H 0.2045(3) 0.6872(2) -0.0242150073626142 0.159(3) Uiso 0.500000 1 GR . .
loop_
_atom_site_aniso_label
_atom_site_aniso_U_11
_atom_site_aniso_U_22
_atom_site_aniso_U_33
_atom_site_aniso_U_12
_atom_site_aniso_U_13
_atom_site_aniso_U_23
C1 0.104(4) 0.043(3) 0.051(3) 0.005(3) -0.003(3) 0.004(2)
C2 0.102(4) 0.048(3) 0.041(3) 0.004(3) 0.003(3) 0.009(2)
C3 0.112(5) 0.058(3) 0.083(4) 0.017(3) 0.029(3) 0.020(3)
C4 0.153(6) 0.048(3) 0.084(4) 0.013(4) 0.028(4) 0.023(3)
C5 0.097(4) 0.055(3) 0.032(3) -0.004(3) -0.004(2) 0.011(2)
C6 0.129(5) 0.057(4) 0.090(4) 0.010(3) 0.036(4) 0.017(3)
C7 0.137(6) 0.052(3) 0.104(5) 0.005(3) 0.035(4) 0.015(3)
C8 0.110(5) 0.039(3) 0.058(3) 0.003(3) 0.001(3) -0.005(2)
C9 0.098(4) 0.038(3) 0.058(3) -0.010(3) -0.010(3) -0.013(2)
C10 0.105(5) 0.127(6) 0.118(6) -0.007(4) -0.023(4) -0.079(5)
C11 0.095(4) 0.099(5) 0.124(6) -0.002(4) -0.010(4) -0.073(4)
C12 0.095(4) 0.048(3) 0.043(3) -0.019(3) 0.000(3) -0.011(2)
C13 0.114(5) 0.072(4) 0.103(5) -0.003(4) -0.022(4) -0.034(4)
C14 0.111(5) 0.057(3) 0.108(5) 0.003(3) -0.008(4) -0.043(3)
C15 0.084(4) 0.044(3) 0.054(3) -0.002(3) 0.003(3) 0.008(2)
C16 0.077(3) 0.042(3) 0.058(3) -0.008(2) 0.004(2) 0.012(2)
C17 0.107(5) 0.068(4) 0.102(5) 0.018(3) 0.013(4) 0.040(3)
C18 0.098(4) 0.067(4) 0.092(4) -0.003(3) 0.016(3) 0.036(3)
C19 0.094(4) 0.034(2) 0.048(3) -0.001(2) 0.007(3) 0.002(2)
C20 0.096(5) 0.079(4) 0.122(5) 0.009(3) 0.000(4) 0.057(4)
C21 0.097(5) 0.080(4) 0.133(6) -0.005(4) 0.018(4) 0.060(4)
C22 0.088(4) 0.058(3) 0.043(3) 0.009(3) -0.004(2) -0.004(2)
C23 0.094(4) 0.051(3) 0.046(3) -0.000(3) 0.005(3) -0.003(2)
C24 0.151(6) 0.053(3) 0.073(4) 0.007(3) 0.038(4) -0.000(3)
C25 0.159(6) 0.048(3) 0.087(4) 0.005(4) 0.048(4) 0.012(3)
C26 0.091(3) 0.036(2) 0.043(3) -0.002(2) 0.003(2) -0.004(2)
C27 0.152(6) 0.057(3) 0.063(4) -0.023(3) 0.037(4) -0.020(3)
C28 0.148(6) 0.046(3) 0.077(4) -0.013(3) 0.040(4) -0.004(3)
C29 0.098(4) 0.040(3) 0.060(3) -0.013(3) -0.003(3) -0.002(2)
C30 0.082(4) 0.045(3) 0.062(3) -0.008(2) -0.006(3) -0.011(2)
C31 0.122(5) 0.072(4) 0.091(5) 0.012(4) -0.018(4) -0.046(3)
C32 0.126(6) 0.074(4) 0.129(6) 0.035(4) -0.050(5) -0.044(4)
C33 0.095(4) 0.035(2) 0.048(3) -0.013(2) -0.001(3) 0.000(2)
C34 0.108(5) 0.090(5) 0.120(6) -0.011(4) 0.021(4) -0.050(4)
C35 0.090(4) 0.091(4) 0.123(5) -0.007(4) -0.000(4) -0.061(4)
C36 0.079(3) 0.054(3) 0.057(3) 0.010(3) -0.005(3) 0.002(3)
C37 0.087(4) 0.059(3) 0.056(3) -0.007(3) -0.013(3) 0.007(2)
C38 0.133(5) 0.064(4) 0.106(5) -0.022(4) -0.057(4) 0.028(3)
C39 0.148(6) 0.060(3) 0.107(5) -0.036(4) -0.056(5) 0.029(3)
C40 0.092(4) 0.054(3) 0.044(3) 0.001(3) -0.013(2) 0.003(2)
C41 0.148(6) 0.059(3) 0.092(5) -0.021(4) -0.053(4) 0.019(3)
C42 0.148(6) 0.061(4) 0.115(5) -0.020(4) -0.053(5) 0.036(4)
Fe1 0.1034(8) 0.0332(5) 0.0466(6) 0.0019(5) -0.000000 0.000000
Fe2 0.0983(8) 0.0326(5) 0.0442(6) 0.0003(5) -0.000000 0.000000
Fe3 0.1034(8) 0.0318(5) 0.0387(5) 0.0053(5) -0.000000 0.000000
Fe4 0.0817(7) 0.0284(5) 0.0523(6) 0.0038(4) -0.000000 0.000000
Fe5 0.0815(7) 0.0318(5) 0.0451(6) 0.0063(4) -0.000000 0.000000
Fe6 0.0842(7) 0.0297(5) 0.0456(6) 0.0036(4) -0.000000 0.000000
N1 0.091(3) 0.041(2) 0.052(2) -0.0065(19) -0.010(2) -0.0051(18)
N2 0.097(3) 0.049(2) 0.031(2) -0.008(2) -0.0012(18) -0.0046(16)
N3 0.092(3) 0.046(2) 0.038(2) -0.002(2) -0.0097(19) -0.0067(16)
O1 0.104(3) 0.065(2) 0.0414(19) -0.0191(19) -0.0166(17) 0.0110(16)
O2 0.100(3) 0.0468(18) 0.0493(19) -0.0239(17) 0.0018(17) -0.0086(14)
O3 0.091(2) 0.0520(18) 0.0436(18) -0.0130(16) 0.0067(16) -0.0045(14)
O4 0.100(3) 0.0498(18) 0.054(2) -0.0021(17) -0.0205(18) -0.0002(15)
O5 0.109(3) 0.0394(17) 0.0395(18) -0.0135(16) 0.0138(16) 0.0020(13)
O6 0.112(3) 0.0380(16) 0.0334(17) -0.0200(16) -0.0056(16) 0.0019(12)
O7 0.123(4) 0.069(3) 0.122(4) 0.021(3) 0.046(3) 0.044(2)
O8 0.127(3) 0.056(2) 0.077(3) 0.011(2) 0.019(2) 0.0130(19)
O9 0.120(3) 0.047(2) 0.059(2) 0.005(2) 0.024(2) 0.0051(16)
O10 0.116(3) 0.053(2) 0.054(2) -0.0046(19) 0.0186(19) -0.0137(16)
O11 0.120(3) 0.060(2) 0.093(3) 0.005(2) -0.013(3) -0.038(2)
O12 0.116(3) 0.058(2) 0.065(2) -0.002(2) 0.002(2) -0.0162(18)
O13 0.100(3) 0.058(2) 0.062(2) -0.0012(18) -0.0224(19) 0.0183(17)
O14 0.122(3) 0.057(2) 0.079(3) 0.013(2) -0.036(2) 0.0089(19)
O15 0.098(3) 0.061(2) 0.097(3) 0.004(2) 0.015(2) 0.036(2)
O16 0.105(3) 0.062(2) 0.099(3) 0.000(2) 0.013(2) 0.042(2)
O17 0.108(3) 0.058(2) 0.128(4) 0.015(2) -0.044(3) -0.041(2)
O18 0.098(3) 0.055(2) 0.070(2) 0.0043(19) -0.0127(19) -0.0187(18)
O19 0.101(3) 0.039(2) 0.037(2) 0.009(2) -0.000000 0.000000
O20 0.089(4) 0.047(3) 0.109(4) 0.006(3) -0.000000 0.000000
O21 0.125(5) 0.051(3) 0.085(4) -0.016(3) -0.000000 0.000000
O22 0.130(5) 0.075(4) 0.115(5) 0.017(4) -0.000000 0.000000
O23 0.088(3) 0.028(2) 0.039(2) 0.006(2) -0.000000 0.000000
O24 0.104(4) 0.053(3) 0.099(4) -0.010(3) -0.000000 0.000000
O25 0.106(4) 0.075(4) 0.105(5) 0.017(3) -0.000000 0.000000
O26 0.125(5) 0.038(3) 0.162(6) 0.016(3) -0.000000 0.000000
P1 0.0941(9) 0.0330(6) 0.0329(6) -0.0104(6) 0.0009(6) -0.0004(5)
P2 0.0873(9) 0.0419(7) 0.0341(7) -0.0064(6) -0.0023(6) 0.0004(5)
P3 0.0935(10) 0.0405(7) 0.0356(7) -0.0138(6) -0.0061(6) -0.0005(5)
loop_
_atom_type_symbol
_atom_type_scat_dispersion_real
_atom_type_scat_dispersion_imag
_atom_type_scat_Cromer_Mann_a1
_atom_type_scat_Cromer_Mann_a2
_atom_type_scat_Cromer_Mann_a3
_atom_type_scat_Cromer_Mann_a4
_atom_type_scat_Cromer_Mann_b1
_atom_type_scat_Cromer_Mann_b2
_atom_type_scat_Cromer_Mann_b3
_atom_type_scat_Cromer_Mann_b4
_atom_type_scat_Cromer_Mann_c
_atom_type_scat_source
_atom_type_scat_dispersion_source
C 0.00347 0.00161 2.31000 1.02000 1.58860 0.86500 20.84390 10.20750 0.56870
51.65120 0.21559999883174896
'International Tables Volume C Table 6.1.1.4 (pp. 500-502)'
'Henke, Gullikson and Davis, At. Data and Nucl. Data Tables, 1993, 54, 2'
Fe 0.35822 0.84933 11.76950 7.35730 3.52220 2.30450 4.76110 0.30720 15.35350
76.88050 1.0369000434875488
'International Tables Volume C Table 6.1.1.4 (pp. 500-502)'
'Henke, Gullikson and Davis, At. Data and Nucl. Data Tables, 1993, 54, 2'
H 0.00000 0.00000 0.49300 0.32291 0.14019 0.04081 10.51090 26.12570 3.14236
57.79970 0.0030380000825971365
'International Tables Volume C Table 6.1.1.4 (pp. 500-502)'
'Henke, Gullikson and Davis, At. Data and Nucl. Data Tables, 1993, 54, 2'
N 0.00653 0.00323 12.21260 3.13220 2.01250 1.16630 0.00570 9.89330 28.99750
0.58260 -11.529000282287598
'International Tables Volume C Table 6.1.1.4 (pp. 500-502)'
'Henke, Gullikson and Davis, At. Data and Nucl. Data Tables, 1993, 54, 2'
O 0.01158 0.00611 3.04850 2.28680 1.54630 0.86700 13.27710 5.70110 0.32390
32.90890 0.2508000135421753
'International Tables Volume C Table 6.1.1.4 (pp. 500-502)'
'Henke, Gullikson and Davis, At. Data and Nucl. Data Tables, 1993, 54, 2'
P 0.10434 0.09671 6.43450 4.17910 1.78000 1.49080 1.90670 27.15700 0.52600
68.16450 1.11489999294281
'International Tables Volume C Table 6.1.1.4 (pp. 500-502)'
'Henke, Gullikson and Davis, At. Data and Nucl. Data Tables, 1993, 54, 2'
loop_
_diffrn_refln_index_h
_diffrn_refln_index_k
_diffrn_refln_index_l
_diffrn_refln_intensity_net
_diffrn_refln_intensity_u
0 0 3 13574 457
0 0 5 1848 74
0 0 7 4464 168
0 0 11 1532 69
0 0 13 6434 250
0 2 0 10427 391
0 2 5 7036 168
0 2 6 139371 2580
0 2 7 20384 418
0 2 8 1040 33
0 2 9 36129 726
0 2 10 32586 759
0 2 11 32847 798
0 2 12 143544 2654
0 2 13 50817 965
0 2 15 5421 157
0 2 16 256372 8089
0 2 17 126738 4041
0 2 18 188813 5905
0 2 19 7743 272
0 4 1 77657 1331
0 4 2 19694 382
0 4 3 37994 699
0 4 4 61107 1084
0 4 6 40565 1045
0 4 7 53050 935
0 4 8 79156 1565
0 4 9 7542 190
0 4 10 1042 41
0 4 11 43649 773
0 4 12 2624 72
0 4 13 73894 1466
0 4 14 2027 91
0 4 15 166305 3810
0 4 16 21801 448
0 4 17 85 22
0 4 18 15389 396
0 4 19 215680 6830
0 4 20 872 85
0 4 21 6956 272
0 4 22 503 63
0 6 1 723 63
0 6 2 123377 2112
0 6 3 170326 2888
0 6 4 84184 1494
0 6 5 84492 1488
0 6 6 103248 1799
0 6 8 57074 1020
0 6 9 9462 212
0 6 10 101427 2030
0 6 11 157894 3744
0 6 12 137055 3287
0 6 13 88392 1777
0 6 14 9256 242
0 6 15 33386 613
0 6 16 40062 1012
0 6 17 24535 624
0 6 18 732 55
0 6 19 4236 154
0 6 20 10892 245
0 6 21 96751 2277
0 6 22 31134 1144
0 6 23 19991 737
0 6 24 4970 237
0 6 25 14658 520
0 8 1 299606 5669
0 8 2 6813 173
0 8 3 374105 7044
0 8 4 3147 96
0 8 5 86137 1499
0 8 6 100687 1738
0 8 7 19111 382
0 8 8 82187 1463
0 8 9 13508 366
0 8 10 2407 110
0 8 11 17571 476
0 8 12 82828 2074
0 8 13 40079 1059
0 8 14 622 96
0 8 15 23061 539
0 8 16 1249 83
0 8 17 313279 5870
0 8 18 9096 198
0 8 19 53848 1100
0 8 20 12078 289
0 8 21 51452 1031
0 8 22 2723 94
0 8 23 17227 451
0 8 24 18528 726
0 8 25 23391 883
0 8 26 2060 162
0 8 27 22843 825
0 10 0 27275 734
0 10 1 92199 1870
0 10 2 4145 132
0 10 3 19078 404
0 10 4 1835 72
0 10 5 59753 1081
0 10 6 41693 784
0 10 7 408396 6645
0 10 8 3078 116
0 10 9 6846 179
0 10 10 16226 349
0 10 11 1436 85
0 10 12 8252 204
0 10 13 4024 151
0 10 14 468 83
0 10 15 3697 135
0 10 16 1554 99
0 10 17 81876 1670
0 10 18 9489 253
0 10 19 9470 217
0 10 20 215 72
0 10 21 29255 564
0 10 22 15508 371
0 10 24 162 96
0 10 25 4888 140
0 10 26 13197 556
0 10 27 2250 217
0 10 28 6068 341
0 12 0 97114 2387
0 12 1 254350 4244
0 12 2 4615 138
0 12 3 138906 2352
0 12 4 11640 261
0 12 5 999900 22288
0 12 6 27745 553
0 12 7 114107 1997
0 12 8 49661 908
0 12 9 144215 2514
0 12 10 35466 682
0 12 11 158372 2720
0 12 12 70676 1296
0 12 13 155773 2638
0 12 14 1741 113
0 12 15 142050 2800
0 12 16 206 127
0 12 17 33155 946
0 12 18 9687 261
0 12 19 157899 3072
0 12 20 7319 231
0 12 21 10394 292
0 12 22 902 88
0 12 23 32960 762
0 12 24 1934 107
0 12 25 24645 495
0 12 26 916 135
0 12 27 9404 446
0 14 0 8664 294
0 14 1 18000 404
0 14 2 109621 1881
0 14 3 4280 138
0 14 4 178669 3039
0 14 5 12543 289
0 14 6 1411 96
0 14 7 1870 99
0 14 8 66 88
0 14 9 3532 135
0 14 10 14864 382
0 14 11 1078 88
0 14 12 1241 94
0 14 13 858 113
0 14 14 14421 325
0 14 15 4321 168
0 14 16 35243 795
0 14 17 4360 187
0 14 18 13068 355
0 14 19 14132 446
0 14 20 4847 204
0 14 21 1576 187
0 14 22 43324 954
0 14 23 -28 88
0 14 24 10917 314
0 14 25 3430 162
0 14 26 7875 256
0 16 0 22359 646
0 16 1 894 77
0 16 2 42158 789
0 16 3 17769 371
0 16 4 32036 630
0 16 5 1235 99
0 16 6 207162 3496
0 16 7 4753 151
0 16 8 39361 765
0 16 9 8224 206
0 16 10 13555 308
0 16 11 1334 107
0 16 12 105968 1854
0 16 13 5408 173
0 16 14 31224 635
0 16 15 30182 602
0 16 16 26356 624
0 16 17 952 138
0 16 18 16817 457
0 16 19 1086 173
0 16 20 7061 259
0 16 21 1174 121
0 16 22 36434 869
0 16 23 7867 226
0 16 24 1084 184
0 16 25 490 116
0 18 0 15442 476
0 18 1 1312 110
0 18 2 104942 1876
0 18 3 8395 223
0 18 4 17111 360
0 18 5 15037 327
0 18 6 17241 451
0 18 7 18476 404
0 18 8 10722 272
0 18 9 3193 146
0 18 10 26469 525
0 18 11 503 121
0 18 12 748 143
0 18 13 2630 154
0 18 14 11797 316
0 18 15 2874 149
0 18 16 26664 679
0 18 17 23471 611
0 18 18 10573 360
0 18 19 -124 162
0 18 20 5650 261
0 18 21 6857 272
0 18 22 1023 190
0 18 23 325 198
0 20 1 25014 547
0 20 2 33213 682
0 20 3 -193 110
0 20 4 4651 201
0 20 5 32528 657
0 20 6 32977 699
0 20 7 33197 690
0 20 8 2198 151
0 20 9 3056 160
0 20 10 7171 245
0 20 11 25280 561
0 20 12 15876 407
0 20 13 9484 270
0 20 14 64319 1202
0 20 15 432 154
0 20 16 809 184
0 20 17 11019 374
0 20 18 616 179
0 20 19 127 193
0 20 20 2019 182
0 20 21 13789 553
0 20 22 13450 457
0 22 0 10639 426
0 22 1 6269 209
0 22 2 110408 2005
0 22 3 1084 151
0 22 4 3752 248
0 22 5 525 154
0 22 6 13923 369
0 22 7 4272 239
0 22 8 3169 184
0 22 9 42312 853
0 22 10 1059 157
0 22 11 4120 226
0 22 12 11698 388
0 22 13 7611 259
0 22 14 13871 380
0 22 15 16231 495
0 22 16 16699 490
0 22 17 1961 220
0 22 18 8664 336
0 22 19 4307 281
0 22 20 1086 220
0 24 0 25071 795
0 24 1 88986 1881
0 24 2 1634 171
0 24 3 67928 1312
0 24 4 3235 201
0 24 5 15109 374
0 24 6 21089 479
0 24 7 2773 182
0 24 8 1661 176
0 24 9 2299 190
0 24 10 14011 374
0 24 11 13156 531
0 24 12 4439 231
0 24 13 44892 1089
0 24 14 7066 278
0 24 15 24807 663
0 24 16 2764 234
0 24 17 15054 564
0 26 0 503 250
0 26 1 19064 506
0 26 2 1392 193
0 26 3 42430 968
0 26 4 9696 308
0 26 5 1106 187
0 26 6 37501 798
0 26 7 8766 446
0 26 8 3741 212
0 26 9 1972 220
0 26 10 1912 195
0 26 11 9080 336
0 26 12 248 182
0 26 13 6860 300
0 26 14 1158 193
0 28 0 800 226
0 28 1 12202 404
0 28 2 4431 270
0 28 3 36957 963
0 28 4 96 234
0 28 5 2041 198
0 28 6 3358 223
0 28 7 25157 825
0 28 8 16171 547
0 28 9 2910 272
1 1 1 63401 1194
1 1 3 40634 613
1 1 5 512 22
1 1 7 5669 138
1 1 8 5674 138
1 1 9 37009 737
1 1 10 3334 80
1 1 11 5930 182
1 1 12 132817 3020
1 1 13 1571 50
1 1 14 17832 473
1 1 15 18415 374
1 1 16 391023 12367
1 1 18 118723 3988
1 1 19 3870 171
1 1 21 3122 187
1 2 0 7471 204
1 2 1 28336 415
1 2 3 73080 1111
1 2 4 48165 847
1 2 5 26070 481
1 2 6 88588 1216
1 2 7 3843 88
1 2 8 25157 448
1 2 9 2203 44
1 2 10 399 17
1 2 11 2671 69
1 2 12 119243 1947
1 2 13 3895 77
1 2 14 41913 707
1 2 15 7682 165
1 2 16 176496 3235
1 2 17 14215 292
1 2 18 148379 3320
1 3 1 18896 267
1 3 3 30099 506
1 3 5 23495 396
1 3 6 159217 2338
1 3 7 1997 74
1 3 8 28991 426
1 3 9 1634 41
1 3 10 756 30
1 3 11 5801 113
1 3 12 15304 217
1 3 13 1174 30
1 3 14 136060 2558
1 3 15 5108 113
1 3 16 218802 3482
1 3 17 1031 47
1 3 18 91687 1716
1 3 20 95120 2156
1 3 21 9385 371
1 3 22 22357 792
1 4 1 4247 88
1 4 2 211975 3534
1 4 3 132531 1840
1 4 5 105182 1488
1 4 6 73861 1312
1 4 7 20096 352
1 4 8 201564 2960
1 4 9 1042 36
1 4 10 54720 781
1 4 11 198 25
1 4 12 30914 426
1 4 13 1439 55
1 4 14 171528 2099
1 4 15 36596 514
1 4 16 29943 545
1 4 17 2115 66
1 4 18 327 33
1 4 19 3966 94
1 4 20 79313 1843
1 4 22 14083 517
1 4 23 954 85
1 4 24 53534 1793
1 5 0 128300 2189
1 5 1 17320 253
1 5 2 11393 179
1 5 4 44488 589
1 5 5 88830 1326
1 5 6 33373 517
1 5 7 112801 1461
1 5 8 16773 239
1 5 9 6420 124
1 5 10 21408 333
1 5 11 737 36
1 5 12 10691 201
1 5 13 3284 83
1 5 14 54577 850
1 5 15 2148 52
1 5 16 602 33
1 5 17 9217 168
1 5 18 6621 143
1 5 19 20715 333
1 5 20 286 50
1 5 21 157 58
1 5 22 2385 85
1 5 23 7237 305
1 5 24 5804 259
1 5 25 264 69
1 5 26 701 63
1 6 0 94160 1667
1 6 1 6898 118
1 6 2 15202 242
1 6 3 277106 4577
1 6 4 68360 869
1 6 5 4475 88
1 6 6 7482 143
1 6 8 34500 536
1 6 9 39875 553
1 6 10 71160 1015
1 6 11 113065 1375
1 6 12 22060 432
1 6 13 45566 732
1 6 14 7971 182
1 6 15 39295 641
1 6 16 11426 198
1 6 17 86855 1205
1 6 18 3378 77
1 6 19 61621 1078
1 6 20 3111 94
1 6 21 17521 333
1 6 22 42428 726
1 6 23 4181 127
1 6 24 201 61
1 6 25 1340 127
1 6 26 509 99
1 6 27 6923 264
1 7 0 22412 446
1 7 1 116481 1425
1 7 2 27759 388
1 7 3 97183 1202
1 7 4 72992 930
1 7 5 50399 652
1 7 6 223 30
1 7 7 143464 1727
1 7 8 14927 237
1 7 9 45838 641
1 7 10 19647 330
1 7 11 76290 1023
1 7 12 5713 146
1 7 13 729 44
1 7 14 4728 105
1 7 15 11657 223
1 7 16 5930 135
1 7 17 38236 688
1 7 18 3136 72
1 7 19 1078 47
1 7 20 7677 138
1 7 21 13877 281
1 7 22 4321 124
1 7 23 2679 94
1 7 24 2723 116
1 7 25 971 85
1 7 26 1466 157
1 7 27 1925 138
1 8 0 8758 443
1 8 1 103155 1274
1 8 2 72032 910
1 8 3 14509 226
1 8 4 32525 443
1 8 5 141616 1719
1 8 6 1474 47
1 8 7 47618 624
1 8 8 26458 371
1 8 9 738846 13547
1 8 10 5738 113
1 8 11 244077 3037
1 8 12 2143 69
1 8 13 56051 842
1 8 14 6106 127
1 8 15 15197 239
1 8 16 10268 179
1 8 17 18786 382
1 8 18 5289 124
1 8 19 102148 1433
1 8 20 1505 77
1 8 21 -52 44
1 8 22 2429 58
1 8 23 5944 154
1 8 24 20310 393
1 8 25 16740 473
1 8 26 12820 358
1 8 27 10331 286
1 8 28 6048 261
1 9 0 26320 528
1 9 1 133496 1601
1 9 2 5210 94
1 9 3 35603 481
1 9 4 3163 69
1 9 5 70219 891
1 9 6 13035 204
1 9 7 71784 899
1 9 8 23374 330
1 9 9 171459 2038
1 9 10 16179 256
1 9 11 32429 517
1 9 12 79777 1172
1 9 13 59542 814
1 9 14 4261 94
1 9 15 45368 751
1 9 16 737 47
1 9 17 35689 503
1 9 18 2052 63
1 9 19 37388 575
1 9 20 358 50
1 9 21 50071 806
1 9 22 2784 69
1 9 23 39864 580
1 9 24 17 69
1 9 25 25605 421
1 9 26 1342 124
1 9 27 3887 171
1 9 28 294 99
1 10 0 31739 613
1 10 1 45992 646
1 10 2 44848 583
1 10 3 118109 1428
1 10 4 7880 143
1 10 5 18134 264
1 10 6 4571 96
1 10 7 134335 1645
1 10 8 20935 300
1 10 9 234967 2759
1 10 10 2503 66
1 10 11 181238 2302
1 10 12 69666 952
1 10 13 51735 723
1 10 14 18885 355
1 10 15 69765 1037
1 10 16 506 47
1 10 17 38351 723
1 10 18 528 47
1 10 19 3986 118
1 10 20 14 47
1 10 21 7861 165
1 10 22 3771 113
1 10 23 12716 206
1 10 24 820 55
1 10 25 5509 179
1 10 26 657 74
1 10 27 5210 217
1 10 28 -19 124
1 11 0 35017 649
1 11 1 10408 162
1 11 2 23842 333
1 11 3 112908 1485
1 11 4 2828 72
1 11 5 36437 487
1 11 6 62633 798
1 11 7 99969 1246
1 11 8 4442 94
1 11 9 285968 3331
1 11 10 10989 182
1 11 11 119157 1458
1 11 12 2104 72
1 11 13 35972 520
1 11 14 12735 234
1 11 15 47709 718
1 11 16 457 52
1 11 17 25069 385
1 11 18 4351 105
1 11 19 4503 102
1 11 20 630 72
1 11 21 30231 479
1 11 22 22469 352
1 11 23 9470 187
1 11 24 457 66
1 11 25 3917 107
1 11 26 107 88
1 11 27 15885 454
1 12 0 993 74
1 12 1 34962 462
1 12 2 25297 374
1 12 3 23196 330
1 12 4 1205 52
1 12 5 67623 866
1 12 6 44243 583
1 12 7 132762 1606
1 12 8 8221 151
1 12 9 8263 157
1 12 10 3378 83
1 12 11 6263 118
1 12 12 33142 520
1 12 13 1846 74
1 12 14 15483 253
1 12 15 14168 237
1 12 16 17804 341
1 12 17 -55 72
1 12 18 611 58
1 12 19 44658 649
1 12 20 2773 88
1 12 21 154 63
1 12 22 531 58
1 12 23 349 63
1 12 24 15477 256
1 12 25 239 77
1 12 26 3262 116
1 12 27 2602 171
1 13 0 4453 143
1 13 1 129631 1571
1 13 2 10405 165
1 13 3 177951 2115
1 13 4 97736 1199
1 13 5 16140 242
1 13 6 -11 47
1 13 7 4530 96
1 13 8 162 47
1 13 9 558 52
1 13 10 9599 184
1 13 11 52 52
1 13 12 2154 74
1 13 13 1749 77
1 13 14 3215 91
1 13 15 13371 231
1 13 16 6013 132
1 13 17 28900 479
1 13 18 545 80
1 13 19 6549 160
1 13 20 17111 303
1 13 21 22788 432
1 13 22 773 63
1 13 23 4893 157
1 13 24 231 69
1 13 25 330 83
1 13 26 2605 96
1 14 0 7526 190
1 14 1 3903 94
1 14 2 28353 388
1 14 3 64674 820
1 14 4 10496 190
1 14 5 179 47
1 14 6 39174 531
1 14 7 101235 1232
1 14 8 4404 102
1 14 9 589 55
1 14 10 743 63
1 14 11 40147 578
1 14 12 6274 138
1 14 13 53631 745
1 14 14 1155 74
1 14 15 1799 88
1 14 16 21985 347
1 14 17 56065 850
1 14 18 2203 94
1 14 19 11552 223
1 14 20 1744 107
1 14 21 17535 297
1 14 22 1207 105
1 14 23 2335 88
1 14 24 410 72
1 14 25 3914 116
1 14 26 7146 201
1 15 0 104615 1807
1 15 1 2082 72
1 15 2 6368 121
1 15 3 3045 83
1 15 4 11110 187
1 15 5 393 55
1 15 6 24315 349
1 15 7 3265 94
1 15 8 1551 72
1 15 9 1744 72
1 15 10 1084 66
1 15 11 899 63
1 15 12 6057 132
1 15 13 -135 69
1 15 14 23781 363
1 15 15 795 77
1 15 16 6104 162
1 15 17 3680 121
1 15 18 580 96
1 15 19 253 80
1 15 20 4269 140
1 15 21 4902 154
1 15 22 24873 407
1 15 23 129 80
1 15 24 666 72
1 15 25 1042 85
1 16 0 16107 349
1 16 1 20649 300
1 16 2 655 61
1 16 3 833 58
1 16 4 1595 88
1 16 5 38390 528
1 16 6 26601 385
1 16 7 2704 80
1 16 8 26337 374
1 16 9 15279 239
1 16 10 12581 209
1 16 11 1807 80
1 16 12 -176 69
1 16 13 7245 138
1 16 14 34550 542
1 16 15 7955 173
1 16 16 -259 85
1 16 17 25291 424
1 16 18 -292 94
1 16 19 25088 413
1 16 20 17923 325
1 16 21 -11 80
1 16 22 3039 135
1 16 23 1180 121
1 16 24 6821 182
1 16 25 7702 187
1 17 0 96416 1637
1 17 1 5595 113
1 17 2 58491 754
1 17 3 322 61
1 17 4 55614 734
1 17 5 4046 105
1 17 6 76061 965
1 17 7 11775 201
1 17 8 42375 569
1 17 9 545 72
1 17 10 78476 996
1 17 11 7658 154
1 17 12 15648 264
1 17 13 8 83
1 17 14 106714 1425
1 17 15 2404 105
1 17 16 28147 435
1 17 17 -58 91
1 17 18 23559 426
1 17 19 347 107
1 17 20 402 88
1 17 21 880 135
1 17 22 7118 201
1 17 23 1450 99
1 17 24 8136 228
1 18 0 12034 305
1 18 1 1141 80
1 18 2 79112 990
1 18 3 33788 465
1 18 4 12441 198
1 18 5 1070 72
1 18 6 6731 135
1 18 7 8994 162
1 18 8 2858 105
1 18 9 1051 80
1 18 10 63 88
1 18 11 3369 105
1 18 12 14185 259
1 18 13 1579 94
1 18 14 45701 652
1 18 15 83 96
1 18 16 2013 116
1 18 17 9853 215
1 18 18 18927 371
1 18 19 195 116
1 18 20 3196 135
1 18 21 622 102
1 18 22 30141 553
1 18 23 3482 127
1 19 0 10700 256
1 19 1 2379 94
1 19 2 37430 514
1 19 3 88 80
1 19 4 53741 712
1 19 5 776 83
1 19 6 77514 1007
1 19 7 135 77
1 19 8 67848 905
1 19 9 1125 96
1 19 10 34800 492
1 19 11 894 91
1 19 12 57171 767
1 19 13 5834 149
1 19 14 18550 377
1 19 15 -63 105
1 19 16 28111 490
1 19 17 393 124
1 19 18 3394 149
1 19 19 1865 162
1 19 20 9470 245
1 19 21 484 113
1 19 22 17969 388
1 19 23 -55 94
1 20 0 207470 3507
1 20 1 2962 113
1 20 2 3900 116
1 20 3 2217 99
1 20 4 49389 677
1 20 5 4637 132
1 20 6 5982 138
1 20 7 3012 113
1 20 8 3966 129
1 20 9 3397 113
1 20 10 429 91
1 20 11 1263 107
1 20 12 21471 338
1 20 13 314 96
1 20 14 57531 847
1 20 15 688 116
1 20 16 9066 220
1 20 17 2079 135
1 20 18 3419 179
1 20 19 2753 162
1 20 20 29552 600
1 20 21 47 110
1 20 22 556 116
1 21 0 1362 143
1 21 1 3455 121
1 21 2 754 96
1 21 3 11123 220
1 21 4 272 91
1 21 5 29599 440
1 21 6 1455 96
1 21 7 2082 105
1 21 8 1890 105
1 21 9 11437 226
1 21 10 479 102
1 21 11 7685 182
1 21 12 3510 129
1 21 13 4662 146
1 21 14 7231 228
1 21 15 666 127
1 21 16 184 121
1 21 17 1947 138
1 21 18 993 140
1 21 19 1997 132
1 21 20 787 151
1 21 21 2935 162
1 22 0 1081 146
1 22 1 1716 116
1 22 2 5476 160
1 22 3 1059 102
1 22 4 4302 132
1 22 5 6530 157
1 22 6 3204 127
1 22 7 21314 341
1 22 8 9250 190
1 22 9 15425 270
1 22 10 270 105
1 22 11 811 110
1 22 12 29827 454
1 22 13 7336 176
1 22 14 2932 146
1 22 15 1070 135
1 22 16 1125 129
1 22 17 10419 259
1 22 18 1565 154
1 22 19 2951 187
1 22 20 -135 149
1 23 0 20992 479
1 23 1 1430 118
1 23 2 924 116
1 23 3 4549 140
1 23 4 4021 138
1 23 5 432 102
1 23 6 2137 124
1 23 7 27459 440
1 23 8 223 116
1 23 9 245 116
1 23 10 3606 138
1 23 11 5207 184
1 23 12 1524 124
1 23 13 1056 138
1 23 14 10331 267
1 23 15 679 135
1 23 16 -179 129
1 23 17 410 149
1 23 18 1535 168
1 24 0 36192 751
1 24 1 4819 157
1 24 2 179 116
1 24 3 1037 113
1 24 4 34041 503
1 24 5 4008 135
1 24 6 3598 140
1 24 7 5592 162
1 24 8 13351 275
1 24 9 28540 454
1 24 10 635 146
1 24 11 8794 201
1 24 12 13596 297
1 24 13 2409 135
1 24 14 8843 226
1 24 15 3777 171
1 24 16 8656 237
1 24 17 822 154
1 25 0 4494 217
1 25 1 40827 608
1 25 2 6612 173
1 25 3 37694 567
1 25 4 1716 121
1 25 5 2434 140
1 25 6 11640 231
1 25 7 11363 259
1 25 8 4841 162
1 25 9 18231 316
1 25 10 4621 162
1 25 11 9522 212
1 25 12 5578 171
1 25 13 9674 228
1 25 14 2575 168
1 25 15 15433 330
1 25 16 4156 190
1 26 0 1986 190
1 26 1 14160 272
1 26 2 1026 127
1 26 3 7036 237
1 26 4 2729 151
1 26 5 20481 429
1 26 6 9987 245
1 26 7 2907 149
1 26 8 190 129
1 26 9 4610 171
1 26 10 1936 146
1 26 11 18176 325
1 26 12 2055 157
1 26 13 2971 193
1 26 14 1851 162
1 27 0 195 179
1 27 1 62518 974
1 27 2 2332 135
1 27 3 53848 1081
1 27 4 -85 135
1 27 5 47076 792
1 27 6 468 124
1 27 7 10978 294
1 27 8 8219 217
1 27 9 21234 440
1 27 10 322 135
1 27 11 14798 325
1 27 12 985 176
1 28 0 165 198
1 28 1 4291 165
1 28 2 4866 184
1 28 3 275 129
1 28 4 831 154
1 28 5 4043 201
1 28 6 3986 173
1 28 7 3496 176
1 28 8 487 138
1 28 9 9847 330
1 29 0 3356 448
1 29 1 -124 198
1 29 2 2973 297
1 29 3 479 294
1 29 4 5694 259
1 29 5 132 234
2 0 0 43052 1089
2 0 1 7297 179
2 0 3 67213 1144
2 0 4 160237 3675
2 0 5 21435 448
2 0 6 47893 952
2 0 7 2503 102
2 0 8 2773 102
2 0 9 6222 198
2 0 10 33397 864
2 0 11 261 44
2 0 12 126980 2951
2 0 15 2206 88
2 0 16 363716 11412
2 0 19 1274 69
2 0 21 278 74
2 1 1 5771 96
2 1 3 86244 1084
2 1 4 130011 2143
2 1 5 25982 380
2 1 6 95956 1595
2 1 7 2806 72
2 1 8 12820 198
2 1 9 943 58
2 1 10 19364 366
2 1 11 9930 206
2 1 12 13431 267
2 1 13 193 33
2 1 14 305869 6901
2 1 15 4577 110
2 1 16 100608 2363
2 1 19 2597 88
2 1 21 17056 660
2 1 23 132 63
2 2 1 21757 358
2 2 2 56862 965
2 2 3 5633 96
2 2 4 239 19
2 2 6 435 22
2 2 7 9481 176
2 2 8 3606 80
2 2 9 1714 63
2 2 10 40299 693
2 2 11 154 22
2 2 12 25019 473
2 2 13 6087 149
2 2 14 70978 1694
2 2 15 29475 773
2 2 16 2269 83
2 2 17 954 50
2 2 18 462 55
2 2 19 38621 924
2 2 20 64220 2046
2 2 21 2258 96
2 2 22 9022 377
2 2 23 206 66
2 3 0 1865 85
2 3 1 18223 358
2 3 2 3713 124
2 3 3 99895 1527
2 3 4 1744 94
2 3 6 23124 402
2 3 7 94631 1444
2 3 8 5919 121
2 3 9 5537 116
2 3 10 11220 223
2 3 11 23440 421
2 3 12 7649 184
2 3 13 93321 1829
2 3 14 131144 2503
2 3 15 23011 418
2 3 16 51625 866
2 3 17 1086 55
2 3 18 4057 118
2 3 19 77874 1496
2 3 20 6755 212
2 3 21 2462 107
2 3 22 437 72
2 3 23 19601 718
2 3 24 12210 473
2 3 26 789 80
2 4 0 9143 286
2 4 1 23616 393
2 4 2 22255 410
2 4 3 3961 176
2 4 4 253468 4932
2 4 6 3246 69
2 4 7 5787 135
2 4 8 27170 432
2 4 9 26260 487
2 4 10 1191 52
2 4 11 8243 132
2 4 12 23517 325
2 4 13 1463 44
2 4 14 3314 72
2 4 15 20404 344
2 4 16 6024 121
2 4 17 23289 426
2 4 18 9756 173
2 4 19 56926 960
2 4 20 421 50
2 4 21 25550 655
2 4 22 110 99
2 4 23 14542 396
2 4 24 2019 127
2 4 25 941 88
2 4 26 77 74
2 5 0 167922 2866
2 5 1 13172 209
2 5 2 5245 110
2 5 4 24967 388
2 5 6 4855 113
2 5 7 59038 954
2 5 8 50261 699
2 5 9 55259 745
2 5 10 166770 2269
2 5 11 16589 297
2 5 12 57660 814
2 5 13 39680 536
2 5 14 6736 157
2 5 15 2613 63
2 5 16 2049 50
2 5 17 10689 193
2 5 18 781 50
2 5 19 2332 80
2 5 20 624 47
2 5 21 514 50
2 5 22 6112 165
2 5 23 124 99
2 5 24 542 91
2 5 25 4321 209
2 5 26 3411 182
2 5 27 2286 121
2 6 0 57030 1070
2 6 1 119289 1488
2 6 2 258982 3900
2 6 3 50751 734
2 6 4 29934 457
2 6 5 234604 2990
2 6 6 93701 1373
2 6 7 17117 272
2 6 8 946 44
2 6 9 29464 462
2 6 10 66470 894
2 6 11 12323 195
2 6 12 35191 498
2 6 13 3372 74
2 6 14 18880 322
2 6 15 12105 226
2 6 16 561 39
2 6 17 5196 129
2 6 18 8271 162
2 6 19 30614 509
2 6 20 481 55
2 6 21 5980 146
2 6 22 59357 1015
2 6 23 20079 435
2 6 24 41 110
2 6 25 55 105
2 6 26 17353 677
2 6 27 374 96
2 6 28 1601 113
2 7 0 15860 404
2 7 1 146088 1939
2 7 2 43910 594
2 7 3 47142 690
2 7 4 34995 495
2 7 5 4376 96
2 7 6 99914 1331
2 7 7 49337 748
2 7 8 34033 495
2 7 9 19314 338
2 7 10 2443 72
2 7 11 25228 487
2 7 12 217179 2555
2 7 13 443 41
2 7 14 12268 198
2 7 15 28020 402
2 7 16 2723 72
2 7 17 67969 1172
2 7 18 11115 212
2 7 19 481 39
2 7 20 14628 270
2 7 21 23135 446
2 7 22 41 55
2 7 23 3328 110
2 7 24 7286 168
2 7 25 138 116
2 7 26 242 118
2 7 27 10073 402
2 7 28 39 107
2 7 29 553 77
2 8 0 268543 4459
2 8 1 81015 1048
2 8 2 2577 63
2 8 3 6098 113
2 8 4 1001 44
2 8 5 236351 2822
2 8 6 52632 745
2 8 7 80454 1103
2 8 8 649 44
2 8 9 38629 561
2 8 10 256 33
2 8 11 77173 1042
2 8 12 33628 457
2 8 13 81216 1073
2 8 14 3317 77
2 8 15 80696 1064
2 8 16 5267 127
2 8 17 13998 330
2 8 18 3105 80
2 8 19 61742 982
2 8 20 8802 165
2 8 21 53614 704
2 8 22 1048 74
2 8 23 43481 784
2 8 24 2231 99
2 8 25 19722 377
2 8 26 655 83
2 8 27 3446 237
2 8 28 580 162
2 9 0 1447 63
2 9 1 109929 1370
2 9 2 1133 44
2 9 3 52792 712
2 9 4 5416 105
2 9 5 10383 193
2 9 6 23011 333
2 9 7 2649 72
2 9 8 569 47
2 9 9 100187 1334
2 9 10 1703 66
2 9 11 2704 80
2 9 12 954 61
2 9 13 13976 250
2 9 14 26064 421
2 9 15 140 39
2 9 16 204 41
2 9 17 2409 72
2 9 18 14941 311
2 9 19 54756 880
2 9 20 3433 83
2 9 21 12477 215
2 9 22 12930 248
2 9 23 4437 124
2 9 24 195 74
2 9 25 6753 176
2 9 26 -14 91
2 9 27 6698 204
2 9 28 135 179
2 10 0 2082 77
2 10 1 3746 77
2 10 2 13035 206
2 10 3 139027 1697
2 10 4 37234 542
2 10 5 62817 820
2 10 6 11184 204
2 10 7 290080 3400
2 10 8 37364 545
2 10 9 262440 3295
2 10 10 -14 47
2 10 11 210072 2652
2 10 12 182 47
2 10 13 43349 613
2 10 14 278 41
2 10 15 9093 151
2 10 16 2487 66
2 10 17 92895 1213
2 10 18 -118 55
2 10 19 165 50
2 10 20 9949 193
2 10 21 15695 253
2 10 22 58 55
2 10 23 3777 99
2 10 24 4082 127
2 10 25 10210 253
2 10 26 2720 127
2 10 27 31230 594
2 10 28 4120 179
2 11 0 20415 432
2 11 1 123762 1507
2 11 2 12273 198
2 11 3 100718 1254
2 11 4 9638 162
2 11 5 120249 1477
2 11 6 33741 465
2 11 7 144548 1766
2 11 8 20173 294
2 11 9 36074 572
2 11 10 69 50
2 11 11 136764 1769
2 11 12 38695 597
2 11 13 107773 1428
2 11 14 1749 66
2 11 15 69108 943
2 11 16 223 47
2 11 17 30949 440
2 11 18 413 58
2 11 19 77214 1224
2 11 20 248 58
2 11 21 5674 138
2 11 22 2343 121
2 11 23 5487 132
2 11 24 10029 176
2 11 25 9165 212
2 11 26 1741 102
2 11 27 16292 341
2 12 0 9809 223
2 12 1 25572 355
2 12 2 -41 44
2 12 3 146157 1780
2 12 4 10317 182
2 12 5 66228 910
2 12 6 22522 327
2 12 7 473 50
2 12 8 459 50
2 12 9 25765 429
2 12 10 94080 1367
2 12 11 33832 492
2 12 12 6901 149
2 12 13 21058 325
2 12 14 9003 182
2 12 15 13747 250
2 12 16 261 52
2 12 17 7971 184
2 12 18 8282 154
2 12 19 344 63
2 12 20 1727 105
2 12 21 52294 795
2 12 22 1513 99
2 12 23 369 77
2 12 24 509 66
2 12 25 2217 83
2 12 26 6659 151
2 12 27 -74 138
2 13 0 77896 1356
2 13 1 13393 223
2 13 2 64201 822
2 13 3 3419 85
2 13 4 53105 685
2 13 5 40400 542
2 13 6 286 47
2 13 7 32006 514
2 13 8 12356 193
2 13 9 30303 418
2 13 10 608 66
2 13 11 22874 349
2 13 12 52533 740
2 13 13 36580 523
2 13 14 2943 94
2 13 15 1989 80
2 13 16 42931 608
2 13 17 3240 99
2 13 18 7550 151
2 13 19 756 63
2 13 20 30724 468
2 13 21 1147 72
2 13 22 12540 239
2 13 23 611 66
2 13 24 7845 160
2 13 25 4076 113
2 13 26 33 107
2 14 0 96284 1664
2 14 1 1095 58
2 14 2 369 52
2 14 3 31378 429
2 14 4 8254 160
2 14 5 2533 72
2 14 6 64369 828
2 14 7 14484 231
2 14 8 100456 1254
2 14 9 16886 259
2 14 10 34839 506
2 14 11 2778 102
2 14 12 133257 1859
2 14 13 2800 94
2 14 14 30036 437
2 14 15 4362 107
2 14 16 7790 171
2 14 17 121 63
2 14 18 932 91
2 14 19 4096 129
2 14 20 5256 132
2 14 21 16927 319
2 14 22 7146 206
2 14 23 11008 226
2 14 24 952 77
2 14 25 619 77
2 14 26 19160 393
2 15 0 4797 149
2 15 1 18198 264
2 15 2 2759 77
2 15 3 349 55
2 15 4 29918 446
2 15 5 34822 481
2 15 6 1111 66
2 15 7 14551 234
2 15 8 146 61
2 15 9 26793 391
2 15 10 1026 69
2 15 11 613 69
2 15 12 24015 363
2 15 13 9814 182
2 15 14 5534 151
2 15 15 6401 154
2 15 16 2569 105
2 15 17 2676 99
2 15 18 7498 157
2 15 19 8276 190
2 15 20 10749 234
2 15 21 1884 94
2 15 22 264 63
2 15 23 1227 102
2 15 24 1152 107
2 15 25 776 83
2 16 0 374415 6043
2 16 1 3600 91
2 16 2 28576 388
2 16 3 330 61
2 16 4 192548 2280
2 16 5 451 66
2 16 6 103639 1271
2 16 7 -55 66
2 16 8 157935 1906
2 16 9 1207 69
2 16 10 143929 2000
2 16 11 2476 94
2 16 12 78111 1053
2 16 13 17 77
2 16 14 66842 974
2 16 15 5925 138
2 16 16 26141 429
2 16 17 1826 99
2 16 18 9594 184
2 16 19 336 85
2 16 20 75635 1152
2 16 21 -314 143
2 16 22 18000 369
2 16 23 8249 234
2 16 24 64388 1213
2 16 25 121 85
2 17 0 55333 1009
2 17 1 866 69
2 17 2 12312 209
2 17 3 23179 327
2 17 4 16988 264
2 17 5 3331 99
2 17 6 13558 220
2 17 7 5281 121
2 17 8 51947 688
2 17 9 941 80
2 17 10 38450 525
2 17 11 2822 102
2 17 12 60017 847
2 17 13 325 85
2 17 14 4467 132
2 17 15 1048 91
2 17 16 7273 171
2 17 17 5688 146
2 17 18 10502 215
2 17 19 17942 363
2 17 20 1397 127
2 17 21 9434 212
2 17 22 600 107
2 17 23 371 77
2 17 24 1758 118
2 18 0 2115 143
2 18 1 217 72
2 18 2 31775 454
2 18 3 677 85
2 18 4 935 77
2 18 5 110 72
2 18 6 6780 162
2 18 7 5116 124
2 18 8 6156 143
2 18 9 1551 85
2 18 10 2855 105
2 18 11 6260 138
2 18 12 1111 99
2 18 13 1089 99
2 18 14 7792 184
2 18 15 121 94
2 18 16 4880 146
2 18 17 1364 113
2 18 18 13271 264
2 18 19 314 96
2 18 20 1771 127
2 18 21 160 94
2 18 22 5985 195
2 18 23 872 118
2 19 0 9682 264
2 19 1 22802 327
2 19 2 47417 715
2 19 3 721 80
2 19 4 4206 165
2 19 5 421 83
2 19 6 9129 355
2 19 7 36500 550
2 19 8 2066 105
2 19 9 3072 99
2 19 10 18627 294
2 19 11 11566 215
2 19 12 41512 613
2 19 13 388 105
2 19 14 7715 193
2 19 15 7044 184
2 19 16 40967 688
2 19 17 1727 118
2 19 18 712 124
2 19 19 16184 382
2 19 20 347 107
2 19 21 308 138
2 19 22 3 113
2 20 0 114905 2019
2 20 1 5056 127
2 20 2 14589 259
2 20 3 11096 198
2 20 4 74997 987
2 20 5 26518 382
2 20 6 19268 322
2 20 7 9308 176
2 20 8 22959 355
2 20 9 11030 206
2 20 10 9828 201
2 20 11 322 99
2 20 12 17483 311
2 20 13 740 107
2 20 14 2495 132
2 20 15 10488 223
2 20 16 17601 333
2 20 17 245 124
2 20 18 22227 410
2 20 19 5683 204
2 20 20 24802 473
2 20 21 814 110
2 20 22 3477 151
2 21 0 17540 468
2 21 1 300 94
2 21 2 29098 418
2 21 3 2770 107
2 21 4 7814 182
2 21 5 228 99
2 21 6 2412 110
2 21 7 2506 113
2 21 8 4841 132
2 21 9 6975 171
2 21 10 12210 228
2 21 11 7611 168
2 21 12 19092 347
2 21 13 1455 113
2 21 14 15257 303
2 21 15 462 121
2 21 16 17219 333
2 21 17 157 127
2 21 18 1571 151
2 21 19 223 149
2 21 20 1216 154
2 21 21 261 107
2 22 0 1345 151
2 22 1 8981 184
2 22 2 98195 1348
2 22 3 633 94
2 22 4 5694 154
2 22 5 11486 209
2 22 6 17419 289
2 22 7 17147 292
2 22 8 1466 121
2 22 9 589 110
2 22 10 6156 162
2 22 11 12917 242
2 22 12 9451 215
2 22 13 14449 286
2 22 14 19353 360
2 22 15 715 146
2 22 16 9011 226
2 22 17 4797 176
2 22 18 12424 272
2 22 19 113 187
2 23 0 29159 624
2 23 1 6062 157
2 23 2 9014 193
2 23 3 908 107
2 23 4 20555 336
2 23 5 28785 437
2 23 6 11247 228
2 23 7 13734 250
2 23 8 8530 190
2 23 9 2316 129
2 23 10 8153 209
2 23 11 613 118
2 23 12 18665 374
2 23 13 4159 173
2 23 14 13769 297
2 23 15 2170 143
2 23 16 10606 275
2 23 17 440 146
2 23 18 4118 154
2 24 0 4104 206
2 24 1 7605 182
2 24 2 300 116
2 24 3 22076 360
2 24 4 1722 118
2 24 5 506 110
2 24 6 2795 132
2 24 7 668 121
2 24 8 248 113
2 24 9 8320 201
2 24 10 1502 129
2 24 11 454 146
2 24 12 1513 149
2 24 13 476 132
2 24 14 858 143
2 24 15 3020 168
2 24 16 974 138
2 24 17 4580 217
2 25 0 2074 182
2 25 1 39366 732
2 25 2 5421 165
2 25 3 6634 173
2 25 4 2123 129
2 25 5 833 118
2 25 6 924 124
2 25 7 54956 820
2 25 8 3460 143
2 25 9 2368 138
2 25 10 3936 151
2 25 11 23790 451
2 25 12 1458 146
2 25 13 13448 349
2 25 14 858 146
2 25 15 6200 206
2 26 0 1296 198
2 26 1 283 132
2 26 2 4456 160
2 26 3 1117 135
2 26 4 4269 149
2 26 5 1452 129
2 26 6 9784 220
2 26 7 17241 325
2 26 8 932 140
2 26 9 13890 305
2 26 10 781 129
2 26 11 5834 215
2 26 12 710 146
2 26 13 3603 168
2 26 14 2685 179
2 27 0 707 184
2 27 1 2253 151
2 27 2 2767 149
2 27 3 -44 127
2 27 4 1747 132
2 27 5 8219 226
2 27 6 1067 135
2 27 7 3771 171
2 27 8 50 138
2 27 9 591 138
2 27 10 245 146
2 27 11 2707 162
2 27 12 -52 160
2 28 0 6137 300
2 28 1 22260 380
2 28 2 1356 146
2 28 3 10895 259
2 28 4 4621 165
2 28 5 36932 569
2 28 6 875 140
2 28 7 12672 267
2 28 8 666 250
2 28 9 26480 553
2 29 0 3218 278
2 29 1 173 198
2 29 2 33 239
2 29 3 6271 377
2 29 4 160 182
2 29 5 226 176
3 1 0 51485 1252
3 1 1 14088 201
3 1 2 50047 803
3 1 3 24326 316
3 1 4 185639 2751
3 1 5 982 33
3 1 6 55537 740
3 1 7 18173 278
3 1 8 6772 107
3 1 9 58 17
3 1 10 1584 44
3 1 11 20244 308
3 1 12 116652 1958
3 1 13 13117 261
3 1 14 136568 2616
3 1 15 9872 297
3 1 16 46531 814
3 1 17 1436 72
3 1 18 2561 99
3 1 19 47 58
3 1 21 18962 487
3 1 22 24431 833
3 1 24 4937 259
3 2 1 1868 44
3 2 2 2041 72
3 2 3 13351 281
3 2 5 51689 932
3 2 6 9938 250
3 2 7 437 22
3 2 8 106791 1804
3 2 9 556 22
3 2 10 102101 1392
3 2 11 3320 94
3 2 12 100118 1670
3 2 13 6329 140
3 2 14 278663 4442
3 2 15 396 41
3 2 16 19480 528
3 2 17 657 41
3 2 18 4558 121
3 2 19 3188 107
3 2 20 86893 1661
3 2 21 701 72
3 2 22 77 61
3 2 24 57413 2198
3 2 26 624 193
3 3 1 21177 391
3 3 2 31348 580
3 3 3 170359 3248
3 3 4 180666 3482
3 3 5 385764 8739
3 3 6 368403 6887
3 3 7 130052 2181
3 3 8 43797 721
3 3 9 9638 171
3 3 10 5617 132
3 3 11 360 28
3 3 12 17015 248
3 3 13 16096 292
3 3 14 21856 366
3 3 15 5710 110
3 3 16 15491 292
3 3 17 83 58
3 3 18 806 61
3 3 19 10900 220
3 3 20 9242 226
3 3 21 4008 105
3 3 22 5034 179
3 3 23 -11 63
3 3 24 1766 105
3 3 25 993 99
3 4 0 232263 5388
3 4 1 33686 553
3 4 2 10183 248
3 4 3 1766 69
3 4 4 97131 1516
3 4 5 45830 1004
3 4 6 32239 633
3 4 7 423271 9624
3 4 8 2836 74
3 4 9 61929 971
3 4 10 1821 85
3 4 11 74243 1152
3 4 12 58169 919
3 4 13 66963 1130
3 4 14 17419 305
3 4 15 638 52
3 4 16 3083 94
3 4 17 1296 55
3 4 18 550 33
3 4 19 1106 66
3 4 20 33279 701
3 4 21 443 61
3 4 22 9635 201
3 4 23 17593 380
3 4 24 20789 545
3 4 25 1257 94
3 4 26 5996 294
3 4 27 5578 294
3 4 29 1406 121
3 5 0 332015 11266
3 5 1 2674 91
3 5 2 66055 1078
3 5 3 795 58
3 5 4 17461 338
3 5 5 50828 1144
3 5 6 53460 1133
3 5 8 1835 63
3 5 9 57074 924
3 5 10 17232 347
3 5 11 134789 2030
3 5 12 26073 374
3 5 13 46889 679
3 5 14 43712 701
3 5 15 20233 341
3 5 16 15967 281
3 5 17 78091 1527
3 5 18 22992 380
3 5 19 12067 220
3 5 20 3576 94
3 5 21 53617 1103
3 5 22 3953 138
3 5 23 15387 371
3 5 24 3353 149
3 5 25 7050 231
3 5 26 682 94
3 5 27 9418 399
3 6 0 2046 113
3 6 1 191060 3262
3 6 2 171 47
3 6 3 385429 7416
3 6 4 4079 143
3 6 5 10196 215
3 6 6 2756 85
3 6 7 3012 127
3 6 8 10205 209
3 6 9 147150 1890
3 6 10 4387 99
3 6 11 33551 762
3 6 12 26821 413
3 6 13 12215 193
3 6 14 9806 157
3 6 15 12493 190
3 6 16 182 44
3 6 17 107003 1791
3 6 18 3683 72
3 6 19 3072 88
3 6 20 6887 143
3 6 21 26964 446
3 6 22 536 44
3 6 23 11940 286
3 6 24 113 96
3 6 25 286 91
3 6 26 228 116
3 6 27 5515 201
3 6 28 591 110
3 6 29 182 85
3 7 0 231 58
3 7 1 82688 1356
3 7 2 6684 135
3 7 3 440 36
3 7 4 11528 206
3 7 5 21496 341
3 7 6 30094 465
3 7 7 284398 3614
3 7 8 9297 190
3 7 9 167309 2343
3 7 10 1815 83
3 7 11 337222 4910
3 7 12 3169 102
3 7 13 17433 308
3 7 14 206 36
3 7 15 9003 160
3 7 16 19204 303
3 7 17 1018 55
3 7 18 5509 124
3 7 19 62677 976
3 7 20 1782 80
3 7 21 723 74
3 7 22 -28 66
3 7 23 30732 580
3 7 24 701 47
3 7 25 27547 589
3 7 26 932 135
3 7 27 1502 151
3 7 28 165 135
3 8 0 33989 685
3 8 1 114501 1554
3 8 2 25275 396
3 8 3 96328 1419
3 8 4 69350 1053
3 8 5 39707 586
3 8 6 2566 80
3 8 7 6918 140
3 8 8 583 50
3 8 9 1238 63
3 8 10 3279 91
3 8 11 14319 234
3 8 12 57176 833
3 8 13 13734 281
3 8 14 184 41
3 8 15 12584 201
3 8 16 811 47
3 8 17 12661 220
3 8 18 1576 55
3 8 19 26956 512
3 8 20 371 39
3 8 21 6434 132
3 8 22 160 72
3 8 23 10282 239
3 8 24 13274 250
3 8 25 17 66
3 8 26 1282 140
3 8 27 4263 176
3 8 28 4717 226
3 9 0 734 61
3 9 1 646 41
3 9 2 8923 168
3 9 3 2443 72
3 9 4 9140 171
3 9 5 8235 160
3 9 6 446 44
3 9 7 611 39
3 9 8 6574 143
3 9 9 154428 2000
3 9 10 21628 327
3 9 11 14636 281
3 9 12 109299 1340
3 9 13 53598 737
3 9 14 42494 630
3 9 15 509 50
3 9 16 1744 66
3 9 17 6978 140
3 9 18 8263 160
3 9 19 341 50
3 9 20 3642 118
3 9 21 1837 74
3 9 22 11187 220
3 9 23 5650 162
3 9 24 2231 102
3 9 25 1494 107
3 9 26 2874 102
3 9 27 1320 61
3 9 28 176 201
3 10 0 25264 514
3 10 1 23627 352
3 10 2 239 39
3 10 3 68363 897
3 10 4 7713 154
3 10 5 37402 561
3 10 6 1697 66
3 10 7 131744 1744
3 10 8 5960 124
3 10 9 144999 1903
3 10 10 990 52
3 10 11 69397 957
3 10 12 116 39
3 10 13 52563 734
3 10 14 844 50
3 10 15 34071 572
3 10 16 1097 61
3 10 17 19746 330
3 10 18 1045 58
3 10 19 47310 715
3 10 20 1936 80
3 10 21 8081 184
3 10 22 1983 69
3 10 23 20318 322
3 10 24 6131 162
3 10 25 14259 286
3 10 26 2547 113
3 10 27 5952 171
3 10 28 1260 237
3 11 0 5199 151
3 11 1 119427 1496
3 11 2 935 50
3 11 3 74887 963
3 11 4 11484 223
3 11 5 153476 2187
3 11 6 13024 245
3 11 7 15114 267
3 11 8 35675 583
3 11 9 2767 69
3 11 10 39146 613
3 11 11 12741 220
3 11 12 1012 74
3 11 13 37504 545
3 11 14 41470 627
3 11 15 10711 173
3 11 16 5047 129
3 11 17 4178 107
3 11 18 7311 154
3 11 19 106109 1664
3 11 20 44490 745
3 11 21 1329 69
3 11 22 10986 220
3 11 23 4880 118
3 11 24 6249 143
3 11 25 17604 336
3 11 26 3380 146
3 11 27 143 113
3 12 0 569 69
3 12 1 50872 671
3 12 2 36995 512
3 12 3 159448 1945
3 12 4 5174 107
3 12 5 21718 330
3 12 6 5817 121
3 12 7 1100 61
3 12 8 28 58
3 12 9 81821 1199
3 12 10 4274 110
3 12 11 -245 50
3 12 12 811 52
3 12 13 3788 91
3 12 14 3240 88
3 12 15 2638 83
3 12 16 300 50
3 12 17 21072 355
3 12 18 4294 105
3 12 19 2170 113
3 12 20 319 69
3 12 21 11750 220
3 12 22 347 61
3 12 23 3642 107
3 12 24 333 58
3 12 25 66 61
3 12 26 1738 116
3 12 27 275 146
3 13 0 3314 143
3 13 1 31450 437
3 13 2 60422 784
3 13 3 127789 1689
3 13 4 28257 399
3 13 5 2440 77
3 13 6 5001 135
3 13 7 103289 1386
3 13 8 32712 481
3 13 9 54307 822
3 13 10 28314 429
3 13 11 143571 1730
3 13 12 7391 165
3 13 13 101518 1337
3 13 14 12314 228
3 13 15 36863 569
3 13 16 6346 138
3 13 17 55583 770
3 13 18 7787 215
3 13 19 696 72
3 13 20 3854 140
3 13 21 12592 239
3 13 22 1183 99
3 13 23 2022 105
3 13 24 17 63
3 13 25 2456 94
3 13 26 2924 140
3 14 0 69983 1274
3 14 1 35271 490
3 14 2 108331 1348
3 14 3 2976 83
3 14 4 27800 399
3 14 5 1417 66
3 14 6 53188 710
3 14 7 38431 569
3 14 8 19053 308
3 14 9 11082 206
3 14 10 111926 1595
3 14 11 11066 198
3 14 12 1818 83
3 14 13 495 61
3 14 14 35317 506
3 14 15 14311 256
3 14 16 3551 107
3 14 17 3056 88
3 14 18 34437 547
3 14 19 12963 228
3 14 20 26887 558
3 14 21 8340 187
3 14 22 919 94
3 14 23 63 69
3 14 24 201 74
3 14 25 -63 69
3 14 26 12559 272
3 15 0 81552 1428
3 15 1 17051 272
3 15 2 1991 85
3 15 3 1521 72
3 15 4 470 58
3 15 5 60947 803
3 15 6 8854 162
3 15 7 34349 523
3 15 8 18748 319
3 15 9 31876 473
3 15 10 141481 1848
3 15 11 31667 468
3 15 12 3656 105
3 15 13 24089 360
3 15 14 78826 1051
3 15 15 17307 281
3 15 16 825 77
3 15 17 4021 107
3 15 18 6401 168
3 15 19 14575 281
3 15 20 1488 91
3 15 21 149 80
3 15 22 1315 99
3 15 23 10680 234
3 15 24 151 105
3 15 25 15414 300
3 16 0 6846 226
3 16 1 21782 327
3 16 2 9143 190
3 16 3 8172 151
3 16 4 12493 226
3 16 5 9478 171
3 16 6 3485 124
3 16 7 1895 85
3 16 8 6720 162
3 16 9 6593 138
3 16 10 3848 132
3 16 11 4717 124
3 16 12 55561 781
3 16 13 858 80
3 16 14 10309 201
3 16 15 5523 143
3 16 16 2261 96
3 16 17 85 74
3 16 18 3037 102
3 16 19 19397 371
3 16 20 4398 135
3 16 21 1964 140
3 16 22 2063 113
3 16 23 319 94
3 16 24 402 88
3 16 25 2762 146
3 17 0 116327 1972
3 17 1 12658 220
3 17 2 145519 1876
3 17 3 12276 215
3 17 4 139146 1678
3 17 5 33389 465
3 17 6 99755 1246
3 17 7 5562 149
3 17 8 283317 3551
3 17 9 27976 473
3 17 10 52547 754
3 17 11 -74 77
3 17 12 279623 3779
3 17 13 15439 267
3 17 14 113 85
3 17 15 723 85
3 17 16 112435 1494
3 17 17 7858 173
3 17 18 9236 193
3 17 19 1799 96
3 17 20 38813 806
3 17 21 2905 160
3 17 22 32850 630
3 17 23 2630 187
3 17 24 16820 388
3 18 0 77561 1362
3 18 1 102 66
3 18 2 309081 3559
3 18 3 6964 157
3 18 4 15079 253
3 18 5 19 72
3 18 6 86764 1108
3 18 7 1205 85
3 18 8 74670 1026
3 18 9 1807 91
3 18 10 53452 778
3 18 11 729 88
3 18 12 73421 1086
3 18 13 4527 113
3 18 14 6574 151
3 18 15 3642 127
3 18 16 53672 767
3 18 17 3138 138
3 18 18 80473 1130
3 18 19 2632 132
3 18 20 11272 330
3 18 21 622 107
3 18 22 42185 800
3 18 23 91 102
3 19 0 208427 3474
3 19 1 325 80
3 19 2 151333 1835
3 19 3 11352 212
3 19 4 168907 2044
3 19 5 2016 94
3 19 6 138846 1708
3 19 7 4291 124
3 19 8 59022 776
3 19 9 1854 102
3 19 10 55264 789
3 19 11 8175 187
3 19 12 4219 140
3 19 13 1130 102
3 19 14 68090 952
3 19 15 5089 154
3 19 16 21289 369
3 19 17 877 113
3 19 18 58697 919
3 19 19 608 127
3 19 20 74290 1265
3 19 21 734 110
3 19 22 41270 784
3 20 0 44438 998
3 20 1 12042 215
3 20 2 1719 94
3 20 3 957 96
3 20 4 43077 602
3 20 5 3397 116
3 20 6 1909 107
3 20 7 5809 143
3 20 8 3733 127
3 20 9 7047 171
3 20 10 682 110
3 20 11 248 96
3 20 12 600 105
3 20 13 514 110
3 20 14 14768 275
3 20 15 2343 129
3 20 16 16308 311
3 20 17 1144 127
3 20 18 69 132
3 20 19 6486 182
3 20 20 6026 198
3 20 21 -14 157
3 21 0 51623 982
3 21 1 352 94
3 21 2 38436 569
3 21 3 21171 327
3 21 4 22406 360
3 21 5 2803 113
3 21 6 28699 437
3 21 7 40802 572
3 21 8 9803 195
3 21 9 20536 418
3 21 10 31076 492
3 21 11 2371 127
3 21 12 3556 143
3 21 13 1903 124
3 21 14 56761 836
3 21 15 2866 135
3 21 16 4816 176
3 21 17 113 127
3 21 18 19579 371
3 21 19 748 110
3 21 20 4907 193
3 22 0 1141 146
3 22 1 2951 124
3 22 2 4162 143
3 22 3 38932 553
3 22 4 1513 113
3 22 5 4736 157
3 22 6 3738 129
3 22 7 3182 138
3 22 8 13852 270
3 22 9 7842 190
3 22 10 8992 206
3 22 11 3617 143
3 22 12 3287 143
3 22 13 3584 151
3 22 14 3620 165
3 22 15 231 132
3 22 16 4173 162
3 22 17 5507 173
3 22 18 3279 157
3 22 19 470 121
3 23 0 50682 985
3 23 1 2200 127
3 23 2 2052 118
3 23 3 18432 303
3 23 4 1084 121
3 23 5 30696 484
3 23 6 1791 116
3 23 7 3273 132
3 23 8 1873 121
3 23 9 82996 1174
3 23 10 11033 248
3 23 11 10367 231
3 23 12 10661 237
3 23 13 12554 294
3 23 14 29010 492
3 23 15 7121 220
3 23 16 501 143
3 23 17 6483 228
3 23 18 2781 165
3 24 0 1491 176
3 24 1 10491 215
3 24 2 3867 143
3 24 3 7036 176
3 24 4 591 113
3 24 5 1224 110
3 24 6 3834 135
3 24 7 15406 281
3 24 8 127 118
3 24 9 1681 146
3 24 10 4258 160
3 24 11 9800 228
3 24 12 1606 135
3 24 13 393 135
3 24 14 4855 173
3 24 15 1439 146
3 24 16 237 143
3 24 17 693 127
3 25 0 1315 160
3 25 1 37493 564
3 25 2 19369 325
3 25 3 3389 157
3 25 4 4173 154
3 25 5 37576 561
3 25 6 4858 160
3 25 7 14130 286
3 25 8 1183 140
3 25 9 21941 380
3 25 10 2035 143
3 25 11 8882 226
3 25 12 5837 195
3 25 13 6989 206
3 25 14 2751 173
3 25 15 8252 204
3 26 0 63 173
3 26 1 37917 545
3 26 2 157 118
3 26 3 19254 327
3 26 4 652 129
3 26 5 26848 611
3 26 6 3273 146
3 26 7 51733 809
3 26 8 605 138
3 26 9 29029 476
3 26 10 748 138
3 26 11 20737 443
3 26 12 473 143
3 26 13 13068 294
3 27 0 151 179
3 27 1 7949 195
3 27 2 1147 132
3 27 3 18927 325
3 27 4 523 132
3 27 5 908 138
3 27 6 569 138
3 27 7 8750 223
3 27 8 1584 143
3 27 9 5427 187
3 27 10 2159 160
3 27 11 369 149
3 28 0 1213 190
3 28 1 363 132
3 28 2 127 138
3 28 3 338 140
3 28 4 6926 198
3 28 5 242 132
3 28 6 9399 242
3 28 7 -52 165
3 28 8 1678 195
3 29 0 1925 300
3 29 1 1414 198
3 29 2 3600 220
3 29 3 2162 297
3 29 4 286 250
4 0 1 14011 305
4 0 2 9476 344
4 0 3 144022 2420
4 0 4 69358 1243
4 0 6 199048 3848
4 0 7 7215 209
4 0 8 17667 517
4 0 9 26485 583
4 0 10 51526 1296
4 0 11 34599 729
4 0 12 50943 1064
4 0 13 25052 525
4 0 14 37091 965
4 0 15 817 80
4 0 18 2275 107
4 0 19 17598 495
4 0 23 61 176
4 1 0 239921 4607
4 1 1 9412 146
4 1 2 23825 336
4 1 3 32297 443
4 1 5 197268 2302
4 1 6 71380 930
4 1 7 1384 41
4 1 8 183683 2302
4 1 9 9305 151
4 1 10 25289 358
4 1 11 418 30
4 1 12 151064 2044
4 1 13 21218 476
4 1 14 759 47
4 1 15 96 44
4 1 16 7633 176
4 1 17 135 44
4 1 18 2349 80
4 1 19 998 80
4 1 20 6681 327
4 1 21 4313 182
4 1 22 3259 143
4 1 23 1106 85
4 1 24 602 85
4 1 26 9465 580
4 2 1 2869 77
4 2 2 232654 2883
4 2 3 22808 336
4 2 6 328302 6172
4 2 7 6857 160
4 2 8 231273 2869
4 2 9 7625 135
4 2 10 5487 105
4 2 11 13029 212
4 2 12 118200 1623
4 2 13 15854 281
4 2 14 16462 325
4 2 15 2000 52
4 2 16 24609 550
4 2 17 176 47
4 2 18 10051 253
4 2 19 5985 146
4 2 20 5130 204
4 2 21 776 91
4 2 22 34927 872
4 2 23 385 63
4 2 24 952 140
4 2 26 13659 619
4 2 27 589 121
4 3 0 412681 9437
4 3 1 42394 795
4 3 2 200981 2500
4 3 3 5705 124
4 3 5 133171 1851
4 3 6 1130 74
4 3 7 72593 1122
4 3 8 275062 5166
4 3 9 96 25
4 3 10 19716 314
4 3 11 24131 344
4 3 12 233146 3075
4 3 13 358 25
4 3 14 941 58
4 3 15 1207 50
4 3 16 95522 1422
4 3 17 129 50
4 3 18 1593 88
4 3 19 14815 344
4 3 20 25030 668
4 3 21 2324 96
4 3 22 27519 715
4 3 23 2866 116
4 3 24 352 88
4 3 25 132 74
4 4 0 241492 5672
4 4 1 141132 2110
4 4 2 177676 2976
4 4 3 1056 77
4 4 4 17813 300
4 4 5 10301 231
4 4 6 355222 6634
4 4 7 82616 1480
4 4 8 33700 578
4 4 9 21127 374
4 4 10 281644 4123
4 4 11 6937 165
4 4 12 68338 993
4 4 13 1551 58
4 4 14 52742 831
4 4 15 16275 281
4 4 16 85 36
4 4 17 4162 171
4 4 18 1989 74
4 4 19 14493 338
4 4 20 1207 80
4 4 21 165 80
4 4 22 18822 503
4 4 23 -28 77
4 4 24 5397 151
4 4 25 -157 69
4 4 26 792 102
4 4 27 36 88
4 5 0 36552 971
4 5 1 62677 1304
4 5 2 261518 4261
4 5 3 2264 154
4 5 4 369 39
4 5 5 121182 2093
4 5 6 54326 1174
4 5 7 10909 223
4 5 8 231 36
4 5 9 57201 927
4 5 10 3584 149
4 5 11 756 69
4 5 12 1436 74
4 5 13 32935 597
4 5 14 4797 135
4 5 15 4745 149
4 5 16 34619 561
4 5 17 18434 294
4 5 18 2181 77
4 5 19 8078 160
4 5 20 1502 55
4 5 21 17593 349
4 5 22 15422 308
4 5 23 6167 187
4 5 24 1458 113
4 5 25 6923 206
4 5 26 1868 113
4 5 27 2712 138
4 5 28 987 107
4 6 0 78551 1950
4 6 1 114888 1967
4 6 2 40343 580
4 6 3 25099 424
4 6 4 20074 371
4 6 5 91872 1323
4 6 6 3012 124
4 6 7 112190 1744
4 6 8 32795 644
4 6 9 229161 3424
4 6 10 36605 619
4 6 11 207838 3958
4 6 12 2627 105
4 6 13 79863 1224
4 6 14 9877 212
4 6 15 965 50
4 6 16 968 44
4 6 17 20849 303
4 6 18 611 44
4 6 19 9732 253
4 6 20 116 44
4 6 21 34830 558
4 6 22 3944 116
4 6 23 1461 96
4 6 24 3026 118
4 6 25 17584 402
4 6 26 754 107
4 6 27 6478 245
4 6 28 1213 124
4 6 29 91 105
4 7 0 19746 470
4 7 1 242658 3356
4 7 2 4120 107
4 7 3 4505 146
4 7 4 72494 1092
4 7 5 60424 924
4 7 6 8950 165
4 7 7 2872 85
4 7 8 30927 454
4 7 9 167416 2151
4 7 10 25795 424
4 7 11 48765 743
4 7 12 139536 1939
4 7 13 54502 894
4 7 14 283 41
4 7 15 26810 421
4 7 16 23619 377
4 7 17 4057 88
4 7 18 847 47
4 7 19 72984 1257
4 7 20 43552 776
4 7 21 2753 121
4 7 22 1725 69
4 7 23 4621 105
4 7 24 19188 396
4 7 25 15285 327
4 7 26 -85 91
4 7 27 875 88
4 7 28 338 143
4 8 0 29651 666
4 8 1 92837 1359
4 8 2 8604 173
4 8 3 47 33
4 8 4 9619 190
4 8 5 7052 168
4 8 6 822 52
4 8 7 199083 2575
4 8 8 30094 457
4 8 9 118935 1859
4 8 10 6984 135
4 8 11 25949 385
4 8 12 39556 660
4 8 13 5232 118
4 8 14 4307 91
4 8 15 20046 355
4 8 16 3515 80
4 8 17 7545 129
4 8 18 4343 94
4 8 19 9253 171
4 8 20 1587 69
4 8 21 2951 105
4 8 22 5801 149
4 8 23 11440 259
4 8 24 2104 80
4 8 25 4937 107
4 8 26 3719 143
4 8 27 3944 168
4 8 28 602 160
4 9 0 30347 693
4 9 1 194803 2740
4 9 2 619 50
4 9 3 354661 4791
4 9 4 1857 74
4 9 5 77662 1274
4 9 6 198 44
4 9 7 420388 5672
4 9 8 7317 182
4 9 9 406083 5449
4 9 10 61376 924
4 9 11 169262 2349
4 9 12 11968 209
4 9 13 117276 1639
4 9 14 15340 264
4 9 15 75146 985
4 9 16 10067 184
4 9 17 150123 2030
4 9 18 27088 391
4 9 19 1403 63
4 9 20 11632 250
4 9 21 108062 1870
4 9 22 3889 85
4 9 23 52087 869
4 9 24 8494 215
4 9 25 8210 171
4 9 26 567 61
4 9 27 33851 641
4 9 28 498 226
4 10 0 -8 77
4 10 1 103875 1631
4 10 2 65563 985
4 10 3 12089 239
4 10 4 8221 173
4 10 5 182385 2553
4 10 6 114523 1656
4 10 7 6335 143
4 10 8 363 44
4 10 9 7952 171
4 10 10 1749 74
4 10 11 10708 187
4 10 12 2745 88
4 10 13 60144 963
4 10 14 14936 261
4 10 15 38976 547
4 10 16 6898 127
4 10 17 3892 107
4 10 18 3617 94
4 10 19 32338 506
4 10 20 1188 77
4 10 21 6 47
4 10 22 4456 121
4 10 23 21124 316
4 10 24 5449 157
4 10 25 4024 132
4 10 26 347 72
4 10 27 710 69
4 11 0 8 61
4 11 1 3554 96
4 11 2 831 58
4 11 3 19204 344
4 11 4 16347 281
4 11 5 19625 341
4 11 6 68266 968
4 11 7 55826 811
4 11 8 16066 294
4 11 9 36935 556
4 11 10 10920 242
4 11 11 27841 501
4 11 12 1395 69
4 11 13 12501 223
4 11 14 24678 374
4 11 15 17887 272
4 11 16 7913 157
4 11 17 410 58
4 11 18 4948 110
4 11 19 754 69
4 11 20 58 72
4 11 21 4640 121
4 11 22 3598 116
4 11 23 215 74
4 11 24 239 52
4 11 25 3070 132
4 11 26 2643 129
4 11 27 440 127
4 12 0 5650 176
4 12 1 468 47
4 12 2 23773 432
4 12 3 2071 83
4 12 4 49114 770
4 12 5 2511 113
4 12 6 413 52
4 12 7 22049 349
4 12 8 7333 165
4 12 9 35950 531
4 12 10 7399 149
4 12 11 44746 635
4 12 12 35279 605
4 12 13 36706 528
4 12 14 9919 267
4 12 15 3490 102
4 12 16 12845 231
4 12 17 9335 204
4 12 18 8920 168
4 12 19 2170 83
4 12 20 5644 157
4 12 21 1901 102
4 12 22 102 58
4 12 23 3325 121
4 12 24 575 83
4 12 25 547 61
4 12 26 1557 121
4 12 27 8279 226
4 13 0 712 83
4 13 1 15997 250
4 13 2 10073 195
4 13 3 1194 66
4 13 4 9448 190
4 13 5 61937 941
4 13 6 29978 509
4 13 7 1637 77
4 13 8 21452 380
4 13 9 48358 690
4 13 10 74175 1015
4 13 11 2341 94
4 13 12 74392 954
4 13 13 6054 151
4 13 14 564 72
4 13 15 6643 143
4 13 16 33859 492
4 13 17 -11 61
4 13 18 16264 261
4 13 19 3796 121
4 13 20 7924 184
4 13 21 624 85
4 13 22 1155 99
4 13 23 1012 74
4 13 24 11621 223
4 13 25 3130 102
4 13 26 80 110
4 14 0 135105 2343
4 14 1 80402 1103
4 14 2 941 61
4 14 3 9803 182
4 14 4 78014 1070
4 14 5 5982 135
4 14 6 12317 245
4 14 7 968 69
4 14 8 107110 1419
4 14 9 4761 124
4 14 10 189962 2426
4 14 11 613 63
4 14 12 15092 253
4 14 13 19845 308
4 14 14 68222 938
4 14 15 7894 160
4 14 16 30850 495
4 14 17 1386 74
4 14 18 9588 193
4 14 19 1848 88
4 14 20 3917 168
4 14 21 1535 91
4 14 22 930 99
4 14 23 3532 151
4 14 24 5696 193
4 14 25 149 77
4 14 26 4439 190
4 15 0 105 94
4 15 1 1301 69
4 15 2 199369 2371
4 15 3 67018 866
4 15 4 148055 1928
4 15 5 23913 388
4 15 6 149832 1958
4 15 7 55413 784
4 15 8 88310 1304
4 15 9 9371 195
4 15 10 250164 3378
4 15 11 20728 338
4 15 12 44108 627
4 15 13 578 69
4 15 14 114311 1601
4 15 15 330 80
4 15 16 9665 195
4 15 17 5674 149
4 15 18 64413 979
4 15 19 6181 149
4 15 20 19141 344
4 15 21 13951 278
4 15 22 31222 545
4 15 23 1183 107
4 15 24 8510 206
4 15 25 762 116
4 16 0 40296 781
4 16 1 8304 157
4 16 2 41451 556
4 16 3 121 63
4 16 4 1227 83
4 16 5 4720 138
4 16 6 12856 234
4 16 7 6 66
4 16 8 875 88
4 16 9 2484 99
4 16 10 1507 74
4 16 11 -338 77
4 16 12 3639 135
4 16 13 2074 88
4 16 14 4913 121
4 16 15 1001 77
4 16 16 2013 127
4 16 17 105 77
4 16 18 688 127
4 16 19 -99 74
4 16 20 151 83
4 16 21 1298 94
4 16 22 3199 165
4 16 23 1037 110
4 16 24 124 94
4 17 0 367938 5952
4 17 1 839 74
4 17 2 59558 817
4 17 3 91660 1213
4 17 4 72645 930
4 17 5 1898 99
4 17 6 103377 1496
4 17 7 18976 319
4 17 8 77786 1073
4 17 9 2275 96
4 17 10 199287 2759
4 17 11 217 80
4 17 12 36258 586
4 17 13 479 72
4 17 14 77175 1221
4 17 15 5463 140
4 17 16 7872 204
4 17 17 16212 314
4 17 18 67015 943
4 17 19 6733 193
4 17 20 45024 825
4 17 21 10306 250
4 17 22 14264 308
4 17 23 6332 220
4 17 24 23099 446
4 18 0 330 113
4 18 1 809 74
4 18 2 7052 217
4 18 3 2938 96
4 18 4 949 85
4 18 5 6610 157
4 18 6 7924 171
4 18 7 2082 99
4 18 8 4030 143
4 18 9 6733 154
4 18 10 35804 550
4 18 11 421 77
4 18 12 4981 154
4 18 13 954 91
4 18 14 7564 184
4 18 15 2891 113
4 18 16 316 113
4 18 17 2189 138
4 18 18 1271 143
4 18 19 7372 187
4 18 20 2894 127
4 18 21 66 94
4 18 22 1447 121
4 18 23 36 116
4 19 0 141508 2454
4 19 1 5408 162
4 19 2 15766 272
4 19 3 448 85
4 19 4 30259 448
4 19 5 3471 124
4 19 6 78983 1106
4 19 7 1832 110
4 19 8 3020 206
4 19 9 8645 204
4 19 10 67073 1037
4 19 11 6654 157
4 19 12 18773 303
4 19 13 6093 154
4 19 14 98333 1340
4 19 15 2132 121
4 19 16 15887 311
4 19 17 5427 173
4 19 18 23319 487
4 19 19 1788 135
4 19 20 25916 495
4 19 21 1540 116
4 19 22 4698 184
4 20 0 42062 1207
4 20 1 11486 209
4 20 2 4745 129
4 20 3 13835 250
4 20 4 5999 253
4 20 5 4065 129
4 20 6 3270 127
4 20 7 941 102
4 20 8 4159 138
4 20 9 679 102
4 20 10 5614 173
4 20 11 4211 149
4 20 12 514 105
4 20 13 1031 96
4 20 14 2085 171
4 20 15 3097 138
4 20 16 -69 127
4 20 17 3455 154
4 20 18 292 102
4 20 19 267 138
4 20 20 182 105
4 20 21 712 149
4 21 0 45536 886
4 21 1 61 88
4 21 2 234599 2814
4 21 3 2063 113
4 21 4 86225 1117
4 21 5 11123 226
4 21 6 19452 325
4 21 7 1348 129
4 21 8 43558 644
4 21 9 5754 171
4 21 10 1991 138
4 21 11 2544 127
4 21 12 96385 1318
4 21 13 -149 102
4 21 14 2057 135
4 21 15 5592 173
4 21 16 82033 1205
4 21 17 399 121
4 21 18 50379 927
4 21 19 4178 154
4 21 20 26337 528
4 22 0 11462 311
4 22 1 165 107
4 22 2 6527 168
4 22 3 1191 110
4 22 4 10548 206
4 22 5 2090 129
4 22 6 13368 259
4 22 7 32113 542
4 22 8 15739 303
4 22 9 23333 437
4 22 10 5509 168
4 22 11 6527 193
4 22 12 21732 388
4 22 13 1246 127
4 22 14 33 118
4 22 15 77 105
4 22 16 16886 347
4 22 17 2588 154
4 22 18 3614 179
4 22 19 -80 113
4 23 0 88087 1661
4 23 1 8846 198
4 23 2 2907 129
4 23 3 3779 143
4 23 4 11547 237
4 23 5 3793 151
4 23 6 2550 143
4 23 7 15013 297
4 23 8 578 121
4 23 9 13145 289
4 23 10 1419 127
4 23 11 7666 193
4 23 12 8802 237
4 23 13 1562 102
4 23 14 6277 215
4 23 15 3270 160
4 23 16 9712 256
4 23 17 410 146
4 23 18 2063 171
4 24 0 1070 168
4 24 1 11668 239
4 24 2 5672 154
4 24 3 2068 129
4 24 4 2305 124
4 24 5 14542 286
4 24 6 1375 135
4 24 7 3799 154
4 24 8 -113 127
4 24 9 12463 261
4 24 10 3843 160
4 24 11 437 132
4 24 12 228 127
4 24 13 2621 146
4 24 14 4170 168
4 24 15 151 110
4 24 16 206 121
4 25 0 8216 267
4 25 1 924 118
4 25 2 5883 176
4 25 3 347 127
4 25 4 3350 173
4 25 5 17862 355
4 25 6 2299 149
4 25 7 5559 182
4 25 8 938 124
4 25 9 13714 294
4 25 10 7055 226
4 25 11 946 138
4 25 12 3650 160
4 25 13 3548 162
4 25 14 8406 231
4 25 15 795 138
4 26 0 113 176
4 26 1 440 129
4 26 2 690 132
4 26 3 44 113
4 26 4 39 127
4 26 5 501 121
4 26 6 283 135
4 26 7 1188 140
4 26 8 259 127
4 26 9 1516 176
4 26 10 -28 157
4 26 11 5903 195
4 26 12 1598 149
4 26 13 462 138
4 27 0 18280 528
4 27 1 14185 286
4 27 2 668 140
4 27 3 43726 690
4 27 4 1835 154
4 27 5 50709 850
4 27 6 2266 162
4 27 7 35535 602
4 27 8 2465 165
4 27 9 35086 611
4 27 10 1865 165
4 27 11 36071 624
4 28 0 798 173
4 28 1 6808 190
4 28 2 -88 143
4 28 3 1590 154
4 28 4 261 160
4 28 5 523 215
4 28 6 1419 220
4 28 7 1576 193
4 28 8 2019 187
4 29 0 440 281
4 29 1 10744 374
4 29 2 2707 256
4 29 3 1579 256
5 1 0 14839 369
5 1 1 11192 195
5 1 2 741721 23704
5 1 3 72411 894
5 1 4 102305 1571
5 1 5 12080 209
5 1 6 659545 21069
5 1 7 82451 1177
5 1 8 63395 855
5 1 9 17755 286
5 1 10 215075 2676
5 1 11 3221 77
5 1 12 16096 325
5 1 13 18517 316
5 1 14 98448 1353
5 1 15 3369 102
5 1 16 46641 825
5 1 17 22409 481
5 1 18 66 58
5 1 19 11214 270
5 1 20 781 61
5 1 21 1560 138
5 1 22 4921 132
5 1 23 41 61
5 1 24 15681 462
5 1 25 883 154
5 1 26 1345 107
5 1 27 492 135
5 2 0 565046 12796
5 2 1 12584 187
5 2 2 83147 1274
5 2 3 25960 410
5 2 4 355901 4379
5 2 5 17260 267
5 2 6 253960 3378
5 2 7 81728 1274
5 2 8 76983 1100
5 2 9 6797 129
5 2 10 106147 1777
5 2 11 13285 245
5 2 12 322950 4698
5 2 13 773 41
5 2 14 20481 399
5 2 15 1678 58
5 2 16 338 39
5 2 17 635 80
5 2 18 26857 580
5 2 19 9564 256
5 2 20 3620 118
5 2 21 1901 110
5 2 22 25644 751
5 2 23 2572 168
5 2 24 11607 363
5 2 25 -88 88
5 2 26 5416 228
5 2 27 261 91
5 2 28 256 91
5 3 1 54032 715
5 3 2 84552 1042
5 3 3 239 30
5 3 4 251652 3111
5 3 5 14042 278
5 3 6 1593 80
5 3 7 429540 6219
5 3 8 1205 63
5 3 9 15838 245
5 3 10 27951 509
5 3 11 62012 836
5 3 12 10683 187
5 3 13 11247 212
5 3 14 111712 1683
5 3 15 6255 118
5 3 16 16756 270
5 3 17 70360 1205
5 3 18 55903 1133
5 3 19 61 94
5 3 20 69691 2310
5 3 21 15356 468
5 3 22 646 94
5 3 23 3611 124
5 3 24 13965 336
5 3 25 784 83
5 3 26 72 74
5 3 28 4016 160
5 4 0 108845 2613
5 4 1 44306 825
5 4 2 9456 275
5 4 3 10592 245
5 4 4 29029 685
5 4 5 20134 402
5 4 6 8827 151
5 4 7 53075 776
5 4 8 3386 127
5 4 9 6285 380
5 4 10 104406 1364
5 4 11 4417 105
5 4 12 32355 498
5 4 13 10546 226
5 4 14 1648 66
5 4 15 1884 50
5 4 16 512 52
5 4 17 29646 487
5 4 18 11646 366
5 4 19 2731 107
5 4 20 3504 173
5 4 21 481 107
5 4 22 1340 96
5 4 23 594 102
5 4 24 358 91
5 4 25 498 91
5 4 26 374 83
5 4 27 8730 308
5 4 28 814 110
5 5 0 35821 770
5 5 1 48616 721
5 5 2 127965 2165
5 5 3 151617 2121
5 5 4 31912 506
5 5 5 70794 1271
5 5 6 198145 2712
5 5 7 880 91
5 5 8 1095 63
5 5 9 430874 6216
5 5 10 98847 1293
5 5 11 68462 1219
5 5 12 33802 635
5 5 13 1051 72
5 5 14 61112 825
5 5 15 1661 66
5 5 16 5292 121
5 5 17 28554 531
5 5 18 78545 1362
5 5 19 6890 179
5 5 20 919 55
5 5 21 2426 113
5 5 22 59360 1188
5 5 23 2374 110
5 5 24 2454 110
5 5 25 5685 190
5 5 26 18228 410
5 5 27 338 83
5 5 28 102 113
5 6 0 29503 806
5 6 1 941 66
5 6 2 23685 468
5 6 3 53281 858
5 6 4 6659 151
5 6 5 78259 1235
5 6 6 5993 140
5 6 7 3136 105
5 6 8 5982 129
5 6 9 115917 1799
5 6 10 17018 371
5 6 11 32737 622
5 6 12 92265 1447
5 6 13 37831 800
5 6 14 10499 206
5 6 15 22970 443
5 6 16 4184 121
5 6 17 9726 190
5 6 18 1188 74
5 6 19 18088 325
5 6 20 1554 69
5 6 21 41355 671
5 6 22 1466 66
5 6 23 11253 248
5 6 24 1887 107
5 6 25 12595 319
5 6 26 85 124
5 6 27 6447 168
5 6 28 -96 127
5 7 0 105878 2591
5 7 1 58719 954
5 7 2 -47 41
5 7 3 46914 737
5 7 4 564 41
5 7 5 222636 3334
5 7 6 8695 193
5 7 7 10727 226
5 7 8 4833 124
5 7 9 183364 2778
5 7 10 514 55
5 7 11 165931 2514
5 7 12 4340 160
5 7 13 33857 583
5 7 14 17397 363
5 7 15 55864 811
5 7 16 15912 325
5 7 17 13285 212
5 7 18 16091 245
5 7 19 59357 855
5 7 20 2921 118
5 7 21 5927 162
5 7 22 4137 121
5 7 23 17381 308
5 7 24 99 132
5 7 25 15728 393
5 7 26 4387 154
5 7 27 2126 127
5 7 28 -50 140
5 8 0 3416 135
5 8 1 30441 490
5 8 2 28218 459
5 8 3 3876 168
5 8 4 9800 212
5 8 5 29662 589
5 8 6 4445 121
5 8 7 1983 88
5 8 8 29879 545
5 8 9 35067 561
5 8 10 1884 63
5 8 11 16371 286
5 8 12 32380 517
5 8 13 1422 85
5 8 14 4712 102
5 8 15 4891 135
5 8 16 498 50
5 8 17 2154 80
5 8 18 424 58
5 8 19 1067 63
5 8 20 941 52
5 8 21 17106 347
5 8 22 1931 99
5 8 23 7055 146
5 8 24 426 69
5 8 25 2187 94
5 8 26 91 116
5 8 27 107 121
5 8 28 242 173
5 9 0 6865 228
5 9 1 6181 140
5 9 2 8728 176
5 9 3 11033 220
5 9 4 484 52
5 9 5 35793 569
5 9 6 32732 539
5 9 7 6920 157
5 9 8 16022 272
5 9 9 421 47
5 9 10 1307 88
5 9 11 619 55
5 9 12 19653 421
5 9 13 24252 396
5 9 14 9071 217
5 9 15 16641 283
5 9 16 437 52
5 9 17 352 74
5 9 18 2726 83
5 9 19 12823 220
5 9 20 12980 212
5 9 21 7891 176
5 9 22 10878 212
5 9 23 707 99
5 9 24 294 66
5 9 25 798 74
5 9 26 168 69
5 9 27 393 127
5 10 0 46413 1009
5 10 1 186334 2605
5 10 2 341 50
5 10 3 30372 514
5 10 4 875 61
5 10 5 450953 6021
5 10 6 9514 217
5 10 7 138222 1870
5 10 8 457 55
5 10 9 86976 1375
5 10 10 9481 195
5 10 11 50731 778
5 10 12 6478 160
5 10 13 89572 1400
5 10 14 2035 69
5 10 15 47081 776
5 10 16 3050 118
5 10 17 69988 924
5 10 18 506 72
5 10 19 20415 316
5 10 20 44 58
5 10 21 12589 234
5 10 22 4431 124
5 10 23 14119 259
5 10 24 1989 91
5 10 25 10848 234
5 10 26 -124 74
5 10 27 9346 272
5 11 0 6920 209
5 11 1 38387 602
5 11 2 35856 589
5 11 3 39790 627
5 11 4 26392 440
5 11 5 22285 385
5 11 6 22967 396
5 11 7 29200 473
5 11 8 13976 245
5 11 9 49419 729
5 11 10 24177 443
5 11 11 2580 94
5 11 12 26727 432
5 11 13 1945 80
5 11 14 22659 369
5 11 15 688 61
5 11 16 17760 275
5 11 17 68907 927
5 11 18 40010 671
5 11 19 1238 74
5 11 20 4395 110
5 11 21 6343 135
5 11 22 14837 330
5 11 23 2002 96
5 11 24 3218 102
5 11 25 338 105
5 11 26 905 85
5 11 27 3961 138
5 12 0 36418 817
5 12 1 27022 451
5 12 2 41027 641
5 12 3 224743 3089
5 12 4 30300 512
5 12 5 38733 572
5 12 6 5248 124
5 12 7 33117 550
5 12 8 129 63
5 12 9 2239 83
5 12 10 1356 74
5 12 11 27005 451
5 12 12 5628 129
5 12 13 19592 319
5 12 14 2448 96
5 12 15 36990 580
5 12 16 1177 96
5 12 17 24158 366
5 12 18 600 66
5 12 19 138 74
5 12 20 792 72
5 12 21 19900 325
5 12 22 -113 80
5 12 23 6233 171
5 12 24 1538 77
5 12 25 2828 94
5 12 26 696 99
5 13 0 173517 4129
5 13 1 48586 759
5 13 2 627 74
5 13 3 864 77
5 13 4 1411 80
5 13 5 71361 1053
5 13 6 11244 201
5 13 7 27475 468
5 13 8 3774 118
5 13 9 26287 437
5 13 10 435 63
5 13 11 1452 83
5 13 12 352 72
5 13 13 1895 88
5 13 14 2002 83
5 13 15 48575 740
5 13 16 7858 206
5 13 17 239 61
5 13 18 10163 190
5 13 19 13043 226
5 13 20 10004 193
5 13 21 3067 127
5 13 22 1747 118
5 13 23 1342 105
5 13 24 8081 179
5 13 25 7773 198
5 13 26 446 96
5 14 1 468 69
5 14 2 1697 107
5 14 3 657 61
5 14 4 40090 635
5 14 5 3441 116
5 14 6 2696 96
5 14 7 974 63
5 14 8 19097 421
5 14 9 23548 459
5 14 10 569 83
5 14 11 2253 88
5 14 12 89377 1282
5 14 13 12251 212
5 14 14 -33 63
5 14 15 12609 217
5 14 16 3521 127
5 14 17 2189 88
5 14 18 5966 135
5 14 19 292 77
5 14 20 580 77
5 14 21 2308 102
5 14 22 740 91
5 14 23 674 105
5 14 24 -19 77
5 14 25 1463 113
5 15 0 10557 393
5 15 1 35881 616
5 15 2 39226 622
5 15 3 4753 129
5 15 4 17136 305
5 15 5 66302 982
5 15 6 64663 963
5 15 7 1114 85
5 15 8 188590 2597
5 15 9 12961 228
5 15 10 9121 215
5 15 11 44581 784
5 15 12 280049 3859
5 15 13 4797 140
5 15 14 135 69
5 15 15 5474 140
5 15 16 89710 1419
5 15 17 1650 107
5 15 18 72 74
5 15 19 16718 286
5 15 20 5102 135
5 15 21 2277 121
5 15 22 17054 325
5 15 23 965 113
5 15 24 3204 140
5 15 25 6123 201
5 16 0 3122 154
5 16 1 20219 352
5 16 2 103743 1634
5 16 3 5914 140
5 16 4 2949 105
5 16 5 32633 594
5 16 6 26331 451
5 16 7 13808 253
5 16 8 42117 671
5 16 9 8543 206
5 16 10 1648 96
5 16 11 8436 223
5 16 12 68060 1012
5 16 13 15068 278
5 16 14 3001 129
5 16 15 -47 72
5 16 16 9212 179
5 16 17 671 85
5 16 18 1546 107
5 16 19 12309 270
5 16 20 17656 349
5 16 21 -8 88
5 16 22 17931 327
5 16 23 4115 143
5 16 24 3576 173
5 17 0 22172 622
5 17 1 410 80
5 17 2 36552 627
5 17 3 5328 146
5 17 4 10543 242
5 17 5 693 88
5 17 6 8700 234
5 17 7 1249 94
5 17 8 48616 759
5 17 9 91 63
5 17 10 49843 839
5 17 11 9014 198
5 17 12 31915 578
5 17 13 421 94
5 17 14 50861 855
5 17 15 11583 242
5 17 16 37457 602
5 17 17 3034 140
5 17 18 1983 135
5 17 19 781 99
5 17 20 1554 105
5 17 21 578 96
5 17 22 3149 140
5 17 23 407 107
5 18 0 243692 4712
5 18 1 1821 99
5 18 2 156406 2203
5 18 3 33697 539
5 18 4 180974 2338
5 18 5 5614 138
5 18 6 83667 1147
5 18 7 677 88
5 18 8 106364 1554
5 18 9 5639 157
5 18 10 88021 1422
5 18 11 3347 127
5 18 12 30163 633
5 18 13 1568 118
5 18 14 24601 509
5 18 15 2767 116
5 18 16 35039 589
5 18 17 5023 182
5 18 18 87204 1318
5 18 19 2830 149
5 18 20 63007 943
5 18 21 1705 140
5 18 22 26653 459
5 18 23 2998 182
5 19 0 83205 1730
5 19 1 16897 305
5 19 2 24073 410
5 19 3 2591 107
5 19 4 27090 426
5 19 5 5017 138
5 19 6 32314 589
5 19 7 12438 231
5 19 8 2195 105
5 19 9 305 72
5 19 10 3334 138
5 19 11 5102 157
5 19 12 481 85
5 19 13 11126 294
5 19 14 31618 539
5 19 15 1260 127
5 19 16 27671 514
5 19 17 5567 176
5 19 18 2786 143
5 19 19 1067 107
5 19 20 5460 157
5 19 21 2580 162
5 19 22 2467 127
5 20 0 131392 2635
5 20 1 19724 355
5 20 2 36693 594
5 20 3 2547 118
5 20 4 13123 248
5 20 5 149 105
5 20 6 21950 360
5 20 7 17879 333
5 20 8 10763 234
5 20 9 17290 308
5 20 10 28100 470
5 20 11 608 94
5 20 12 457 113
5 20 13 886 113
5 20 14 35460 600
5 20 15 1051 110
5 20 16 8117 226
5 20 17 26548 495
5 20 18 19884 391
5 20 19 176 105
5 20 20 10771 278
5 20 21 4478 171
5 21 0 1009 173
5 21 1 470 107
5 21 2 3386 140
5 21 3 5628 173
5 21 4 10804 223
5 21 5 1461 124
5 21 6 168 102
5 21 7 2055 118
5 21 8 65917 946
5 21 9 29596 468
5 21 10 7960 209
5 21 11 1100 127
5 21 12 32889 710
5 21 13 116 132
5 21 14 8739 231
5 21 15 974 151
5 21 16 13340 283
5 21 17 226 107
5 21 18 47 140
5 21 19 382 107
5 21 20 3416 171
5 22 0 1755 176
5 22 1 24354 435
5 22 2 5705 182
5 22 3 1012 129
5 22 4 217 99
5 22 5 10042 209
5 22 6 1799 116
5 22 7 3537 151
5 22 8 850 124
5 22 9 2913 151
5 22 10 9093 228
5 22 11 1912 135
5 22 12 1634 138
5 22 13 245 102
5 22 14 2338 146
5 22 15 4261 223
5 22 16 325 113
5 22 17 4192 165
5 22 18 380 105
5 22 19 3125 149
5 23 0 17843 528
5 23 1 24648 424
5 23 2 1969 146
5 23 3 952 129
5 23 4 2789 132
5 23 5 12243 259
5 23 6 13483 272
5 23 7 37014 622
5 23 8 176 118
5 23 9 12394 272
5 23 10 21210 410
5 23 11 8323 231
5 23 12 6703 193
5 23 13 5155 184
5 23 14 24593 451
5 23 15 278 151
5 23 16 182 146
5 23 17 4827 182
5 24 0 1439 212
5 24 1 633 129
5 24 2 6805 223
5 24 3 16954 338
5 24 4 5820 184
5 24 5 23325 473
5 24 6 195 118
5 24 7 561 151
5 24 8 547 129
5 24 9 1637 143
5 24 10 4412 173
5 24 11 1411 146
5 24 12 33 135
5 24 13 2696 173
5 24 14 6832 226
5 24 15 6398 212
5 24 16 143 149
5 25 0 13470 393
5 25 1 1042 146
5 25 2 25132 459
5 25 3 4481 176
5 25 4 12147 281
5 25 5 520 195
5 25 6 4847 198
5 25 7 1400 157
5 25 8 2855 173
5 25 9 11618 281
5 25 10 2324 154
5 25 11 1950 154
5 25 12 7085 220
5 25 13 597 182
5 25 14 1964 182
5 26 0 2905 226
5 26 1 41490 666
5 26 2 2352 157
5 26 3 31964 528
5 26 4 52 140
5 26 5 13956 358
5 26 6 226 168
5 26 7 35691 619
5 26 8 1342 157
5 26 9 5465 195
5 26 10 -91 162
5 26 11 5702 201
5 26 12 330 99
5 27 0 28149 734
5 27 1 10075 250
5 27 2 311 138
5 27 3 536 140
5 27 4 5586 201
5 27 5 11085 286
5 27 6 2162 171
5 27 7 4720 187
5 27 8 9206 250
5 27 9 3771 209
5 27 10 2808 217
5 28 0 2266 259
5 28 1 146 146
5 28 2 -6 201
5 28 3 2707 204
5 28 4 611 179
5 28 5 2891 201
5 28 6 2379 204
5 28 7 116 220
6 0 0 571755 18217
6 0 1 106326 1837
6 0 2 43784 938
6 0 3 53416 982
6 0 4 679123 15458
6 0 5 7691 190
6 0 6 68049 1246
6 0 7 50275 1048
6 0 8 94798 1661
6 0 9 1593 118
6 0 10 446406 8345
6 0 11 23842 512
6 0 13 35925 784
6 0 14 42372 1070
6 0 15 2159 113
6 0 16 679 96
6 0 17 9558 234
6 0 20 25784 688
6 0 23 80 88
6 0 24 300 91
6 1 0 13068 275
6 1 1 564 47
6 1 2 24868 349
6 1 3 6621 113
6 1 4 107335 1337
6 1 5 363 55
6 1 6 405813 4959
6 1 7 20013 319
6 1 8 27250 366
6 1 9 18690 283
6 1 10 93462 1315
6 1 11 53292 710
6 1 12 36024 564
6 1 13 10205 223
6 1 14 57721 935
6 1 15 2137 61
6 1 16 21100 374
6 1 17 58 39
6 1 18 62933 1119
6 1 19 314 63
6 1 20 23064 446
6 1 21 1122 91
6 1 22 49422 1290
6 1 23 336 91
6 1 24 21232 611
6 1 25 52 80
6 1 26 29184 784
6 1 27 2275 146
6 1 28 347 110
6 2 0 13007 404
6 2 1 3942 88
6 2 2 245821 2844
6 2 3 8516 138
6 2 4 126017 1521
6 2 5 33034 465
6 2 6 62894 836
6 2 7 73897 1078
6 2 8 6670 162
6 2 9 11462 187
6 2 10 248882 3336
6 2 11 18404 297
6 2 12 36621 690
6 2 13 25 30
6 2 14 28045 487
6 2 15 239 41
6 2 16 64924 1128
6 2 17 1078 80
6 2 18 59855 924
6 2 19 5454 138
6 2 20 18264 424
6 2 21 102 63
6 2 22 39366 1023
6 2 23 2088 116
6 2 24 13541 580
6 2 25 121 94
6 2 26 9478 327
6 2 27 -138 132
6 2 28 3125 300
6 2 29 855 127
6 3 1 5256 135
6 3 2 29943 503
6 3 3 1210 41
6 3 4 64297 949
6 3 5 61880 910
6 3 6 2817 105
6 3 7 30875 484
6 3 8 161863 2060
6 3 9 726 50
6 3 10 51716 1108
6 3 11 17848 319
6 3 12 886 77
6 3 13 20351 305
6 3 14 13915 217
6 3 15 275 30
6 3 16 21515 349
6 3 17 930 102
6 3 18 19411 382
6 3 19 3449 124
6 3 20 1681 113
6 3 21 6527 223
6 3 22 215 77
6 3 23 468 102
6 3 24 16534 503
6 3 25 52 91
6 3 26 1001 96
6 3 27 91 83
6 4 1 206942 2429
6 4 2 2830 99
6 4 3 89061 1097
6 4 4 71999 1048
6 4 5 12003 270
6 4 6 177142 2242
6 4 7 26240 465
6 4 8 132916 2016
6 4 9 49450 927
6 4 10 38365 649
6 4 11 96908 1507
6 4 12 19562 344
6 4 13 20668 369
6 4 14 3169 149
6 4 15 17263 253
6 4 16 18525 325
6 4 17 34531 567
6 4 18 3755 113
6 4 19 63159 985
6 4 20 19570 448
6 4 21 1593 121
6 4 22 6964 217
6 4 23 14517 459
6 4 24 3843 173
6 4 25 12996 327
6 4 26 10339 237
6 4 27 4514 198
6 5 0 6266 281
6 5 1 38238 638
6 5 2 56818 935
6 5 3 61016 897
6 5 4 4833 140
6 5 5 2737 99
6 5 6 245 58
6 5 7 75833 1095
6 5 8 37991 737
6 5 9 56183 916
6 5 10 7157 140
6 5 11 91973 1219
6 5 12 17895 437
6 5 13 22346 366
6 5 14 14707 248
6 5 15 8177 171
6 5 16 49364 795
6 5 17 7361 135
6 5 18 3020 107
6 5 19 24100 399
6 5 20 5655 250
6 5 21 930 72
6 5 22 1884 113
6 5 23 1191 102
6 5 24 853 107
6 5 25 16553 421
6 5 26 5012 162
6 5 27 3664 154
6 5 28 627 140
6 6 0 4184 168
6 6 1 38005 528
6 6 2 31706 638
6 6 3 202194 2737
6 6 4 7372 173
6 6 5 2748 118
6 6 6 8056 204
6 6 7 159486 3114
6 6 8 12873 267
6 6 9 106785 1870
6 6 10 23842 432
6 6 11 48091 726
6 6 12 3045 110
6 6 13 2071 116
6 6 14 633 52
6 6 15 54120 1119
6 6 16 14586 303
6 6 17 24563 459
6 6 18 6645 149
6 6 19 7545 215
6 6 20 1491 91
6 6 21 52140 919
6 6 22 15488 305
6 6 23 13007 289
6 6 24 -61 107
6 6 25 8136 220
6 6 26 7828 209
6 6 27 14031 638
6 6 28 547 160
6 7 0 80143 1994
6 7 1 7757 173
6 7 2 43984 729
6 7 3 141572 2211
6 7 4 1986 66
6 7 5 3138 105
6 7 6 393 44
6 7 7 141613 2195
6 7 8 15255 275
6 7 9 203399 3042
6 7 10 21564 369
6 7 11 239822 3587
6 7 12 12091 286
6 7 13 145607 2209
6 7 14 2085 113
6 7 15 37069 710
6 7 16 1796 66
6 7 17 42931 649
6 7 18 6742 143
6 7 19 14451 250
6 7 20 23748 418
6 7 21 23462 407
6 7 22 9311 184
6 7 23 3917 107
6 7 24 2544 132
6 7 25 5982 184
6 7 26 707 124
6 7 27 33906 754
6 7 28 1626 187
6 8 0 49485 1304
6 8 1 8689 237
6 8 2 9203 182
6 8 3 569 58
6 8 4 1584 72
6 8 5 25547 476
6 8 6 3994 113
6 8 7 240072 3600
6 8 8 6425 160
6 8 9 94091 1397
6 8 10 18145 319
6 8 11 57531 949
6 8 12 11211 234
6 8 13 7894 193
6 8 14 726 69
6 8 15 21867 366
6 8 16 4470 99
6 8 17 2376 96
6 8 18 182 52
6 8 19 1637 88
6 8 20 470 55
6 8 21 993 50
6 8 22 85 63
6 8 23 858 74
6 8 24 1595 80
6 8 25 3518 107
6 8 26 1447 129
6 8 27 3411 184
6 9 0 9635 281
6 9 1 306820 4544
6 9 2 2877 88
6 9 3 11365 215
6 9 4 2894 96
6 9 5 247163 3716
6 9 6 17279 377
6 9 7 5870 198
6 9 8 27376 451
6 9 9 42518 811
6 9 10 7974 168
6 9 11 1469 96
6 9 12 45929 707
6 9 13 19083 410
6 9 14 1601 63
6 9 15 70205 908
6 9 16 25410 465
6 9 17 6414 132
6 9 18 15637 242
6 9 19 55545 927
6 9 20 21974 349
6 9 21 13849 231
6 9 22 759 55
6 9 23 6651 154
6 9 24 6956 173
6 9 25 12180 226
6 9 26 165 77
6 9 27 -47 135
6 10 0 40389 880
6 10 1 5408 127
6 10 2 5861 124
6 10 3 37020 506
6 10 4 43605 644
6 10 5 24172 380
6 10 6 129 50
6 10 7 83 55
6 10 8 591 66
6 10 9 4109 168
6 10 10 45030 693
6 10 11 27797 468
6 10 12 3174 94
6 10 13 476 63
6 10 14 580 66
6 10 15 1576 83
6 10 16 344 61
6 10 17 880 77
6 10 18 4786 132
6 10 19 2341 85
6 10 20 2079 85
6 10 21 4376 107
6 10 22 5768 132
6 10 23 25 55
6 10 24 311 77
6 10 25 176 83
6 10 26 2327 107
6 10 27 286 94
6 11 0 22104 726
6 11 1 2173 80
6 11 2 53416 814
6 11 3 21853 377
6 11 4 105358 1516
6 11 5 3089 99
6 11 6 110 50
6 11 7 1084 63
6 11 8 2052 88
6 11 9 58276 880
6 11 10 2035 83
6 11 11 11970 209
6 11 12 4615 143
6 11 13 12980 272
6 11 14 10405 212
6 11 15 2910 124
6 11 16 12144 234
6 11 17 1560 85
6 11 18 1009 69
6 11 19 206 58
6 11 20 10372 195
6 11 21 1053 83
6 11 22 8103 162
6 11 23 1183 77
6 11 24 327 63
6 11 25 5218 160
6 11 26 2074 110
6 12 0 101350 2550
6 12 1 2143 83
6 12 2 1837 85
6 12 3 25575 429
6 12 4 9679 201
6 12 5 586 55
6 12 6 4891 121
6 12 7 1747 85
6 12 8 6835 151
6 12 9 8199 176
6 12 10 7993 173
6 12 11 1477 77
6 12 12 5259 132
6 12 13 1730 83
6 12 14 6656 157
6 12 15 2107 96
6 12 16 3411 110
6 12 17 209 77
6 12 18 352 74
6 12 19 7413 195
6 12 20 1675 88
6 12 21 11506 215
6 12 22 2140 99
6 12 23 96 77
6 12 24 6458 165
6 12 25 325 47
6 12 26 6612 184
6 13 0 946 105
6 13 1 15103 267
6 13 2 25176 426
6 13 3 14647 270
6 13 4 7564 165
6 13 5 68027 1020
6 13 6 50366 723
6 13 7 4957 135
6 13 8 184 61
6 13 9 40791 638
6 13 10 30022 492
6 13 11 1747 94
6 13 12 10568 270
6 13 13 12083 234
6 13 14 67018 910
6 13 15 37812 652
6 13 16 3105 99
6 13 17 418 74
6 13 18 31403 564
6 13 19 3724 140
6 13 20 2982 107
6 13 21 690 88
6 13 22 7022 165
6 13 23 11814 253
6 13 24 1417 94
6 13 25 5487 184
6 14 0 62353 1309
6 14 1 748 74
6 14 2 22885 377
6 14 3 30795 495
6 14 4 5218 149
6 14 5 14113 256
6 14 6 8609 206
6 14 7 52547 806
6 14 8 7649 160
6 14 9 45629 690
6 14 10 13626 253
6 14 11 33824 520
6 14 12 12859 248
6 14 13 8378 193
6 14 14 2349 110
6 14 15 34184 550
6 14 16 2550 121
6 14 17 22236 382
6 14 18 4376 124
6 14 19 8700 201
6 14 20 4186 143
6 14 21 8741 217
6 14 22 1020 99
6 14 23 4464 138
6 14 24 179 105
6 14 25 77 99
6 15 0 73740 1546
6 15 1 25916 468
6 15 2 3493 107
6 15 3 7028 154
6 15 4 33034 484
6 15 5 42854 836
6 15 6 16044 325
6 15 7 74 63
6 15 8 47857 740
6 15 9 31486 503
6 15 10 6945 160
6 15 11 1554 91
6 15 12 58351 1246
6 15 13 -99 55
6 15 14 11090 231
6 15 15 12248 267
6 15 16 10889 231
6 15 17 847 77
6 15 18 8821 176
6 15 19 12559 250
6 15 20 13060 275
6 15 21 6357 165
6 15 22 220 107
6 15 23 52 129
6 15 24 8348 248
6 16 0 23669 556
6 16 1 12080 226
6 16 2 14281 259
6 16 3 18379 316
6 16 4 65719 987
6 16 5 7905 239
6 16 6 77076 1130
6 16 7 770 83
6 16 8 72202 1089
6 16 9 7341 179
6 16 10 103072 1472
6 16 11 2236 132
6 16 12 15942 344
6 16 13 305 74
6 16 14 62452 1042
6 16 15 9976 217
6 16 16 17065 292
6 16 17 6040 165
6 16 18 4280 135
6 16 19 4833 157
6 16 20 14377 300
6 16 21 330 99
6 16 22 8188 195
6 16 23 1257 116
6 16 24 10568 281
6 17 0 1345 143
6 17 1 6395 154
6 17 2 22610 393
6 17 3 53108 811
6 17 4 2181 110
6 17 5 1183 107
6 17 6 311 66
6 17 7 36816 608
6 17 8 14094 314
6 17 9 10540 223
6 17 10 9077 272
6 17 11 3774 129
6 17 12 40376 707
6 17 13 19334 355
6 17 14 13296 275
6 17 15 5102 151
6 17 16 56824 833
6 17 17 7572 217
6 17 18 1287 140
6 17 19 575 88
6 17 20 3229 151
6 17 21 6406 171
6 17 22 1117 116
6 17 23 5875 173
6 18 0 47037 1296
6 18 1 9036 212
6 18 2 11005 245
6 18 3 2902 143
6 18 4 4459 168
6 18 5 1975 127
6 18 6 1293 88
6 18 7 14091 270
6 18 8 7162 195
6 18 9 129 77
6 18 10 1293 99
6 18 11 3986 132
6 18 12 46259 798
6 18 13 2379 110
6 18 14 4637 140
6 18 15 729 80
6 18 16 3270 140
6 18 17 8832 195
6 18 18 5911 176
6 18 19 2140 113
6 18 20 105 102
6 18 21 6434 179
6 18 22 264 102
6 19 0 17433 531
6 19 1 10829 248
6 19 2 17353 355
6 19 3 4415 146
6 19 4 13797 278
6 19 5 2742 116
6 19 6 9828 270
6 19 7 14949 325
6 19 8 51851 748
6 19 9 602 80
6 19 10 46738 745
6 19 11 11 96
6 19 12 13497 259
6 19 13 5633 162
6 19 14 53320 963
6 19 15 7030 201
6 19 16 29706 525
6 19 17 336 94
6 19 18 2090 154
6 19 19 4445 162
6 19 20 195 96
6 19 21 44 102
6 20 0 63376 1727
6 20 1 140 107
6 20 2 60713 919
6 20 3 1048 113
6 20 4 105581 1716
6 20 5 3127 121
6 20 6 25696 457
6 20 7 9668 223
6 20 8 19149 407
6 20 9 9060 242
6 20 10 8219 206
6 20 11 943 105
6 20 12 43220 655
6 20 13 1221 154
6 20 14 24081 459
6 20 15 1224 113
6 20 16 24329 462
6 20 17 1771 157
6 20 18 9861 239
6 20 19 129 85
6 20 20 24125 448
6 21 0 24059 704
6 21 1 1356 113
6 21 2 2781 146
6 21 3 283 105
6 21 4 1546 121
6 21 5 13029 278
6 21 6 10128 239
6 21 7 19889 374
6 21 8 4431 187
6 21 9 344 88
6 21 10 10757 270
6 21 11 6755 190
6 21 12 11563 294
6 21 13 1263 113
6 21 14 18704 380
6 21 15 5820 190
6 21 16 336 105
6 21 17 154 135
6 21 18 182 105
6 21 19 6744 206
6 22 0 2701 272
6 22 1 1213 138
6 22 2 47929 759
6 22 3 18261 349
6 22 4 1097 127
6 22 5 22733 413
6 22 6 8816 220
6 22 7 1642 127
6 22 8 748 140
6 22 9 31136 602
6 22 10 437 94
6 22 11 13789 300
6 22 12 13467 272
6 22 13 2319 154
6 22 14 388 116
6 22 15 12713 303
6 22 16 11514 283
6 22 17 250 99
6 22 18 8067 226
6 23 0 45802 1067
6 23 1 4604 198
6 23 2 1265 146
6 23 3 129 113
6 23 4 5619 171
6 23 5 24846 487
6 23 6 3540 151
6 23 7 1507 135
6 23 8 2013 132
6 23 9 13819 344
6 23 10 844 149
6 23 11 597 110
6 23 12 1103 146
6 23 13 289 121
6 23 14 470 149
6 23 15 1813 151
6 23 16 2476 149
6 23 17 490 113
6 24 0 7094 297
6 24 1 12754 297
6 24 2 12166 283
6 24 3 542 138
6 24 4 5782 190
6 24 5 9927 253
6 24 6 671 138
6 24 7 2792 173
6 24 8 292 138
6 24 9 4384 193
6 24 10 3700 168
6 24 11 668 140
6 24 12 388 143
6 24 13 1406 165
6 24 14 9129 245
6 24 15 2060 160
6 25 0 31986 930
6 25 1 4527 176
6 25 2 4651 187
6 25 3 2998 160
6 25 4 336 140
6 25 5 567 138
6 25 6 5985 198
6 25 7 18718 371
6 25 8 281 140
6 25 9 1832 204
6 25 10 7765 231
6 25 11 195 140
6 25 12 226 140
6 25 13 446 151
6 25 14 5573 226
6 26 0 12144 503
6 26 1 8689 272
6 26 2 1727 157
6 26 3 5933 204
6 26 4 7443 223
6 26 5 -121 140
6 26 6 281 140
6 26 7 12091 327
6 26 8 575 165
6 26 9 3298 176
6 26 10 800 154
6 26 11 1538 160
6 26 12 501 118
6 27 0 6054 294
6 27 1 16985 396
6 27 2 569 165
6 27 3 2987 256
6 27 4 2597 162
6 27 5 -201 179
6 27 6 3479 198
6 27 7 564 212
6 27 8 -267 173
6 27 9 556 187
6 28 0 4164 470
6 28 1 6700 382
6 28 2 -66 253
6 28 3 2993 300
6 28 4 2775 338
6 28 5 29384 971
6 28 6 322 234
7 1 0 11145 432
7 1 1 82550 1100
7 1 2 12771 239
7 1 3 30507 432
7 1 4 35537 539
7 1 5 24967 338
7 1 6 31169 429
7 1 7 8023 143
7 1 8 233727 3435
7 1 9 8378 149
7 1 10 42023 756
7 1 11 34038 567
7 1 12 269085 3565
7 1 13 751 47
7 1 14 7154 193
7 1 15 19078 374
7 1 16 44138 836
7 1 17 7113 182
7 1 18 528 44
7 1 19 24648 564
7 1 20 8089 303
7 1 21 4717 176
7 1 22 10837 261
7 1 23 5012 173
7 1 24 18712 594
7 1 25 1483 107
7 1 26 968 121
7 1 27 228 105
7 1 28 7913 344
7 2 0 21589 413
7 2 1 4775 102
7 2 2 101768 1450
7 2 3 5446 132
7 2 4 5988 118
7 2 5 404 33
7 2 6 121677 1458
7 2 7 26323 366
7 2 8 2173 91
7 2 9 10232 176
7 2 10 166918 2123
7 2 11 9525 165
7 2 12 16847 333
7 2 13 413 47
7 2 14 18044 380
7 2 15 6370 127
7 2 16 77621 1207
7 2 17 6755 135
7 2 18 24378 424
7 2 19 5259 146
7 2 20 8673 245
7 2 21 10012 289
7 2 22 36657 800
7 2 23 748 83
7 2 24 462 96
7 2 25 -52 83
7 2 26 10983 311
7 2 27 198 105
7 2 28 -135 113
7 3 0 3576 171
7 3 1 11258 168
7 3 2 61976 1075
7 3 3 993 52
7 3 4 55900 712
7 3 5 6392 151
7 3 6 3444 96
7 3 7 663 58
7 3 8 9690 215
7 3 9 44898 740
7 3 10 25657 380
7 3 11 31488 484
7 3 12 73063 1527
7 3 13 13684 242
7 3 14 32047 495
7 3 15 14611 297
7 3 16 1241 52
7 3 17 9443 171
7 3 18 1004 66
7 3 19 12644 275
7 3 20 4893 129
7 3 21 2071 107
7 3 22 -80 77
7 3 23 171 88
7 3 24 6893 426
7 3 25 4637 261
7 3 26 2327 151
7 3 27 4494 206
7 3 28 8766 275
7 4 0 160556 3138
7 4 1 30828 432
7 4 2 43126 806
7 4 3 5749 160
7 4 4 150838 2082
7 4 5 14278 300
7 4 6 54161 751
7 4 7 2855 96
7 4 8 230916 3444
7 4 9 83037 1191
7 4 10 64385 1040
7 4 11 9184 168
7 4 12 141839 2189
7 4 13 24818 426
7 4 14 64539 1026
7 4 15 6307 116
7 4 16 37642 492
7 4 17 267 36
7 4 18 42106 776
7 4 19 18300 305
7 4 20 54555 1108
7 4 21 580 61
7 4 22 11874 410
7 4 23 14853 487
7 4 24 65103 1664
7 4 25 377 110
7 4 26 2129 124
7 4 27 3334 190
7 4 28 28394 776
7 5 0 154788 2962
7 5 1 10449 173
7 5 2 29071 454
7 5 3 13530 217
7 5 4 73781 1042
7 5 5 102406 1334
7 5 6 14619 231
7 5 7 44617 913
7 5 8 70846 1023
7 5 9 44180 624
7 5 10 8103 228
7 5 11 27701 440
7 5 12 4918 116
7 5 13 5586 107
7 5 14 12339 300
7 5 15 2830 72
7 5 16 33601 514
7 5 17 110 50
7 5 18 1381 58
7 5 19 2839 118
7 5 20 36365 622
7 5 21 4395 176
7 5 22 3303 124
7 5 23 1744 149
7 5 24 24128 569
7 5 25 1535 129
7 5 26 608 124
7 5 27 1667 135
7 5 28 9814 556
7 6 0 23795 479
7 6 1 668 44
7 6 2 50388 822
7 6 3 531 63
7 6 4 27552 415
7 6 5 20968 325
7 6 6 4098 96
7 6 7 24326 380
7 6 8 31477 462
7 6 9 140815 2137
7 6 10 14520 242
7 6 11 11005 209
7 6 12 3823 135
7 6 13 21658 391
7 6 14 6667 168
7 6 15 9209 182
7 6 16 12493 248
7 6 17 2000 83
7 6 18 7531 162
7 6 19 9407 226
7 6 20 8615 206
7 6 21 693 85
7 6 22 4767 132
7 6 23 6901 198
7 6 24 217 124
7 6 25 638 127
7 6 26 2624 157
7 6 27 171 121
7 6 28 135 162
7 7 0 44774 1163
7 7 1 1538 63
7 7 2 57638 1067
7 7 3 150079 2266
7 7 4 4937 146
7 7 5 935 80
7 7 6 46542 784
7 7 7 222570 3317
7 7 8 34437 679
7 7 9 3292 102
7 7 10 26703 531
7 7 11 28218 501
7 7 12 91 41
7 7 13 12336 261
7 7 14 30430 525
7 7 15 4016 107
7 7 16 1340 72
7 7 17 13456 239
7 7 18 13516 275
7 7 19 23086 413
7 7 20 1304 66
7 7 21 8304 223
7 7 22 23501 492
7 7 23 6623 168
7 7 24 624 74
7 7 25 3578 157
7 7 26 4021 198
7 7 27 7033 253
7 8 0 14033 454
7 8 1 73127 1290
7 8 2 1851 94
7 8 3 1031 58
7 8 4 17543 432
7 8 5 98792 1576
7 8 6 1923 85
7 8 7 135449 2338
7 8 8 6032 143
7 8 9 188485 3149
7 8 10 2808 110
7 8 11 104483 1648
7 8 12 5273 140
7 8 13 162743 2272
7 8 14 410 52
7 8 15 40458 688
7 8 16 1763 85
7 8 17 13769 305
7 8 18 608 72
7 8 19 38626 729
7 8 20 3122 113
7 8 21 3766 105
7 8 22 2762 96
7 8 23 11926 289
7 8 24 10166 204
7 8 25 11926 237
7 8 26 1436 143
7 8 27 14927 391
7 9 0 2434 135
7 9 1 46894 899
7 9 2 19821 374
7 9 3 40153 704
7 9 4 360 66
7 9 5 10438 209
7 9 6 11338 209
7 9 7 95634 1378
7 9 8 3389 99
7 9 9 12614 300
7 9 10 20134 388
7 9 11 77456 1232
7 9 12 16652 327
7 9 13 38676 740
7 9 14 4019 107
7 9 15 23275 371
7 9 16 8403 146
7 9 17 63 55
7 9 18 9377 182
7 9 19 5091 132
7 9 20 3980 121
7 9 21 7259 149
7 9 22 99 55
7 9 23 542 83
7 9 24 3364 118
7 9 25 822 96
7 9 26 1769 99
7 9 27 495 157
7 10 0 58 66
7 10 1 101785 1375
7 10 2 30402 490
7 10 3 179854 2693
7 10 4 72 66
7 10 5 4599 116
7 10 6 2418 85
7 10 7 72948 1185
7 10 8 4979 121
7 10 9 29973 616
7 10 10 7107 160
7 10 11 120755 1716
7 10 12 24125 374
7 10 13 49293 748
7 10 14 578 61
7 10 15 71077 1125
7 10 16 1807 77
7 10 17 51125 718
7 10 18 5306 173
7 10 19 1587 116
7 10 20 264 63
7 10 21 36541 553
7 10 22 6244 129
7 10 23 778 63
7 10 24 2635 118
7 10 25 6189 162
7 10 26 1455 105
7 11 0 49238 919
7 11 1 15189 231
7 11 2 7267 157
7 11 3 24175 649
7 11 4 8689 182
7 11 5 6816 135
7 11 6 51689 721
7 11 7 19697 388
7 11 8 987 61
7 11 9 12713 245
7 11 10 1551 94
7 11 11 2610 168
7 11 12 1560 69
7 11 13 1725 83
7 11 14 13079 231
7 11 15 2894 99
7 11 16 19592 338
7 11 17 9146 212
7 11 18 5251 129
7 11 19 3796 118
7 11 20 11374 223
7 11 21 495 88
7 11 22 162 74
7 11 23 -77 61
7 11 24 193 69
7 11 25 138 94
7 11 26 1903 113
7 12 0 5454 242
7 12 1 37496 586
7 12 2 9212 184
7 12 3 57228 798
7 12 4 162 44
7 12 5 38211 600
7 12 6 26306 454
7 12 7 57124 861
7 12 8 6282 149
7 12 9 19383 347
7 12 10 2321 91
7 12 11 17568 344
7 12 12 12182 283
7 12 13 24315 454
7 12 14 1367 77
7 12 15 47830 765
7 12 16 611 74
7 12 17 8037 168
7 12 18 1725 91
7 12 19 8664 190
7 12 20 4420 140
7 12 21 5845 129
7 12 22 5149 132
7 12 23 4211 118
7 12 24 58 47
7 12 25 7828 201
7 12 26 1417 118
7 13 0 14405 380
7 13 1 48080 729
7 13 2 932 74
7 13 3 46223 616
7 13 4 578 66
7 13 5 16184 297
7 13 6 305 72
7 13 7 174130 2266
7 13 8 281 58
7 13 9 26683 448
7 13 10 5969 146
7 13 11 88112 1194
7 13 12 5721 143
7 13 13 57773 875
7 13 14 209 63
7 13 15 8246 201
7 13 16 3829 116
7 13 17 28906 476
7 13 18 699 72
7 13 19 1444 110
7 13 20 5677 149
7 13 21 17274 327
7 13 22 11046 242
7 13 23 3383 113
7 13 24 6211 160
7 13 25 118 91
7 14 0 54577 1194
7 14 1 6255 143
7 14 2 -14 61
7 14 3 29365 462
7 14 4 600 74
7 14 5 657 74
7 14 6 33461 528
7 14 7 44592 693
7 14 8 4720 124
7 14 9 8318 201
7 14 10 3020 105
7 14 11 22010 358
7 14 12 17648 283
7 14 13 8667 187
7 14 14 1166 99
7 14 15 11277 234
7 14 16 396 69
7 14 17 8067 187
7 14 18 385 88
7 14 19 3336 124
7 14 20 1392 118
7 14 21 12961 275
7 14 22 6068 157
7 14 23 -44 77
7 14 24 1122 99
7 15 0 149 105
7 15 1 1969 94
7 15 2 316 77
7 15 3 1565 74
7 15 4 27313 448
7 15 5 17364 305
7 15 6 77585 1062
7 15 7 11995 226
7 15 8 8494 171
7 15 9 4654 140
7 15 10 110974 1480
7 15 11 803 69
7 15 12 704 91
7 15 13 6214 143
7 15 14 163967 2308
7 15 15 586 94
7 15 16 701 74
7 15 17 228 80
7 15 18 1249 94
7 15 19 4706 160
7 15 20 2478 127
7 15 21 0 88
7 15 22 2027 110
7 15 23 105 83
7 15 24 6194 160
7 16 0 2778 165
7 16 1 23031 424
7 16 2 1172 91
7 16 3 85 55
7 16 4 32583 481
7 16 5 30724 495
7 16 6 9798 190
7 16 7 24689 421
7 16 8 15469 289
7 16 9 20090 396
7 16 10 31488 517
7 16 11 25965 448
7 16 12 5738 154
7 16 13 9993 201
7 16 14 4626 151
7 16 15 1469 116
7 16 16 6717 242
7 16 17 784 80
7 16 18 10909 253
7 16 19 29250 523
7 16 20 259 80
7 16 21 94 94
7 16 22 3435 160
7 16 23 1579 118
7 17 0 35009 784
7 17 1 457 85
7 17 2 6029 151
7 17 3 1023 102
7 17 4 7182 190
7 17 5 21454 382
7 17 6 30441 473
7 17 7 5295 149
7 17 8 6830 195
7 17 9 10463 226
7 17 10 41858 688
7 17 11 2533 102
7 17 12 13505 272
7 17 13 2718 118
7 17 14 6989 184
7 17 15 671 85
7 17 16 19 83
7 17 17 5223 187
7 17 18 5196 165
7 17 19 1026 99
7 17 20 5067 154
7 17 21 333 102
7 17 22 2638 146
7 18 0 31164 723
7 18 1 2242 135
7 18 2 25784 415
7 18 3 1510 105
7 18 4 1950 124
7 18 5 4921 140
7 18 6 5531 154
7 18 7 16421 327
7 18 8 2467 138
7 18 9 184 99
7 18 10 707 99
7 18 11 3215 113
7 18 12 2685 184
7 18 13 13580 261
7 18 14 1007 96
7 18 15 294 96
7 18 16 206 83
7 18 17 1117 116
7 18 18 864 105
7 18 19 773 129
7 18 20 748 107
7 18 21 1320 113
7 18 22 391 110
7 19 0 2357 179
7 19 1 1444 110
7 19 2 18561 333
7 19 3 21518 380
7 19 4 2616 121
7 19 5 6535 179
7 19 6 930 107
7 19 7 22046 413
7 19 8 4789 157
7 19 9 415 94
7 19 10 9286 267
7 19 11 6887 190
7 19 12 679 96
7 19 13 2038 127
7 19 14 3166 151
7 19 15 589 102
7 19 16 1274 110
7 19 17 3757 143
7 19 18 908 105
7 19 19 11 85
7 19 20 316 105
7 19 21 2418 129
7 20 0 58851 1296
7 20 1 1557 113
7 20 2 13778 275
7 20 3 858 113
7 20 4 8750 220
7 20 5 2701 124
7 20 6 308 113
7 20 7 13084 264
7 20 8 2236 124
7 20 9 2316 132
7 20 10 2811 143
7 20 11 1782 129
7 20 12 10177 248
7 20 13 2206 129
7 20 14 13134 311
7 20 15 2376 127
7 20 16 2013 121
7 20 17 391 94
7 20 18 311 105
7 20 19 2085 129
7 20 20 1483 173
7 21 0 10009 319
7 21 1 1045 124
7 21 2 21529 413
7 21 3 3328 146
7 21 4 1683 107
7 21 5 146 88
7 21 6 27057 476
7 21 7 184 96
7 21 8 9258 253
7 21 9 2918 154
7 21 10 24409 432
7 21 11 954 143
7 21 12 4030 171
7 21 13 1086 113
7 21 14 15995 344
7 21 15 374 129
7 21 16 1876 149
7 21 17 198 113
7 21 18 11742 316
7 21 19 963 118
7 22 0 479 184
7 22 1 633 116
7 22 2 3983 162
7 22 3 5171 157
7 22 4 3356 129
7 22 5 2869 146
7 22 6 5729 190
7 22 7 3413 151
7 22 8 6618 190
7 22 9 2264 162
7 22 10 14534 316
7 22 11 784 127
7 22 12 2517 187
7 22 13 2368 129
7 22 14 6082 206
7 22 15 1304 138
7 22 16 1312 149
7 22 17 6 107
7 22 18 468 110
7 23 0 2506 220
7 23 1 5509 171
7 23 2 3917 151
7 23 3 11063 253
7 23 4 1174 135
7 23 5 690 132
7 23 6 792 127
7 23 7 30878 536
7 23 8 8543 250
7 23 9 13665 311
7 23 10 1315 201
7 23 11 19466 396
7 23 12 10876 314
7 23 13 9008 267
7 23 14 998 154
7 23 15 572 110
7 23 16 2137 143
7 24 0 25545 723
7 24 1 4327 187
7 24 2 3045 157
7 24 3 5248 195
7 24 4 13260 316
7 24 5 2052 138
7 24 6 -52 99
7 24 7 34385 558
7 24 8 2627 138
7 24 9 11 127
7 24 10 127 118
7 24 11 2511 149
7 24 12 143 116
7 24 13 14683 344
7 24 14 930 154
7 24 15 388 116
7 25 0 1793 234
7 25 1 1763 162
7 25 2 6546 193
7 25 3 2847 168
7 25 4 80 132
7 25 5 2165 151
7 25 6 2338 160
7 25 7 2187 160
7 25 8 415 113
7 25 9 3576 182
7 25 10 913 149
7 25 11 1207 151
7 25 12 410 146
7 25 13 1463 146
7 26 0 7259 305
7 26 1 3664 171
7 26 2 34346 600
7 26 3 21047 459
7 26 4 9355 253
7 26 5 25580 501
7 26 6 8546 245
7 26 7 1048 110
7 26 8 10936 272
7 26 9 25426 528
7 26 10 9787 267
7 26 11 3268 226
7 27 0 14429 542
7 27 1 3889 168
7 27 2 12991 303
7 27 3 116 149
7 27 4 1191 151
7 27 5 5641 245
7 27 6 6252 190
7 27 7 971 129
7 27 8 -347 195
7 28 0 3424 517
7 28 1 16902 649
7 28 2 4192 344
7 28 3 5042 338
7 28 4 910 311
8 0 0 965391 21421
8 0 1 6271 242
8 0 2 32311 701
8 0 3 3727 157
8 0 4 37430 718
8 0 5 454 80
8 0 6 133023 2283
8 0 7 34368 938
8 0 8 710969 11330
8 0 9 15175 341
8 0 10 32564 622
8 0 11 957 77
8 0 12 45002 1279
8 0 13 2242 113
8 0 14 137457 2718
8 0 15 24444 690
8 0 16 21630 514
8 0 17 1587 127
8 0 18 30441 817
8 0 19 938 127
8 0 20 109068 2712
8 0 21 3801 195
8 0 22 4148 198
8 0 23 13002 426
8 0 24 63544 1686
8 0 25 325 124
8 0 26 677 105
8 0 27 -149 341
8 1 0 38197 850
8 1 1 13183 198
8 1 2 1064 63
8 1 3 39732 605
8 1 4 55031 690
8 1 5 1290 52
8 1 6 47120 657
8 1 7 67554 858
8 1 8 51815 930
8 1 9 34157 506
8 1 10 62193 894
8 1 11 6560 118
8 1 12 56326 762
8 1 13 31466 490
8 1 14 23055 446
8 1 15 16333 283
8 1 16 43753 820
8 1 17 4107 99
8 1 18 5309 135
8 1 19 993 63
8 1 20 15607 322
8 1 21 11599 424
8 1 22 9308 231
8 1 23 817 88
8 1 24 24769 734
8 1 25 5091 206
8 1 26 407 91
8 1 27 996 110
8 1 28 12067 473
8 2 0 2566 96
8 2 1 6458 140
8 2 2 119980 1455
8 2 3 17419 259
8 2 4 17235 259
8 2 5 3031 107
8 2 6 457 50
8 2 7 875 44
8 2 8 5009 146
8 2 9 6227 179
8 2 10 2008 138
8 2 11 1232 72
8 2 12 9179 256
8 2 13 399 47
8 2 14 12540 338
8 2 15 578 47
8 2 16 3089 88
8 2 17 646 55
8 2 18 7030 168
8 2 19 437 80
8 2 20 226 58
8 2 21 468 83
8 2 22 26359 619
8 2 23 682 132
8 2 24 421 105
8 2 25 5606 300
8 2 26 7333 311
8 2 27 3884 292
8 2 28 4651 303
8 3 0 4882 182
8 3 1 556 55
8 3 2 294074 4261
8 3 3 5353 105
8 3 4 69886 872
8 3 5 3939 91
8 3 6 18063 281
8 3 7 198 44
8 3 8 97802 1403
8 3 9 1846 69
8 3 10 215914 2718
8 3 11 5801 113
8 3 12 7900 168
8 3 13 28031 435
8 3 14 87916 1155
8 3 15 91 44
8 3 16 22139 385
8 3 17 1100 80
8 3 18 50357 825
8 3 19 8158 190
8 3 20 13486 261
8 3 21 5650 193
8 3 22 57407 1549
8 3 23 6865 322
8 3 24 1205 151
8 3 25 1133 135
8 3 26 26829 875
8 3 27 363 121
8 3 28 2426 165
8 4 0 7957 187
8 4 1 55839 710
8 4 2 3177 173
8 4 3 -3 44
8 4 4 20120 503
8 4 5 5262 138
8 4 6 2819 91
8 4 7 4657 146
8 4 8 231053 3138
8 4 9 11849 259
8 4 10 84401 1130
8 4 11 160 52
8 4 12 98347 1535
8 4 13 9822 179
8 4 14 12851 259
8 4 15 2203 80
8 4 16 21691 424
8 4 17 22436 407
8 4 18 8700 195
8 4 19 5045 140
8 4 20 5080 195
8 4 21 4714 132
8 4 22 814 83
8 4 23 2022 245
8 4 24 1414 162
8 4 25 866 135
8 4 26 3336 270
8 4 27 242 113
8 4 28 11885 341
8 5 0 190702 4494
8 5 1 136588 1873
8 5 2 12556 264
8 5 3 32503 454
8 5 4 2613 116
8 5 5 151009 1925
8 5 6 217 55
8 5 7 111813 1601
8 5 8 1425 99
8 5 9 202566 2781
8 5 10 66399 1053
8 5 11 27684 407
8 5 12 635 50
8 5 13 104783 1477
8 5 14 19983 341
8 5 15 42422 600
8 5 16 605 44
8 5 17 55592 809
8 5 18 3485 96
8 5 19 2638 99
8 5 20 9008 204
8 5 21 38090 833
8 5 22 844 85
8 5 23 14446 305
8 5 24 646 151
8 5 25 3573 201
8 5 26 1224 146
8 5 27 11060 333
8 6 0 16600 501
8 6 1 7344 151
8 6 2 155055 2588
8 6 3 8898 160
8 6 4 11786 264
8 6 5 6040 198
8 6 6 57635 787
8 6 7 45360 759
8 6 8 26328 468
8 6 9 897 77
8 6 10 40945 575
8 6 11 14446 286
8 6 12 9132 267
8 6 13 17406 275
8 6 14 17285 270
8 6 15 3358 83
8 6 16 5083 121
8 6 17 3314 99
8 6 18 23509 415
8 6 19 16965 311
8 6 20 3722 179
8 6 21 23581 487
8 6 22 12697 270
8 6 23 3917 149
8 6 24 3389 151
8 6 25 2112 187
8 6 26 21490 525
8 6 27 1020 138
8 7 0 1887 105
8 7 1 223107 3686
8 7 2 51895 715
8 7 3 159714 2376
8 7 4 314 47
8 7 5 146883 2819
8 7 6 10518 253
8 7 7 12224 226
8 7 8 13684 275
8 7 9 622 69
8 7 10 4181 110
8 7 11 25652 468
8 7 12 550 52
8 7 13 19191 300
8 7 14 2767 118
8 7 15 39245 602
8 7 16 1084 83
8 7 17 48828 800
8 7 18 13472 256
8 7 19 50261 833
8 7 20 784 88
8 7 21 7281 242
8 7 22 2338 105
8 7 23 4987 140
8 7 24 319 85
8 7 25 13970 393
8 7 26 5562 201
8 7 27 1392 154
8 8 0 51595 1081
8 8 1 13049 234
8 8 2 336 44
8 8 3 2140 99
8 8 4 1122 69
8 8 5 10026 237
8 8 6 2993 91
8 8 7 963 121
8 8 8 5537 162
8 8 9 11574 338
8 8 10 509 63
8 8 11 11162 286
8 8 12 1331 72
8 8 13 25608 514
8 8 14 6048 138
8 8 15 4118 132
8 8 16 116 55
8 8 17 1964 85
8 8 18 11946 272
8 8 19 13326 314
8 8 20 6618 146
8 8 21 8296 187
8 8 22 6882 157
8 8 23 3232 118
8 8 24 3705 129
8 8 25 619 94
8 8 26 311 138
8 8 27 -55 129
8 9 0 4687 226
8 9 1 24758 514
8 9 2 36946 811
8 9 3 112262 2000
8 9 4 600 55
8 9 5 7594 206
8 9 6 2398 96
8 9 7 4241 140
8 9 8 2976 102
8 9 9 34575 627
8 9 10 2258 85
8 9 11 4189 154
8 9 12 4307 107
8 9 13 4979 116
8 9 14 105 50
8 9 15 5784 151
8 9 16 913 69
8 9 17 9049 223
8 9 18 26062 435
8 9 19 15755 388
8 9 20 3730 105
8 9 21 5058 168
8 9 22 135 66
8 9 23 2971 107
8 9 24 1117 105
8 9 25 -61 94
8 9 26 3834 138
8 10 0 8860 300
8 10 1 25399 597
8 10 2 3507 146
8 10 3 80185 1290
8 10 4 11464 239
8 10 5 47805 690
8 10 6 3526 138
8 10 7 104964 1637
8 10 8 941 83
8 10 9 32388 525
8 10 10 3100 113
8 10 11 93979 1483
8 10 12 385 74
8 10 13 28411 512
8 10 14 6794 198
8 10 15 33320 462
8 10 16 1466 83
8 10 17 3873 113
8 10 18 413 74
8 10 19 9891 228
8 10 20 3378 110
8 10 21 19017 355
8 10 22 25 77
8 10 23 2509 91
8 10 24 1681 105
8 10 25 5947 176
8 10 26 3667 146
8 11 0 24299 575
8 11 1 18825 322
8 11 2 4459 149
8 11 3 26106 366
8 11 4 12787 264
8 11 5 22359 385
8 11 6 1425 91
8 11 7 13406 237
8 11 8 5619 124
8 11 9 28375 448
8 11 10 15986 272
8 11 11 -44 61
8 11 12 20962 363
8 11 13 9880 182
8 11 14 910 72
8 11 15 10177 195
8 11 16 1502 102
8 11 17 756 91
8 11 18 685 74
8 11 19 4690 151
8 11 20 3570 138
8 11 21 8249 184
8 11 22 2319 110
8 11 23 1956 94
8 11 24 608 74
8 11 25 2465 129
8 11 26 2995 132
8 12 0 481 107
8 12 1 78570 1114
8 12 2 14352 242
8 12 3 34256 542
8 12 4 674 55
8 12 5 270697 3661
8 12 6 43541 624
8 12 7 55025 839
8 12 8 608 61
8 12 9 235418 3207
8 12 10 3191 110
8 12 11 90282 1304
8 12 12 9190 201
8 12 13 120013 2060
8 12 14 2203 107
8 12 15 59019 888
8 12 16 5485 129
8 12 17 116 77
8 12 18 204 61
8 12 19 69622 1177
8 12 20 380 77
8 12 21 336 83
8 12 22 6134 149
8 12 23 25366 385
8 12 24 146 80
8 12 25 18478 402
8 13 0 17851 388
8 13 1 118 63
8 13 2 2176 118
8 13 3 29973 487
8 13 4 68690 1009
8 13 5 18973 336
8 13 6 2990 113
8 13 7 42141 677
8 13 8 34170 556
8 13 9 63582 1037
8 13 10 18333 297
8 13 11 51595 693
8 13 12 23168 363
8 13 13 35020 536
8 13 14 1656 83
8 13 15 20244 415
8 13 16 5058 135
8 13 17 7856 176
8 13 18 1078 96
8 13 19 96 99
8 13 20 7297 162
8 13 21 2068 116
8 13 22 11808 226
8 13 23 1323 91
8 13 24 3345 116
8 13 25 2313 151
8 14 0 18910 404
8 14 1 982 94
8 14 2 47904 718
8 14 3 3441 118
8 14 4 1356 105
8 14 5 143 58
8 14 6 8290 201
8 14 7 8315 204
8 14 8 28600 435
8 14 9 1213 83
8 14 10 6555 165
8 14 11 545 107
8 14 12 16886 322
8 14 13 1315 96
8 14 14 8304 248
8 14 15 10042 228
8 14 16 1670 83
8 14 17 1637 116
8 14 18 9437 212
8 14 19 2481 102
8 14 20 118 80
8 14 21 5457 165
8 14 22 10934 234
8 14 23 3325 118
8 14 24 2211 110
8 15 0 25008 498
8 15 1 3680 105
8 15 2 78344 1133
8 15 3 1422 91
8 15 4 9610 212
8 15 5 25842 377
8 15 6 15615 336
8 15 7 47090 814
8 15 8 6211 157
8 15 9 38956 520
8 15 10 3837 121
8 15 11 11726 248
8 15 12 12056 220
8 15 13 3821 149
8 15 14 1075 94
8 15 15 13830 256
8 15 16 19848 336
8 15 17 162 85
8 15 18 20291 382
8 15 19 4189 138
8 15 20 591 80
8 15 21 701 96
8 15 22 10012 217
8 15 23 2506 116
8 16 0 70338 1480
8 16 1 2198 107
8 16 2 30911 501
8 16 3 11492 226
8 16 4 10133 209
8 16 5 22874 410
8 16 6 18228 363
8 16 7 10848 275
8 16 8 -77 58
8 16 9 37003 677
8 16 10 1538 124
8 16 11 457 85
8 16 12 23061 459
8 16 13 4758 162
8 16 14 2151 107
8 16 15 13346 250
8 16 16 4780 146
8 16 17 3777 154
8 16 18 382 94
8 16 19 2055 135
8 16 20 7619 204
8 16 21 -69 85
8 16 22 3215 129
8 16 23 5402 195
8 17 0 32008 795
8 17 1 3232 135
8 17 2 179 72
8 17 3 289 69
8 17 4 3367 116
8 17 5 14028 327
8 17 6 5619 151
8 17 7 270 61
8 17 8 37476 542
8 17 9 9305 212
8 17 10 723 80
8 17 11 179 102
8 17 12 49606 748
8 17 13 22 83
8 17 14 16506 369
8 17 15 16668 347
8 17 16 146 83
8 17 17 85 94
8 17 18 369 102
8 17 19 5254 173
8 17 20 1425 124
8 17 21 132 99
8 17 22 619 99
8 18 0 5171 223
8 18 1 3144 124
8 18 2 47610 765
8 18 3 14883 283
8 18 4 440 69
8 18 5 5655 160
8 18 6 5556 165
8 18 7 4588 149
8 18 8 7220 187
8 18 9 7803 212
8 18 10 -25 83
8 18 11 1942 96
8 18 12 228 63
8 18 13 3983 149
8 18 14 8871 237
8 18 15 5111 176
8 18 16 8582 256
8 18 17 668 91
8 18 18 869 110
8 18 19 564 110
8 18 20 1106 118
8 18 21 5353 187
8 19 0 2409 171
8 19 1 -22 61
8 19 2 14556 360
8 19 3 7484 179
8 19 4 9957 223
8 19 5 22093 366
8 19 6 501 102
8 19 7 15299 283
8 19 8 27792 503
8 19 9 26194 512
8 19 10 23647 407
8 19 11 1502 107
8 19 12 13893 294
8 19 13 509 96
8 19 14 454 77
8 19 15 1840 157
8 19 16 12364 314
8 19 17 6975 195
8 19 18 1031 105
8 19 19 2250 160
8 19 20 264 102
8 20 0 3411 292
8 20 1 5650 176
8 20 2 10207 234
8 20 3 440 88
8 20 4 4541 176
8 20 5 15934 316
8 20 6 8763 209
8 20 7 2409 165
8 20 8 880 127
8 20 9 3837 149
8 20 10 1474 124
8 20 11 6120 198
8 20 12 5790 168
8 20 13 140 88
8 20 14 7916 245
8 20 15 4976 162
8 20 16 2638 157
8 20 17 2228 129
8 20 18 1378 94
8 20 19 363 118
8 21 0 3034 212
8 21 1 12058 261
8 21 2 2825 143
8 21 3 492 113
8 21 4 2814 129
8 21 5 60653 963
8 21 6 446 99
8 21 7 272 113
8 21 8 2096 140
8 21 9 30889 520
8 21 10 8048 215
8 21 11 2522 151
8 21 12 1532 116
8 21 13 2511 121
8 21 14 4665 237
8 21 15 15238 327
8 21 16 1788 118
8 21 17 1876 135
8 21 18 1009 127
8 22 0 1648 223
8 22 1 789 85
8 22 2 64504 1020
8 22 3 7930 187
8 22 4 1026 107
8 22 5 759 138
8 22 6 12567 259
8 22 7 3342 165
8 22 8 866 129
8 22 9 2883 140
8 22 10 9410 272
8 22 11 2451 160
8 22 12 8497 228
8 22 13 6863 209
8 22 14 1480 168
8 22 15 127 110
8 22 16 8362 270
8 22 17 1183 157
8 23 0 3870 226
8 23 1 9459 239
8 23 2 1279 138
8 23 3 15997 325
8 23 4 11308 259
8 23 5 976 129
8 23 6 1279 121
8 23 7 26169 514
8 23 8 7482 226
8 23 9 15775 341
8 23 10 4181 184
8 23 11 14853 333
8 23 12 267 118
8 23 13 16567 369
8 23 14 1887 157
8 23 15 4860 198
8 23 16 591 121
8 24 0 45118 1045
8 24 1 12413 319
8 24 2 5633 171
8 24 3 1659 154
8 24 4 9765 272
8 24 5 15640 314
8 24 6 5050 195
8 24 7 40989 726
8 24 8 4365 184
8 24 9 3804 195
8 24 10 7465 226
8 24 11 12229 319
8 24 12 448 132
8 24 13 1626 140
8 24 14 13115 396
8 25 0 48512 1433
8 25 1 3059 165
8 25 2 1095 149
8 25 3 1683 151
8 25 4 19009 388
8 25 5 671 146
8 25 6 512 140
8 25 7 1340 129
8 25 8 9399 228
8 25 9 1202 168
8 25 10 2437 151
8 25 11 314 140
8 25 12 8202 239
8 26 0 322 204
8 26 1 61 138
8 26 2 5754 226
8 26 3 8452 242
8 26 4 528 99
8 26 5 7616 231
8 26 6 4910 204
8 26 7 19158 462
8 26 8 371 135
8 26 9 2841 193
8 26 10 176 140
8 27 1 358 217
8 27 2 1469 146
8 27 3 311 215
8 27 4 1359 226
8 27 5 113 220
8 27 6 1241 237
8 27 7 696 171
9 1 0 2170 113
9 1 1 44518 575
9 1 2 35240 558
9 1 3 28361 487
9 1 4 12378 193
9 1 5 20536 303
9 1 6 31098 421
9 1 7 20965 462
9 1 8 176883 2445
9 1 9 7567 157
9 1 10 169746 2302
9 1 11 6736 138
9 1 12 6918 132
9 1 13 6535 132
9 1 14 48671 1048
9 1 15 10496 237
9 1 16 9473 187
9 1 17 7058 184
9 1 18 13120 330
9 1 19 15015 322
9 1 20 905 91
9 1 21 3163 91
9 1 22 1386 124
9 1 23 5900 294
9 1 24 322 88
9 1 25 388 88
9 1 26 2946 146
9 1 27 371 96
9 2 0 9060 314
9 2 1 15189 220
9 2 2 142405 2137
9 2 3 927 80
9 2 4 39493 564
9 2 5 21410 308
9 2 6 8851 162
9 2 7 1433 58
9 2 8 28160 424
9 2 9 103878 1287
9 2 10 35917 638
9 2 11 2134 66
9 2 12 15411 341
9 2 13 2525 83
9 2 14 28961 435
9 2 15 47 55
9 2 16 6266 140
9 2 17 27343 605
9 2 18 27657 484
9 2 19 303 61
9 2 20 1400 80
9 2 21 396 96
9 2 22 21575 413
9 2 23 -50 83
9 2 24 2891 162
9 2 25 1075 113
9 2 26 10623 333
9 2 27 -22 102
9 3 0 57091 1018
9 3 1 4173 116
9 3 2 67647 1059
9 3 3 325 47
9 3 4 22816 325
9 3 5 3504 88
9 3 6 25258 380
9 3 7 11929 239
9 3 8 135188 2346
9 3 9 11044 182
9 3 10 42243 602
9 3 11 39 55
9 3 12 157632 2002
9 3 13 18008 349
9 3 14 20247 330
9 3 15 520 52
9 3 16 18088 402
9 3 17 18377 305
9 3 18 16242 322
9 3 19 831 69
9 3 20 10207 231
9 3 21 41 74
9 3 22 14837 297
9 3 23 1804 107
9 3 24 751 110
9 3 25 644 116
9 3 26 15136 528
9 3 27 4008 215
9 4 0 61118 1518
9 4 1 94567 1224
9 4 2 4591 261
9 4 3 1150 61
9 4 4 740 69
9 4 5 16594 239
9 4 6 22071 325
9 4 7 20453 424
9 4 8 181873 2302
9 4 9 6247 129
9 4 10 67031 996
9 4 11 8640 160
9 4 12 13981 289
9 4 13 46229 754
9 4 14 12944 275
9 4 15 10573 215
9 4 16 3306 121
9 4 17 32201 465
9 4 18 8051 160
9 4 19 1491 85
9 4 20 2913 116
9 4 21 3801 157
9 4 22 4489 173
9 4 23 564 74
9 4 24 7770 347
9 4 25 13192 388
9 4 26 20500 627
9 4 27 -36 129
9 5 0 142818 2808
9 5 1 64696 822
9 5 2 2781 85
9 5 3 20492 294
9 5 4 164597 2085
9 5 5 8364 160
9 5 6 40068 864
9 5 7 8807 259
9 5 8 32190 509
9 5 9 3339 124
9 5 10 963 72
9 5 11 3639 91
9 5 12 1056 69
9 5 13 421 55
9 5 14 19240 391
9 5 15 5303 127
9 5 16 7405 157
9 5 17 13844 231
9 5 18 14650 294
9 5 19 4852 110
9 5 20 40510 781
9 5 21 696 74
9 5 22 -160 91
9 5 23 1298 107
9 5 24 9514 366
9 5 25 308 157
9 5 26 3405 294
9 5 27 2242 157
9 6 0 72513 1766
9 6 1 22326 333
9 6 2 5267 151
9 6 3 6219 162
9 6 4 15392 270
9 6 5 18412 294
9 6 6 94589 1499
9 6 7 6315 135
9 6 8 6453 198
9 6 9 11156 242
9 6 10 12763 237
9 6 11 11294 237
9 6 12 635 55
9 6 13 217 55
9 6 14 38082 605
9 6 15 1185 69
9 6 16 388 52
9 6 17 2151 83
9 6 18 4060 118
9 6 19 842 72
9 6 20 3799 113
9 6 21 1183 91
9 6 22 63 94
9 6 23 1243 116
9 6 24 5685 160
9 6 25 -19 160
9 6 26 377 135
9 6 27 495 151
9 7 0 32396 847
9 7 1 5614 124
9 7 2 81774 1477
9 7 3 1582 105
9 7 4 6062 173
9 7 5 15219 344
9 7 6 729 55
9 7 7 24535 594
9 7 8 3997 151
9 7 9 3650 91
9 7 10 2030 74
9 7 11 29978 619
9 7 12 333 58
9 7 13 6742 157
9 7 14 1081 72
9 7 15 8103 171
9 7 16 1078 66
9 7 17 407 61
9 7 18 2627 107
9 7 19 237 69
9 7 20 91 66
9 7 21 1370 110
9 7 22 3694 154
9 7 23 784 118
9 7 24 5570 212
9 7 25 242 94
9 7 26 512 151
9 8 1 20123 462
9 8 2 7682 264
9 8 3 46421 1012
9 8 4 43473 715
9 8 5 583 50
9 8 6 8 52
9 8 7 4343 96
9 8 8 4285 107
9 8 9 14911 297
9 8 10 3719 124
9 8 11 1163 66
9 8 12 1285 85
9 8 13 2913 102
9 8 14 1488 91
9 8 15 -14 50
9 8 16 29981 487
9 8 17 9091 195
9 8 18 2522 91
9 8 19 12171 248
9 8 20 138 80
9 8 21 15722 300
9 8 22 311 61
9 8 23 308 105
9 8 24 11844 330
9 8 25 1549 121
9 8 26 421 94
9 9 1 30790 674
9 9 2 248 77
9 9 3 3578 212
9 9 4 8128 201
9 9 5 20643 490
9 9 6 15098 347
9 9 7 48349 1026
9 9 8 9798 212
9 9 9 106785 1645
9 9 10 5762 151
9 9 11 18024 399
9 9 12 16820 297
9 9 13 43393 831
9 9 14 784 66
9 9 15 50511 858
9 9 16 6 80
9 9 17 9333 179
9 9 18 864 77
9 9 19 338 74
9 9 20 2811 129
9 9 21 663 83
9 9 22 586 74
9 9 23 5190 129
9 9 24 -151 110
9 9 25 4849 160
9 9 26 1400 116
9 10 0 34168 913
9 10 1 33524 627
9 10 2 6340 160
9 10 3 2074 116
9 10 4 8164 209
9 10 5 7803 206
9 10 6 15455 314
9 10 7 18052 292
9 10 8 10337 190
9 10 9 215 83
9 10 10 8538 179
9 10 11 7440 272
9 10 12 15497 283
9 10 13 -30 69
9 10 14 6164 187
9 10 15 1191 74
9 10 16 10372 220
9 10 17 9121 184
9 10 18 149 74
9 10 19 28314 440
9 10 20 4250 154
9 10 21 1711 102
9 10 22 8772 182
9 10 23 1565 88
9 10 24 322 110
9 10 25 50 118
9 11 0 37490 1408
9 11 1 10337 327
9 11 2 17433 341
9 11 3 21292 446
9 11 4 4679 168
9 11 5 25165 514
9 11 6 2467 127
9 11 7 30055 547
9 11 8 3147 121
9 11 9 64220 1356
9 11 10 9258 204
9 11 11 54161 817
9 11 12 10559 234
9 11 13 37851 663
9 11 14 4233 173
9 11 15 19067 344
9 11 16 580 72
9 11 17 15345 281
9 11 18 1232 91
9 11 19 1263 113
9 11 20 542 85
9 11 21 3020 160
9 11 22 -25 85
9 11 23 1851 121
9 11 24 795 85
9 11 25 2437 138
9 12 0 74433 1510
9 12 1 111681 1353
9 12 2 842 61
9 12 3 70615 949
9 12 4 50327 842
9 12 5 108133 1403
9 12 6 8367 176
9 12 7 68596 943
9 12 8 14138 275
9 12 9 166726 2830
9 12 10 1207 102
9 12 11 115854 1505
9 12 12 6018 173
9 12 13 112974 1604
9 12 14 426 83
9 12 15 6293 204
9 12 16 7913 168
9 12 17 22711 399
9 12 18 1582 94
9 12 19 58546 803
9 12 20 14094 253
9 12 21 14273 278
9 12 22 1623 107
9 12 23 16506 347
9 12 24 8419 182
9 12 25 7295 184
9 13 0 57182 1042
9 13 1 5097 113
9 13 2 1436 88
9 13 3 31458 426
9 13 4 16237 300
9 13 5 14493 281
9 13 6 4508 110
9 13 7 872 80
9 13 8 363 88
9 13 9 9839 223
9 13 10 13780 286
9 13 11 12955 215
9 13 12 9847 248
9 13 13 1848 96
9 13 14 19689 377
9 13 15 11016 294
9 13 16 11187 264
9 13 17 512 80
9 13 18 242 85
9 13 19 2927 132
9 13 20 3925 151
9 13 21 1505 99
9 13 22 113 88
9 13 23 2038 113
9 13 24 5168 179
9 14 0 3620 190
9 14 1 27704 424
9 14 2 26628 495
9 14 3 68607 963
9 14 4 40486 556
9 14 5 21771 352
9 14 6 8565 215
9 14 7 112036 1488
9 14 8 23669 402
9 14 9 8807 204
9 14 10 3537 129
9 14 11 56524 820
9 14 12 3149 149
9 14 13 10095 267
9 14 14 3119 135
9 14 15 349 69
9 14 16 303 72
9 14 17 45912 770
9 14 18 171 105
9 14 19 3975 168
9 14 20 3733 132
9 14 21 25027 440
9 14 22 2222 118
9 14 23 2572 140
9 15 0 3314 165
9 15 1 32633 514
9 15 2 14075 308
9 15 3 23438 374
9 15 4 14031 275
9 15 5 24131 454
9 15 6 179 72
9 15 7 110444 1450
9 15 8 2951 113
9 15 9 6681 160
9 15 10 10216 204
9 15 11 25479 440
9 15 12 18401 369
9 15 13 22698 410
9 15 14 12941 261
9 15 15 168 74
9 15 16 4076 138
9 15 17 28548 578
9 15 18 561 99
9 15 19 4098 168
9 15 20 6 91
9 15 21 17601 349
9 15 22 5867 179
9 15 23 3722 140
9 16 0 65015 1367
9 16 1 7586 176
9 16 2 29219 594
9 16 3 7025 173
9 16 4 40915 608
9 16 5 8186 184
9 16 6 87496 1279
9 16 7 -19 96
9 16 8 15739 316
9 16 9 1961 96
9 16 10 9817 215
9 16 11 366 77
9 16 12 6577 212
9 16 13 10535 237
9 16 14 29379 509
9 16 15 1155 105
9 16 16 18663 377
9 16 17 160 83
9 16 18 8519 206
9 16 19 3444 124
9 16 20 14823 380
9 16 21 778 94
9 16 22 6112 193
9 17 0 2313 138
9 17 1 7627 184
9 17 2 4692 215
9 17 3 2214 99
9 17 4 589 99
9 17 5 43418 679
9 17 6 1062 96
9 17 7 10768 206
9 17 8 19317 355
9 17 9 29541 503
9 17 10 319 85
9 17 11 3372 118
9 17 12 292 72
9 17 13 616 94
9 17 14 531 91
9 17 15 987 96
9 17 16 275 96
9 17 17 171 91
9 17 18 2330 143
9 17 19 10917 245
9 17 20 509 99
9 17 21 69 80
9 18 0 13346 371
9 18 1 168 102
9 18 2 84580 1150
9 18 3 1384 96
9 18 4 2696 127
9 18 5 1846 118
9 18 6 13024 264
9 18 7 963 116
9 18 8 3730 168
9 18 9 2074 162
9 18 10 765 118
9 18 11 481 91
9 18 12 3650 146
9 18 13 916 96
9 18 14 971 91
9 18 15 314 96
9 18 16 15414 322
9 18 17 1414 149
9 18 18 10551 283
9 18 19 303 102
9 18 20 589 110
9 19 0 12213 380
9 19 1 608 96
9 19 2 6373 171
9 19 3 6546 162
9 19 4 58 83
9 19 5 5201 151
9 19 6 2280 113
9 19 7 4497 171
9 19 8 1205 96
9 19 9 1582 132
9 19 10 4118 154
9 19 11 1180 113
9 19 12 2132 140
9 19 13 591 91
9 19 14 671 110
9 19 15 536 94
9 19 16 1672 124
9 19 17 1474 127
9 19 18 1956 182
9 19 19 17 99
9 19 20 6 102
9 20 0 157806 3094
9 20 1 3042 138
9 20 2 2432 129
9 20 3 635 160
9 20 4 72959 1122
9 20 5 5963 206
9 20 6 9913 195
9 20 7 15648 355
9 20 8 3796 140
9 20 9 1296 132
9 20 10 5716 187
9 20 11 1419 146
9 20 12 15323 333
9 20 13 5331 193
9 20 14 56725 968
9 20 15 1199 129
9 20 16 11902 278
9 20 17 858 105
9 20 18 7132 215
9 20 19 349 118
9 21 0 23075 638
9 21 1 33736 539
9 21 2 8796 223
9 21 3 520 99
9 21 4 15752 322
9 21 5 457 85
9 21 6 982 121
9 21 7 24849 454
9 21 8 2965 138
9 21 9 1939 146
9 21 10 2605 154
9 21 11 6189 160
9 21 12 4291 182
9 21 13 1169 118
9 21 14 10238 303
9 21 15 3023 165
9 21 16 8111 242
9 21 17 3433 149
9 22 0 2090 182
9 22 1 19403 380
9 22 2 23504 468
9 22 3 7597 190
9 22 4 8497 250
9 22 5 2767 162
9 22 6 1945 132
9 22 7 11745 264
9 22 8 5045 193
9 22 9 4544 173
9 22 10 105 116
9 22 11 941 157
9 22 12 21028 435
9 22 13 12226 281
9 22 14 512 116
9 22 15 1931 132
9 22 16 4618 212
9 23 0 14196 437
9 23 1 501 143
9 23 2 21094 421
9 23 3 171 99
9 23 4 3081 162
9 23 5 18734 358
9 23 6 3966 226
9 23 7 1659 154
9 23 8 866 91
9 23 9 11148 231
9 23 10 3105 140
9 23 11 6194 253
9 23 12 1081 179
9 23 13 883 201
9 23 14 2247 113
9 23 15 2090 132
9 24 0 13404 470
9 24 1 34514 616
9 24 2 1865 154
9 24 3 13448 311
9 24 4 32080 586
9 24 5 25459 440
9 24 6 3083 182
9 24 7 5881 228
9 24 8 14960 333
9 24 9 41602 784
9 24 10 305 160
9 24 11 21732 407
9 24 12 8417 270
9 24 13 11057 303
9 25 0 7116 314
9 25 1 1645 118
9 25 2 2960 138
9 25 3 22 118
9 25 4 3441 182
9 25 5 9509 248
9 25 6 96 105
9 25 7 239 102
9 25 8 281 143
9 25 9 3576 171
9 25 10 2454 138
9 25 11 2148 162
9 26 0 3545 264
9 26 1 58 83
9 26 2 3587 184
9 26 3 -187 121
9 26 4 3878 151
9 26 5 558 102
9 26 6 674 149
9 26 7 16096 360
9 26 8 -253 179
9 27 0 404 440
9 27 2 12551 558
9 27 3 12069 561
9 27 4 946 314
10 0 0 42196 1155
10 0 1 30861 715
10 0 2 43913 811
10 0 3 76859 1593
10 0 4 31488 600
10 0 5 23968 591
10 0 6 51199 930
10 0 7 126683 2187
10 0 8 43541 921
10 0 9 13558 369
10 0 10 27621 877
10 0 11 38431 833
10 0 12 15062 316
10 0 13 34671 657
10 0 14 55 102
10 0 15 31654 712
10 0 16 303 116
10 0 17 11624 402
10 0 18 8772 259
10 0 19 421 99
10 0 20 18547 432
10 0 21 15532 517
10 0 22 24356 575
10 0 23 5006 344
10 0 24 3501 201
10 0 25 121 127
10 0 26 15469 575
10 0 27 4957 264
10 1 0 203300 3380
10 1 1 3964 110
10 1 2 49452 690
10 1 3 7319 132
10 1 4 37845 558
10 1 5 4104 102
10 1 6 63478 1042
10 1 7 336 55
10 1 8 22 50
10 1 9 20118 487
10 1 10 9377 176
10 1 11 2044 63
10 1 12 242 47
10 1 13 1161 66
10 1 14 7509 157
10 1 15 531 66
10 1 16 14374 316
10 1 17 509 66
10 1 18 16399 314
10 1 19 146 69
10 1 20 11041 250
10 1 21 1983 83
10 1 22 866 69
10 1 23 132 77
10 1 24 7710 234
10 1 25 132 91
10 1 26 930 102
10 1 27 121 99
10 2 0 108367 2148
10 2 1 6414 121
10 2 2 292 50
10 2 3 2192 83
10 2 4 35788 479
10 2 5 10909 195
10 2 6 15530 234
10 2 7 13002 358
10 2 8 10562 245
10 2 9 4728 113
10 2 10 8915 184
10 2 11 3760 96
10 2 12 1185 107
10 2 13 410 61
10 2 14 22233 380
10 2 15 1296 72
10 2 16 872 61
10 2 17 2173 113
10 2 18 63 66
10 2 19 1953 116
10 2 20 23058 424
10 2 21 2745 129
10 2 22 498 74
10 2 23 715 74
10 2 24 4874 209
10 2 25 3730 190
10 2 26 1395 110
10 2 27 927 146
10 3 0 46000 825
10 3 1 6544 176
10 3 2 70252 875
10 3 3 6698 160
10 3 4 1656 74
10 3 5 24785 396
10 3 6 31700 462
10 3 7 14143 239
10 3 8 42238 696
10 3 9 34077 536
10 3 10 100187 1323
10 3 11 5707 132
10 3 12 105165 1384
10 3 13 413 61
10 3 14 34745 624
10 3 15 41 61
10 3 16 503 58
10 3 17 1755 91
10 3 18 1384 105
10 3 19 6048 162
10 3 20 5031 220
10 3 21 2420 96
10 3 22 4764 165
10 3 23 528 83
10 3 24 4173 297
10 3 25 627 121
10 3 26 1051 283
10 3 27 1185 149
10 4 0 46746 974
10 4 1 1947 66
10 4 2 84844 1031
10 4 3 11965 195
10 4 4 29131 567
10 4 5 45211 633
10 4 6 15843 292
10 4 7 1766 85
10 4 8 3468 129
10 4 9 6148 157
10 4 10 55339 930
10 4 11 18693 327
10 4 12 6335 135
10 4 13 8103 157
10 4 14 26372 432
10 4 15 40447 677
10 4 16 21917 341
10 4 17 336 58
10 4 18 5391 140
10 4 19 4946 124
10 4 20 6714 187
10 4 21 149 74
10 4 22 1733 132
10 4 23 1656 129
10 4 24 655 127
10 4 25 2605 182
10 4 26 828 162
10 5 0 28928 671
10 5 1 2610 80
10 5 2 99510 1755
10 5 3 34201 448
10 5 4 9014 212
10 5 5 81029 1059
10 5 6 2481 99
10 5 7 23685 358
10 5 8 13750 311
10 5 9 41165 633
10 5 10 27860 594
10 5 11 35955 528
10 5 12 14053 267
10 5 13 5842 124
10 5 14 4269 160
10 5 15 43167 619
10 5 16 11682 212
10 5 17 6123 149
10 5 18 1829 83
10 5 19 4142 110
10 5 20 3625 124
10 5 21 396 105
10 5 22 567 77
10 5 23 5375 209
10 5 24 520 116
10 5 25 2321 190
10 5 26 729 171
10 6 0 10100 385
10 6 1 13387 426
10 6 2 35050 765
10 6 3 22964 448
10 6 4 3675 223
10 6 5 20401 644
10 6 6 1064 72
10 6 7 14212 294
10 6 8 242 66
10 6 9 173 55
10 6 10 1188 72
10 6 11 83 63
10 6 12 21402 369
10 6 13 2132 91
10 6 14 869 83
10 6 15 34234 550
10 6 16 8882 187
10 6 17 195 61
10 6 18 6065 138
10 6 19 6225 179
10 6 20 198 66
10 6 21 872 69
10 6 22 2762 140
10 6 23 6200 182
10 6 24 3103 182
10 6 25 160 107
10 6 26 1326 184
10 7 0 21751 498
10 7 1 16165 388
10 7 2 13775 330
10 7 3 426 50
10 7 4 -17 58
10 7 5 50297 699
10 7 6 13800 245
10 7 7 11228 300
10 7 8 6656 231
10 7 9 2434 102
10 7 10 8309 198
10 7 11 4467 118
10 7 12 8893 272
10 7 13 11660 270
10 7 14 556 80
10 7 15 7446 168
10 7 16 7129 272
10 7 17 8021 176
10 7 18 6590 154
10 7 19 525 107
10 7 20 1045 91
10 7 21 113 66
10 7 22 -39 110
10 7 23 9385 270
10 7 24 160 129
10 7 25 800 107
10 7 26 4302 160
10 8 0 15194 495
10 8 1 6370 212
10 8 2 1254 72
10 8 3 6678 289
10 8 4 4588 113
10 8 5 1788 110
10 8 6 11145 206
10 8 7 12303 278
10 8 8 330 55
10 8 9 910 94
10 8 10 9360 206
10 8 11 385 88
10 8 12 982 63
10 8 13 6002 187
10 8 14 15293 325
10 8 15 5020 179
10 8 16 239 80
10 8 17 14328 349
10 8 18 289 83
10 8 19 305 85
10 8 20 4035 121
10 8 21 4354 140
10 8 22 1163 110
10 8 23 822 138
10 8 24 143 116
10 8 25 866 121
10 8 26 -176 113
10 9 0 224163 5166
10 9 1 2302 113
10 9 2 15786 349
10 9 3 61957 897
10 9 4 9302 237
10 9 5 8794 228
10 9 6 16652 360
10 9 7 34357 602
10 9 8 36263 696
10 9 9 25517 677
10 9 10 27965 498
10 9 11 3567 88
10 9 12 726 61
10 9 13 4662 116
10 9 14 41957 611
10 9 15 7198 190
10 9 16 517 72
10 9 17 15367 391
10 9 18 7652 195
10 9 19 514 85
10 9 20 833 94
10 9 21 16325 352
10 9 22 52 80
10 9 23 3804 121
10 9 24 5182 193
10 9 25 5432 154
10 10 1 3873 127
10 10 2 84060 1450
10 10 3 36629 792
10 10 4 4904 118
10 10 5 930 72
10 10 6 45120 690
10 10 7 27398 572
10 10 8 479 63
10 10 9 5526 168
10 10 10 29945 638
10 10 11 19045 352
10 10 12 679 66
10 10 13 5925 173
10 10 14 30537 517
10 10 15 3774 129
10 10 16 679 72
10 10 17 25553 498
10 10 18 11519 234
10 10 19 888 118
10 10 20 6522 165
10 10 21 9159 215
10 10 22 7960 190
10 10 23 -33 83
10 10 24 363 77
10 10 25 215 110
10 11 0 484 102
10 11 1 80157 1989
10 11 2 31901 558
10 11 3 123847 2085
10 11 4 5295 135
10 11 5 156213 2660
10 11 6 206 96
10 11 7 150186 2517
10 11 8 2861 135
10 11 9 137033 1920
10 11 10 12716 250
10 11 11 114836 2008
10 11 12 12512 327
10 11 13 116319 2000
10 11 14 239 88
10 11 15 20874 437
10 11 16 1301 110
10 11 17 21837 393
10 11 18 17048 300
10 11 19 32019 550
10 11 20 91 88
10 11 21 28617 501
10 11 22 1683 116
10 11 23 18687 341
10 11 24 239 121
10 12 0 35097 938
10 12 1 399 63
10 12 2 14724 396
10 12 3 14394 333
10 12 4 77211 1356
10 12 5 1243 80
10 12 6 528 74
10 12 7 58697 1070
10 12 8 29170 547
10 12 9 132 77
10 12 10 649 85
10 12 11 29816 586
10 12 12 15299 421
10 12 13 13588 281
10 12 14 1048 105
10 12 15 3999 151
10 12 16 16506 333
10 12 17 26381 457
10 12 18 182 83
10 12 19 2720 157
10 12 20 9897 212
10 12 21 6786 173
10 12 22 1606 110
10 12 23 6 102
10 12 24 3741 160
10 13 0 79318 1626
10 13 1 17076 330
10 13 2 111662 1560
10 13 3 5936 168
10 13 4 20885 363
10 13 5 31246 553
10 13 6 67161 1007
10 13 7 5064 198
10 13 8 35667 718
10 13 9 29137 545
10 13 10 13555 253
10 13 11 12449 248
10 13 12 44554 781
10 13 13 6346 162
10 13 14 11 69
10 13 15 8937 187
10 13 16 40290 608
10 13 17 1736 129
10 13 18 15819 305
10 13 19 12375 286
10 13 20 28980 498
10 13 21 1007 132
10 13 22 19320 377
10 13 23 5586 173
10 14 0 803 91
10 14 1 27968 421
10 14 2 64798 899
10 14 3 15079 253
10 14 4 756 72
10 14 5 57916 803
10 14 6 1626 118
10 14 7 13412 297
10 14 8 1210 77
10 14 9 57998 968
10 14 10 5190 215
10 14 11 30234 462
10 14 12 4547 176
10 14 13 448 91
10 14 14 517 91
10 14 15 27852 512
10 14 16 5152 157
10 14 17 4712 157
10 14 18 5760 162
10 14 19 10246 231
10 14 20 264 94
10 14 21 5234 162
10 14 22 8309 223
10 14 23 4428 146
10 15 0 146878 2830
10 15 1 8219 215
10 15 2 36431 627
10 15 3 481 102
10 15 4 38700 586
10 15 5 4764 149
10 15 6 15029 388
10 15 7 4880 162
10 15 8 7916 204
10 15 9 2393 129
10 15 10 37567 616
10 15 11 498 91
10 15 12 4335 135
10 15 13 3650 193
10 15 14 19793 385
10 15 15 437 77
10 15 16 12787 281
10 15 17 3953 157
10 15 18 9236 223
10 15 19 4926 195
10 15 20 19480 396
10 15 21 -52 99
10 15 22 13018 292
10 16 0 114699 2415
10 16 1 283 77
10 16 2 13128 261
10 16 3 1631 116
10 16 4 45659 886
10 16 5 2302 132
10 16 6 630 102
10 16 7 5507 182
10 16 8 20406 374
10 16 9 2198 146
10 16 10 633 88
10 16 11 1029 77
10 16 12 2162 132
10 16 13 1238 140
10 16 14 12136 303
10 16 15 1645 118
10 16 16 2167 94
10 16 17 605 83
10 16 18 226 96
10 16 19 448 107
10 16 20 14094 327
10 16 21 311 102
10 17 0 1439 165
10 17 1 4305 116
10 17 2 2973 138
10 17 3 2079 113
10 17 4 446 80
10 17 5 974 80
10 17 6 267 105
10 17 7 1865 127
10 17 8 8788 209
10 17 9 14017 333
10 17 10 6015 184
10 17 11 6357 193
10 17 12 3 77
10 17 13 5171 154
10 17 14 1015 94
10 17 15 15285 275
10 17 16 1411 113
10 17 17 2093 127
10 17 18 1205 105
10 17 19 1815 113
10 17 20 366 113
10 17 21 -19 88
10 18 0 37551 891
10 18 1 905 91
10 18 2 8447 220
10 18 3 2899 127
10 18 4 11514 256
10 18 5 4824 182
10 18 6 553 116
10 18 7 237 96
10 18 8 3259 135
10 18 9 9407 245
10 18 10 877 132
10 18 11 547 107
10 18 12 671 88
10 18 13 228 91
10 18 14 300 83
10 18 15 957 91
10 18 16 190 116
10 18 17 784 99
10 18 18 190 96
10 18 19 -44 116
10 18 20 2363 176
10 19 0 4855 316
10 19 1 316 88
10 19 2 1826 135
10 19 3 292 83
10 19 4 10592 248
10 19 5 12848 237
10 19 6 1152 121
10 19 7 35320 646
10 19 8 649 118
10 19 9 3777 135
10 19 10 2236 124
10 19 11 6230 193
10 19 12 619 88
10 19 13 718 91
10 19 14 5776 198
10 19 15 8373 226
10 19 16 399 102
10 19 17 1279 105
10 19 18 3 94
10 19 19 4318 184
10 20 0 14185 465
10 20 1 3636 132
10 20 2 5204 179
10 20 3 454 96
10 20 4 9283 248
10 20 5 4858 171
10 20 6 1540 140
10 20 7 2473 118
10 20 8 5859 151
10 20 9 1848 138
10 20 10 696 99
10 20 11 157 91
10 20 12 16520 363
10 20 13 792 118
10 20 14 3364 160
10 20 15 677 105
10 20 16 2049 135
10 20 17 539 102
10 20 18 1546 135
10 21 0 6458 311
10 21 1 5875 184
10 21 2 2654 165
10 21 3 7347 209
10 21 4 7363 220
10 21 5 3452 160
10 21 6 259 110
10 21 7 13486 322
10 21 8 190 85
10 21 9 -14 83
10 21 10 13626 300
10 21 11 6417 184
10 21 12 5405 204
10 21 13 9107 289
10 21 14 5278 176
10 21 15 -8 110
10 21 16 3023 168
10 21 17 6384 237
10 22 0 3210 264
10 22 1 15246 281
10 22 2 39691 828
10 22 3 23839 435
10 22 4 468 118
10 22 5 2335 154
10 22 6 19510 382
10 22 7 5919 201
10 22 8 572 96
10 22 9 9798 264
10 22 10 7146 226
10 22 11 6142 193
10 22 12 3678 173
10 22 13 1892 121
10 22 14 4428 193
10 22 15 6183 182
10 23 0 10315 385
10 23 1 600 113
10 23 2 35889 575
10 23 3 4294 226
10 23 4 25525 446
10 23 5 514 94
10 23 6 18627 344
10 23 7 -25 99
10 23 8 15395 366
10 23 9 1045 99
10 23 10 4948 239
10 23 11 1252 124
10 23 12 15579 349
10 23 13 927 140
10 23 14 17109 388
10 24 0 836 204
10 24 1 536 118
10 24 2 22131 396
10 24 3 292 107
10 24 4 597 127
10 24 5 1895 160
10 24 6 902 132
10 24 7 5476 209
10 24 8 2643 160
10 24 9 8920 245
10 24 10 -28 105
10 24 11 3422 165
10 24 12 2608 151
10 25 0 7003 325
10 25 1 12895 305
10 25 2 410 116
10 25 3 9206 322
10 25 4 2349 182
10 25 5 12463 300
10 25 6 3807 184
10 25 7 22731 498
10 25 8 649 154
10 25 9 2993 198
10 26 1 371 151
10 26 2 4098 281
10 26 3 182 154
10 26 4 1097 146
10 26 5 391 187
10 26 6 8521 319
11 1 0 3122 171
11 1 1 729 55
11 1 2 27198 377
11 1 3 45313 743
11 1 4 24450 371
11 1 5 11621 237
11 1 6 5380 127
11 1 7 63621 924
11 1 8 3675 138
11 1 9 941 107
11 1 10 4145 157
11 1 11 35515 547
11 1 12 5061 140
11 1 13 2745 91
11 1 14 143 83
11 1 15 7853 168
11 1 16 23149 385
11 1 17 6665 204
11 1 18 11770 297
11 1 19 -33 88
11 1 20 459 94
11 1 21 6852 250
11 1 22 1835 113
11 1 23 -6 80
11 1 24 547 110
11 1 25 833 107
11 1 26 140 94
11 2 1 45291 591
11 2 2 594 55
11 2 3 3512 116
11 2 4 14655 259
11 2 5 12606 248
11 2 6 305 63
11 2 7 15684 234
11 2 8 204 66
11 2 9 55611 847
11 2 10 9880 223
11 2 11 12196 198
11 2 12 20552 325
11 2 13 17749 437
11 2 14 369 66
11 2 15 16391 292
11 2 16 25077 404
11 2 17 12433 234
11 2 18 4687 129
11 2 19 9110 248
11 2 20 2800 143
11 2 21 344 74
11 2 22 1001 132
11 2 23 1895 99
11 2 24 6439 250
11 2 25 6436 275
11 2 26 289 102
11 3 0 95877 1648
11 3 1 124 61
11 3 2 45456 828
11 3 3 8761 165
11 3 4 31312 451
11 3 5 1477 91
11 3 6 1799 88
11 3 7 11904 248
11 3 8 217 55
11 3 9 382 52
11 3 10 7743 248
11 3 11 1276 80
11 3 12 2817 129
11 3 13 9839 198
11 3 14 4698 198
11 3 15 668 77
11 3 16 2393 129
11 3 17 2352 88
11 3 18 2343 99
11 3 19 3251 165
11 3 20 770 74
11 3 21 140 77
11 3 22 9198 259
11 3 23 561 80
11 3 24 118 91
11 3 25 1480 165
11 3 26 160 160
11 4 0 11225 407
11 4 1 6775 154
11 4 2 35229 773
11 4 3 29316 396
11 4 4 12152 217
11 4 5 5507 190
11 4 6 8458 173
11 4 7 60716 998
11 4 8 12928 281
11 4 9 17667 369
11 4 10 19425 424
11 4 11 45503 679
11 4 12 341 74
11 4 13 31486 476
11 4 14 740 105
11 4 15 29167 459
11 4 16 721 80
11 4 17 855 72
11 4 18 13164 228
11 4 19 371 58
11 4 20 1925 107
11 4 21 12174 325
11 4 22 594 94
11 4 23 3422 132
11 4 24 5963 187
11 4 25 -99 124
11 4 26 162 168
11 5 0 12801 415
11 5 1 55550 767
11 5 2 47 55
11 5 3 46556 641
11 5 4 41998 633
11 5 5 17791 283
11 5 6 388 52
11 5 7 66335 990
11 5 8 457 74
11 5 9 27982 415
11 5 10 10950 226
11 5 11 39130 564
11 5 12 17769 385
11 5 13 35394 558
11 5 14 10422 223
11 5 15 64140 1188
11 5 16 91 140
11 5 17 6024 129
11 5 18 3265 105
11 5 19 820 69
11 5 20 1653 80
11 5 21 15469 366
11 5 22 206 107
11 5 23 7823 212
11 5 24 789 154
11 5 25 5394 184
11 5 26 1912 204
11 6 0 2211 157
11 6 1 7762 182
11 6 2 842 58
11 6 3 19983 319
11 6 4 132 63
11 6 5 1130 66
11 6 6 396 72
11 6 7 23985 501
11 6 8 23647 355
11 6 9 589 63
11 6 10 1359 83
11 6 11 168 61
11 6 12 35056 514
11 6 13 8125 165
11 6 14 15260 327
11 6 15 176 74
11 6 16 3413 99
11 6 17 712 69
11 6 18 385 69
11 6 19 168 69
11 6 20 1909 94
11 6 21 7757 223
11 6 22 935 102
11 6 23 569 110
11 6 24 657 124
11 6 25 -39 121
11 7 1 39187 721
11 7 2 59850 759
11 7 3 1254 72
11 7 4 5617 118
11 7 5 27907 451
11 7 6 14476 344
11 7 7 29962 569
11 7 8 21083 360
11 7 9 38637 556
11 7 10 7308 146
11 7 11 15986 272
11 7 12 27720 459
11 7 13 10191 220
11 7 14 630 80
11 7 15 7957 171
11 7 16 12441 242
11 7 17 11129 281
11 7 18 1356 99
11 7 19 5933 135
11 7 20 6186 151
11 7 21 -149 83
11 7 22 2685 110
11 7 23 2641 154
11 7 24 479 116
11 7 25 297 132
11 8 1 4437 132
11 8 2 1934 121
11 8 3 2203 99
11 8 4 16960 366
11 8 5 8546 270
11 8 6 149 63
11 8 7 520 80
11 8 8 44496 693
11 8 9 5432 138
11 8 10 2432 116
11 8 11 9195 184
11 8 12 29750 492
11 8 13 836 72
11 8 14 5537 154
11 8 15 8659 195
11 8 16 28818 484
11 8 17 3136 157
11 8 18 3092 116
11 8 19 3292 184
11 8 20 2797 121
11 8 21 336 88
11 8 22 822 88
11 8 23 1078 118
11 8 24 1108 149
11 8 25 226 127
11 9 0 -69 69
11 9 1 33120 619
11 9 2 19777 539
11 9 3 1166 74
11 9 4 294 61
11 9 5 14655 253
11 9 6 4822 184
11 9 7 11173 237
11 9 8 3169 124
11 9 9 11495 404
11 9 10 6519 311
11 9 11 13203 259
11 9 12 303 99
11 9 13 1521 88
11 9 14 2211 179
11 9 15 14504 292
11 9 16 451 83
11 9 17 9685 223
11 9 18 534 85
11 9 19 7795 184
11 9 20 -77 91
11 9 21 435 99
11 9 22 6461 179
11 9 23 -94 88
11 9 24 3039 149
11 9 25 418 138
11 10 0 38104 1015
11 10 1 3037 127
11 10 2 25231 470
11 10 3 99 69
11 10 4 391 63
11 10 5 4164 220
11 10 6 11547 278
11 10 7 5545 140
11 10 8 151 66
11 10 9 13178 487
11 10 10 1092 99
11 10 11 7135 190
11 10 12 1879 127
11 10 13 347 88
11 10 14 7091 272
11 10 15 21922 393
11 10 16 223 88
11 10 17 1158 96
11 10 18 13332 264
11 10 19 437 105
11 10 20 2118 129
11 10 21 440 110
11 10 22 1315 99
11 10 23 -22 94
11 10 24 987 127
11 11 0 29470 765
11 11 1 30947 671
11 11 2 2310 124
11 11 3 679 94
11 11 4 6090 140
11 11 5 29225 553
11 11 6 699 105
11 11 7 4332 184
11 11 8 1169 102
11 11 9 35348 633
11 11 10 3100 162
11 11 11 20478 514
11 11 12 10680 360
11 11 13 4096 223
11 11 14 11137 344
11 11 15 589 88
11 11 16 4448 179
11 11 17 1595 102
11 11 18 16234 338
11 11 19 31491 536
11 11 20 -138 96
11 11 21 776 105
11 11 22 72 99
11 11 23 1934 124
11 11 24 2591 149
11 12 0 30729 897
11 12 1 9093 212
11 12 2 14584 393
11 12 3 33219 888
11 12 4 2310 129
11 12 5 21518 487
11 12 6 6343 209
11 12 7 10290 283
11 12 8 11330 289
11 12 9 10097 217
11 12 10 8117 198
11 12 11 3548 118
11 12 12 6015 176
11 12 13 102 77
11 12 14 828 85
11 12 15 1540 94
11 12 16 5432 190
11 12 17 9547 237
11 12 18 245 94
11 12 19 3056 149
11 12 20 -83 99
11 12 21 6698 179
11 12 22 2437 179
11 12 23 1249 118
11 13 0 5243 217
11 13 1 39509 748
11 13 2 57534 1040
11 13 3 39919 616
11 13 4 13736 281
11 13 5 15046 506
11 13 6 10653 220
11 13 7 18236 358
11 13 8 8497 226
11 13 9 22959 594
11 13 10 -61 69
11 13 11 41060 811
11 13 12 19999 402
11 13 13 789 91
11 13 14 2156 149
11 13 15 7460 261
11 13 16 1001 85
11 13 17 14259 267
11 13 18 7611 217
11 13 19 9454 259
11 13 20 11233 250
11 13 21 12939 294
11 13 22 9286 226
11 13 23 6522 201
11 14 0 20126 644
11 14 1 87226 1543
11 14 2 76224 1122
11 14 3 6359 179
11 14 4 12089 377
11 14 5 14683 347
11 14 6 67265 1018
11 14 7 14479 308
11 14 8 102 72
11 14 9 37353 723
11 14 10 21721 506
11 14 11 2696 102
11 14 12 734 94
11 14 13 184 77
11 14 14 34432 864
11 14 15 16039 303
11 14 16 1791 96
11 14 17 7627 228
11 14 18 21427 374
11 14 19 18976 363
11 14 20 2134 129
11 14 21 3149 140
11 14 22 11275 264
11 15 0 28169 855
11 15 1 679 80
11 15 2 26378 608
11 15 3 479 85
11 15 4 12757 325
11 15 5 831 113
11 15 6 4109 176
11 15 7 11484 366
11 15 8 4800 171
11 15 9 10023 281
11 15 10 1491 124
11 15 11 264 80
11 15 12 4558 135
11 15 13 2509 105
11 15 14 30647 591
11 15 15 4269 132
11 15 16 2880 129
11 15 17 6670 201
11 15 18 3986 160
11 15 19 4093 151
11 15 20 1565 151
11 15 21 327 107
11 16 0 23179 611
11 16 1 9203 226
11 16 2 51634 792
11 16 3 42623 677
11 16 4 20398 349
11 16 5 674 85
11 16 6 4500 135
11 16 7 13728 261
11 16 8 8419 226
11 16 9 765 74
11 16 10 1730 135
11 16 11 259 72
11 16 12 13450 336
11 16 13 4428 171
11 16 14 556 99
11 16 15 657 99
11 16 16 21009 349
11 16 17 8001 217
11 16 18 9506 234
11 16 19 1331 116
11 16 20 7361 198
11 16 21 5413 195
11 17 0 15340 457
11 17 1 182 66
11 17 2 32168 542
11 17 3 184 99
11 17 4 39603 806
11 17 5 11464 250
11 17 6 20307 325
11 17 7 5586 226
11 17 8 19059 415
11 17 9 19105 410
11 17 10 877 83
11 17 11 3906 157
11 17 12 16833 341
11 17 13 256 107
11 17 14 19034 391
11 17 15 41 105
11 17 16 15896 371
11 17 17 2376 127
11 17 18 7825 206
11 17 19 4783 193
11 17 20 10697 281
11 18 0 51185 971
11 18 1 261 77
11 18 2 2409 143
11 18 3 2476 140
11 18 4 24040 437
11 18 5 7160 198
11 18 6 286 85
11 18 7 443 146
11 18 8 600 80
11 18 9 19986 402
11 18 10 4951 138
11 18 11 5644 193
11 18 12 602 99
11 18 13 267 91
11 18 14 8084 256
11 18 15 3496 198
11 18 16 2376 132
11 18 17 303 99
11 18 18 -30 102
11 18 19 707 99
11 19 0 14971 415
11 19 1 -85 88
11 19 2 15780 479
11 19 3 -83 91
11 19 4 10931 242
11 19 5 341 88
11 19 6 19430 349
11 19 7 421 94
11 19 8 7063 182
11 19 9 1560 99
11 19 10 12122 253
11 19 11 3 113
11 19 12 28391 484
11 19 13 2035 149
11 19 14 10488 289
11 19 15 55 102
11 19 16 8620 286
11 19 17 985 96
11 19 18 5804 204
11 20 0 1639 157
11 20 1 11695 259
11 20 2 47775 776
11 20 3 6379 206
11 20 4 470 74
11 20 5 528 85
11 20 6 11269 267
11 20 7 13087 325
11 20 8 2434 140
11 20 9 237 83
11 20 10 2360 110
11 20 11 787 94
11 20 12 13588 256
11 20 13 9754 275
11 20 14 7578 239
11 20 15 828 129
11 20 16 4525 162
11 20 17 4995 245
11 21 0 19185 462
11 21 1 503 96
11 21 2 8945 223
11 21 3 1879 116
11 21 4 4703 182
11 21 5 11783 256
11 21 6 15593 333
11 21 7 688 105
11 21 8 311 107
11 21 9 5452 187
11 21 10 4178 162
11 21 11 195 118
11 21 12 1439 113
11 21 13 514 96
11 21 14 4723 160
11 21 15 1601 143
11 22 0 43836 1018
11 22 1 17089 325
11 22 2 6128 220
11 22 3 17881 371
11 22 4 31147 539
11 22 5 17378 336
11 22 6 7644 190
11 22 7 25 91
11 22 8 729 107
11 22 9 11145 261
11 22 10 20002 415
11 22 11 5545 162
11 22 12 2973 165
11 22 13 5452 179
11 22 14 13060 283
11 23 0 2773 184
11 23 1 15387 311
11 23 2 9366 261
11 23 3 8411 248
11 23 4 5405 184
11 23 5 7960 215
11 23 6 7339 195
11 23 7 459 102
11 23 8 19917 432
11 23 9 7358 231
11 23 10 6772 209
11 23 11 3097 209
11 23 12 1835 135
11 24 0 151 204
11 24 1 5003 226
11 24 2 2231 171
11 24 3 3023 171
11 24 4 6376 182
11 24 5 407 113
11 24 6 1763 160
11 24 7 12023 349
11 24 8 190 99
11 24 9 1400 138
11 24 10 6029 253
11 25 0 12859 528
11 25 1 4929 173
11 25 2 2899 129
11 25 3 3130 149
11 25 4 963 127
11 25 5 77 129
11 25 6 3636 179
11 25 7 5405 204
11 25 8 633 110
11 26 0 2520 308
11 26 1 501 149
11 26 2 316 140
11 26 3 712 187
12 0 0 743 135
12 0 1 0 80
12 0 2 30042 567
12 0 3 24095 492
12 0 4 336 83
12 0 5 16888 355
12 0 6 34135 770
12 0 7 25902 723
12 0 8 11316 454
12 0 9 1260 105
12 0 10 19504 509
12 0 11 6414 281
12 0 12 7074 261
12 0 13 4585 162
12 0 14 556 107
12 0 15 542 124
12 0 16 2181 201
12 0 17 18060 448
12 0 18 24274 696
12 0 20 7061 231
12 0 21 7726 267
12 0 22 13659 371
12 0 23 96 110
12 0 24 25 102
12 0 25 2002 168
12 1 0 52291 943
12 1 1 1612 91
12 1 2 8466 146
12 1 3 7751 140
12 1 4 341 52
12 1 5 5947 121
12 1 6 59225 754
12 1 7 -28 66
12 1 8 74975 932
12 1 9 6343 127
12 1 10 49538 866
12 1 11 3039 91
12 1 12 11156 283
12 1 13 11041 198
12 1 14 27860 473
12 1 15 3158 127
12 1 16 3881 165
12 1 17 294 91
12 1 18 12113 261
12 1 19 377 99
12 1 20 5157 146
12 1 21 190 88
12 1 22 723 85
12 1 23 1595 96
12 1 24 1815 85
12 1 25 1505 118
12 2 0 11970 371
12 2 1 18374 325
12 2 2 3383 91
12 2 3 15629 248
12 2 4 355 61
12 2 5 119124 1524
12 2 6 6249 182
12 2 7 4112 113
12 2 8 4830 124
12 2 9 61808 792
12 2 10 1480 94
12 2 11 19760 297
12 2 12 51210 1304
12 2 13 13747 261
12 2 14 704 74
12 2 15 13338 226
12 2 16 3215 129
12 2 17 270 66
12 2 18 4321 146
12 2 19 23891 490
12 2 20 4797 162
12 2 21 297 88
12 2 22 1672 107
12 2 23 4008 151
12 2 24 388 85
12 2 25 8103 256
12 3 0 38329 998
12 3 1 3265 96
12 3 2 11863 231
12 3 3 53944 787
12 3 4 39850 545
12 3 5 87333 1147
12 3 6 27962 429
12 3 7 22203 388
12 3 8 19532 289
12 3 9 112864 1584
12 3 10 6747 135
12 3 11 11643 215
12 3 12 82726 1045
12 3 13 44578 644
12 3 14 286 74
12 3 15 13692 237
12 3 16 15222 275
12 3 17 9404 182
12 3 18 611 118
12 3 19 7660 223
12 3 20 1829 113
12 3 21 2693 135
12 3 22 4684 256
12 3 23 6376 193
12 3 24 2938 162
12 3 25 3691 146
12 4 0 1020 113
12 4 1 3059 105
12 4 2 2910 99
12 4 3 7575 231
12 4 4 888 69
12 4 5 3191 121
12 4 6 198 61
12 4 7 9401 182
12 4 8 2861 107
12 4 9 1023 72
12 4 10 19592 308
12 4 11 6015 140
12 4 12 11126 319
12 4 13 4957 193
12 4 14 30707 495
12 4 15 1051 94
12 4 16 3411 132
12 4 17 715 69
12 4 18 974 80
12 4 19 1034 83
12 4 20 1439 85
12 4 21 3221 162
12 4 22 627 102
12 4 23 -85 102
12 4 24 954 116
12 4 25 377 105
12 5 0 31208 583
12 5 1 24442 360
12 5 2 13211 289
12 5 3 66126 1172
12 5 4 13827 297
12 5 5 72909 982
12 5 6 9151 195
12 5 7 133807 1832
12 5 8 2995 107
12 5 9 42502 789
12 5 10 5111 193
12 5 11 95214 1373
12 5 12 589 80
12 5 13 74562 1174
12 5 14 14768 292
12 5 15 21856 462
12 5 16 556 85
12 5 17 2806 99
12 5 18 5256 143
12 5 19 11096 212
12 5 20 2632 149
12 5 21 6002 322
12 5 22 270 102
12 5 23 5562 179
12 5 24 2027 135
12 5 25 9434 267
12 6 0 6502 270
12 6 1 3328 83
12 6 2 4951 160
12 6 3 14127 289
12 6 4 4197 162
12 6 5 35254 506
12 6 6 36120 503
12 6 7 24235 498
12 6 8 965 83
12 6 9 25498 443
12 6 10 16330 314
12 6 11 16248 377
12 6 12 1081 94
12 6 13 25052 534
12 6 14 21080 476
12 6 15 314 88
12 6 16 2643 110
12 6 17 7154 193
12 6 18 2671 127
12 6 19 5122 160
12 6 20 -3 74
12 6 21 2002 127
12 6 22 6909 201
12 6 23 3966 138
12 6 24 4902 198
12 6 25 4032 176
12 7 0 9470 217
12 7 1 3678 94
12 7 2 451 61
12 7 3 27316 415
12 7 4 11324 201
12 7 5 4753 105
12 7 6 12353 215
12 7 7 10779 198
12 7 8 2498 162
12 7 9 11011 245
12 7 10 5482 204
12 7 11 3581 129
12 7 12 18786 481
12 7 13 2363 107
12 7 14 2145 182
12 7 15 17257 327
12 7 16 6703 215
12 7 17 8851 193
12 7 18 4230 129
12 7 19 2214 129
12 7 20 2993 116
12 7 21 3416 138
12 7 22 151 85
12 7 23 47 113
12 7 24 226 140
12 8 0 781 110
12 8 1 3408 99
12 8 2 688 77
12 8 3 3185 138
12 8 4 374 69
12 8 5 5196 154
12 8 6 17301 360
12 8 7 25580 435
12 8 8 29830 583
12 8 9 13717 308
12 8 10 1626 88
12 8 11 4602 121
12 8 12 19317 413
12 8 13 1562 99
12 8 14 146 99
12 8 15 13382 283
12 8 16 325 110
12 8 17 446 88
12 8 18 3342 127
12 8 19 2327 116
12 8 20 2060 127
12 8 21 3694 135
12 8 22 176 96
12 8 23 1359 151
12 8 24 2253 143
12 9 0 11302 600
12 9 1 14790 245
12 9 2 2253 121
12 9 3 8109 198
12 9 4 10923 267
12 9 5 4200 154
12 9 6 503 91
12 9 7 20970 479
12 9 8 1191 162
12 9 9 1373 105
12 9 10 2465 102
12 9 11 7671 259
12 9 12 8928 261
12 9 13 228 74
12 9 14 9638 256
12 9 15 1285 193
12 9 16 16407 371
12 9 17 2368 102
12 9 18 10978 226
12 9 19 6786 187
12 9 20 -50 107
12 9 21 987 107
12 9 22 534 113
12 9 23 1268 135
12 9 24 586 165
12 10 0 5644 237
12 10 1 3207 195
12 10 2 2074 118
12 10 3 12801 248
12 10 4 608 83
12 10 5 19133 550
12 10 6 18239 347
12 10 7 32878 514
12 10 8 2586 96
12 10 9 27470 536
12 10 10 39171 759
12 10 11 44149 861
12 10 12 5729 146
12 10 13 5105 162
12 10 14 37672 613
12 10 15 20761 492
12 10 16 173 91
12 10 17 113 85
12 10 18 -124 102
12 10 19 6450 272
12 10 20 910 107
12 10 21 4668 151
12 10 22 1097 110
12 10 23 5732 171
12 11 0 80322 1923
12 11 1 564 74
12 11 2 35155 569
12 11 3 292 96
12 11 4 32677 572
12 11 5 3589 190
12 11 6 6090 151
12 11 7 2566 124
12 11 8 17659 377
12 11 9 314 80
12 11 10 13271 336
12 11 11 5509 171
12 11 12 5457 190
12 11 13 8843 209
12 11 14 3653 124
12 11 15 696 91
12 11 16 11167 250
12 11 17 410 99
12 11 18 13417 283
12 11 19 1329 118
12 11 20 9214 272
12 11 21 641 113
12 11 22 5391 179
12 11 23 14 121
12 12 0 26265 718
12 12 1 4327 135
12 12 2 9478 248
12 12 3 11761 415
12 12 4 7055 228
12 12 5 3977 168
12 12 6 531 88
12 12 7 11838 300
12 12 8 10469 272
12 12 9 1210 96
12 12 10 1857 138
12 12 11 2443 201
12 12 12 26890 759
12 12 13 28994 492
12 12 14 12463 272
12 12 15 385 85
12 12 16 14061 338
12 12 17 2401 154
12 12 18 1282 110
12 12 19 338 102
12 12 20 1375 121
12 12 21 4976 204
12 12 22 1419 132
12 13 0 21089 707
12 13 1 10383 393
12 13 2 13101 253
12 13 3 5903 165
12 13 4 19493 413
12 13 5 1895 135
12 13 6 16336 391
12 13 7 19884 407
12 13 8 6601 215
12 13 9 1348 85
12 13 10 28499 657
12 13 11 171 85
12 13 12 6178 237
12 13 13 220 91
12 13 14 20668 635
12 13 15 377 102
12 13 16 1012 99
12 13 17 13536 281
12 13 18 16833 330
12 13 19 146 113
12 13 20 4585 151
12 13 21 6827 193
12 13 22 2170 140
12 14 0 126895 2500
12 14 1 5564 168
12 14 2 28037 580
12 14 3 14361 286
12 14 4 41919 726
12 14 5 256 80
12 14 6 13904 272
12 14 7 34027 572
12 14 8 40659 729
12 14 9 1678 99
12 14 10 19568 336
12 14 11 707 105
12 14 12 1174 94
12 14 13 1829 140
12 14 14 14790 281
12 14 15 723 105
12 14 16 13852 267
12 14 17 10040 217
12 14 18 12331 275
12 14 19 759 124
12 14 20 18894 402
12 14 21 4670 154
12 15 0 2913 165
12 15 1 2101 110
12 15 2 2335 151
12 15 3 1601 124
12 15 4 4247 154
12 15 5 5281 149
12 15 6 413 91
12 15 7 2126 176
12 15 8 960 91
12 15 9 2594 113
12 15 10 24926 501
12 15 11 1199 99
12 15 12 591 110
12 15 13 1009 173
12 15 14 1334 116
12 15 15 69 88
12 15 16 539 99
12 15 17 201 110
12 15 18 1221 118
12 15 19 2674 129
12 15 20 140 107
12 15 21 -14 179
12 16 0 20874 542
12 16 1 3686 146
12 16 2 12647 341
12 16 3 380 85
12 16 4 4239 234
12 16 5 457 85
12 16 6 14171 358
12 16 7 53677 976
12 16 8 517 118
12 16 9 1540 127
12 16 10 2852 149
12 16 11 9209 215
12 16 12 855 107
12 16 13 1991 99
12 16 14 5333 198
12 16 15 710 94
12 16 16 204 118
12 16 17 369 118
12 16 18 3733 140
12 16 19 1571 135
12 16 20 3829 187
12 17 0 974 132
12 17 1 10282 239
12 17 2 743 99
12 17 3 1813 135
12 17 4 3889 154
12 17 5 1141 121
12 17 6 3755 129
12 17 7 473 129
12 17 8 12113 253
12 17 9 1477 198
12 17 10 15021 311
12 17 11 429 88
12 17 12 1810 116
12 17 13 473 88
12 17 14 377 102
12 17 15 1392 157
12 17 16 96 99
12 17 17 3636 143
12 17 18 679 118
12 17 19 495 110
12 18 0 2132 206
12 18 1 1659 96
12 18 2 18035 355
12 18 3 2052 138
12 18 4 1020 99
12 18 5 2481 143
12 18 6 883 118
12 18 7 481 94
12 18 8 1711 121
12 18 9 509 99
12 18 10 61 124
12 18 11 916 102
12 18 12 176 99
12 18 13 248 96
12 18 14 1934 151
12 18 15 -107 85
12 18 16 28 96
12 18 17 85 105
12 18 18 5281 212
12 19 0 10950 454
12 19 1 10529 231
12 19 2 1923 151
12 19 3 14182 267
12 19 4 938 102
12 19 5 410 127
12 19 6 17716 358
12 19 7 5339 184
12 19 8 228 74
12 19 9 1969 135
12 19 10 8527 184
12 19 11 7239 223
12 19 12 2503 151
12 19 13 4019 160
12 19 14 1989 110
12 19 15 182 116
12 19 16 -91 102
12 19 17 5399 176
12 20 0 2778 217
12 20 1 338 124
12 20 2 217 143
12 20 3 916 88
12 20 4 261 80
12 20 5 228 80
12 20 6 286 83
12 20 7 6582 206
12 20 8 -267 96
12 20 9 1152 88
12 20 10 3807 173
12 20 11 85 80
12 20 12 613 151
12 20 13 974 118
12 20 14 4747 171
12 20 15 116 96
12 20 16 1075 107
12 21 0 11572 523
12 21 1 4871 187
12 21 2 5292 151
12 21 3 1353 105
12 21 4 10768 352
12 21 5 1048 107
12 21 6 1956 135
12 21 7 275 91
12 21 8 3790 201
12 21 9 5754 168
12 21 10 15532 360
12 21 11 278 94
12 21 12 5226 206
12 21 13 44 121
12 21 14 855 160
12 22 0 17510 484
12 22 1 7479 261
12 22 2 6835 234
12 22 3 2781 168
12 22 4 22544 443
12 22 5 366 143
12 22 6 4266 184
12 22 7 1840 113
12 22 8 21889 421
12 22 9 976 116
12 22 10 14958 325
12 22 11 1122 127
12 22 12 13230 316
12 22 13 1884 138
12 23 0 316 151
12 23 1 1199 127
12 23 2 553 91
12 23 3 4406 179
12 23 4 2310 124
12 23 5 347 107
12 23 6 1615 118
12 23 7 723 107
12 23 8 182 94
12 23 9 437 99
12 23 10 6874 264
12 23 11 44 118
12 24 0 844 228
12 24 1 -96 105
12 24 2 5584 184
12 24 3 99 94
12 24 4 -143 110
12 24 5 883 105
12 24 6 1274 107
12 24 7 3675 154
12 24 8 129 102
12 25 0 2476 264
12 25 1 190 132
12 25 2 1106 146
12 25 3 377 116
12 25 4 2173 165
12 25 5 206 105
13 1 0 1532 94
13 1 1 4428 99
13 1 2 465 61
13 1 3 330 63
13 1 4 308 66
13 1 5 1031 80
13 1 6 429 69
13 1 7 10048 305
13 1 8 501 66
13 1 9 83 63
13 1 10 9671 261
13 1 11 12353 206
13 1 12 14790 300
13 1 13 325 72
13 1 14 23242 371
13 1 15 3716 132
13 1 16 6414 151
13 1 17 1342 118
13 1 18 424 105
13 1 19 558 99
13 1 20 94 129
13 1 21 468 96
13 1 22 1870 138
13 1 23 957 96
13 1 24 77 83
13 1 25 440 80
13 2 0 388 110
13 2 1 547 74
13 2 2 -39 55
13 2 3 18605 338
13 2 4 3691 96
13 2 5 5982 138
13 2 6 -146 61
13 2 7 36525 525
13 2 8 11951 215
13 2 9 10427 228
13 2 10 12870 316
13 2 11 4153 176
13 2 12 11803 314
13 2 13 8673 226
13 2 14 388 77
13 2 15 190 72
13 2 16 13874 256
13 2 17 5254 135
13 2 18 1287 96
13 2 19 143 85
13 2 20 2863 124
13 2 21 9003 259
13 2 22 36 83
13 2 23 2454 116
13 2 24 1516 105
13 2 25 41 99
13 3 0 37328 701
13 3 1 40706 597
13 3 2 12380 223
13 3 3 16638 245
13 3 4 20957 292
13 3 5 37870 806
13 3 6 12721 336
13 3 7 79453 1001
13 3 8 13090 272
13 3 9 53482 963
13 3 10 10364 217
13 3 11 59002 803
13 3 12 2454 239
13 3 13 43591 682
13 3 14 8037 250
13 3 15 6673 245
13 3 16 2874 140
13 3 17 11063 226
13 3 18 1925 107
13 3 19 3160 160
13 3 20 3367 124
13 3 21 7792 190
13 3 22 3015 135
13 3 23 5179 168
13 3 24 3906 143
13 3 25 2929 184
13 4 0 10326 366
13 4 1 11209 198
13 4 2 8703 217
13 4 3 23014 327
13 4 4 498 61
13 4 5 402 63
13 4 6 21020 316
13 4 7 56722 949
13 4 8 341 61
13 4 9 4365 143
13 4 10 7116 231
13 4 11 10581 248
13 4 12 22714 528
13 4 13 15466 292
13 4 14 5309 217
13 4 15 792 96
13 4 16 311 74
13 4 17 4888 127
13 4 18 10598 300
13 4 19 1020 88
13 4 20 407 116
13 4 21 13646 316
13 4 22 1172 138
13 4 23 1441 99
13 4 24 44 83
13 5 0 6035 256
13 5 1 5782 132
13 5 2 14696 286
13 5 3 9489 187
13 5 4 24384 371
13 5 5 25008 459
13 5 6 19955 424
13 5 7 2693 99
13 5 8 371 80
13 5 9 41187 586
13 5 10 23702 589
13 5 11 10834 217
13 5 12 5262 176
13 5 13 18778 377
13 5 14 36970 822
13 5 15 4863 140
13 5 16 586 88
13 5 17 2852 105
13 5 18 7000 217
13 5 19 9305 184
13 5 20 399 77
13 5 21 308 91
13 5 22 4899 162
13 5 23 674 105
13 5 24 3782 206
13 6 0 43973 908
13 6 1 27162 501
13 6 2 28950 457
13 6 3 7306 160
13 6 4 66484 842
13 6 5 78746 1224
13 6 6 21212 352
13 6 7 21504 347
13 6 8 5870 173
13 6 9 51064 776
13 6 10 45745 668
13 6 11 48713 957
13 6 12 1188 102
13 6 13 16479 333
13 6 14 28708 498
13 6 15 8950 226
13 6 16 4024 146
13 6 17 3375 138
13 6 18 9451 201
13 6 19 22038 492
13 6 20 8180 173
13 6 21 589 96
13 6 22 15169 322
13 6 23 4585 168
13 6 24 5790 226
13 7 0 1125 129
13 7 1 13024 338
13 7 2 253 72
13 7 3 10997 234
13 7 4 19367 360
13 7 5 24439 479
13 7 6 11156 253
13 7 7 1725 80
13 7 8 1890 91
13 7 9 14839 327
13 7 10 16261 360
13 7 11 1510 99
13 7 12 -83 74
13 7 13 2440 127
13 7 14 26191 547
13 7 15 1263 94
13 7 16 4145 160
13 7 17 4464 127
13 7 18 10218 228
13 7 19 7325 228
13 7 20 250 88
13 7 21 3565 149
13 7 22 528 102
13 7 23 4979 195
13 7 24 1474 160
13 8 0 1062 113
13 8 1 6703 143
13 8 2 17788 336
13 8 3 11272 256
13 8 4 19568 358
13 8 5 21776 380
13 8 6 355 80
13 8 7 7058 231
13 8 8 33763 558
13 8 9 15035 250
13 8 10 6024 179
13 8 11 1466 113
13 8 12 32028 545
13 8 13 38307 677
13 8 14 4665 149
13 8 15 7603 184
13 8 16 9905 231
13 8 17 8384 223
13 8 18 4874 162
13 8 19 1133 107
13 8 20 6791 198
13 8 21 402 121
13 8 22 33 91
13 8 23 2484 149
13 9 0 6183 245
13 9 1 10279 201
13 9 2 11492 245
13 9 3 278 69
13 9 4 3422 99
13 9 5 4459 127
13 9 6 13577 303
13 9 7 649 74
13 9 8 259 96
13 9 9 3083 105
13 9 10 3790 195
13 9 11 239 96
13 9 12 1837 118
13 9 13 289 88
13 9 14 15422 330
13 9 15 778 88
13 9 16 8023 187
13 9 17 682 85
13 9 18 2129 116
13 9 19 9300 217
13 9 20 -151 110
13 9 21 333 113
13 9 22 1296 118
13 9 23 322 99
13 10 0 1012 124
13 10 1 4877 121
13 10 2 7578 201
13 10 3 7352 173
13 10 4 7427 217
13 10 5 1158 96
13 10 6 242 85
13 10 7 828 88
13 10 8 2376 110
13 10 9 1086 80
13 10 10 492 99
13 10 11 380 102
13 10 12 8879 206
13 10 13 261 94
13 10 14 7377 250
13 10 15 10945 220
13 10 16 2156 118
13 10 17 9748 212
13 10 18 1334 127
13 10 19 80 105
13 10 20 239 107
13 10 21 289 113
13 10 22 2528 129
13 11 0 11814 319
13 11 1 2412 99
13 11 2 2487 105
13 11 3 10471 256
13 11 4 679 88
13 11 5 325 66
13 11 6 3265 116
13 11 7 19292 424
13 11 8 3733 195
13 11 9 -121 83
13 11 10 1725 143
13 11 11 4816 190
13 11 12 8199 283
13 11 13 855 107
13 11 14 6863 264
13 11 15 976 102
13 11 16 8095 223
13 11 17 7462 206
13 11 18 682 110
13 11 19 547 110
13 11 20 4332 154
13 11 21 4654 157
13 11 22 0 110
13 12 0 6219 272
13 12 1 231 91
13 12 2 5474 143
13 12 3 2143 143
13 12 4 9242 234
13 12 5 6731 209
13 12 6 14204 289
13 12 7 1848 129
13 12 8 677 88
13 12 9 7586 162
13 12 10 15524 325
13 12 11 1015 102
13 12 12 528 88
13 12 13 1980 149
13 12 14 10914 248
13 12 15 1496 107
13 12 16 624 113
13 12 17 627 102
13 12 18 3452 143
13 12 19 663 113
13 12 20 -8 110
13 12 21 143 118
13 12 22 2619 261
13 13 1 7039 198
13 13 2 4164 149
13 13 3 9388 325
13 13 4 2533 162
13 13 5 12422 237
13 13 6 1612 96
13 13 7 7289 281
13 13 8 303 94
13 13 9 7713 234
13 13 10 1642 118
13 13 11 1282 105
13 13 12 957 118
13 13 13 3562 135
13 13 14 4519 184
13 13 15 4280 151
13 13 16 1224 118
13 13 17 946 124
13 13 18 333 116
13 13 19 5540 168
13 13 20 1315 132
13 13 21 913 157
13 14 0 2608 162
13 14 1 14 80
13 14 2 6604 226
13 14 3 5919 140
13 14 4 3914 135
13 14 5 9316 292
13 14 6 798 85
13 14 7 641 85
13 14 8 22186 410
13 14 9 5746 201
13 14 10 600 129
13 14 11 -149 94
13 14 12 43762 732
13 14 13 8629 316
13 14 14 12045 250
13 14 15 806 116
13 14 16 6414 226
13 14 17 319 107
13 14 18 311 107
13 14 19 737 110
13 14 20 4929 187
13 15 0 40623 913
13 15 1 8059 184
13 15 2 27938 605
13 15 3 561 85
13 15 4 36236 743
13 15 5 1062 96
13 15 6 9333 184
13 15 7 6571 374
13 15 8 18726 349
13 15 9 15739 465
13 15 10 226 85
13 15 11 2583 135
13 15 12 29761 597
13 15 13 1744 105
13 15 14 4412 176
13 15 15 179 105
13 15 16 23319 451
13 15 17 55 105
13 15 18 5859 179
13 15 19 1040 129
13 15 20 12237 457
13 16 0 1455 129
13 16 1 16977 308
13 16 2 14614 374
13 16 3 264 80
13 16 4 3196 151
13 16 5 1015 94
13 16 6 602 94
13 16 7 6244 195
13 16 8 385 94
13 16 9 9382 198
13 16 10 5336 140
13 16 11 1716 154
13 16 12 6313 171
13 16 13 429 91
13 16 14 360 88
13 16 15 5058 171
13 16 16 3411 135
13 16 17 -209 105
13 16 18 407 105
13 16 19 3056 146
13 17 0 4588 198
13 17 1 138 83
13 17 2 5265 198
13 17 3 9599 215
13 17 4 1439 118
13 17 5 220 91
13 17 6 2558 154
13 17 7 1012 135
13 17 8 3763 146
13 17 9 2379 110
13 17 10 3501 165
13 17 11 1329 118
13 17 12 1931 105
13 17 13 391 94
13 17 14 11511 275
13 17 15 22 94
13 17 16 8 99
13 17 17 2181 124
13 17 18 3402 171
13 18 0 234 176
13 18 1 5936 173
13 18 2 1128 96
13 18 3 1774 96
13 18 4 7770 209
13 18 5 24381 495
13 18 6 1664 165
13 18 7 4943 157
13 18 8 319 116
13 18 9 14746 344
13 18 10 2473 182
13 18 11 2575 116
13 18 12 1851 129
13 18 13 -33 102
13 18 14 407 105
13 18 15 1455 132
13 18 16 2013 127
13 18 17 11 110
13 19 0 226 179
13 19 1 127 77
13 19 2 327 96
13 19 3 336 85
13 19 4 451 102
13 19 5 2118 110
13 19 6 228 140
13 19 7 7776 217
13 19 8 693 96
13 19 9 9770 292
13 19 10 1598 182
13 19 11 1565 102
13 19 12 569 94
13 19 13 1397 105
13 19 14 1183 129
13 19 15 847 107
13 19 16 105 116
13 20 0 -179 110
13 20 1 347 85
13 20 2 5762 245
13 20 3 179 91
13 20 4 3089 162
13 20 5 20109 369
13 20 6 982 105
13 20 7 2379 116
13 20 8 2690 140
13 20 9 107 96
13 20 10 303 94
13 20 11 1224 113
13 20 12 432 99
13 20 13 393 94
13 20 14 168 116
13 21 0 9558 308
13 21 1 3004 160
13 21 2 1909 157
13 21 3 2434 110
13 21 4 3812 201
13 21 5 1612 124
13 21 6 179 102
13 21 7 113 143
13 21 8 21113 473
13 21 9 426 99
13 21 10 3213 195
13 21 11 132 102
13 21 12 5751 272
13 21 13 602 102
13 22 0 1499 215
13 22 1 1403 105
13 22 2 3446 151
13 22 3 10554 267
13 22 4 413 107
13 22 5 4120 176
13 22 6 7704 195
13 22 7 7162 193
13 22 8 10141 239
13 22 9 105 113
13 22 10 4313 184
13 22 11 2159 149
13 23 0 234 140
13 23 1 1309 162
13 23 2 2096 116
13 23 3 5091 143
13 23 4 201 83
13 23 5 919 91
13 23 6 -3 88
13 23 7 4863 206
13 23 8 660 113
13 23 9 66 102
13 24 0 6753 512
13 24 1 531 105
13 24 2 5006 195
13 24 3 234 146
13 24 4 2514 129
13 24 5 1084 107
13 24 6 2789 146
14 0 0 3856 173
14 0 1 5397 212
14 0 2 17903 415
14 0 3 14872 322
14 0 4 5397 193
14 0 5 29618 784
14 0 6 71179 1436
14 0 7 4514 173
14 0 9 20514 454
14 0 10 6208 231
14 0 11 6161 209
14 0 12 26744 869
14 0 13 3785 140
14 0 14 30509 927
14 0 15 7600 341
14 0 16 3534 270
14 0 17 17199 523
14 0 18 19070 525
14 0 19 10062 314
14 0 20 25 138
14 0 21 1617 157
14 0 22 3834 212
14 0 23 415 204
14 0 24 1067 146
14 1 0 2046 151
14 1 1 787 66
14 1 2 446 66
14 1 3 1180 66
14 1 4 3103 124
14 1 5 8752 154
14 1 6 9451 198
14 1 7 8882 168
14 1 8 30507 462
14 1 9 16732 275
14 1 10 129 74
14 1 11 5108 124
14 1 12 9605 184
14 1 13 9360 171
14 1 14 2608 127
14 1 15 8472 223
14 1 16 3917 132
14 1 17 2099 91
14 1 18 1059 113
14 1 19 679 99
14 1 20 1351 102
14 1 21 201 102
14 1 22 655 99
14 1 23 363 102
14 1 24 1026 99
14 2 0 40747 866
14 2 1 811 69
14 2 2 23473 413
14 2 3 4332 110
14 2 4 88684 1348
14 2 5 10914 190
14 2 6 5889 187
14 2 7 14240 264
14 2 8 22541 487
14 2 9 7228 154
14 2 10 60067 1059
14 2 11 1342 99
14 2 12 6299 168
14 2 13 1879 113
14 2 14 48105 1254
14 2 15 8695 195
14 2 16 17884 338
14 2 17 5441 146
14 2 18 4241 168
14 2 19 2542 165
14 2 20 10694 242
14 2 21 2927 140
14 2 22 3202 157
14 2 23 -33 88
14 2 24 5339 215
14 3 0 1095 107
14 3 1 49970 619
14 3 2 6519 176
14 3 3 34016 550
14 3 4 7391 228
14 3 5 23242 448
14 3 6 15722 242
14 3 7 58969 1202
14 3 8 4269 157
14 3 9 23399 377
14 3 10 34836 635
14 3 11 68132 921
14 3 12 3342 171
14 3 13 2608 146
14 3 14 15532 286
14 3 15 710 85
14 3 16 1172 146
14 3 17 10840 248
14 3 18 11052 308
14 3 19 22632 528
14 3 20 132 107
14 3 21 4822 217
14 3 22 1020 105
14 3 23 5859 179
14 3 24 773 118
14 4 0 -25 99
14 4 1 30295 512
14 4 2 23088 388
14 4 3 20467 347
14 4 4 360 94
14 4 5 16638 250
14 4 6 8263 190
14 4 7 52021 1092
14 4 8 12688 209
14 4 9 23176 407
14 4 10 2401 91
14 4 11 47010 902
14 4 12 13940 319
14 4 13 5614 245
14 4 14 481 80
14 4 15 1202 91
14 4 16 12433 237
14 4 17 8967 201
14 4 18 248 105
14 4 19 7572 176
14 4 20 789 99
14 4 21 7306 226
14 4 22 2118 129
14 4 23 4090 151
14 5 0 51848 935
14 5 1 418 66
14 5 2 60821 976
14 5 3 4489 154
14 5 4 39262 894
14 5 5 3229 135
14 5 6 11033 204
14 5 7 2266 107
14 5 8 30985 545
14 5 9 1018 85
14 5 10 2066 116
14 5 11 2189 102
14 5 12 22989 371
14 5 13 3559 140
14 5 14 1584 110
14 5 15 223 83
14 5 16 13288 248
14 5 17 726 110
14 5 18 4445 146
14 5 19 523 80
14 5 20 12020 261
14 5 21 129 110
14 5 22 15494 333
14 5 23 239 99
14 6 0 4508 173
14 6 1 23498 481
14 6 2 20957 435
14 6 3 50498 1062
14 6 4 17040 358
14 6 5 4522 154
14 6 6 556 83
14 6 7 35348 635
14 6 8 13791 242
14 6 9 10312 234
14 6 10 7559 231
14 6 11 21845 446
14 6 12 11739 245
14 6 13 8895 278
14 6 14 66 99
14 6 15 5578 182
14 6 16 9643 226
14 6 17 12738 275
14 6 18 -63 118
14 6 19 1521 127
14 6 20 1397 94
14 6 21 10620 272
14 6 22 924 138
14 6 23 2335 146
14 7 0 5523 259
14 7 1 1964 94
14 7 2 231 80
14 7 3 5234 146
14 7 4 3026 91
14 7 5 569 69
14 7 6 1139 94
14 7 7 31241 528
14 7 8 539 113
14 7 9 2638 118
14 7 10 8502 270
14 7 11 5573 195
14 7 12 5135 201
14 7 13 726 85
14 7 14 369 91
14 7 15 479 88
14 7 16 2676 140
14 7 17 6288 160
14 7 18 740 91
14 7 19 6 96
14 7 20 2327 118
14 7 21 663 107
14 7 22 151 94
14 7 23 -61 107
14 8 0 15706 429
14 8 1 1141 121
14 8 2 13610 259
14 8 3 1075 74
14 8 4 349 72
14 8 5 248 66
14 8 6 3622 143
14 8 7 7264 182
14 8 8 611 88
14 8 9 490 77
14 8 10 1760 121
14 8 11 311 74
14 8 12 303 96
14 8 13 723 85
14 8 14 1760 124
14 8 15 226 102
14 8 16 4937 162
14 8 17 7118 206
14 8 18 1978 135
14 8 19 2759 138
14 8 20 2696 132
14 8 21 -14 102
14 8 22 325 129
14 9 0 33494 919
14 9 1 8092 165
14 9 2 363 85
14 9 3 1364 91
14 9 4 9842 228
14 9 5 7861 248
14 9 6 8719 182
14 9 7 165 88
14 9 8 22458 468
14 9 9 7666 206
14 9 10 677 102
14 9 11 -118 83
14 9 12 9814 319
14 9 13 4585 187
14 9 14 932 121
14 9 15 110 91
14 9 16 9313 237
14 9 17 4767 146
14 9 18 110 96
14 9 19 2038 121
14 9 20 2773 135
14 9 21 465 116
14 9 22 685 116
14 10 0 10218 305
14 10 1 657 77
14 10 2 6137 184
14 10 3 10711 239
14 10 4 525 110
14 10 5 776 85
14 10 6 624 96
14 10 7 3997 129
14 10 8 7883 195
14 10 9 146 85
14 10 10 6194 165
14 10 11 5914 171
14 10 12 32600 630
14 10 13 388 88
14 10 14 3611 129
14 10 15 10878 311
14 10 16 1125 96
14 10 17 429 116
14 10 18 583 113
14 10 19 41 102
14 10 20 267 113
14 10 21 803 124
14 10 22 -102 151
14 11 0 7902 248
14 11 1 2850 105
14 11 2 14 80
14 11 3 710 105
14 11 4 1392 110
14 11 5 767 121
14 11 6 10636 259
14 11 7 -28 107
14 11 8 1172 102
14 11 9 206 107
14 11 10 206 121
14 11 11 594 88
14 11 12 283 96
14 11 13 2528 132
14 11 14 1450 135
14 11 15 151 113
14 11 16 1733 116
14 11 17 2385 129
14 11 18 784 113
14 11 19 421 121
14 11 20 498 127
14 11 21 157 127
14 12 1 3017 129
14 12 2 -135 91
14 12 3 1243 88
14 12 4 3562 151
14 12 5 578 94
14 12 6 572 105
14 12 7 267 105
14 12 8 259 99
14 12 9 1477 127
14 12 10 12851 355
14 12 11 -69 91
14 12 12 27354 523
14 12 13 3556 129
14 12 14 18616 385
14 12 15 -99 113
14 12 16 435 110
14 12 17 -19 107
14 12 18 553 132
14 12 19 300 121
14 12 20 1125 129
14 12 21 -99 261
14 13 0 514 132
14 13 1 6142 154
14 13 2 1879 124
14 13 3 5256 253
14 13 4 3141 160
14 13 5 29343 674
14 13 6 608 110
14 13 7 4131 165
14 13 8 1133 113
14 13 9 1207 149
14 13 10 9544 336
14 13 11 176 113
14 13 12 1945 135
14 13 13 4706 171
14 13 14 1744 151
14 13 15 7110 195
14 13 16 1920 127
14 13 17 1936 127
14 13 18 1136 127
14 13 19 2137 132
14 13 20 272 121
14 14 0 396 190
14 14 1 542 107
14 14 2 1678 151
14 14 3 4013 127
14 14 4 1015 99
14 14 5 12058 250
14 14 6 2888 116
14 14 7 237 94
14 14 8 624 105
14 14 9 47940 921
14 14 10 668 102
14 14 11 668 99
14 14 12 1903 129
14 14 13 5383 179
14 14 14 157 107
14 14 15 3270 135
14 14 16 666 113
14 14 17 253 110
14 14 18 1573 121
14 14 19 2704 151
14 15 0 784 132
14 15 1 2024 129
14 15 2 3821 209
14 15 3 4162 127
14 15 4 116 110
14 15 5 1661 105
14 15 6 2514 118
14 15 7 1689 118
14 15 8 7132 206
14 15 9 1257 146
14 15 10 4423 179
14 15 11 855 102
14 15 12 1595 140
14 15 13 105 124
14 15 14 162 102
14 15 15 118 102
14 15 16 710 129
14 15 17 935 127
14 15 18 586 113
14 16 0 6095 259
14 16 1 1051 96
14 16 2 1892 118
14 16 3 2971 154
14 16 4 1241 113
14 16 5 1975 149
14 16 6 5474 143
14 16 7 15367 341
14 16 8 2266 201
14 16 9 12158 272
14 16 10 5427 149
14 16 11 2308 157
14 16 12 294 94
14 16 13 481 118
14 16 14 6827 228
14 16 15 52 105
14 16 16 3 110
14 16 17 3620 160
14 16 18 4063 250
14 17 0 46069 1235
14 17 1 844 146
14 17 2 9005 264
14 17 3 2792 157
14 17 4 377 85
14 17 5 9952 283
14 17 6 4772 151
14 17 7 12248 319
14 17 8 2883 116
14 17 9 2437 154
14 17 10 2682 160
14 17 11 3804 179
14 17 12 289 132
14 17 13 6395 250
14 17 14 5177 182
14 17 15 1177 124
14 17 16 1235 116
14 17 17 693 173
14 18 0 363 151
14 18 1 204 94
14 18 2 754 94
14 18 3 1815 162
14 18 4 110 91
14 18 5 3760 140
14 18 6 190 99
14 18 7 4373 149
14 18 8 850 99
14 18 9 9985 294
14 18 10 83 91
14 18 11 316 94
14 18 12 495 99
14 18 13 -187 105
14 18 14 190 121
14 18 15 61 110
14 18 16 366 165
14 19 0 1367 171
14 19 1 7902 201
14 19 2 2187 113
14 19 3 3859 187
14 19 4 4153 154
14 19 5 13005 440
14 19 6 4195 143
14 19 7 7586 261
14 19 8 2566 165
14 19 9 833 157
14 19 10 135 91
14 19 11 1447 118
14 19 12 4527 151
14 19 13 3768 140
14 19 14 333 96
14 20 0 5322 314
14 20 1 10562 212
14 20 2 1386 102
14 20 3 2841 165
14 20 4 1441 121
14 20 5 1246 118
14 20 6 3504 143
14 20 7 7641 248
14 20 8 3576 209
14 20 9 800 116
14 20 10 1760 116
14 20 11 627 110
14 20 12 490 113
14 20 13 1034 110
14 21 0 2143 154
14 21 1 1351 118
14 21 2 520 96
14 21 3 3950 151
14 21 4 1799 105
14 21 5 7195 226
14 21 6 4827 140
14 21 7 1546 151
14 21 8 5930 217
14 21 9 5017 261
14 21 10 3645 151
14 21 11 4327 193
14 22 0 1081 206
14 22 1 2228 124
14 22 2 1268 113
14 22 3 2811 165
14 22 4 1681 105
14 22 5 3804 160
14 22 6 61 99
14 22 7 327 94
14 22 8 800 182
14 22 9 3004 162
14 23 0 1265 157
14 23 1 745 96
14 23 2 3650 146
14 23 3 -3 99
14 23 4 -72 116
14 23 5 132 102
14 23 6 1235 129
15 1 0 2123 121
15 1 1 1207 77
15 1 2 72 69
15 1 3 1166 91
15 1 4 866 77
15 1 5 487 91
15 1 6 4434 138
15 1 7 5985 182
15 1 8 8450 160
15 1 9 2847 162
15 1 10 21518 314
15 1 11 1722 77
15 1 12 9231 193
15 1 13 311 74
15 1 14 17213 358
15 1 15 2409 168
15 1 16 10073 272
15 1 17 228 121
15 1 18 366 113
15 1 19 380 132
15 1 20 556 110
15 1 21 3983 201
15 1 22 374 99
15 1 23 701 116
15 2 0 4478 171
15 2 1 11330 212
15 2 2 9038 184
15 2 3 382 72
15 2 4 2775 96
15 2 5 4384 118
15 2 6 239 88
15 2 7 4995 184
15 2 8 459 77
15 2 9 1444 83
15 2 10 611 102
15 2 11 -135 80
15 2 12 3958 151
15 2 13 7966 286
15 2 14 297 85
15 2 15 622 91
15 2 16 8530 187
15 2 17 602 85
15 2 18 -77 129
15 2 19 5916 190
15 2 20 88 113
15 2 21 204 110
15 2 22 168 138
15 2 23 624 102
15 3 0 4453 228
15 3 1 2632 99
15 3 2 2308 91
15 3 3 -50 72
15 3 4 3449 204
15 3 5 17436 286
15 3 6 641 88
15 3 7 179 118
15 3 8 671 77
15 3 9 8260 198
15 3 10 -261 154
15 3 11 998 121
15 3 12 11365 275
15 3 13 3463 124
15 3 14 305 96
15 3 15 1282 91
15 3 16 223 102
15 3 17 787 96
15 3 18 4541 135
15 3 19 4769 140
15 3 20 223 85
15 3 21 -44 110
15 3 22 1510 135
15 3 23 429 146
15 4 0 27236 1122
15 4 1 26133 536
15 4 2 24686 371
15 4 3 360 88
15 4 4 3122 146
15 4 5 24912 569
15 4 6 13376 292
15 4 7 228 72
15 4 8 1969 171
15 4 9 25762 429
15 4 10 1818 105
15 4 11 1436 146
15 4 12 102 129
15 4 13 712 88
15 4 14 6453 151
15 4 15 10799 215
15 4 16 1282 138
15 4 17 2044 121
15 4 18 7592 195
15 4 19 9542 300
15 4 20 5366 198
15 4 21 116 88
15 4 22 2374 146
15 5 0 89616 1609
15 5 1 13461 286
15 5 2 17026 385
15 5 3 5861 179
15 5 4 13525 234
15 5 5 6079 132
15 5 6 231 69
15 5 7 217 77
15 5 8 28845 528
15 5 9 18498 344
15 5 10 336 105
15 5 11 413 85
15 5 12 15043 391
15 5 13 -39 88
15 5 14 1367 113
15 5 15 3686 118
15 5 16 9996 283
15 5 17 204 88
15 5 18 946 83
15 5 19 2643 135
15 5 20 13115 289
15 5 21 3592 179
15 5 22 514 176
15 6 0 2971 179
15 6 1 267 107
15 6 2 27888 446
15 6 3 -11 72
15 6 4 237 74
15 6 5 2811 138
15 6 6 1931 85
15 6 7 -160 110
15 6 8 9126 242
15 6 9 765 105
15 6 10 256 85
15 6 11 113 91
15 6 12 344 105
15 6 13 289 94
15 6 14 704 105
15 6 15 1007 94
15 6 16 7033 245
15 6 17 748 113
15 6 18 979 113
15 6 19 217 154
15 6 20 701 91
15 6 21 129 88
15 6 22 968 132
15 7 0 11426 399
15 7 1 23845 443
15 7 2 63340 858
15 7 3 8414 226
15 7 4 4593 149
15 7 5 16534 311
15 7 6 27687 492
15 7 7 2737 138
15 7 8 3700 143
15 7 9 94 66
15 7 10 24078 451
15 7 11 1037 113
15 7 12 987 102
15 7 13 393 107
15 7 14 9107 220
15 7 15 5696 154
15 7 16 6541 187
15 7 17 4472 176
15 7 18 6838 195
15 7 19 5771 190
15 7 20 7924 206
15 7 21 941 110
15 7 22 6709 209
15 8 0 48206 1230
15 8 1 14960 330
15 8 2 646 83
15 8 3 402 99
15 8 4 8585 228
15 8 5 15667 314
15 8 6 11269 272
15 8 7 1342 107
15 8 8 545 88
15 8 9 12243 253
15 8 10 14531 292
15 8 11 259 83
15 8 12 809 88
15 8 13 2800 127
15 8 14 10947 319
15 8 15 459 110
15 8 16 113 118
15 8 17 487 113
15 8 18 3708 135
15 8 19 6288 173
15 8 20 2165 129
15 8 21 1042 107
15 9 0 1282 160
15 9 1 50 96
15 9 2 179 99
15 9 3 8188 215
15 9 4 -52 105
15 9 5 729 85
15 9 6 729 110
15 9 7 2674 110
15 9 8 3689 132
15 9 9 5254 143
15 9 10 2995 162
15 9 11 1760 121
15 9 12 157 102
15 9 13 355 105
15 9 14 1719 143
15 9 15 25 127
15 9 16 369 105
15 9 17 5864 179
15 9 18 4882 176
15 9 19 55 113
15 9 20 308 118
15 9 21 421 124
15 10 0 10713 385
15 10 1 -39 83
15 10 2 1576 127
15 10 3 495 88
15 10 4 591 88
15 10 5 168 91
15 10 6 3213 138
15 10 7 4305 138
15 10 8 187 91
15 10 9 322 96
15 10 10 6332 182
15 10 11 1020 102
15 10 12 1315 107
15 10 13 358 99
15 10 14 1359 118
15 10 15 781 113
15 10 16 858 127
15 10 17 2239 113
15 10 18 -182 118
15 10 19 11 118
15 10 20 256 110
15 10 21 -171 237
15 11 0 3832 228
15 11 1 1793 132
15 11 2 8681 297
15 11 3 -91 94
15 11 4 734 99
15 11 5 1672 118
15 11 6 7438 193
15 11 7 1152 118
15 11 8 4888 176
15 11 9 1499 94
15 11 10 638 110
15 11 11 3103 190
15 11 12 718 113
15 11 13 127 116
15 11 14 490 121
15 11 15 3402 151
15 11 16 292 96
15 11 17 781 124
15 11 18 2137 132
15 11 19 506 124
15 11 20 22 143
15 12 0 28 135
15 12 1 275 110
15 12 2 7228 184
15 12 3 723 102
15 12 4 2088 116
15 12 5 179 110
15 12 6 1188 118
15 12 7 7072 237
15 12 8 2291 118
15 12 9 -135 107
15 12 10 33 113
15 12 11 3020 127
15 12 12 4533 151
15 12 13 737 118
15 12 14 19 105
15 12 15 811 118
15 12 16 2382 138
15 12 17 -83 121
15 12 18 168 127
15 12 19 289 132
15 13 0 10408 314
15 13 1 7550 171
15 13 2 910 105
15 13 3 2709 154
15 13 4 509 96
15 13 5 2060 116
15 13 6 809 118
15 13 7 9349 234
15 13 8 2101 116
15 13 9 209 110
15 13 10 369 129
15 13 11 1315 121
15 13 12 3892 193
15 13 13 14710 327
15 13 14 77 110
15 13 15 -308 110
15 13 16 74 113
15 13 17 1238 124
15 13 18 129 121
15 13 19 789 132
15 14 0 5014 272
15 14 1 7517 212
15 14 2 12058 396
15 14 3 8813 292
15 14 4 2090 118
15 14 5 2858 127
15 14 6 -33 124
15 14 7 14132 311
15 14 8 160 105
15 14 9 3317 143
15 14 10 12072 272
15 14 11 10053 245
15 14 12 5892 201
15 14 13 3138 143
15 14 14 1650 127
15 14 15 3386 157
15 14 16 539 121
15 14 17 3075 149
15 14 18 547 113
15 15 0 902 149
15 15 1 784 121
15 15 2 124 99
15 15 3 6491 176
15 15 4 -308 110
15 15 5 5232 259
15 15 6 3045 132
15 15 7 5801 245
15 15 8 2261 151
15 15 9 696 110
15 15 10 12350 292
15 15 11 2847 129
15 15 12 963 113
15 15 13 259 135
15 15 14 2751 132
15 15 15 4129 171
15 15 16 1210 124
15 15 17 154 116
15 16 0 2363 212
15 16 1 380 102
15 16 2 2927 116
15 16 3 6687 173
15 16 4 1631 116
15 16 5 8926 294
15 16 6 611 113
15 16 7 17172 333
15 16 8 5144 151
15 16 9 173 94
15 16 10 602 135
15 16 11 12691 259
15 16 12 245 132
15 16 13 8166 215
15 16 14 1967 124
15 16 15 1136 124
15 16 16 325 135
15 17 0 429 138
15 17 1 635 105
15 17 2 322 105
15 17 3 7151 228
15 17 4 250 96
15 17 5 17727 413
15 17 6 190 107
15 17 7 1967 140
15 17 8 2286 127
15 17 9 4599 212
15 17 10 322 121
15 17 11 1758 102
15 17 12 3149 127
15 17 13 949 116
15 17 14 1510 127
15 17 15 1018 118
15 18 0 3664 193
15 18 1 33 110
15 18 2 3906 149
15 18 3 5388 171
15 18 4 7531 215
15 18 5 1141 116
15 18 6 8508 338
15 18 7 3320 231
15 18 8 726 110
15 18 9 2258 129
15 18 10 3180 132
15 18 11 1191 121
15 18 12 3037 179
15 18 13 825 129
15 18 14 831 121
15 19 0 2803 182
15 19 1 9550 270
15 19 2 391 99
15 19 3 9930 217
15 19 4 168 105
15 19 5 1947 99
15 19 6 179 99
15 19 7 3224 135
15 19 8 1703 121
15 19 9 2085 118
15 19 10 1551 140
15 19 11 5559 193
15 19 12 506 121
15 19 13 2156 195
15 20 0 3790 264
15 20 1 622 91
15 20 2 1422 121
15 20 3 9019 204
15 20 4 61 105
15 20 5 -129 102
15 20 6 223 99
15 20 7 5097 168
15 20 8 3273 195
15 20 9 382 107
15 20 10 987 140
15 20 11 388 110
15 21 0 7611 410
15 21 1 1026 110
15 21 2 1023 102
15 21 3 3650 140
15 21 4 1125 107
15 21 5 908 118
15 21 6 4709 179
15 21 7 2434 168
15 21 8 1865 132
15 21 9 1001 110
15 22 1 3163 143
15 22 2 473 110
15 22 3 1296 107
15 22 4 688 105
15 22 5 4987 264
15 22 6 685 132
16 0 0 2894 190
16 0 1 41 143
16 0 2 1064 127
16 0 3 9291 341
16 0 4 5485 176
16 0 5 8587 305
16 0 6 7094 242
16 0 7 13596 432
16 0 8 4918 198
16 0 9 13445 421
16 0 10 7924 314
16 0 11 4252 162
16 0 12 6153 314
16 0 13 418 124
16 0 15 9324 388
16 0 16 492 143
16 0 17 6095 267
16 0 18 410 154
16 0 19 -96 215
16 0 20 707 151
16 0 22 1070 165
16 1 0 765 113
16 1 1 341 72
16 1 2 2649 124
16 1 3 2115 110
16 1 4 5773 173
16 1 5 61 74
16 1 6 380 74
16 1 7 72 77
16 1 8 297 107
16 1 9 3796 132
16 1 10 5883 171
16 1 11 512 88
16 1 12 1249 140
16 1 13 1103 94
16 1 14 311 85
16 1 15 1023 96
16 1 16 6024 217
16 1 17 151 99
16 1 18 267 99
16 1 19 121 107
16 1 20 1095 116
16 1 21 58 99
16 1 22 99 143
16 2 0 382 105
16 2 1 7165 162
16 2 2 4712 129
16 2 3 10199 253
16 2 4 4640 140
16 2 5 347 96
16 2 6 10334 206
16 2 7 15510 325
16 2 8 7523 201
16 2 9 1755 88
16 2 10 245 74
16 2 11 5949 146
16 2 12 7570 294
16 2 13 2913 149
16 2 14 1466 127
16 2 15 803 127
16 2 16 1232 116
16 2 17 6989 259
16 2 18 462 151
16 2 19 256 110
16 2 20 88 107
16 2 21 1953 140
16 2 22 1659 168
16 3 0 198 110
16 3 1 2800 118
16 3 2 6967 157
16 3 3 2550 116
16 3 4 685 80
16 3 5 327 80
16 3 6 3697 146
16 3 7 8318 256
16 3 8 11420 217
16 3 9 14 105
16 3 10 26747 776
16 3 11 272 77
16 3 12 8257 201
16 3 13 143 83
16 3 14 556 121
16 3 15 8166 198
16 3 16 173 91
16 3 17 1590 127
16 3 18 4129 209
16 3 19 105 110
16 3 20 308 107
16 3 21 4332 256
16 3 22 1403 237
16 4 0 49455 1040
16 4 1 20849 325
16 4 2 5067 135
16 4 3 19543 396
16 4 4 46974 792
16 4 5 2536 162
16 4 6 5322 154
16 4 7 8076 195
16 4 8 6090 182
16 4 9 4937 176
16 4 10 18093 358
16 4 11 270 83
16 4 12 286 91
16 4 13 50 99
16 4 14 11209 308
16 4 15 4115 135
16 4 16 1483 124
16 4 17 4596 140
16 4 18 4230 151
16 4 19 2608 140
16 4 20 4668 228
16 4 21 5493 195
16 5 0 2071 171
16 5 1 3631 237
16 5 2 25795 589
16 5 3 13205 259
16 5 4 3702 116
16 5 5 5699 171
16 5 6 11803 231
16 5 7 7946 176
16 5 8 363 83
16 5 9 283 116
16 5 10 9209 187
16 5 11 3537 124
16 5 12 1518 99
16 5 13 140 74
16 5 14 4984 176
16 5 15 850 118
16 5 16 8681 245
16 5 17 2759 143
16 5 18 1100 121
16 5 19 6 113
16 5 20 2437 132
16 5 21 4720 168
16 6 0 2591 212
16 6 1 3386 140
16 6 2 21025 536
16 6 3 2445 135
16 6 4 3006 121
16 6 5 305 105
16 6 6 14729 322
16 6 7 5089 143
16 6 8 9269 215
16 6 9 3111 132
16 6 10 215 83
16 6 11 127 94
16 6 12 7113 184
16 6 13 80 96
16 6 14 223 91
16 6 15 468 91
16 6 16 4728 135
16 6 17 919 113
16 6 18 1224 105
16 6 19 668 154
16 6 20 2165 124
16 6 21 517 96
16 7 0 1263 132
16 7 1 72 105
16 7 2 9943 237
16 7 3 198 69
16 7 4 558 113
16 7 5 308 105
16 7 6 4995 129
16 7 7 10702 234
16 7 8 2957 143
16 7 9 248 113
16 7 10 10628 223
16 7 11 165 80
16 7 12 4651 165
16 7 13 1672 138
16 7 14 -22 116
16 7 15 -132 110
16 7 16 228 105
16 7 17 924 99
16 7 18 8227 190
16 7 19 223 116
16 7 20 314 110
16 7 21 404 165
16 8 0 21504 528
16 8 1 484 107
16 8 2 3752 138
16 8 3 138 96
16 8 4 12955 242
16 8 5 58 91
16 8 6 6043 173
16 8 7 1620 129
16 8 8 10100 220
16 8 9 693 85
16 8 10 671 110
16 8 11 1604 105
16 8 12 1788 116
16 8 13 646 102
16 8 14 9330 231
16 8 15 429 113
16 8 16 2709 138
16 8 17 1141 129
16 8 18 1023 121
16 8 19 380 113
16 8 20 3009 146
16 9 0 15975 481
16 9 1 6689 182
16 9 2 9459 204
16 9 3 2751 116
16 9 4 12963 283
16 9 5 2283 135
16 9 6 33 105
16 9 7 2129 124
16 9 8 7968 195
16 9 9 4481 162
16 9 10 844 116
16 9 11 839 105
16 9 12 594 110
16 9 13 2055 157
16 9 14 5743 176
16 9 15 3182 149
16 9 16 316 129
16 9 17 1914 132
16 9 18 124 118
16 9 19 545 121
16 9 20 418 105
16 10 0 3980 209
16 10 1 2071 124
16 10 2 9924 270
16 10 3 14292 344
16 10 4 3279 138
16 10 5 39 105
16 10 6 1741 118
16 10 7 1499 116
16 10 8 325 94
16 10 9 1086 105
16 10 10 341 105
16 10 11 2178 116
16 10 12 3023 143
16 10 13 454 140
16 10 14 1304 127
16 10 15 2987 138
16 10 16 932 132
16 10 17 3097 146
16 10 18 490 129
16 10 19 94 129
16 11 0 5672 234
16 11 1 250 85
16 11 2 22326 413
16 11 3 781 99
16 11 4 8678 198
16 11 5 1430 118
16 11 6 1469 113
16 11 7 396 102
16 11 8 -14 107
16 11 9 1243 118
16 11 10 2022 138
16 11 11 -88 110
16 11 12 7922 234
16 11 13 5135 176
16 11 14 2225 135
16 11 15 245 102
16 11 16 6048 212
16 11 17 649 118
16 11 18 2088 149
16 11 19 377 154
16 12 0 872 171
16 12 1 11676 286
16 12 2 9938 239
16 12 3 1947 129
16 12 4 121 116
16 12 5 13310 333
16 12 6 7883 212
16 12 7 4951 204
16 12 8 2476 129
16 12 9 217 110
16 12 10 3347 162
16 12 11 828 102
16 12 12 9319 245
16 12 13 6568 204
16 12 14 2443 138
16 12 15 2352 143
16 12 16 2957 146
16 12 17 1230 135
16 12 18 941 127
16 13 0 759 198
16 13 1 9434 261
16 13 2 7451 267
16 13 3 15585 360
16 13 4 1356 140
16 13 5 2253 146
16 13 6 3463 157
16 13 7 1397 146
16 13 8 278 116
16 13 9 4651 182
16 13 10 2621 146
16 13 11 10458 250
16 13 12 1018 118
16 13 13 3405 149
16 13 14 -61 118
16 13 15 5226 215
16 13 16 -22 127
16 13 17 905 132
16 14 1 501 113
16 14 2 6414 201
16 14 3 99 118
16 14 4 2965 193
16 14 5 1890 151
16 14 6 624 116
16 14 7 7036 286
16 14 8 968 118
16 14 9 699 113
16 14 10 718 118
16 14 11 -47 116
16 14 12 121 127
16 14 13 171 118
16 14 14 1714 143
16 14 15 858 129
16 14 16 2214 143
16 14 17 514 319
16 15 0 5394 245
16 15 1 1689 116
16 15 2 580 116
16 15 3 707 116
16 15 4 1034 116
16 15 5 4013 149
16 15 6 173 121
16 15 7 2602 127
16 15 8 457 107
16 15 9 4519 151
16 15 10 371 116
16 15 11 5273 173
16 15 12 61 129
16 15 13 520 179
16 15 14 250 129
16 15 15 3939 168
16 15 16 600 215
16 16 0 23869 630
16 16 1 4860 223
16 16 2 864 113
16 16 3 3394 168
16 16 4 4321 176
16 16 5 22456 484
16 16 6 -99 116
16 16 7 2470 165
16 16 8 657 113
16 16 9 9996 217
16 16 10 2035 138
16 16 11 1846 129
16 16 12 699 121
16 16 13 4203 160
16 16 14 1378 124
16 16 15 7737 338
16 17 0 462 143
16 17 1 591 105
16 17 2 822 118
16 17 3 228 107
16 17 4 4024 171
16 17 5 465 116
16 17 6 272 102
16 17 7 3320 206
16 17 8 1697 132
16 17 9 96 113
16 17 10 -138 113
16 17 11 985 118
16 17 12 2833 160
16 17 13 622 118
16 17 14 396 267
16 18 0 1227 212
16 18 1 369 118
16 18 2 5097 165
16 18 3 820 107
16 18 4 413 107
16 18 5 440 113
16 18 6 121 102
16 18 7 294 96
16 18 8 784 118
16 18 9 121 105
16 18 10 322 110
16 18 11 1172 140
16 18 12 135 132
16 19 0 619 146
16 19 1 1362 132
16 19 2 542 138
16 19 3 707 129
16 19 4 1763 138
16 19 5 1023 116
16 19 6 -39 107
16 19 7 3430 195
16 19 8 -113 127
16 19 9 355 138
16 19 10 2002 151
16 19 11 355 135
16 20 0 239 226
16 20 1 7924 190
16 20 2 506 107
16 20 3 7201 286
16 20 4 -33 129
16 20 5 15015 407
16 20 6 195 121
16 20 7 5562 209
16 20 8 -50 127
16 20 9 12716 448
16 21 0 1007 198
16 21 1 715 129
16 21 2 396 124
16 21 3 806 121
16 21 4 157 132
16 21 5 748 143
16 21 6 -105 157
17 1 0 74 113
17 1 1 7014 151
17 1 2 91 83
17 1 3 4552 160
17 1 4 2046 96
17 1 5 18382 429
17 1 6 272 113
17 1 7 402 91
17 1 8 2151 107
17 1 9 14982 501
17 1 10 9847 184
17 1 11 187 74
17 1 12 8381 198
17 1 13 1502 96
17 1 14 4500 146
17 1 15 1029 127
17 1 16 107 94
17 1 17 553 102
17 1 18 204 94
17 1 19 7460 234
17 1 20 157 110
17 1 21 -72 215
17 2 0 3686 154
17 2 1 776 80
17 2 2 2649 121
17 2 3 3793 127
17 2 4 894 96
17 2 5 3306 113
17 2 6 1722 110
17 2 7 696 140
17 2 8 212 85
17 2 9 4382 215
17 2 10 380 77
17 2 11 4805 127
17 2 12 305 88
17 2 13 844 77
17 2 14 1152 96
17 2 15 270 94
17 2 16 300 85
17 2 17 666 121
17 2 18 154 96
17 2 19 1095 173
17 2 20 -184 132
17 3 1 168 105
17 3 2 3859 127
17 3 3 3455 107
17 3 4 74 91
17 3 5 1356 91
17 3 6 1007 88
17 3 7 12102 237
17 3 8 3411 135
17 3 9 4835 143
17 3 10 11 94
17 3 11 3042 102
17 3 12 2789 107
17 3 13 2398 110
17 3 14 -146 91
17 3 15 -33 105
17 3 16 223 96
17 3 17 1331 110
17 3 18 4417 165
17 3 19 143 107
17 3 20 143 105
17 4 0 17249 388
17 4 1 -171 94
17 4 2 1318 165
17 4 3 795 110
17 4 4 77 72
17 4 5 1141 116
17 4 6 4461 160
17 4 7 4203 228
17 4 8 270 83
17 4 9 5930 160
17 4 10 1221 121
17 4 11 869 83
17 4 12 3243 154
17 4 13 655 107
17 4 14 388 113
17 4 15 184 105
17 4 16 96 184
17 4 17 1040 143
17 4 18 1826 135
17 4 19 325 96
17 4 20 998 116
17 5 0 1661 127
17 5 1 9379 212
17 5 2 12361 261
17 5 3 5520 143
17 5 4 3163 132
17 5 5 341 99
17 5 6 3092 149
17 5 7 14 94
17 5 8 2104 113
17 5 9 4687 165
17 5 10 572 96
17 5 11 2984 121
17 5 12 151 116
17 5 13 2789 116
17 5 14 721 121
17 5 15 943 107
17 5 16 -121 99
17 5 17 1235 113
17 5 18 503 138
17 5 19 1909 132
17 5 20 206 94
17 6 0 619 143
17 6 1 7878 261
17 6 2 12614 253
17 6 3 4434 160
17 6 4 685 121
17 6 5 674 91
17 6 6 5421 182
17 6 7 294 99
17 6 8 13291 341
17 6 9 448 102
17 6 10 2594 135
17 6 11 1249 127
17 6 12 1571 127
17 6 13 1947 116
17 6 14 140 94
17 6 15 1472 105
17 6 16 1381 129
17 6 17 396 91
17 6 18 1483 160
17 6 19 1623 116
17 6 20 -44 121
17 7 0 67661 1705
17 7 1 61 91
17 7 2 2002 124
17 7 3 160 102
17 7 4 21210 352
17 7 5 6755 220
17 7 6 0 116
17 7 7 1263 116
17 7 8 6816 206
17 7 9 2426 160
17 7 10 479 110
17 7 11 377 138
17 7 12 4500 157
17 7 13 2316 149
17 7 14 3870 176
17 7 15 655 107
17 7 16 1359 124
17 7 17 448 105
17 7 18 6791 267
17 7 19 908 135
17 8 0 5127 294
17 8 1 -39 110
17 8 2 2877 154
17 8 3 2517 138
17 8 4 13222 311
17 8 5 47 99
17 8 6 -63 91
17 8 7 242 99
17 8 8 283 102
17 8 9 4442 140
17 8 10 407 107
17 8 11 190 99
17 8 12 435 105
17 8 13 -94 88
17 8 14 3034 146
17 8 15 19 105
17 8 16 432 121
17 8 17 2583 160
17 8 18 429 138
17 8 19 11 118
17 9 0 699 187
17 9 1 300 110
17 9 2 7270 190
17 9 3 443 96
17 9 4 3361 138
17 9 5 -179 118
17 9 6 5237 162
17 9 7 4569 151
17 9 8 -160 107
17 9 9 690 132
17 9 10 217 121
17 9 11 1062 129
17 9 12 4536 168
17 9 13 3 118
17 9 14 1945 143
17 9 15 19 116
17 9 16 190 129
17 9 17 242 116
17 9 18 3317 157
17 10 0 173 168
17 10 1 814 107
17 10 2 525 118
17 10 3 41 102
17 10 4 228 91
17 10 5 1428 107
17 10 6 743 105
17 10 7 765 116
17 10 8 729 118
17 10 9 437 118
17 10 10 509 105
17 10 11 193 113
17 10 12 2726 146
17 10 13 -176 127
17 10 14 393 116
17 10 15 129 113
17 10 16 910 132
17 10 17 28 124
17 10 18 61 138
17 11 0 18995 523
17 11 1 -179 129
17 11 2 1857 124
17 11 3 132 121
17 11 4 6225 215
17 11 5 -102 124
17 11 6 4118 146
17 11 7 363 116
17 11 8 6315 217
17 11 9 1183 116
17 11 10 2817 143
17 11 11 -74 124
17 11 12 404 129
17 11 13 193 129
17 11 14 3768 143
17 11 15 215 132
17 11 16 498 143
17 11 17 19 105
17 12 0 10793 575
17 12 1 7006 209
17 12 2 633 113
17 12 3 550 118
17 12 4 21421 479
17 12 5 2775 138
17 12 6 754 121
17 12 7 655 127
17 12 8 -58 102
17 12 9 22 99
17 12 10 96 121
17 12 11 -83 132
17 12 12 2674 149
17 12 13 1747 140
17 12 14 3733 184
17 12 15 2335 193
17 12 16 924 143
17 13 0 18223 622
17 13 1 2880 143
17 13 2 402 140
17 13 3 12922 371
17 13 4 9025 272
17 13 5 9338 237
17 13 6 523 129
17 13 7 99 110
17 13 8 3028 143
17 13 9 1103 127
17 13 10 4891 168
17 13 11 2415 138
17 13 12 237 118
17 13 13 154 121
17 13 14 5650 190
17 13 15 6629 234
17 13 16 985 171
17 14 0 435 176
17 14 1 110 129
17 14 2 14823 355
17 14 3 242 116
17 14 4 418 138
17 14 5 336 124
17 14 6 3273 151
17 14 7 121 127
17 14 8 2209 127
17 14 9 1177 140
17 14 10 -303 138
17 14 11 1774 129
17 14 12 94 129
17 14 13 -19 124
17 14 14 536 129
17 14 15 388 135
17 15 0 3193 220
17 15 1 17683 437
17 15 2 1505 129
17 15 3 8208 215
17 15 4 2432 154
17 15 5 1455 149
17 15 6 839 127
17 15 7 14751 314
17 15 8 4913 184
17 15 9 4505 173
17 15 10 -116 121
17 15 11 4151 154
17 15 12 2828 149
17 15 13 11588 270
17 15 14 129 132
17 16 0 1573 176
17 16 1 6794 182
17 16 2 -102 146
17 16 3 8 110
17 16 4 4676 193
17 16 5 6824 242
17 16 6 2090 132
17 16 7 1026 132
17 16 8 -85 124
17 16 9 14 116
17 16 10 0 118
17 16 11 1829 135
17 16 12 256 149
17 16 13 -99 201
17 17 0 1265 289
17 17 1 1122 121
17 17 2 6037 171
17 17 3 330 110
17 17 4 1884 157
17 17 5 4849 168
17 17 6 4090 179
17 17 7 14 113
17 17 8 2035 121
17 17 9 1373 129
17 17 10 6769 231
17 17 11 575 132
17 18 0 1868 190
17 18 1 1075 118
17 18 2 418 129
17 18 3 9924 242
17 18 4 2030 124
17 18 5 3056 149
17 18 6 -19 110
17 18 7 9060 253
17 18 8 410 127
17 18 9 7553 253
17 18 10 1081 212
17 19 0 894 198
17 19 1 1884 143
17 19 2 3149 248
17 19 3 393 146
17 19 4 3570 165
17 19 5 399 129
17 19 6 4417 179
17 19 7 58 129
17 19 8 7069 303
17 20 0 -432 382
17 20 1 12903 415
17 20 2 94 129
17 20 3 388 146
17 20 4 734 135
17 20 5 4030 303
18 0 1 8208 344
18 0 2 -72 127
18 0 3 176 157
18 0 4 7526 292
18 0 5 26095 737
18 0 6 179 193
18 0 7 671 154
18 0 9 21826 630
18 0 10 4384 270
18 0 11 4563 275
18 0 12 4824 220
18 0 13 4357 204
18 0 14 -69 118
18 0 15 9522 446
18 0 16 -157 110
18 0 17 437 129
18 0 18 674 165
18 0 19 2850 314
18 1 0 7553 355
18 1 1 789 91
18 1 2 795 96
18 1 3 11145 311
18 1 4 3424 140
18 1 5 3702 143
18 1 6 281 94
18 1 7 3854 121
18 1 8 204 88
18 1 9 586 91
18 1 10 468 91
18 1 11 789 102
18 1 12 1458 105
18 1 13 3078 113
18 1 14 -116 94
18 1 15 1367 102
18 1 16 424 113
18 1 17 319 96
18 1 18 468 118
18 1 19 245 107
18 2 0 3603 286
18 2 1 784 91
18 2 2 39 91
18 2 3 921 88
18 2 4 1183 99
18 2 5 3554 220
18 2 6 1048 96
18 2 7 2445 124
18 2 8 162 91
18 2 9 822 88
18 2 10 3188 157
18 2 11 633 99
18 2 12 234 102
18 2 13 567 102
18 2 14 391 94
18 2 15 3221 193
18 2 16 -74 102
18 2 17 520 121
18 2 18 231 165
18 2 19 171 146
18 3 0 1163 154
18 3 1 -50 77
18 3 2 5573 187
18 3 3 1400 94
18 3 4 2632 113
18 3 5 2608 127
18 3 6 685 88
18 3 7 2178 138
18 3 8 649 113
18 3 9 7638 289
18 3 10 369 88
18 3 11 413 99
18 3 12 1345 171
18 3 13 270 83
18 3 14 132 96
18 3 15 -124 94
18 3 16 908 127
18 3 17 778 102
18 3 18 242 113
18 3 19 1070 107
18 4 0 -61 107
18 4 1 4321 129
18 4 2 14512 380
18 4 3 3664 127
18 4 4 129 121
18 4 5 10188 212
18 4 6 5303 220
18 4 7 3430 154
18 4 8 1606 105
18 4 9 5413 138
18 4 10 124 113
18 4 11 586 96
18 4 12 1389 107
18 4 13 6797 206
18 4 14 743 116
18 4 15 4736 162
18 4 16 822 113
18 4 17 696 99
18 4 18 1373 132
18 4 19 1532 149
18 5 0 4192 261
18 5 1 773 116
18 5 2 52 88
18 5 3 -85 91
18 5 4 1400 96
18 5 5 2657 127
18 5 6 3015 118
18 5 7 4604 151
18 5 8 509 99
18 5 9 28 88
18 5 10 1815 138
18 5 11 33 94
18 5 12 135 110
18 5 13 14 94
18 5 14 314 116
18 5 15 1001 135
18 5 16 492 121
18 5 17 -22 110
18 5 18 479 127
18 6 0 828 165
18 6 1 1235 116
18 6 2 77 91
18 6 3 -105 83
18 6 4 16283 360
18 6 5 1747 110
18 6 6 528 129
18 6 7 7919 190
18 6 8 7820 206
18 6 9 292 107
18 6 10 4954 168
18 6 11 2203 171
18 6 12 839 113
18 6 13 363 121
18 6 14 759 110
18 6 15 591 121
18 6 16 1238 138
18 6 17 1097 107
18 6 18 875 143
18 7 0 10188 272
18 7 1 -69 110
18 7 2 124 83
18 7 3 206 107
18 7 4 14149 369
18 7 5 2426 105
18 7 6 448 124
18 7 7 2371 146
18 7 8 729 140
18 7 9 118 124
18 7 10 2740 140
18 7 11 1326 138
18 7 12 19 127
18 7 13 204 124
18 7 14 701 116
18 7 15 69 96
18 7 16 1147 118
18 7 17 470 110
18 7 18 -66 102
18 8 0 4676 204
18 8 1 960 124
18 8 2 9974 226
18 8 3 1268 132
18 8 4 1042 124
18 8 5 2156 132
18 8 6 124 102
18 8 7 4824 168
18 8 8 1254 116
18 8 9 4178 143
18 8 10 1901 118
18 8 11 2121 124
18 8 12 2990 168
18 8 13 1342 132
18 8 14 366 99
18 8 15 1119 143
18 8 16 344 113
18 8 17 1386 143
18 9 0 9003 300
18 9 1 226 127
18 9 2 11511 217
18 9 3 168 121
18 9 4 542 129
18 9 5 -63 118
18 9 6 4591 193
18 9 7 173 107
18 9 8 327 116
18 9 9 380 135
18 9 10 2872 165
18 9 11 2022 146
18 9 12 9949 289
18 9 13 176 129
18 9 14 371 129
18 9 15 -286 151
18 9 16 701 138
18 9 17 -63 157
18 10 0 5947 347
18 10 1 814 118
18 10 2 18434 371
18 10 3 -157 124
18 10 4 523 113
18 10 5 1763 127
18 10 6 10983 338
18 10 7 2509 143
18 10 8 316 127
18 10 9 809 129
18 10 10 3576 162
18 10 11 3097 171
18 10 12 2786 162
18 10 13 726 135
18 10 14 3276 157
18 10 15 1705 140
18 10 16 2198 143
18 11 0 33 184
18 11 1 2591 154
18 11 2 1326 129
18 11 3 3309 149
18 11 4 789 113
18 11 5 2547 146
18 11 6 157 124
18 11 7 226 124
18 11 8 448 124
18 11 9 569 129
18 11 10 319 129
18 11 11 -94 129
18 11 12 432 118
18 11 13 1084 149
18 11 14 1257 162
18 11 15 360 129
18 12 0 30157 842
18 12 1 5793 248
18 12 2 17678 506
18 12 3 4272 154
18 12 4 21996 484
18 12 5 635 124
18 12 6 853 124
18 12 7 176 116
18 12 8 9239 217
18 12 9 2789 151
18 12 10 6761 239
18 12 11 2605 154
18 12 12 12895 292
18 12 13 2093 143
18 12 14 6802 242
18 12 15 2035 160
18 13 0 -165 184
18 13 1 525 138
18 13 2 8342 212
18 13 3 8 143
18 13 4 611 143
18 13 5 215 132
18 13 6 1890 135
18 13 7 182 132
18 13 8 -85 113
18 13 9 715 146
18 13 10 212 138
18 13 11 -132 127
18 13 12 99 132
18 13 13 140 143
18 13 14 1042 165
18 14 0 4500 242
18 14 1 8761 259
18 14 2 404 124
18 14 3 7341 209
18 14 4 858 127
18 14 5 1843 132
18 14 6 2770 143
18 14 7 2107 132
18 14 8 446 132
18 14 9 6434 182
18 14 10 792 121
18 14 11 1986 154
18 14 12 2740 179
18 14 13 4858 278
18 15 0 11442 446
18 15 1 3185 171
18 15 2 80 113
18 15 3 1683 135
18 15 4 2707 143
18 15 5 1086 132
18 15 6 85 121
18 15 7 919 124
18 15 8 190 127
18 15 9 1417 132
18 15 10 490 149
18 15 11 1480 160
18 15 12 311 187
18 16 0 1928 209
18 16 1 1672 135
18 16 2 3213 151
18 16 3 377 124
18 16 4 151 121
18 16 5 594 124
18 16 6 1051 129
18 16 7 3705 182
18 16 8 -8 143
18 16 9 165 127
18 16 10 550 149
18 17 0 118 176
18 17 1 2682 146
18 17 2 1089 118
18 17 3 28 129
18 17 4 41 116
18 17 5 3213 157
18 17 6 -39 124
18 17 7 2192 184
18 17 8 413 138
18 17 9 8565 380
18 18 0 -190 198
18 18 1 272 154
18 18 2 506 135
18 18 3 -69 157
18 18 4 641 127
18 18 5 66 143
18 18 6 157 173
18 18 7 382 193
18 19 0 652 264
18 19 1 -50 168
18 19 2 -179 253
19 1 0 446 127
19 1 1 223 88
19 1 2 938 102
19 1 3 10246 206
19 1 4 707 110
19 1 5 314 99
19 1 6 646 91
19 1 7 8994 193
19 1 8 83 113
19 1 9 457 135
19 1 10 1252 105
19 1 11 4057 135
19 1 12 83 88
19 1 13 3276 132
19 1 14 1925 113
19 1 15 -28 94
19 1 16 1103 118
19 1 17 4065 187
19 1 18 363 132
19 2 0 897 135
19 2 1 3400 118
19 2 2 1020 135
19 2 3 14066 380
19 2 4 921 94
19 2 5 3424 195
19 2 6 1128 129
19 2 7 8384 322
19 2 8 176 99
19 2 9 311 94
19 2 10 -33 88
19 2 11 9952 193
19 2 12 597 102
19 2 13 5641 187
19 2 14 -85 77
19 2 15 3881 162
19 2 16 -99 132
19 2 17 2291 165
19 3 0 1604 149
19 3 1 116 83
19 3 2 2302 116
19 3 3 1053 88
19 3 4 66 91
19 3 5 1689 110
19 3 6 256 91
19 3 7 146 83
19 3 8 165 96
19 3 9 5009 154
19 3 10 437 91
19 3 11 820 88
19 3 12 261 91
19 3 13 220 99
19 3 14 -129 160
19 3 15 921 107
19 3 16 591 110
19 3 17 690 116
19 4 0 83 118
19 4 1 204 94
19 4 2 118 85
19 4 3 -96 88
19 4 4 470 151
19 4 5 839 132
19 4 6 4566 129
19 4 7 4071 201
19 4 8 1348 121
19 4 9 8315 352
19 4 10 1117 99
19 4 11 2239 113
19 4 12 1565 116
19 4 13 575 110
19 4 14 344 105
19 4 15 325 116
19 4 16 -132 96
19 4 17 465 102
19 5 0 4937 212
19 5 1 707 129
19 5 2 102 85
19 5 3 657 88
19 5 4 11291 278
19 5 5 14 85
19 5 6 509 102
19 5 7 297 99
19 5 8 943 138
19 5 9 374 80
19 5 10 454 105
19 5 11 578 116
19 5 12 226 110
19 5 13 413 107
19 5 14 822 116
19 5 15 226 129
19 5 16 -58 113
19 5 17 413 135
19 6 0 3947 217
19 6 1 3592 132
19 6 2 226 102
19 6 3 -173 91
19 6 4 1472 162
19 6 5 349 99
19 6 6 231 105
19 6 7 770 135
19 6 8 253 102
19 6 9 4904 151
19 6 10 371 135
19 6 11 19 116
19 6 12 319 113
19 6 13 66 118
19 6 14 168 94
19 6 15 -6 99
19 6 16 877 107
19 6 17 69 248
19 7 0 248 140
19 7 1 479 118
19 7 2 7960 217
19 7 3 382 99
19 7 4 360 127
19 7 5 157 113
19 7 6 1568 127
19 7 7 209 121
19 7 8 -58 138
19 7 9 1403 146
19 7 10 116 124
19 7 11 -253 94
19 7 12 1535 132
19 7 13 135 135
19 7 14 165 113
19 7 15 349 118
19 7 16 597 116
19 8 0 2731 215
19 8 1 536 127
19 8 2 578 140
19 8 3 124 110
19 8 4 10617 292
19 8 5 899 113
19 8 6 396 107
19 8 7 2396 157
19 8 8 1439 121
19 8 9 187 102
19 8 10 1219 116
19 8 11 217 127
19 8 12 1829 154
19 8 13 1298 113
19 8 14 -58 113
19 8 15 105 121
19 8 16 1183 204
19 9 0 7839 278
19 9 1 3889 157
19 9 2 -110 121
19 9 3 261 121
19 9 4 1782 121
19 9 5 -36 113
19 9 6 50 129
19 9 7 3207 165
19 9 8 663 116
19 9 9 1771 160
19 9 10 2676 165
19 9 11 338 132
19 9 12 248 146
19 9 13 303 124
19 9 14 1139 135
19 9 15 58 146
19 10 0 9137 426
19 10 1 424 132
19 10 2 5432 179
19 10 3 58 124
19 10 4 5017 184
19 10 5 146 157
19 10 6 6057 193
19 10 7 -110 132
19 10 8 1617 140
19 10 9 1155 154
19 10 10 11698 275
19 10 11 259 143
19 10 12 688 146
19 10 13 -239 127
19 10 14 6802 212
19 11 0 7275 289
19 11 1 -94 143
19 11 2 5122 195
19 11 3 297 129
19 11 4 1323 135
19 11 5 330 124
19 11 6 1661 143
19 11 7 366 127
19 11 8 635 132
19 11 9 1034 149
19 11 10 1136 146
19 11 11 198 146
19 11 12 809 138
19 11 13 -50 140
19 12 0 3716 239
19 12 1 121 124
19 12 2 1249 138
19 12 3 1064 132
19 12 4 2476 151
19 12 5 358 140
19 12 6 127 132
19 12 7 2145 165
19 12 8 572 132
19 12 9 66 129
19 12 10 1532 135
19 12 11 451 160
19 12 12 113 138
19 13 0 289 173
19 13 1 -231 118
19 13 2 10851 303
19 13 3 734 132
19 13 4 1700 140
19 13 5 1403 154
19 13 6 5353 187
19 13 7 146 127
19 13 8 1119 138
19 13 9 135 135
19 13 10 127 149
19 13 11 -138 154
19 13 12 6274 344
19 14 0 286 179
19 14 1 3309 162
19 14 2 5581 195
19 14 3 3218 168
19 14 4 96 140
19 14 5 121 127
19 14 6 1205 140
19 14 7 1601 135
19 14 8 440 143
19 14 9 110 149
19 14 10 1458 165
19 15 0 751 184
19 15 1 3103 157
19 15 2 1458 143
19 15 3 413 127
19 15 4 1161 143
19 15 5 1785 151
19 15 6 1496 160
19 15 7 96 138
19 15 8 275 151
19 15 9 385 182
19 16 0 531 190
19 16 1 1439 146
19 16 2 765 138
19 16 3 325 140
19 16 4 171 151
19 16 5 976 154
19 16 6 509 140
19 16 7 1494 184
19 17 0 179 195
19 17 1 481 140
19 17 2 22 184
19 17 3 1590 176
19 17 4 2420 382
19 17 5 1108 267
20 0 0 3166 248
20 0 1 767 146
20 0 2 13615 410
20 0 3 1155 154
20 0 4 1507 140
20 0 5 1128 228
20 0 6 3633 261
20 0 7 468 143
20 0 8 0 143
20 0 9 2088 157
20 0 10 1934 135
20 0 11 -118 140
20 0 12 470 140
20 0 13 831 129
20 0 14 7184 358
20 0 15 1103 305
20 0 16 1348 239
20 1 0 19 300
20 1 1 13747 250
20 1 2 440 94
20 1 3 1928 102
20 1 4 256 110
20 1 5 11338 231
20 1 6 264 91
20 1 7 1947 129
20 1 8 545 107
20 1 9 2973 146
20 1 10 1053 113
20 1 11 2613 116
20 1 12 349 96
20 1 13 2310 113
20 1 14 72 110
20 1 15 6186 184
20 1 16 410 135
20 2 0 7226 297
20 2 1 828 107
20 2 2 2382 132
20 2 3 2742 113
20 2 4 2310 135
20 2 5 2830 151
20 2 6 8 91
20 2 7 1114 105
20 2 8 1117 102
20 2 9 1191 110
20 2 10 176 94
20 2 11 4219 154
20 2 12 468 113
20 2 13 1703 110
20 2 14 171 110
20 2 15 451 135
20 2 16 2572 157
20 3 0 451 129
20 3 1 1205 113
20 3 2 891 113
20 3 3 140 85
20 3 4 2346 113
20 3 5 3625 143
20 3 6 201 88
20 3 7 1738 99
20 3 8 259 151
20 3 9 3391 143
20 3 10 539 121
20 3 11 759 110
20 3 12 39 91
20 3 13 91 113
20 3 14 638 110
20 3 15 4258 160
20 4 0 8989 391
20 4 1 583 105
20 4 2 2437 157
20 4 3 1777 116
20 4 4 1824 124
20 4 5 743 99
20 4 6 25 102
20 4 7 4118 140
20 4 8 2572 140
20 4 9 336 105
20 4 10 872 105
20 4 11 575 99
20 4 12 1128 118
20 4 13 710 118
20 4 14 -187 105
20 4 15 19 110
20 5 0 3125 198
20 5 1 102 88
20 5 2 267 96
20 5 3 1147 127
20 5 4 107 88
20 5 5 2616 116
20 5 6 154 85
20 5 7 3545 162
20 5 8 195 85
20 5 9 253 91
20 5 10 429 105
20 5 11 641 151
20 5 12 525 102
20 5 13 2685 162
20 5 14 25 107
20 5 15 -264 127
20 6 0 660 184
20 6 1 250 94
20 6 2 2503 193
20 6 3 429 107
20 6 4 374 99
20 6 5 679 110
20 6 6 4987 165
20 6 7 624 99
20 6 8 250 116
20 6 9 481 124
20 6 10 699 113
20 6 11 223 129
20 6 12 470 121
20 6 13 -195 140
20 6 14 1213 118
20 7 0 4140 270
20 7 1 77 116
20 7 2 14685 311
20 7 3 83 143
20 7 4 96 107
20 7 5 1439 138
20 7 6 1235 143
20 7 7 446 127
20 7 8 2264 168
20 7 9 -421 129
20 7 10 1015 132
20 7 11 1227 143
20 7 12 3537 171
20 7 13 440 107
20 7 14 -44 107
20 8 0 193 179
20 8 1 -415 124
20 8 2 -41 91
20 8 3 391 118
20 8 4 -55 102
20 8 5 1444 124
20 8 6 135 107
20 8 7 -107 121
20 8 8 160 121
20 8 9 127 105
20 8 10 6 118
20 8 11 517 132
20 8 12 28 110
20 8 13 360 113
20 9 0 2751 231
20 9 1 157 154
20 9 2 877 110
20 9 3 39 121
20 9 4 2214 143
20 9 5 -22 129
20 9 6 2002 143
20 9 7 883 146
20 9 8 388 127
20 9 9 127 116
20 9 10 2916 179
20 9 11 94 138
20 9 12 50 179
20 9 13 1340 226
20 10 0 355 253
20 10 1 44 135
20 10 2 1331 157
20 10 3 424 129
20 10 4 -80 151
20 10 5 47 151
20 10 6 187 146
20 10 7 -187 132
20 10 8 2134 157
20 10 9 267 154
20 10 10 234 154
20 10 11 212 162
20 10 12 1331 204
20 11 0 12188 432
20 11 1 69 129
20 11 2 6981 217
20 11 3 -132 135
20 11 4 3383 157
20 11 5 382 143
20 11 6 2987 157
20 11 7 -149 124
20 11 8 1623 138
20 11 9 52 146
20 11 10 4321 201
20 11 11 286 187
20 12 0 -168 190
20 12 1 50 135
20 12 2 41 121
20 12 3 344 127
20 12 4 -28 129
20 12 5 187 127
20 12 6 2594 160
20 12 7 -179 160
20 12 8 94 149
20 12 9 -187 140
20 12 10 1788 234
20 13 0 9173 341
20 13 1 707 138
20 13 2 -253 129
20 13 3 1408 140
20 13 4 4222 179
20 13 5 622 160
20 13 6 289 165
20 13 7 237 151
20 13 8 330 160
20 14 0 3424 283
20 14 1 -99 129
20 14 2 965 143
20 14 3 44 146
20 14 4 25 143
20 14 5 99 182
20 14 6 124 184
20 14 7 869 267
20 15 0 1807 242
20 15 1 -94 151
20 15 2 1331 149
20 15 3 -8 151
20 15 4 567 212
20 15 5 707 289
21 1 0 591 204
21 1 1 575 154
21 1 2 487 116
21 1 3 3199 124
21 1 4 168 102
21 1 5 1075 113
21 1 6 206 99
21 1 7 2896 113
21 1 8 124 96
21 1 9 278 94
21 1 10 88 118
21 1 11 883 110
21 1 12 -17 107
21 1 13 1194 121
21 1 14 99 140
21 2 0 707 237
21 2 1 2602 129
21 2 2 627 96
21 2 3 2932 121
21 2 4 1623 132
21 2 5 1538 132
21 2 6 17 96
21 2 7 330 96
21 2 8 2536 110
21 2 9 1887 127
21 2 10 58 94
21 2 11 3034 124
21 2 12 902 113
21 2 13 1499 124
21 3 0 4816 198
21 3 1 2198 140
21 3 2 294 96
21 3 3 1980 107
21 3 4 -19 96
21 3 5 1362 113
21 3 6 212 110
21 3 7 553 107
21 3 8 63 99
21 3 9 6395 215
21 3 10 289 121
21 3 11 3576 223
21 3 12 165 94
21 3 13 1571 138
21 4 0 63 124
21 4 1 355 94
21 4 2 1898 110
21 4 3 501 99
21 4 4 407 113
21 4 5 358 102
21 4 6 1755 110
21 4 7 1271 140
21 4 8 -41 121
21 4 9 69 118
21 4 10 509 107
21 4 11 512 105
21 4 12 8 105
21 4 13 -47 124
21 5 0 468 182
21 5 1 129 118
21 5 2 2178 127
21 5 3 685 96
21 5 4 25 99
21 5 5 1084 124
21 5 6 435 116
21 5 7 710 105
21 5 8 2715 127
21 5 9 2602 116
21 5 10 292 110
21 5 11 844 149
21 5 12 1557 270
21 5 13 168 281
21 6 0 2962 239
21 6 1 1359 140
21 6 2 2704 176
21 6 3 1191 127
21 6 4 2935 135
21 6 5 1315 110
21 6 6 1452 113
21 6 7 -74 107
21 6 8 2374 138
21 6 9 1185 113
21 6 10 4734 168
21 6 11 160 113
21 6 12 349 157
21 7 0 941 162
21 7 1 451 105
21 7 2 1282 171
21 7 3 193 99
21 7 4 3584 168
21 7 5 1348 138
21 7 6 3471 129
21 7 7 2063 154
21 7 8 85 102
21 7 9 410 99
21 7 10 2088 223
21 7 11 113 143
21 7 12 264 286
21 8 0 418 179
21 8 1 2000 146
21 8 2 -14 132
21 8 3 261 102
21 8 4 886 135
21 8 5 264 124
21 8 6 55 121
21 8 7 1439 132
21 8 8 297 121
21 8 9 360 124
21 8 10 2057 182
21 8 11 -36 336
21 9 0 8205 330
21 9 1 -61 149
21 9 2 2597 138
21 9 3 641 129
21 9 4 5597 182
21 9 5 993 157
21 9 6 2192 151
21 9 7 569 135
21 9 8 1279 154
21 9 9 382 160
21 9 10 421 184
21 10 0 99 338
21 10 1 113 149
21 10 2 2195 168
21 10 3 704 168
21 10 4 2891 171
21 10 5 -66 140
21 10 6 1747 179
21 10 7 198 149
21 10 8 6689 226
21 10 9 1078 231
21 11 0 300 182
21 11 1 457 135
21 11 2 2107 160
21 11 3 388 212
21 11 4 -193 157
21 11 5 303 160
21 11 6 622 162
21 11 7 1736 226
21 12 0 1241 179
21 12 1 -286 146
21 12 2 880 160
21 12 3 143 135
21 12 4 -72 149
21 12 5 1147 201
21 12 6 523 239
21 13 0 124 250
21 13 1 184 162
21 13 2 1163 220
21 13 3 -184 201
22 0 0 723 190
22 0 1 8337 391
22 0 2 -66 138
22 0 3 1417 360
22 0 4 481 154
22 0 5 2698 209
22 0 6 657 201
22 0 8 -204 173
22 0 9 4924 341
22 0 10 1793 206
22 0 11 539 223
22 1 0 3466 209
22 1 1 3 105
22 1 2 1587 124
22 1 3 190 107
22 1 4 666 99
22 1 5 578 118
22 1 6 718 102
22 1 7 531 96
22 1 8 864 105
22 1 9 611 127
22 1 10 -17 96
22 2 0 234 132
22 2 1 1348 135
22 2 2 1584 121
22 2 3 1100 132
22 2 4 358 99
22 2 5 292 96
22 2 6 91 91
22 2 7 1103 118
22 2 8 245 121
22 2 9 85 143
22 2 10 -6 118
22 2 11 611 228
22 3 0 74 138
22 3 1 839 113
22 3 2 2720 121
22 3 3 2225 121
22 3 4 418 110
22 3 5 1645 135
22 3 6 536 143
22 3 7 3573 226
22 3 8 520 121
22 3 9 393 143
22 3 10 2275 140
22 4 0 1177 135
22 4 1 -113 105
22 4 2 1161 116
22 4 3 36 105
22 4 4 1840 129
22 4 5 253 96
22 4 6 987 116
22 4 7 311 121
22 4 8 272 127
22 4 9 996 143
22 4 10 877 187
22 5 0 2841 294
22 5 1 1174 110
22 5 2 330 107
22 5 3 190 143
22 5 4 2822 127
22 5 5 600 105
22 5 6 553 154
22 5 7 429 146
22 5 8 2420 149
22 5 9 253 250
22 5 10 2828 451
22 6 0 3936 256
22 6 1 426 94
22 6 2 762 118
22 6 3 209 121
22 6 4 1009 132
22 6 5 -22 118
22 6 6 679 129
22 6 7 -322 206
22 6 8 853 149
22 7 0 182 168
22 7 1 201 102
22 7 2 -212 91
22 7 3 -154 99
22 7 4 198 143
22 7 5 231 179
22 7 6 1758 182
22 7 8 828 349
22 8 0 2489 267
22 8 1 116 129
22 8 2 2943 138
22 8 3 154 110
22 8 4 2553 157
22 8 5 198 149
22 8 6 3174 215
22 8 7 102 311
22 9 0 3160 275
22 9 1 149 160
22 9 2 1774 179
22 9 3 446 168
22 9 4 1678 182
22 9 5 -168 253
22 9 6 501 333
22 10 0 58 237
22 10 1 -121 176
22 10 2 0 347
22 10 3 1774 259
23 1 0 1012 149
23 1 1 531 113
23 1 2 820 105
23 1 3 220 140
23 1 4 223 116
23 1 5 -50 264
23 1 6 319 143
23 1 7 -294 151
23 2 0 165 140
23 2 1 -259 124
23 2 2 -281 138
23 2 3 -80 116
23 2 4 135 110
23 2 5 267 135
23 2 6 -358 143
23 2 7 1172 217
23 3 0 426 187
23 3 1 517 129
23 3 2 -63 162
23 3 3 437 118
23 3 4 509 231
23 3 5 633 187
23 3 6 608 173
23 4 0 369 135
23 4 1 -281 165
23 4 2 105 146
23 4 3 149 124
23 4 4 173 168
23 4 5 924 187
23 4 6 160 154
23 5 0 963 209
23 5 1 550 171
23 5 2 245 154
23 5 3 531 143
23 5 4 498 338
23 5 5 234 267
23 6 3 -85 179
23 6 4 987 253
23 7 1 283 190
loop_
_geom_angle_atom_site_label_1
_geom_angle_atom_site_label_2
_geom_angle_atom_site_label_3
_geom_angle
_geom_angle_site_symmetry_1
_geom_angle_site_symmetry_3
_geom_angle_publ_flag
O7 C1 C2 115.3(4) . . ?
O8 C1 C2 118.8(5) . . ?
O8 C1 O7 125.9(5) . . ?
C3 C2 C1 117.9(5) . . ?
C7 C2 C1 123.6(5) . . ?
C7 C2 C3 118.5(5) . . ?
H3 C3 C2 120.0(3) . . ?
C4 C3 C2 119.9(5) . . ?
C4 C3 H3 120.0(3) . . ?
H4 C4 C3 119.8(3) . . ?
C5 C4 C3 120.3(5) . . ?
C5 C4 H4 119.8(3) . . ?
C6 C5 C4 120.8(5) . . ?
O1 C5 C4 119.3(5) . . ?
O1 C5 C6 119.8(5) . . ?
H6 C6 C5 120.5(3) . . ?
C7 C6 C5 119.0(6) . . ?
C7 C6 H6 120.5(4) . . ?
C6 C7 C2 121.4(5) . . ?
H7 C7 C2 119.3(3) . . ?
H7 C7 C6 119.3(4) . . ?
O11 C8 C9 115.2(5) . . ?
O12 C8 C9 119.1(6) . . ?
O12 C8 O11 125.7(5) . . ?
C10 C9 C8 121.5(5) . . ?
C14 C9 C8 120.2(6) . . ?
C14 C9 C10 118.3(5) . . ?
H10 C10 C9 118.9(3) . . ?
C11 C10 C9 122.2(6) . . ?
C11 C10 H10 118.9(4) . . ?
H11 C11 C10 120.6(4) . . ?
C12 C11 C10 118.8(6) . . ?
C12 C11 H11 120.6(3) . . ?
C13 C12 C11 120.3(5) . . ?
O2 C12 C11 118.0(5) . . ?
O2 C12 C13 121.6(5) . . ?
H13 C13 C12 120.6(3) . . ?
C14 C13 C12 118.8(6) . . ?
C14 C13 H13 120.6(4) . . ?
C13 C14 C9 121.4(6) . . ?
H14 C14 C9 119.3(3) . . ?
H14 C14 C13 119.3(4) . . ?
O15 C15 C16 119.4(5) . . ?
O16 C15 C16 117.3(5) . . ?
O16 C15 O15 123.2(4) . . ?
C17 C16 C15 119.9(5) . . ?
C21 C16 C15 121.3(5) . . ?
C21 C16 C17 118.7(5) . . ?
H17 C17 C16 119.4(3) . . ?
C18 C17 C16 121.3(5) . . ?
C18 C17 H17 119.4(4) . . ?
H18 C18 C17 120.7(4) . . ?
C19 C18 C17 118.5(6) . . ?
C19 C18 H18 120.7(3) . . ?
C20 C19 C18 121.9(5) . . ?
O5 C19 C18 121.3(5) . . ?
O5 C19 C20 116.7(5) . . ?
H20 C20 C19 120.4(3) . . ?
C21 C20 C19 119.2(6) . . ?
C21 C20 H20 120.4(4) . . ?
C20 C21 C16 120.3(6) . . ?
H21 C21 C16 119.8(3) . . ?
H21 C21 C20 119.8(4) . . ?
O9 C22 C23 118.6(4) . . ?
O10 C22 C23 116.0(5) . . ?
O10 C22 O9 125.4(5) . . ?
C24 C23 C22 121.3(5) . . ?
C28 C23 C22 120.4(5) . . ?
C28 C23 C24 118.3(5) . . ?
H24 C24 C23 119.8(3) . . ?
C25 C24 C23 120.3(5) . . ?
C25 C24 H24 119.8(3) . . ?
H25 C25 C24 120.2(3) . . ?
C26 C25 C24 119.6(5) . . ?
C26 C25 H25 120.2(3) . . ?
C27 C26 C25 120.7(5) . . ?
O3 C26 C25 122.4(4) . . ?
O3 C26 C27 116.9(4) . . ?
H27 C27 C26 120.1(3) . . ?
C28 C27 C26 119.7(5) . . ?
C28 C27 H27 120.1(3) . . ?
C27 C28 C23 121.3(5) . . ?
H28 C28 C23 119.4(3) . . ?
H28 C28 C27 119.4(3) . . ?
O17 C29 C30 117.3(5) . . ?
O18 C29 C30 118.0(5) . . ?
O18 C29 O17 124.7(5) . . ?
C31 C30 C29 121.6(5) . . ?
C35 C30 C29 121.3(5) . . ?
C35 C30 C31 117.2(5) . . ?
H31 C31 C30 118.5(3) . . ?
C32 C31 C30 122.9(6) . . ?
C32 C31 H31 118.5(4) . . ?
H32 C32 C31 121.8(4) . . ?
C33 C32 C31 116.5(6) . . ?
C33 C32 H32 121.8(4) . . ?
C34 C33 C32 122.9(5) . . ?
O6 C33 C32 116.7(5) . . ?
O6 C33 C34 120.2(5) . . ?
H34 C34 C33 121.2(3) . . ?
C35 C34 C33 117.7(6) . . ?
C35 C34 H34 121.2(4) . . ?
C34 C35 C30 122.5(6) . . ?
H35 C35 C30 118.8(4) . . ?
H35 C35 C34 118.8(4) . . ?
O13 C36 C37 118.2(5) . . ?
O14 C36 C37 116.7(4) . . ?
O14 C36 O13 125.1(5) . . ?
C38 C37 C36 120.9(5) . . ?
C42 C37 C36 121.7(5) . . ?
C42 C37 C38 117.3(5) . . ?
H38 C38 C37 119.6(3) . . ?
C39 C38 C37 120.9(5) . . ?
C39 C38 H38 119.6(3) . . ?
H39 C39 C38 120.3(3) . . ?
C40 C39 C38 119.4(5) . . ?
C40 C39 H39 120.3(3) . . ?
C41 C40 C39 121.6(5) . . ?
O4 C40 C39 124.0(4) . . ?
O4 C40 C41 114.4(4) . . ?
H41 C41 C40 120.9(3) . . ?
C42 C41 C40 118.3(6) . . ?
C42 C41 H41 120.9(4) . . ?
C41 C42 C37 122.3(5) . . ?
H42 C42 C37 118.8(3) . . ?
H42 C42 C41 118.8(4) . . ?
O8 Fe1 O8 86.5(2) . 8 y
O12 Fe1 O8 90.46(15) 3 8 y
O12 Fe1 O8 90.46(15) 6_665 . y
O12 Fe1 O8 171.98(18) 3 . y
O12 Fe1 O8 171.98(18) 6_665 8 y
O12 Fe1 O12 91.6(2) 6_665 3 y
O19 Fe1 O8 94.67(15) . . y
O19 Fe1 O8 94.67(15) . 8 y
O19 Fe1 O12 92.95(15) . 6_665 y
O19 Fe1 O12 92.95(15) . 3 y
O22 Fe1 O8 86.08(17) . 8 y
O22 Fe1 O8 86.08(17) . . y
O22 Fe1 O12 86.33(17) . 3 y
O22 Fe1 O12 86.33(17) . 6_665 y
O22 Fe1 O19 179.0(2) . . y
O7 Fe2 O7 89.0(3) . 8 y
O9 Fe2 O7 165.22(16) 5_665 . y
O9 Fe2 O7 89.48(19) 4_665 . y
O9 Fe2 O7 89.48(19) 5_665 8 y
O9 Fe2 O7 165.22(16) 4_665 8 y
O9 Fe2 O9 88.2(2) 4_665 5_665 y
O19 Fe2 O7 97.69(17) . . y
O19 Fe2 O7 97.69(17) . 8 y
O19 Fe2 O9 97.09(15) . 5_665 y
O19 Fe2 O9 97.09(15) . 4_665 y
O20 Fe2 O7 83.01(16) . 8 y
O20 Fe2 O7 83.01(16) . . y
O20 Fe2 O9 82.21(14) . 5_665 y
O20 Fe2 O9 82.21(14) . 4_665 y
O20 Fe2 O19 179.0(2) . . y
O10 Fe3 O10 90.9(2) 5_665 4_665 y
O11 Fe3 O10 87.52(17) 3 5_665 y
O11 Fe3 O10 87.52(17) 6_665 4_665 y
O11 Fe3 O10 168.34(17) 3 4_665 y
O11 Fe3 O10 168.34(17) 6_665 5_665 y
O11 Fe3 O11 91.7(3) 6_665 3 y
O19 Fe3 O10 94.62(14) . 5_665 y
O19 Fe3 O10 94.62(14) . 4_665 y
O19 Fe3 O11 97.02(16) . 3 y
O19 Fe3 O11 97.02(16) . 6_665 y
O21 Fe3 O10 84.15(15) . 4_665 y
O21 Fe3 O10 84.15(15) . 5_665 y
O21 Fe3 O11 84.20(17) . 3 y
O21 Fe3 O11 84.20(17) . 6_665 y
O21 Fe3 O19 178.2(2) . . y
O14 Fe4 O14 92.4(3) 8_556 . y
O17 Fe4 O14 87.3(2) 5_666 8_556 y
O17 Fe4 O14 87.3(2) 4_665 . y
O17 Fe4 O14 170.22(16) 5_666 . y
O17 Fe4 O14 170.22(16) 4_665 8_556 y
O17 Fe4 O17 91.4(3) 4_665 5_666 y
O23 Fe4 O14 94.84(14) . 8_556 y
O23 Fe4 O14 94.84(14) . . y
O23 Fe4 O17 94.92(15) . 5_666 y
O23 Fe4 O17 94.92(15) . 4_665 y
O26 Fe4 O14 85.11(17) . . y
O26 Fe4 O14 85.11(17) . 8_556 y
O26 Fe4 O17 85.13(17) . 5_666 y
O26 Fe4 O17 85.13(17) . 4_665 y
O26 Fe4 O23 179.9(2) . . y
O13 Fe5 O13 93.0(2) 8_556 . y
O16 Fe5 O13 89.01(17) 2_556 8_556 y
O16 Fe5 O13 89.01(17) 7_665 . y
O16 Fe5 O13 169.68(16) 2_556 . y
O16 Fe5 O13 169.68(16) 7_665 8_556 y
O16 Fe5 O16 87.3(3) 7_665 2_556 y
O23 Fe5 O13 94.58(13) . 8_556 y
O23 Fe5 O13 94.58(13) . . y
O23 Fe5 O16 95.36(15) . 2_556 y
O23 Fe5 O16 95.36(15) . 7_665 y
O24 Fe5 O13 84.55(15) . . y
O24 Fe5 O13 84.55(15) . 8_556 y
O24 Fe5 O16 85.56(16) . 2_556 y
O24 Fe5 O16 85.56(16) . 7_665 y
O24 Fe5 O23 178.7(2) . . y
O15 Fe6 O15 87.3(2) 7_665 2_556 y
O18 Fe6 O15 90.33(16) 4_665 7_665 y
O18 Fe6 O15 169.87(17) 4_665 2_556 y
O18 Fe6 O15 90.33(16) 5_666 2_556 y
O18 Fe6 O15 169.87(17) 5_666 7_665 y
O18 Fe6 O18 90.3(2) 4_665 5_666 y
O23 Fe6 O15 94.90(15) . 2_556 y
O23 Fe6 O15 94.90(15) . 7_665 y
O23 Fe6 O18 95.11(14) . 4_665 y
O23 Fe6 O18 95.11(14) . 5_666 y
O25 Fe6 O15 86.36(17) . 7_665 y
O25 Fe6 O15 86.36(17) . 2_556 y
O25 Fe6 O18 83.66(16) . 5_666 y
O25 Fe6 O18 83.66(16) . 4_665 y
O25 Fe6 O23 178.2(2) . . y
P3 N1 P1 122.2(3) . . ?
P2 N2 P1 121.0(2) . . ?
P3 N3 P2 121.4(2) . . ?
P3 O1 C5 122.8(3) . . ?
P3 O2 C12 122.7(3) . . ?
P2 O3 C26 126.7(3) . . ?
P2 O4 C40 124.5(3) . . ?
P1 O5 C19 122.9(3) . . ?
P1 O6 C33 121.1(3) . . ?
Fe2 O7 C1 134.8(4) 8 . ?
Fe1 O8 C1 129.1(4) 8 . ?
Fe2 O9 C22 131.0(3) 5_665 . ?
Fe3 O10 C22 132.2(3) 4_665 . ?
Fe3 O11 C8 133.4(4) 3_545 . ?
Fe1 O12 C8 132.6(4) 3_545 . ?
Fe5 O13 C36 133.0(3) . . ?
Fe4 O14 C36 133.2(3) . . ?
Fe6 O15 C15 134.8(4) 2_456 . ?
Fe5 O16 C15 133.8(3) 2_456 . ?
Fe4 O17 C29 134.1(3) 5_666 . ?
Fe6 O18 C29 132.7(4) 5_666 . ?
Fe2 O19 Fe1 118.8(2) . . ?
Fe3 O19 Fe1 119.3(2) . . ?
Fe3 O19 Fe2 121.9(3) . . ?
H20a O20 Fe2 109.96(14) . . ?
H20a O20 Fe2 109.96(14) 8 . ?
H20a O20 H20a 38.6 8 . ?
H20b O20 Fe2 110.33(11) . . ?
H20b O20 Fe2 110.33(11) 8 . ?
H20b O20 H20a 132.9 8 . ?
H20b O20 H20a 103.9 . . ?
H20b O20 H20a 132.9 . 8 ?
H20b O20 H20a 103.9 8 8 ?
H20b O20 H20b 83.84(4) 8 . ?
H20a H20a O20 70.69(11) 8 . ?
H21a O21 Fe3 128.72(6) . . ?
H21a O21 Fe3 128.72(6) 8 . ?
H21a O21 H21a 90.96(6) 8 . ?
H21b O21 Fe3 128.53(7) 8 . ?
H21b O21 Fe3 128.53(7) . . ?
H21b O21 H21a 102.8 . . ?
H21b O21 H21a 37.3 8 . ?
H21b O21 H21a 102.8 8 8 ?
H21b O21 H21a 37.3 . 8 ?
H21b O21 H21b 90.93(5) . 8 ?
H21b H21a O21 71.3 8 . ?
H21a H21b O21 71.4 8 8 ?
H22a O22 Fe1 127.7494(7) 8 . ?
H22a O22 Fe1 127.7494(7) . . ?
H22a O22 H22a 104.50(7) . 8 ?
H22b O22 Fe1 127.7494(7) . . ?
H22b O22 Fe1 127.7494(7) 8 . ?
H22b O22 H22a 0.0 8 . ?
H22b O22 H22a 0.0 . 8 ?
H22b O22 H22a 104.5 8 8 ?
H22b O22 H22a 104.5 . . ?
H22b O22 H22b 104.50(7) 8 . ?
Fe5 O23 Fe4 120.2(2) . . ?
Fe6 O23 Fe4 120.0(2) . . ?
Fe6 O23 Fe5 119.74(19) . . ?
H24a O24 Fe5 128.58(12) 8_556 . ?
H24a O24 Fe5 128.58(12) . . ?
H24a O24 H24a 62.778(12) . 8_556 ?
H24b O24 Fe5 128.06(12) . . ?
H24b O24 Fe5 128.06(12) 8_556 . ?
H24b O24 H24a 103.4 8_556 8_556 ?
H24b O24 H24a 71.5 8_556 . ?
H24b O24 H24a 103.4 . . ?
H24b O24 H24a 71.5 . 8_556 ?
H24b O24 H24b 63.448(11) 8_556 . ?
H24a H24a O24 58.6 8_556 8_556 ?
H24b H24a O24 54.2 8_556 8_556 ?
H24a H24b O24 54.2 8_556 . ?
H24b H24b O24 58.3 8_556 . ?
H24b H24b H24a 89.76(9) 8_556 8_556 ?
H25a O25 Fe6 128.21(10) . . ?
H25a O25 Fe6 128.21(10) 8_556 . ?
H25a O25 H25a 78.22(8) 8_556 . ?
H25b O25 Fe6 128.11(10) . . ?
H25b O25 Fe6 128.11(10) 8_556 . ?
H25b O25 H25a 103.7 8_556 8_556 ?
H25b O25 H25a 103.7 . . ?
H25b O25 H25a 56.2 8_556 . ?
H25b O25 H25a 56.2 . 8_556 ?
H25b O25 H25b 77.8 . 8_556 ?
H25b H25a O25 61.9 8_556 . ?
H25a H25b O25 61.9 8_556 8_556 ?
H26a O26 Fe4 127.75000(13) . . ?
H26a O26 Fe4 127.75000(13) 8_556 . ?
H26a O26 H26a 104.50(7) 8_556 . ?
H26b O26 Fe4 127.75000(13) 8_556 . ?
H26b O26 Fe4 127.75000(13) . . ?
H26b O26 H26a 0.0 . 8_556 ?
H26b O26 H26a 0.0 8_556 . ?
H26b O26 H26a 104.5 8_556 8_556 ?
H26b O26 H26a 104.5 . . ?
H26b O26 H26b 104.50(7) . 8_556 ?
N2 P1 N1 117.5(2) . . ?
O5 P1 N1 110.2(2) . . ?
O5 P1 N2 109.77(19) . . ?
O6 P1 N1 108.01(19) . . ?
O6 P1 N2 110.6(2) . . ?
O6 P1 O5 99.14(16) . . ?
N3 P2 N2 119.2(2) . . ?
O3 P2 N2 105.67(19) . . ?
O3 P2 N3 110.75(19) . . ?
O4 P2 N2 109.81(19) . . ?
O4 P2 N3 105.42(19) . . ?
O4 P2 O3 105.2(2) . . ?
N3 P3 N1 117.8(2) . . ?
O1 P3 N1 110.5(2) . . ?
O1 P3 N3 109.7(2) . . ?
O2 P3 N1 106.7(2) . . ?
O2 P3 N3 111.3(2) . . ?
O2 P3 O1 99.10(18) . . ?
loop_
_geom_bond_atom_site_label_1
_geom_bond_atom_site_label_2
_geom_bond_distance
_geom_bond_site_symmetry_2
_geom_bond_publ_flag
C1 C2 1.522(7) . ?
C1 O7 1.233(7) . ?
C1 O8 1.254(6) . ?
C2 C3 1.367(7) . ?
C2 C7 1.373(8) . ?
C3 H3 0.9500 . ?
C3 C4 1.409(8) . ?
C4 H4 0.9500 . ?
C4 C5 1.325(8) . ?
C5 C6 1.378(7) . ?
C5 O1 1.403(6) . ?
C6 H6 0.9500 . ?
C6 C7 1.376(8) . ?
C7 H7 0.9500 . ?
C8 C9 1.501(7) . ?
C8 O11 1.274(7) . ?
C8 O12 1.234(7) . ?
C9 C10 1.349(9) . ?
C9 C14 1.344(8) . ?
C10 H10 0.9500 . ?
C10 C11 1.408(8) . ?
C11 H11 0.9500 . ?
C11 C12 1.331(8) . ?
C12 C13 1.389(8) . ?
C12 O2 1.419(5) . ?
C13 H13 0.9500 . ?
C13 C14 1.401(8) . ?
C14 H14 0.9500 . ?
C15 C16 1.487(7) . ?
C15 O15 1.234(6) . ?
C15 O16 1.270(6) . ?
C16 C17 1.362(8) . ?
C16 C21 1.370(8) . ?
C17 H17 0.9500 . ?
C17 C18 1.412(7) . ?
C18 H18 0.9500 . ?
C18 C19 1.343(7) . ?
C19 C20 1.357(8) . ?
C19 O5 1.410(5) . ?
C20 H20 0.9500 . ?
C20 C21 1.407(8) . ?
C21 H21 0.9500 . ?
C22 C23 1.502(7) . ?
C22 O9 1.256(6) . ?
C22 O10 1.272(6) . ?
C23 C24 1.350(7) . ?
C23 C28 1.350(7) . ?
C24 H24 0.9500 . ?
C24 C25 1.409(8) . ?
C25 H25 0.9500 . ?
C25 C26 1.339(7) . ?
C26 C27 1.327(7) . ?
C26 O3 1.423(5) . ?
C27 H27 0.9500 . ?
C27 C28 1.393(7) . ?
C28 H28 0.9500 . ?
C29 C30 1.494(7) . ?
C29 O17 1.255(6) . ?
C29 O18 1.268(6) . ?
C30 C31 1.359(8) . ?
C30 C35 1.348(8) . ?
C31 H31 0.9500 . ?
C31 C32 1.410(8) . ?
C32 H32 0.9500 . ?
C32 C33 1.377(8) . ?
C33 C34 1.328(8) . ?
C33 O6 1.421(5) . ?
C34 H34 0.9500 . ?
C34 C35 1.423(9) . ?
C35 H35 0.9500 . ?
C36 C37 1.485(7) . ?
C36 O13 1.236(6) . ?
C36 O14 1.259(6) . ?
C37 C38 1.389(7) . ?
C37 C42 1.394(8) . ?
C38 H38 0.9500 . ?
C38 C39 1.380(8) . ?
C39 H39 0.9500 . ?
C39 C40 1.370(7) . ?
C40 C41 1.371(7) . ?
C40 O4 1.425(6) . ?
C41 H41 0.9500 . ?
C41 C42 1.373(8) . ?
C42 H42 0.9500 . ?
Fe1 O8 2.132(4) . y
Fe1 O8 2.132(4) 8 y
Fe1 O12 2.114(4) 3 y
Fe1 O12 2.114(4) 6_665 y
Fe1 O19 2.007(5) . y
Fe1 O22 2.042(7) . y
Fe2 O7 1.978(4) . y
Fe2 O7 1.978(4) 8 y
Fe2 O9 2.026(4) 5_665 y
Fe2 O9 2.026(4) 4_665 y
Fe2 O19 1.852(4) . y
Fe2 O20 2.144(5) . y
Fe3 O10 2.044(3) 4_665 y
Fe3 O10 2.044(3) 5_665 y
Fe3 O11 2.002(4) 6_665 y
Fe3 O11 2.002(4) 3 y
Fe3 O19 1.888(5) . y
Fe3 O21 2.080(5) . y
Fe4 O14 2.017(4) 8_556 y
Fe4 O14 2.017(4) . y
Fe4 O17 2.001(4) 4_665 y
Fe4 O17 2.001(4) 5_666 y
Fe4 O23 1.892(4) . y
Fe4 O26 2.045(5) . y
Fe5 O13 2.025(3) . y
Fe5 O13 2.025(3) 8_556 y
Fe5 O16 2.019(4) 7_665 y
Fe5 O16 2.019(4) 2_556 y
Fe5 O23 1.922(4) . y
Fe5 O24 2.061(5) . y
Fe6 O15 2.020(4) 2_556 y
Fe6 O15 2.020(4) 7_665 y
Fe6 O18 2.005(3) 5_666 y
Fe6 O18 2.005(3) 4_665 y
Fe6 O23 1.947(4) . y
Fe6 O25 2.046(6) . y
N1 P1 1.591(4) . ?
N1 P3 1.574(4) . ?
N2 P1 1.600(4) . ?
N2 P2 1.563(4) . ?
N3 P2 1.582(4) . ?
N3 P3 1.590(4) . ?
O1 P3 1.586(3) . ?
O2 P3 1.585(3) . ?
O3 P2 1.574(3) . ?
O4 P2 1.582(3) . ?
O5 P1 1.588(3) . ?
O6 P1 1.576(3) . ?
O20 H20a 0.8818 . ?
O20 H20a 0.8818 8 ?
O20 H20b 0.8814 8 ?
O20 H20b 0.8814 . ?
H20a H20a 0.58305(12) 8 ?
O21 H21a 0.9761 . ?
O21 H21a 0.9761 8 ?
O21 H21b 0.9758 . ?
O21 H21b 0.9758 8 ?
H21a H21b 0.6238 8 ?
O22 H22a 0.8700 8 ?
O22 H22a 0.8700 . ?
O22 H22b 0.8700 . ?
O22 H22b 0.8700 8 ?
O24 H24a 0.9407 . ?
O24 H24a 0.9407 8_556 ?
O24 H24b 0.9406 8_556 ?
O24 H24b 0.9406 . ?
H24a H24a 0.9799(2) 8_556 ?
H24a H24b 1.0996 8_556 ?
H24b H24b 0.9892(2) 8_556 ?
O25 H25a 0.9222 . ?
O25 H25a 0.9222 8_556 ?
O25 H25b 0.9219 8_556 ?
O25 H25b 0.9219 . ?
H25a H25b 0.8691 8_556 ?
O26 H26a 0.8700 8_556 ?
O26 H26a 0.8700 . ?
O26 H26b 0.8700 8_556 ?
O26 H26b 0.8700 . ?
loop_
_geom_torsion_atom_site_label_1
_geom_torsion_atom_site_label_2
_geom_torsion_atom_site_label_3
_geom_torsion_atom_site_label_4
_geom_torsion
_geom_torsion_site_symmetry_1
_geom_torsion_site_symmetry_2
_geom_torsion_site_symmetry_3
_geom_torsion_site_symmetry_4
_geom_torsion_publ_flag
C1 C2 C3 C4 -178.5(6) . . . . ?
C1 C2 C7 C6 176.8(6) . . . . ?
C2 C3 C4 C5 -0.1(7) . . . . ?
C2 C7 C6 C5 3.4(8) . . . . ?
C3 C4 C5 C6 0.5(9) . . . . ?
C3 C4 C5 O1 176.6(6) . . . . ?
C4 C5 C6 C7 -2.2(7) . . . . ?
C4 C5 O1 P3 80.6(5) . . . . ?
C5 O1 P3 N1 81.4(4) . . . . ?
C5 O1 P3 N3 -50.2(4) . . . . ?
C5 O1 P3 O2 -166.9(4) . . . . ?
C8 C9 C10 C11 179.2(7) . . . . ?
C8 C9 C14 C13 177.9(6) . . . . ?
C9 C10 C11 C12 3.6(9) . . . . ?
C9 C14 C13 C12 2.3(8) . . . . ?
C10 C11 C12 C13 -3.0(10) . . . . ?
C10 C11 C12 O2 179.0(6) . . . . ?
C11 C12 C13 C14 0.2(7) . . . . ?
C11 C12 O2 P3 -127.1(5) . . . . ?
C12 O2 P3 N1 168.3(4) . . . . ?
C12 O2 P3 N3 -61.9(4) . . . . ?
C12 O2 P3 O1 53.5(4) . . . . ?
C15 C16 C17 C18 -174.8(6) . . . . ?
C15 C16 C21 C20 177.2(6) . . . . ?
C16 C17 C18 C19 -3.4(8) . . . . ?
C16 C21 C20 C19 -1.5(8) . . . . ?
C17 C18 C19 C20 0.5(8) . . . . ?
C17 C18 C19 O5 176.0(5) . . . . ?
C18 C19 C20 C21 1.9(7) . . . . ?
C18 C19 O5 P1 70.8(5) . . . . ?
C19 O5 P1 N1 69.2(4) . . . . ?
C19 O5 P1 N2 -61.8(4) . . . . ?
C19 O5 P1 O6 -177.7(4) . . . . ?
C22 C23 C24 C25 177.0(6) . . . . ?
C22 C23 C28 C27 -179.4(6) . . . . ?
C23 C24 C25 C26 2.7(8) . . . . ?
C23 C28 C27 C26 2.3(8) . . . . ?
C24 C25 C26 C27 -1.1(9) . . . . ?
C24 C25 C26 O3 179.9(6) . . . . ?
C25 C26 C27 C28 -1.3(7) . . . . ?
C25 C26 O3 P2 -33.6(7) . . . . ?
C26 O3 P2 N2 -173.0(4) . . . . ?
C26 O3 P2 N3 -42.6(4) . . . . ?
C26 O3 P2 O4 70.8(4) . . . . ?
C29 C30 C31 C32 -176.3(6) . . . . ?
C29 C30 C35 C34 178.4(6) . . . . ?
C30 C31 C32 C33 -2.0(8) . . . . ?
C30 C35 C34 C33 -2.2(8) . . . . ?
C31 C32 C33 C34 -3.2(9) . . . . ?
C31 C32 C33 O6 -178.9(5) . . . . ?
C32 C33 C34 C35 5.2(7) . . . . ?
C32 C33 O6 P1 -117.9(5) . . . . ?
C33 O6 P1 N1 172.2(4) . . . . ?
C33 O6 P1 N2 -58.0(4) . . . . ?
C33 O6 P1 O5 57.3(4) . . . . ?
C36 C37 C38 C39 178.0(7) . . . . ?
C36 C37 C42 C41 179.7(7) . . . . ?
C37 C38 C39 C40 4.0(9) . . . . ?
C37 C42 C41 C40 0.7(9) . . . . ?
C38 C39 C40 C41 -0.6(10) . . . . ?
C38 C39 C40 O4 179.4(6) . . . . ?
C39 C40 C41 C42 -1.7(8) . . . . ?
C39 C40 O4 P2 -27.4(7) . . . . ?
C40 O4 P2 N2 -43.1(4) . . . . ?
C40 O4 P2 N3 -172.7(4) . . . . ?
C40 O4 P2 O3 70.2(4) . . . . ?
N1 P1 N2 P2 10.47(18) . . . . ?
N1 P3 N3 P2 3.53(18) . . . . ?
N2 P2 N3 P3 1.20(18) . . . . ?
loop_
_smtbx_masks_void_nr
_smtbx_masks_void_average_x
_smtbx_masks_void_average_y
_smtbx_masks_void_average_z
_smtbx_masks_void_volume
_smtbx_masks_void_count_electrons
_smtbx_masks_void_content
1 -0.313 -0.901 -0.448 10349.5 1938.8 '32 H2O,40 DMF'
