#------------------------------------------------------------------------------
#$Date: 2021-07-05 20:38:50 +0300 (Mon, 05 Jul 2021) $
#$Revision: 267178 $
#$URL: file:///home/coder/svn-repositories/cod/cif/7/70/73/7707386.cif $
#------------------------------------------------------------------------------
#
# This file is available in the Crystallography Open Database (COD),
# http://www.crystallography.net/
#
# All data on this site have been placed in the public domain by the
# contributors.
#
data_7707386
loop_
_publ_author_name
'Dissem, Nour'
'Essalhi, Mohamed'
'Ferhi, Najmeddine'
'Abidi, Adela'
'Maris, Thierry'
'Duong, Adam'
_publ_section_title
;
 Flexible and porous 2D layered structures based on mixed-linker
 metal-organic frameworks for gas sorption studies.
;
_journal_issue                   25
_journal_name_full
'Dalton transactions (Cambridge, England : 2003)'
_journal_page_first              8727
_journal_page_last               8735
_journal_paper_doi               10.1039/d1dt00426c
_journal_volume                  50
_journal_year                    2021
_chemical_formula_moiety         'C44 H44 Cu N4 O8, 2(C H2 Cl2)'
_chemical_formula_sum            'C46 H48 Cl4 Cu N4 O8'
_chemical_formula_weight         990.22
_space_group_crystal_system      triclinic
_space_group_IT_number           2
_space_group_name_Hall           '-P 1'
_space_group_name_H-M_alt        'P -1'
_atom_sites_solution_hydrogens   geom
_audit_creation_date             2020-07-17
_audit_creation_method
;
Olex2 1.3
(compiled 2020.06.28 svn.raecde09e for OlexSys, GUI svn.r6132)
;
_audit_update_record
;
2020-11-22 deposited with the CCDC.	2021-05-13 downloaded from the CCDC.
;
_cell_angle_alpha                96.030(5)
_cell_angle_beta                 98.336(5)
_cell_angle_gamma                109.647(5)
_cell_formula_units_Z            1
_cell_length_a                   8.0935(8)
_cell_length_b                   10.0336(9)
_cell_length_c                   15.6580(12)
_cell_measurement_reflns_used    1445
_cell_measurement_temperature    100
_cell_measurement_theta_max      63.675
_cell_measurement_theta_min      2.892
_cell_volume                     1168.61(19)
_computing_cell_refinement
;
SAINT (2017) V8.38A; Integration Software for Single Crystal Data.
Bruker AXS Inc., Madison, WI 53719-1173.
;
_computing_data_collection
;
APEX 3 (2019) Bruker AXS Inc., Madison, WI 53719-1173.
;
_computing_data_reduction
;
SAINT (2017) V8.38A; Integration Software for Single Crystal Data.
Bruker AXS Inc., Madison, WI 53719-1173.
;
_computing_molecular_graphics    'Olex2 1.3 (Dolomanov et al., 2009)'
_computing_publication_material  'Olex2 1.3 (Dolomanov et al., 2009)'
_computing_structure_refinement  'XL  (Sheldrick, 2008)'
_computing_structure_solution    'SHELXT 2014/5 (Sheldrick, 2014)'
_diffrn_ambient_temperature      100
_diffrn_detector_area_resol_mean 8.3
_diffrn_detector_type            'Bruker APEX2 CCD'
_diffrn_measured_fraction_theta_full 0.947
_diffrn_measured_fraction_theta_max 0.939
_diffrn_measurement_device       'three-circle diffractometer'
_diffrn_measurement_device_type  'Bruker Smart APEX'
_diffrn_measurement_method       '\w scans'
_diffrn_radiation_type           CuK\a
_diffrn_radiation_wavelength     1.54178
_diffrn_reflns_av_R_equivalents  0.0330
_diffrn_reflns_av_unetI/netI     0.0486
_diffrn_reflns_Laue_measured_fraction_full 0.947
_diffrn_reflns_Laue_measured_fraction_max 0.939
_diffrn_reflns_limit_h_max       9
_diffrn_reflns_limit_h_min       -9
_diffrn_reflns_limit_k_max       12
_diffrn_reflns_limit_k_min       -12
_diffrn_reflns_limit_l_max       19
_diffrn_reflns_limit_l_min       -19
_diffrn_reflns_number            8138
_diffrn_reflns_point_group_measured_fraction_full 0.947
_diffrn_reflns_point_group_measured_fraction_max 0.939
_diffrn_reflns_theta_full        67.679
_diffrn_reflns_theta_max         70.027
_diffrn_reflns_theta_min         2.892
_exptl_absorpt_coefficient_mu    3.228
_exptl_absorpt_correction_T_max  0.7533
_exptl_absorpt_correction_T_min  0.5057
_exptl_absorpt_correction_type   multi-scan
_exptl_absorpt_process_details
;
SADABS-2016/2 (Bruker,2016/2) was used for absorption correction.
wR2(int) was 0.0723 before and 0.0438 after correction.
The Ratio of minimum to maximum transmission is 0.6713.
The \l/2 correction factor is Not present.
;
_exptl_crystal_colour            'clear light purple'
_exptl_crystal_colour_lustre     clear
_exptl_crystal_colour_modifier   light
_exptl_crystal_colour_primary    purple
_exptl_crystal_density_diffrn    1.407
_exptl_crystal_description       block
_exptl_crystal_F_000             513
_exptl_crystal_size_max          0.18
_exptl_crystal_size_mid          0.15
_exptl_crystal_size_min          0.12
_refine_diff_density_max         0.468
_refine_diff_density_min         -0.556
_refine_diff_density_rms         0.066
_refine_ls_extinction_method     none
_refine_ls_goodness_of_fit_ref   1.056
_refine_ls_hydrogen_treatment    constr
_refine_ls_matrix_type           full
_refine_ls_number_parameters     296
_refine_ls_number_reflns         4163
_refine_ls_number_restraints     0
_refine_ls_restrained_S_all      1.056
_refine_ls_R_factor_all          0.0731
_refine_ls_R_factor_gt           0.0611
_refine_ls_shift/su_max          0.005
_refine_ls_shift/su_mean         0.000
_refine_ls_structure_factor_coef Fsqd
_refine_ls_weighting_details
'w=1/[\s^2^(Fo^2^)+(0.0959P)^2^+0.6128P] where P=(Fo^2^+2Fc^2^)/3'
_refine_ls_weighting_scheme      calc
_refine_ls_wR_factor_gt          0.1687
_refine_ls_wR_factor_ref         0.1794
_reflns_Friedel_coverage         0.000
_reflns_number_gt                3367
_reflns_number_total             4163
_reflns_threshold_expression     'I > 2\s(I)'
_cod_data_source_file            d1dt00426c2.cif
_cod_data_source_block           ada255
_cod_depositor_comments
'Adding full bibliography for 7707385--7707390.cif.'
_cod_original_cell_volume        1168.61(18)
_cod_database_code               7707386
_shelx_shelxl_version_number     2018/3
_shelx_space_group_comment
;
The symmetry employed for this shelxl refinement is uniquely defined
by the following loop, which should always be used as a source of
symmetry information in preference to the above space-group names.
They are only intended as comments.
;
_shelx_estimated_absorpt_t_max   0.698
_shelx_estimated_absorpt_t_min   0.594
_olex2_refinement_description
;
1. Fixed Uiso
 At 1.2 times of:
  All C(H) groups, All C(H,H) groups, All C(H,H,H,H) groups, All N(H) groups
 At 1.5 times of:
  All O(H) groups
2. Others
 Sof(H1AC)=Sof(H1AD)=Sof(Cl1B)=Sof(Cl2B)=1-FVAR(1)
 Sof(H1AA)=Sof(H1AB)=Sof(Cl1A)=Sof(Cl2A)=FVAR(1)
3.a Ternary CH refined with riding coordinates:
 N1(H1A), N2(H2)
3.b Secondary CH2 refined with riding coordinates:
 C18(H18A,H18B), C19(H19A,H19B), C20(H20A,H20B), C21(H21A,H21B), C22(H22A,
 H22B), C1A(H1AA,H1AB), C1A(H1AC,H1AD)
3.c Aromatic/amide H refined with riding coordinates:
 C3(H3), C4(H4), C6(H6), C7(H7), C9(H9), C12(H12), C13(H13), C15(H15), C16(H16)
3.d Idealised tetrahedral OH refined as rotating group:
 O1(H1)
;
_shelx_res_file
;
TITL ada255_a.res in P-1
    ada255.res
    created by SHELXL-2018/3 at 16:31:57 on 17-Jul-2020
REM Old TITL ada255 in P-1
REM SHELXT solution in P-1
REM R1 0.187, Rweak 0.013, Alpha 0.046, Orientation as input
REM Formula found by SHELXT: C46 N4 O12 Cu
CELL 1.54178 8.0935 10.0336 15.658 96.03 98.336 109.647
ZERR 1 0.0008 0.0009 0.0012 0.005 0.005 0.005
LATT 1
SFAC C H Cl Cu N O
UNIT 46 48 4 1 4 8

L.S. 4 0 0
PLAN  4
SIZE 0.12 0.15 0.18
TEMP 23
CONF
BOND $H
list 4
MORE -1
fmap 2 53
acta
REM <olex2.extras>
REM <HklSrc "%.\\ada255.hkl">
REM </olex2.extras>

WGHT    0.095900    0.612800
FVAR       0.61435   0.80476
CU1   4    1.000000    1.000000    1.000000    10.50000    0.04843    0.04584 =
         0.03018    0.00246    0.00901    0.01404
O1    6    0.442335    0.633842    0.089600    11.00000    0.05867    0.05186 =
         0.03491    0.00644    0.01651    0.01381
AFIX 147
H1    2    0.490924    0.669611    0.050815    11.00000   -1.50000
AFIX   0
O2    6    0.586880    0.854288    0.166909    11.00000    0.05629    0.05085 =
         0.04212    0.00536    0.01823    0.01103
O3    6    0.613065    0.707529    0.967733    11.00000    0.04926    0.05385 =
         0.02871    0.00577    0.00654    0.01331
O4    6    0.690625    0.925190    0.928866    11.00000    0.04961    0.04951 =
         0.03677    0.00110    0.00278    0.01123
N1    5    1.002710    0.798112    0.980685    11.00000    0.04816    0.04259 =
         0.05680    0.00126    0.00538    0.01499
AFIX  13
H1A   2    0.878280    0.733175    0.960962    11.00000   -1.20000
AFIX   0
N2    5    1.067329    1.016196    0.881494    11.00000    0.04954    0.07032 =
         0.03081    0.00662    0.00981    0.01184
AFIX  13
H2    2    1.197124    1.066175    0.891991    11.00000   -1.20000
AFIX   0
C1    1    0.479862    0.733796    0.158938    11.00000    0.04986    0.05202 =
         0.03229    0.00618    0.00847    0.02046
C2    1    0.374528    0.682957    0.227018    11.00000    0.04470    0.05427 =
         0.03030    0.00662    0.00712    0.01653
C3    1    0.279169    0.538352    0.224729    11.00000    0.05109    0.05079 =
         0.03552    0.00185    0.00999    0.01207
AFIX  43
H3    2    0.281115    0.470749    0.179824    11.00000   -1.20000
AFIX   0
C4    1    0.181206    0.494004    0.288771    11.00000    0.05512    0.04613 =
         0.03243    0.00227    0.00932    0.00649
AFIX  43
H4    2    0.119743    0.396713    0.286995    11.00000   -1.20000
AFIX   0
C5    1    0.173674    0.594100    0.356210    11.00000    0.04608    0.05174 =
         0.02767    0.00177    0.00534    0.00737
C6    1    0.270156    0.739240    0.357916    11.00000    0.05381    0.05186 =
         0.02836    0.00143    0.00783    0.01380
AFIX  43
H6    2    0.267304    0.807351    0.402243    11.00000   -1.20000
AFIX   0
C7    1    0.369600    0.782859    0.294721    11.00000    0.05103    0.04478 =
         0.03486    0.00464    0.00779    0.00954
AFIX  43
H7    2    0.433999    0.879845    0.297284    11.00000   -1.20000
AFIX   0
C8    1    0.076685    0.546246    0.427653    11.00000    0.05535    0.04863 =
         0.02977    0.00374    0.01063    0.01241
C9    1    0.167127    0.601484    0.513668    11.00000    0.04622    0.05180 =
         0.03567    0.00254    0.00829    0.00688
AFIX  43
H9    2    0.280890    0.671202    0.522973    11.00000   -1.20000
AFIX   0
C10   1    0.096825    0.558213    0.586416    11.00000    0.05098    0.05124 =
         0.02985   -0.00035    0.00688    0.01061
C11   1    0.215390    0.619294    0.674100    11.00000    0.04927    0.05043 =
         0.03030    0.00132    0.01055    0.00899
C12   1    0.311813    0.766195    0.696156    11.00000    0.05110    0.05242 =
         0.03043    0.00781    0.01006    0.01541
AFIX  43
H12   2    0.294696    0.827094    0.657714    11.00000   -1.20000
AFIX   0
C13   1    0.432658    0.822695    0.774453    11.00000    0.04720    0.04549 =
         0.03371    0.00196    0.01142    0.01108
AFIX  43
H13   2    0.496158    0.920952    0.788077    11.00000   -1.20000
AFIX   0
C14   1    0.459667    0.733566    0.832791    11.00000    0.04317    0.05002 =
         0.02884    0.00100    0.01035    0.01265
C15   1    0.362507    0.587654    0.812122    11.00000    0.04932    0.04884 =
         0.03466    0.00726    0.01359    0.01455
AFIX  43
H15   2    0.378428    0.527262    0.851160    11.00000   -1.20000
AFIX   0
C16   1    0.241567    0.531067    0.733515    11.00000    0.05125    0.04705 =
         0.03527    0.00038    0.01171    0.00879
AFIX  43
H16   2    0.177188    0.432920    0.720377    11.00000   -1.20000
AFIX   0
C17   1    0.597821    0.796037    0.916967    11.00000    0.04068    0.05310 =
         0.03340    0.00290    0.01051    0.01239
C18   1    1.032038    0.869099    0.838877    11.00000    0.05580    0.08196 =
         0.04449   -0.01556    0.01127    0.01444
AFIX  23
H18A  2    1.095462    0.870859    0.790737    11.00000   -1.20000
H18B  2    0.905148    0.820745    0.815853    11.00000   -1.20000
AFIX   0
C19   1    1.094936    0.790853    0.906278    11.00000    0.05053    0.06481 =
         0.06791   -0.02295    0.00939    0.01500
AFIX  23
H19A  2    1.067243    0.691579    0.880935    11.00000   -1.20000
H19B  2    1.223321    0.835165    0.926201    11.00000   -1.20000
AFIX   0
C20   1    1.078320    0.746929    1.056407    11.00000    0.05112    0.05247 =
         0.08955    0.01904    0.00058    0.01578
AFIX  23
H20A  2    1.203900    0.805316    1.075709    11.00000   -1.20000
H20B  2    1.069275    0.648631    1.039138    11.00000   -1.20000
AFIX   0
C21   1    0.980025    0.754508    1.131442    11.00000    0.05250    0.07746 =
         0.07962    0.04193    0.00262    0.00900
AFIX  23
H21A  2    0.852750    0.706767    1.109216    11.00000   -1.20000
H21B  2    1.015327    0.701850    1.174734    11.00000   -1.20000
AFIX   0
C22   1    0.987171    1.096006    0.824098    11.00000    0.05494    0.10213 =
         0.04080    0.02647    0.00905    0.01413
AFIX  23
H22A  2    0.859381    1.044079    0.806992    11.00000   -1.20000
H22B  2    1.037383    1.101325    0.771396    11.00000   -1.20000
AFIX   0

C1A   1    0.276630    0.273156    0.536947    11.00000    0.18575    0.19949 =
         0.13115    0.08196    0.08425    0.14049
PART 1
AFIX  23
H1AA  2    0.393468    0.326245    0.573082    21.00000   -1.20000
H1AB  2    0.216084    0.340564    0.527811    21.00000   -1.20000
AFIX  23
PART 2
H1AC  2    0.178992    0.308089    0.539362   -21.00000   -1.20000
H1AD  2    0.373693    0.331286    0.584395   -21.00000   -1.20000
AFIX   0
PART 1
CL1A  3    0.161889    0.152528    0.590733    21.00000    0.10005    0.11409 =
         0.07764   -0.00182    0.02033    0.01848
CL2A  3    0.306176    0.201763    0.433891    21.00000    0.10273    0.20897 =
         0.08803    0.02219    0.03366    0.05543
PART 2
CL1B  3    0.198551    0.081816    0.560841   -21.00000    0.23402
CL2B  3    0.346266    0.305157    0.442716   -21.00000    0.09487
HKLF 4




REM  ada255_a.res in P-1
REM wR2 = 0.179446, GooF = S = 1.05597, Restrained GooF = 1.05597 for all data
REM R1 = 0.061100 for 3367 Fo > 4sig(Fo) and 0.073091 for all 4163 data
REM 296 parameters refined using 0 restraints

END

WGHT      0.0955      0.6165

REM Highest difference peak  0.468,  deepest hole -0.556,  1-sigma level  0.066
Q1    1   0.2654 -0.0346  0.5330  11.00000  0.05    0.47
Q2    1   1.0434  1.0445  0.9407  11.00000  0.05    0.39
Q3    1   0.2447  0.1592  0.4972  11.00000  0.05    0.38
Q4    1   0.8808  0.9995  1.0052  11.00000  0.05    0.37
;
_shelx_res_checksum              88911
_shelx_hkl_file
;
  -1   0   0  380.76   14.70
   1   0   0  392.26   14.90
   1   0   0  413.96   15.00
  -2   0   0  145.39    6.20
   2   0   0  160.08    6.80
  -3   0   0  735.53   27.70
  -3   0   0  731.93   27.30
  -3   0   0  725.83   28.60
  -3   0   0  739.63   28.40
   3   0   0  739.43   28.80
  -4   0   0   12.70    2.10
  -4   0   0   13.70    1.30
  -4   0   0   16.50    2.20
   4   0   0   14.10    2.60
  -5   0   0  121.09    7.00
  -5   0   0  125.99    5.60
  -5   0   0  127.69    7.30
   5   0   0  120.89    8.10
  -6   0   0   22.00    3.00
   6   0   0   31.70    4.20
  -7   0   0   27.60    3.50
   7   0   0   31.10    4.30
  -8   0   0   -1.20    1.10
   8   0   0   -0.40    1.40
   9  -1   0   -1.50    1.10
  -9   1   0    0.90    0.90
   8  -1   0   34.00    4.30
  -8   1   0   32.30    3.60
   7  -1   0   37.60    5.00
  -7   1   0   33.40    4.00
   6  -1   0   81.09    6.00
   6  -1   0   55.39    5.70
   6  -1   0   78.29    5.30
   5  -1   0   41.00    4.70
  -5   1   0   42.80    4.40
  -5   1   0   42.70    4.60
  -5   1   0   39.50    2.90
   4  -1   0  200.48    9.80
   3  -1   0  294.27   12.40
   3  -1   0  294.07   12.60
  -3   1   0  304.27   12.00
   2  -1   0  585.94   21.50
   2  -1   0  569.54   21.70
  -2   1   0  543.25   21.40
   1  -1   0  351.36   13.10
   1  -1   0  351.16   13.50
  -1   1   0  357.66   13.40
   0  -1   0   42.60    1.90
   0  -1   0   36.40    1.90
   0   1   0   43.00    1.80
  -1  -1   0  764.72   28.40
  -1  -1   0  743.13   28.70
   1   1   0  795.82   28.80
  -2  -1   0 1424.36   53.29
  -2  -1   0 1426.96   53.39
  -2  -1   0 1419.46   52.79
  -2  -1   0 1432.46   52.49
   2   1   0 1458.45   53.79
  -3  -1   0 1113.49   41.30
  -3  -1   0 1114.19   42.50
  -3  -1   0 1114.39   42.60
   3   1   0 1131.79   43.20
  -4  -1   0  114.79    6.50
   4   1   0  114.69    7.30
   5   1   0  231.58   13.00
  -6  -1   0   17.60    2.70
   6   1   0   19.80    3.40
  -7  -1   0   53.99    4.70
   7   1   0   52.59    5.20
  -8  -1   0    8.20    1.70
   9  -2   0   -1.10    1.20
  -9   2   0    0.70    1.10
   8  -2   0    1.20    1.90
  -8   2   0    2.60    1.70
   7  -2   0    6.80    2.50
  -6   2   0   -1.50    1.30
  -6   2   0    1.80    1.30
   5  -2   0    5.50    1.20
   4  -2   0    1.60    1.10
   4  -2   0    0.50    0.90
  -4   2   0    1.90    1.10
   3  -2   0   15.40    1.60
   3  -2   0   17.80    2.10
  -3   2   0   19.90    2.00
   2  -2   0    2.60    0.60
   2  -2   0    5.20    1.10
  -2   2   0    4.50    0.90
  -1   2   0 9999.00  364.06
   0  -2   0 1340.97   50.29
   0  -2   0 1367.46   50.19
   0   2   0 1362.36   49.90
  -1  -2   0    6.20    1.10
  -1  -2   0    8.70    1.10
   1   2   0   10.20    1.40
  -2  -2   0   35.10    2.60
  -2  -2   0   32.00    2.10
   2   2   0   32.60    3.10
  -3  -2   0   28.80    3.10
   3   2   0   26.20    3.00
  -4  -2   0  303.27   12.90
   4   2   0  251.97   13.70
  -6  -2   0   17.20    2.70
  -7  -2   0    2.10    1.40
   9  -3   0    0.50    1.30
  -9   3   0   -1.20    1.00
   8  -3   0    0.60    1.80
   7  -3   0    1.30    1.70
   7  -3   0    0.50    1.70
   7  -3   0    1.80    1.50
   5  -3   0   46.90    4.70
   4  -3   0  114.89    6.70
  -4   3   0  115.59    6.30
   3  -3   0   73.69    4.50
  -3   3   0   62.49    4.00
   2  -3   0  211.48    9.60
  -2   3   0  227.68    9.60
   1  -3   0  165.68    7.70
  -1   3   0  176.88    7.70
   0  -3   0  344.87   14.00
   0  -3   0  320.47   13.70
   0   3   0  357.26   13.50
  -1  -3   0   30.20    2.30
  -1  -3   0   31.80    2.50
   1   3   0   31.20    2.80
  -2  -3   0  392.56   15.90
  -2  -3   0  404.06   16.50
   2   3   0  396.46   17.00
  -3  -3   0   88.59    5.20
   3   3   0   84.29    5.90
   4   3   0    5.50    2.30
  -5  -3   0    2.60    1.60
   5   3   0    5.90    2.50
  -6  -3   0   68.59    4.70
   6   3   0   56.99    6.00
   9  -4   0   -1.20    1.60
  -9   4   0   -1.40    1.10
   8  -4   0    1.20    1.60
   8  -4   0    7.20    2.70
   8  -4   0    4.80    2.00
   7  -4   0    0.20    1.80
   7  -4   0    1.50    1.50
   7  -4   0   -0.50    1.80
   6  -4   0    9.60    2.90
   6  -4   0    8.80    2.30
   5  -4   0   54.49    5.40
  -5   4   0   54.99    4.90
   4  -4   0  693.03   28.50
  -4   4   0  687.13   28.00
   3  -4   0  823.52   32.30
  -3   4   0  795.62   32.00
   2  -4   0  157.98    7.90
  -2   4   0  167.18    8.10
   1  -4   0 1083.69   42.00
  -1   4   0 1107.79   42.00
   0  -4   0  454.15   19.00
   0   4   0  472.05   18.30
  -1  -4   0   15.90    2.30
   1   4   0   16.30    2.30
  -2  -4   0   59.39    4.30
   2   4   0   57.79    4.50
   3   4   0  186.88   10.60
  -4  -4   0    5.10    1.80
   4   4   0    6.00    2.50
  -5  -4   0    6.20    1.80
   5   4   0    4.70    2.60
   6   4   0   -0.60    1.40
   7   4   0    1.80    0.80
   9  -5   0   11.30    2.80
   9  -5   0   10.90    2.90
  -9   5   0   13.20    2.30
   8  -5   0    5.30    2.00
   8  -5   0    5.40    1.70
   8  -5   0    1.90    2.00
   7  -5   0   50.99    4.60
   7  -5   0   50.29    5.50
   7  -5   0   55.19    5.10
   6  -5   0   55.59    4.80
   6  -5   0   63.09    5.80
   6  -5   0   49.70    4.70
   5  -5   0   65.19    6.30
  -5   5   0   59.69    5.60
   4  -5   0    3.90    1.70
  -4   5   0    4.50    2.00
   3  -5   0    5.10    1.50
  -3   5   0    6.30    1.90
   2  -5   0   23.90    3.20
  -2   5   0   25.50    2.90
   1  -5   0   30.40    3.50
  -1   5   0   28.40    3.30
   0  -5   0  295.27   13.60
   0   5   0  303.57   13.60
  -1  -5   0  615.34   25.40
   1   5   0  641.34   25.20
   1   5   0  587.84   25.20
  -2  -5   0  149.29    8.10
   2   5   0  159.78    9.10
   3   5   0   15.70    3.10
   3   5   0   26.80    4.40
  -4  -5   0    4.60    1.70
   4   5   0    1.60    2.00
   5   5   0   21.80    3.90
   6   5   0    0.60    1.90
   9  -6   0    4.40    2.10
   9  -6   0    4.90    1.40
   8  -6   0    5.10    2.00
   8  -6   0    7.80    2.10
   8  -6   0    5.60    1.80
   7  -6   0   20.90    3.30
   7  -6   0   16.40    2.80
   7  -6   0   18.60    3.40
   6  -6   0    5.30    1.80
   6  -6   0    5.10    1.80
   5  -6   0  442.16   20.70
  -5   6   0  412.96   20.00
   4  -6   0  197.08   10.90
  -4   6   0  197.88   11.10
   3  -6   0    1.80    1.70
  -3   6   0    1.60    1.60
   2  -6   0  185.28   10.10
  -2   6   0  183.68   10.20
   1  -6   0    5.50    2.30
  -1   6   0    3.30    2.00
   0  -6   0    8.50    3.00
   0   6   0    1.40    1.90
  -1  -6   0   49.90    4.10
   2   6   0   11.40    3.00
   3   6   0    8.40    2.70
   4   6   0   15.60    3.50
   5   6   0    5.00    2.30
   6   6   0    0.50    1.80
   9  -7   0   -0.90    0.90
   9  -7   0    2.00    0.80
   8  -7   0   11.00    2.20
   8  -7   0   11.60    2.50
   7  -7   0   27.00    3.60
   7  -7   0   23.60    3.10
   6  -7   0    0.70    1.60
   6  -7   0    2.00    1.60
   5  -7   0   11.10    2.20
   5  -7   0    8.40    2.10
   4  -7   0    2.20    3.20
  -4   7   0    4.80    2.50
   3  -7   0   17.30    3.80
  -3   7   0   16.00    2.80
   2  -7   0  112.39    7.80
  -2   7   0   99.29    7.80
   1  -7   0  118.09    8.50
  -1   7   0  135.89    8.90
   0  -7   0   56.49    5.50
  -1  -7   0    1.20    1.20
   1   7   0    2.60    2.10
   2   7   0   25.60    4.00
   3   7   0    0.50    1.70
   4   7   0    5.20    2.30
   5   7   0    9.70    1.20
   9  -8   0    2.80    1.10
   9  -8   0   -0.50    0.80
   8  -8   0   -0.60    1.10
   8  -8   0   -0.30    1.10
   7  -8   0    1.20    1.50
   7  -8   0    2.00    1.30
   6  -8   0   25.00    3.50
   6  -8   0   22.60    3.10
   5  -8   0   25.90    3.40
   5  -8   0   23.60    4.70
   5  -8   0   29.80    3.50
   4  -8   0  143.79    8.10
   4  -8   0  157.38    8.40
   4  -8   0  167.08   10.70
   3  -8   0    2.20    1.60
   3  -8   0    3.20    3.00
   3  -8   0    4.40    1.60
   2  -8   0   42.10    5.80
   2  -8   0   33.20    3.60
   2  -8   0   33.10    3.50
   1  -8   0   62.29    4.80
   1  -8   0   73.89    7.50
   1  -8   0   68.89    4.60
   0  -8   0   25.80    3.00
   0  -8   0   28.50    4.50
   1   8   0    2.50    2.10
   2   8   0   21.50    3.80
   3   8   0    4.50    2.00
   4   8   0    7.00    1.80
   8  -9   0   17.30    2.40
   8  -9   0   14.60    2.00
   7  -9   0    0.50    1.10
   7  -9   0   -0.70    1.00
   6  -9   0   20.30    3.00
   6  -9   0   19.60    2.70
   5  -9   0   12.20    2.50
   5  -9   0   10.80    3.50
   5  -9   0    9.50    2.30
   4  -9   0   -0.70    2.40
   4  -9   0    1.00    1.40
   4  -9   0   -0.40    1.30
   3  -9   0  161.08   10.70
   3  -9   0  149.69    8.10
   3  -9   0  141.69    7.80
   2  -9   0   77.39    5.10
   2  -9   0   72.59    4.90
   2  -9   0   79.89    7.90
   1  -9   0   20.70    4.20
   1  -9   0   18.40    2.60
   1  -9   0   18.90    2.60
   0  -9   0    0.40    2.00
   0  -9   0    0.00    1.60
   2   9   0    5.10    2.00
   3   9   0   13.50    2.20
   8 -10   0    6.40    1.40
   8 -10   0    5.30    1.10
   7 -10   0    5.90    1.50
   7 -10   0    2.60    1.30
   6 -10   0   10.60    2.30
   6 -10   0   10.90    2.10
   5 -10   0  167.78    8.70
   5 -10   0  164.88    8.60
   4 -10   0   15.50    2.40
   4 -10   0   13.70    2.50
   4 -10   0   14.60    3.50
   3 -10   0   18.50    2.60
   3 -10   0    9.70    3.10
   3 -10   0   11.70    2.10
   2 -10   0    6.80    1.80
   2 -10   0    9.20    3.20
   2 -10   0    9.90    1.90
   1 -10   0    6.60    2.60
   1 -10   0    8.00    1.80
   0 -10   0    2.90    2.20
   7 -11   0    3.50    0.40
   7 -11   0    3.80    1.30
   6 -11   0   -1.40    1.10
   6 -11   0    1.50    1.10
   5 -11   0    2.70    1.70
   5 -11   0    0.40    1.00
  -5  11   0    2.90    2.00
   4 -11   0   42.00    3.50
   4 -11   0   48.40    3.80
   3 -11   0   13.70    2.90
   3 -11   0   10.90    1.80
   3 -11   0   10.70    2.00
   2 -11   0   11.10    1.30
   2 -11   0   14.50    3.10
   1 -11   0   -1.20    1.30
   4 -12   0    7.20    1.40
  -4  12   0    8.00    2.00
  -3  12   0    0.00    1.90
  -2  12   0    2.00    1.60
  -4  12  -1   -0.30    1.30
   4 -12   1    0.90    0.90
   1 -11   1    3.60    1.70
   1 -11   1    4.70    2.00
   2 -11   1    7.90    1.50
   2 -11   1    8.50    2.50
   3 -11   1    0.90    1.00
   3 -11   1   -0.20    0.90
   3 -11   1   -1.20    0.60
   4 -11   1   -0.50    1.40
   4 -11   1    0.70    1.10
   4 -11   1    0.70    2.50
   5 -11   1    9.60    1.80
   5 -11   1    8.10    1.80
   6 -11   1   36.70    3.10
   6 -11   1   34.00    3.10
   7 -11   1    2.20    1.10
   7 -11   1    1.50    0.90
   0 -10   1    4.30    1.30
   0 -10   1    3.30    2.20
   1 -10   1   11.30    1.90
   1 -10   1   11.30    3.10
   2 -10   1   22.30    2.60
   2 -10   1   27.20    4.80
   2 -10   1   18.60    2.50
   3 -10   1   39.90    3.80
   3 -10   1   49.80    6.40
   3 -10   1   51.39    4.30
   4 -10   1    9.40    3.10
   4 -10   1    8.50    2.00
   4 -10   1   12.90    2.20
   5 -10   1    4.80    3.60
   5 -10   1    8.90    2.00
   5 -10   1    7.90    2.10
   6 -10   1   -0.60    1.40
   6 -10   1    0.10    1.00
   7 -10   1    6.80    1.60
   7 -10   1    9.00    1.20
   8 -10   1    2.70    0.80
   8 -10   1    5.50    1.30
   3   9  -1    5.70    1.80
   2   9  -1   10.90    2.50
  -1  -9   1   64.69    4.20
   0  -9   1   -0.50    1.00
   0  -9   1   -0.40    1.90
   1  -9   1   46.70    6.10
   1  -9   1   42.60    4.00
   2  -9   1    5.60    3.00
   2  -9   1    8.60    1.90
   2  -9   1    6.90    1.70
   3  -9   1    4.30    1.60
   3  -9   1    1.10    2.80
   3  -9   1    4.20    1.70
   4  -9   1  110.49    6.60
   4  -9   1   91.99    8.50
   4  -9   1  109.49    6.60
   5  -9   1   40.10    4.10
   5  -9   1   43.70    4.20
   5  -9   1   43.70    5.60
   6  -9   1   25.40    3.20
   6  -9   1   25.70    3.20
   7  -9   1    4.90    1.70
   7  -9   1    3.40    1.70
   8  -9   1    4.60    1.40
   8  -9   1    3.30    1.20
   4   8  -1    5.40    1.90
   3   8  -1   10.80    2.70
  -3  -8   1    8.90    2.30
   2   8  -1   90.89    6.80
  -2  -8   1   80.19    5.10
   1   8  -1    5.50    2.50
  -1  -8   1    4.90    1.70
   0  -8   1    8.40    2.90
   0  -8   1   11.80    2.10
   1  -8   1   36.30    5.20
   1  -8   1   25.40    3.40
   1  -8   1   33.00    3.50
   2  -8   1   98.29    5.90
   2  -8   1   99.49    6.00
   2  -8   1   97.89    8.40
   3  -8   1   46.10    4.20
   3  -8   1   43.50    4.00
   3  -8   1   50.99    6.00
   4  -8   1   15.10    2.60
   4  -8   1    9.20    3.70
   4  -8   1   17.50    2.70
   5  -8   1    2.10    1.70
   5  -8   1    2.50    1.60
   6  -8   1   21.30    3.30
   6  -8   1   25.60    3.20
   7  -8   1   -0.60    1.30
   7  -8   1   -0.40    1.20
   8  -8   1   10.70    2.00
   8  -8   1   15.20    1.90
   9  -8   1    5.30    1.30
   9  -8   1    5.40    1.20
   5   7  -1    6.30    1.30
   4   7  -1   17.60    3.20
  -4  -7   1   13.40    2.10
   3   7  -1   26.10    4.10
  -3  -7   1   29.70    3.30
   2   7  -1   61.09    6.10
  -2  -7   1   66.79    5.10
   1   7  -1   -0.50    2.00
  -1  -7   1   -0.80    1.10
   0   7  -1   -3.20    1.60
  -1   7  -1   16.70    3.30
   1  -7   1   17.60    3.40
  -2   7  -1   23.90    4.10
   2  -7   1   26.30    3.80
   3  -7   1  333.07   16.90
  -4   7  -1   64.39    6.30
   4  -7   1   62.89    6.90
   5  -7   1  121.79    7.00
   5  -7   1  111.19    6.80
   6  -7   1    9.10    2.20
   6  -7   1    9.40    2.30
   7  -7   1    1.70    1.50
   7  -7   1    0.20    1.20
   8  -7   1   10.60    2.30
   8  -7   1    7.40    1.90
   9  -7   1    0.30    0.90
   9  -7   1   -0.10    1.20
   6   6  -1   -0.40    1.90
   5   6  -1    8.40    2.60
  -5  -6   1    7.80    1.50
   4   6  -1   22.00    3.90
  -4  -6   1   18.80    2.60
   3   6  -1   25.90    4.10
  -3  -6   1   29.00    3.20
   2   6  -1    2.00    2.00
   0   6  -1  133.09    8.00
   0  -6   1  134.09    7.80
  -1   6  -1   61.89    5.40
   1  -6   1   63.29    4.90
  -2   6  -1   98.19    6.20
   2  -6   1   97.39    6.90
  -3   6  -1    4.00    1.80
   3  -6   1    1.70    1.30
  -4   6  -1   14.60    3.00
   4  -6   1    9.00    3.10
  -5   6  -1   69.19    6.40
   5  -6   1   71.39    7.00
   6  -6   1   -1.70    1.20
   6  -6   1    0.10    1.40
   7  -6   1   82.29    5.50
   7  -6   1   69.69    5.90
   7  -6   1   66.39    6.20
   8  -6   1   21.00    3.20
   8  -6   1   16.80    2.70
   8  -6   1   19.70    2.90
   9  -6   1   -0.90    1.40
   9  -6   1   -0.60    1.00
   6   5  -1    1.10    1.70
  -6  -5   1    0.30    0.90
   5   5  -1   25.80    4.10
  -5  -5   1   24.20    2.90
   4   5  -1    5.00    2.40
  -4  -5   1    5.30    1.60
   3   5  -1    4.60    2.10
   3   5  -1    5.00    2.20
   2   5  -1   85.89    6.00
   1   5  -1  139.29    7.50
  -1  -5   1  138.69    7.40
   0  -5   1   46.50    3.80
  -1   5  -1  497.65   21.20
   1  -5   1  518.85   21.30
  -2   5  -1  461.25   19.10
   2  -5   1  433.66   19.00
  -3   5  -1  169.48    9.00
   3  -5   1  169.38    9.30
  -4   5  -1   70.79    5.40
   4  -5   1   78.39    5.60
  -5   5  -1   65.29    5.90
   5  -5   1   70.09    6.70
   6  -5   1    5.30    2.00
   6  -5   1    5.40    1.80
   6  -5   1    3.40    2.40
   7  -5   1   21.50    3.80
   7  -5   1   25.70    3.30
   7  -5   1   23.10    3.50
   8  -5   1   11.90    2.80
   8  -5   1    8.80    2.10
   8  -5   1   13.00    2.70
  -9   5  -1   17.90    2.40
   9  -5   1   15.30    3.10
   9  -5   1   12.30    1.90
   7   4  -1    1.90    0.90
  -7  -4   1    0.30    1.40
   6   4  -1   71.39    6.60
  -6  -4   1   60.59    4.20
   5   4  -1   22.50    4.10
  -5  -4   1   21.20    2.90
   4   4  -1   13.40    3.50
  -4  -4   1   12.90    2.40
   3   4  -1    1.50    1.70
   2   4  -1   98.39    6.10
  -2  -4   1   96.19    5.80
  -2  -4   1  105.59    5.70
   1   4  -1  775.32   29.40
  -1  -4   1  775.52   29.40
  -1  -4   1  695.93   29.10
   0   4  -1   72.99    3.90
   0  -4   1   68.99    4.30
   0  -4   1   73.49    4.40
  -1   4  -1  509.65   20.70
   1  -4   1  515.95   20.70
  -2   4  -1   53.49    3.70
   2  -4   1   54.09    4.00
  -3   4  -1  182.18    9.10
   3  -4   1  195.58    9.50
  -4   4  -1  186.78    9.60
   4  -4   1  203.08   10.30
   5  -4   1   96.49    7.00
   6  -4   1   25.70    3.50
   6  -4   1    9.50    2.60
   6  -4   1   14.60    2.50
   7  -4   1   21.40    3.80
   7  -4   1   18.50    3.10
   7  -4   1   22.10    3.00
   8  -4   1    6.30    2.00
   8  -4   1    4.80    1.70
   8  -4   1    2.40    2.10
  -9   4  -1   -0.50    1.20
   9  -4   1    0.90    1.90
  -7  -3   1   21.60    2.50
   6   3  -1   31.90    4.40
  -6  -3   1   21.80    3.00
   5   3  -1    3.60    2.50
  -5  -3   1    1.70    1.40
   4   3  -1   30.40    4.00
   3   3  -1  217.48   11.00
  -3  -3   1  217.58    9.90
   2   3  -1  225.38   10.80
  -2  -3   1  232.58   10.20
  -2  -3   1  249.97   10.50
   1   3  -1    7.50    1.40
  -1  -3   1    6.70    1.20
  -1  -3   1   11.10    1.60
   0   3  -1  891.01   32.30
   0  -3   1  858.71   32.70
   0  -3   1  832.32   32.70
  -1   3  -1  434.46   16.70
   1  -3   1  462.85   17.80
  -2   3  -1  831.72   31.50
   2  -3   1  814.62   31.80
  -3   3  -1   20.60    2.30
   3  -3   1   20.10    1.50
   3  -3   1   25.10    2.80
  -4   3  -1  517.75   21.00
   4  -3   1  516.55   21.90
   5  -3   1    0.90    1.50
  -6   3  -1    0.90    2.40
  -6   3  -1    1.00    2.40
  -6   3  -1    0.90    1.40
   6  -3   1    2.30    2.20
   6  -3   1   -2.60    2.60
   7  -3   1    0.00    1.50
   7  -3   1    2.50    2.10
   7  -3   1    4.70    1.90
   8  -3   1   -0.70    1.50
   8  -3   1    0.20    1.40
  -9   3  -1   11.10    1.90
   9  -3   1    8.30    2.10
  -8  -2   1    0.40    0.90
  -7  -2   1  141.49    7.60
  -6  -2   1   16.60    2.60
   5   2  -1   99.09    9.40
   4   2  -1   60.49    4.60
   3   2  -1  240.98   11.10
  -3  -2   1  220.18   10.00
   2   2  -1  484.75   19.40
  -2  -2   1  470.25   18.90
  -2  -2   1  490.35   18.70
   1   2  -1   53.49    3.00
  -1  -2   1   48.80    2.80
  -1  -2   1   50.99    2.80
   0   2  -1   12.50    1.20
   0  -2   1   11.20    1.20
   0  -2   1   13.40    1.40
   1  -2   1  476.15   18.30
  -2   2  -1 4315.57  153.68
   2  -2   1 4237.98  154.08
   2  -2   1 4052.29  153.18
  -3   2  -1 1251.07   45.50
   3  -2   1 1256.07   46.30
   3  -2   1 1138.69   45.40
  -4   2  -1  643.34   24.30
   4  -2   1  590.94   24.60
   4  -2   1  575.34   24.10
  -5   2  -1   24.30    3.80
  -5   2  -1   22.30    3.50
  -5   2  -1   22.40    2.10
   5  -2   1   24.40    2.80
  -6   2  -1  152.18   10.00
  -6   2  -1  154.08    7.30
  -6   2  -1  149.99    9.60
   6  -2   1  151.28    9.50
   6  -2   1  135.79    9.00
   7  -2   1    2.40    1.70
   7  -2   1    0.60    1.90
  -8   2  -1   16.50    2.80
   8  -2   1   19.10    3.50
  -9   2  -1    6.70    1.50
   9  -2   1    6.70    1.90
  -8  -1   1   51.99    4.10
   7   1  -1   13.90    3.00
  -7  -1   1   14.90    2.60
   6   1  -1    0.30    1.70
  -6  -1   1    0.10    1.30
   5   1  -1   -3.50    2.30
   4   1  -1  249.97   12.10
  -4  -1   1  236.08   10.90
   3   1  -1   73.69    4.70
  -3  -1   1   79.99    3.50
  -3  -1   1   80.19    4.40
  -3  -1   1   80.39    4.10
  -3  -1   1   77.59    4.30
   2   1  -1  179.28    7.80
  -2  -1   1  170.38    7.40
  -2  -1   1  174.98    7.30
  -2  -1   1  163.88    7.20
  -2  -1   1  176.28    6.70
   1   1  -1 1320.67   45.50
  -1  -1   1 1159.58   45.10
  -1  -1   1 1199.98   45.20
   0   1  -1 1152.68   44.00
   0  -1   1 1204.58   44.00
   0  -1   1 1250.37   44.20
  -1   1  -1 1352.96   49.10
   1  -1   1 1374.56   49.10
   1  -1   1 1282.37   49.30
  -2   1  -1   90.19    4.00
   2  -1   1   91.99    4.30
   2  -1   1   94.89    4.60
  -3   1  -1  920.51   35.50
   3  -1   1  957.70   36.50
   3  -1   1  974.40   36.40
  -4   1  -1    0.40    1.60
  -4   1  -1   -0.30    1.60
  -4   1  -1    0.20    0.90
   4  -1   1    1.60    1.40
  -5   1  -1    2.90    1.00
  -5   1  -1    2.70    1.80
  -5   1  -1    5.20    2.00
   5  -1   1    1.20    2.20
   6  -1   1   41.50    4.00
   6  -1   1   39.50    4.10
   6  -1   1   39.00    4.70
  -7   1  -1    1.00    1.50
   7  -1   1   -0.60    1.70
   7  -1   1    0.50    1.70
  -8   1  -1   18.30    2.70
   8  -1   1   10.40    2.70
   9  -1   1    2.30    1.30
  -9   0   1    6.80    1.20
   8   0  -1   36.70    4.20
  -8   0   1   36.20    3.70
   7   0  -1   12.00    2.90
  -7   0   1   12.70    2.50
   6   0  -1    5.50    2.30
  -6   0   1    6.60    2.00
   5   0  -1   58.89    5.70
  -5   0   1   71.59    4.90
  -5   0   1   63.19    4.90
  -5   0   1   69.69    3.70
   4   0  -1  252.67   12.30
  -4   0   1  268.27   11.90
  -4   0   1  265.67   10.40
  -4   0   1  266.37   11.60
   3   0  -1  447.76   17.70
  -3   0   1  416.86   17.30
  -3   0   1  421.06   16.30
  -3   0   1  464.95   17.10
  -3   0   1  417.76   17.20
   2   0  -1 3695.83  131.89
   2   0  -1 3504.25  131.59
  -2   0   1 3595.94  131.59
   1   0  -1   12.30    0.80
   1   0  -1   11.10    0.90
  -1   0   1   11.80    1.00
   0   0  -1  920.01   34.30
   0   0  -1  898.61   34.10
   0   0  -1  919.41   34.20
   0   0   1 1001.00   34.40
   0   0   1  945.11   34.20
  -1   0  -1    5.30    0.40
  -1   0  -1    3.80    0.70
  -1   0  -1    4.90    0.80
  -1   0  -1    4.10    0.50
   1   0   1    4.60    0.70
  -2   0  -1 7352.76  267.87
  -2   0  -1 6971.30  266.97
  -2   0  -1 7435.26  266.97
  -2   0  -1 7356.16  267.97
   2   0   1 7593.44  267.97
  -3   0  -1 1443.26   55.19
  -3   0  -1 1463.75   54.99
  -3   0  -1 1452.85   53.69
   3   0   1 1474.95   55.39
  -4   0  -1   59.79    3.10
  -4   0  -1   63.29    4.40
  -4   0  -1   61.69    4.60
   4   0   1   53.59    5.00
  -5   0  -1  364.46   15.30
  -5   0  -1  394.76   17.80
  -5   0  -1  408.26   17.60
   5   0   1  369.66   18.40
  -6   0  -1    0.30    1.20
   6   0   1    1.40    1.90
  -7   0  -1   17.80    2.80
   7   0   1   15.20    3.20
  -8   0  -1    8.00    1.80
   8   0   1    4.30    1.90
   9  -1  -1   -1.30    1.20
  -9   1   1    0.20    0.90
   8  -1  -1   20.40    3.50
  -8   1   1   16.60    2.80
   7  -1  -1   20.30    3.70
  -7   1   1   16.30    2.80
   6  -1  -1  141.79    9.30
   6  -1  -1  141.29    8.30
   6  -1  -1   88.69    9.10
   5  -1  -1   48.60    4.90
  -5   1   1   40.10    3.70
  -5   1   1   48.40    2.60
  -5   1   1   45.70    3.70
   4  -1  -1   70.09    4.70
  -4   1   1   85.49    4.60
   3  -1  -1    3.30    1.00
   3  -1  -1    1.90    0.80
  -3   1   1    2.30    0.80
   2  -1  -1   14.70    1.50
   2  -1  -1   13.90    1.40
  -2   1   1   15.50    1.50
   1  -1  -1  734.13   25.90
   1  -1  -1  665.43   26.30
  -1   1   1  714.23   26.30
   0  -1  -1 2478.55   92.39
   0   1   1 2530.35   92.19
   0   1   1 2565.14   92.09
  -1  -1  -1 3586.54  128.09
  -1  -1  -1 3423.26  128.89
   1   1   1 3543.45  128.79
  -2  -1  -1 1560.74   60.69
  -2  -1  -1 1659.93   61.79
  -2  -1  -1 1644.54   60.79
  -2  -1  -1 1645.74   61.89
   2   1   1 1787.32   62.19
  -3  -1  -1  449.06   18.00
   3   1   1  406.56   18.20
  -4  -1  -1   40.60    4.00
   4   1   1   40.40    4.60
  -5  -1  -1  174.98    9.40
   5   1   1  169.58   10.70
  -6  -1  -1    1.00    1.40
   6   1   1    0.10    1.90
  -7  -1  -1   64.59    5.10
   7   1   1   61.49    5.70
   9  -2  -1    0.10    1.30
  -9   2   1   -0.50    1.00
   8  -2  -1   12.80    3.00
  -8   2   1   13.00    2.50
   7  -2  -1   58.59    6.20
  -6   2   1    5.70    1.50
  -6   2   1    4.80    1.30
  -6   2   1   10.30    0.90
   5  -2  -1  134.39    7.70
   4  -2  -1   82.49    5.00
   4  -2  -1   70.59    4.40
  -4   2   1   79.89    4.60
   3  -2  -1  416.96   16.80
   3  -2  -1  445.86   17.60
  -3   2   1  438.56   17.40
   2  -2  -1 2491.25  102.39
   2  -2  -1 2893.01  103.39
  -2   2   1 3061.49  103.49
   1  -2  -1  152.58    6.70
  -1   2   1  154.38    6.60
   0  -2  -1    6.80    1.10
   0   2   1    9.60    1.10
   0   2   1    8.70    1.10
  -1  -2  -1  501.35   19.10
  -1  -2  -1  485.15   19.70
   1   2   1  522.35   19.80
  -2  -2  -1    2.00    1.00
   2   2   1    0.60    0.80
  -3  -2  -1  187.58    8.90
   3   2   1  166.08    9.40
  -4  -2  -1   79.59    5.30
   4   2   1   61.99    6.00
  -5  -2  -1    0.30    1.60
   5   2   1   -2.00    2.30
  -6  -2  -1  133.69    7.70
   6   2   1  159.68   13.50
   9  -3  -1   -0.70    1.30
  -9   3   1   -0.40    1.00
   8  -3  -1   38.70    4.80
   7  -3  -1   92.49    6.50
   7  -3  -1  100.19    7.30
   5  -3  -1    6.50    2.10
  -5   3   1    4.70    1.70
   4  -3  -1    3.50    1.50
  -4   3   1    6.20    1.60
   3  -3  -1  106.39    5.90
  -3   3   1  106.59    5.80
   2  -3  -1  504.05   20.50
  -2   3   1  524.65   20.50
   1  -3  -1  941.61   36.60
  -1   3   1  981.60   36.60
   0  -3  -1  839.02   31.70
   0   3   1  808.72   31.30
   0   3   1  818.62   31.00
  -1  -3  -1   60.89    4.00
   1   3   1   64.69    4.00
  -2  -3  -1   39.70    3.20
   2   3   1   43.10    4.20
  -3  -3  -1   75.19    5.20
   3   3   1   67.69    5.50
  -4  -3  -1    2.10    1.00
   4   3   1    0.90    1.90
   5   3   1    0.70    2.20
   6   3   1   37.80    4.80
   9  -4  -1    0.30    1.60
  -9   4   1    1.70    1.30
   8  -4  -1   55.09    5.90
   8  -4  -1   52.89    5.00
   7  -4  -1   -2.10    1.60
   7  -4  -1   -0.20    1.50
   7  -4  -1   -0.30    1.30
   6  -4  -1   34.60    4.50
   6  -4  -1   60.39    5.80
   5  -4  -1   28.60    3.80
  -5   4   1   24.90    3.40
   4  -4  -1   29.00    3.60
  -4   4   1   25.60    3.20
   3  -4  -1   23.70    3.00
  -3   4   1   25.80    3.00
   2  -4  -1  205.38    9.80
  -2   4   1  211.38    9.90
   1  -4  -1 2228.48   82.19
  -1   4   1 2166.98   82.09
   0  -4  -1 1088.39   43.10
   0   4   1 1119.79   42.90
   0   4   1 1157.08   42.40
  -1  -4  -1   42.20    4.00
   1   4   1   52.59    3.60
   1   4   1   46.30    3.70
  -2  -4  -1  387.86   17.00
   2   4   1  390.06   17.60
  -3  -4  -1   51.19    4.80
   3   4   1   49.20    5.30
   4   4   1    5.40    2.60
   5   4   1   77.79    7.50
   6   4   1    2.90    1.60
   9  -5  -1    6.70    2.80
   8  -5  -1   49.60    4.30
   8  -5  -1   52.19    5.50
   8  -5  -1   49.00    4.80
   7  -5  -1    9.30    2.70
   7  -5  -1    8.80    2.30
   7  -5  -1    4.90    1.60
   6  -5  -1    1.60    1.40
   6  -5  -1    0.30    1.50
   6  -5  -1    0.70    1.90
   5  -5  -1   49.00    5.30
  -5   5   1   38.50    4.60
   4  -5  -1  353.86   16.10
  -4   5   1  316.27   15.60
   3  -5  -1  268.87   12.60
  -3   5   1  248.38   12.60
   2  -5  -1  787.32   31.70
   1  -5  -1  883.51   35.40
  -1   5   1  896.51   35.40
   0  -5  -1    1.10    1.80
   0   5   1    1.40    1.80
  -1  -5  -1  295.07   13.80
  -2  -5  -1  124.29    7.50
   2   5   1  139.69    8.50
   3   5   1   57.19    6.50
   4   5   1   64.29    6.50
   5   5   1   12.30    3.10
   6   5   1   -0.30    1.80
   9  -6  -1   15.60    2.90
   8  -6  -1    5.60    1.90
   8  -6  -1    9.90    2.50
   8  -6  -1    7.90    1.90
   7  -6  -1   31.90    4.20
   7  -6  -1   37.40    4.30
   7  -6  -1   26.30    3.40
   6  -6  -1   25.00    3.40
   6  -6  -1   19.00    2.80
   5  -6  -1   13.10    3.20
  -5   6   1   13.20    3.50
   4  -6  -1   30.50    4.30
  -4   6   1   27.70    4.10
   3  -6  -1   24.50    3.30
  -3   6   1   22.40    3.00
   2  -6  -1  143.59    8.50
  -2   6   1  141.29    8.80
   1  -6  -1  108.99    7.40
  -1   6   1  115.19    7.20
   0  -6  -1    1.60    1.80
   0   6   1    2.10    0.80
  -1  -6  -1   76.49    5.90
   2   6   1   54.89    6.20
   3   6   1   34.40    4.90
   4   6   1   12.80    3.10
   5   6   1   71.79    6.60
   6   6   1    1.00    1.60
   9  -7  -1    1.00    1.00
   9  -7  -1   -0.30    1.00
   8  -7  -1    0.20    1.20
   8  -7  -1   -0.20    1.30
   7  -7  -1   14.90    2.90
   7  -7  -1   18.70    2.90
   6  -7  -1    8.00    2.10
   6  -7  -1    9.60    2.10
   5  -7  -1   93.99    5.90
   5  -7  -1   86.99    5.80
   4  -7  -1   34.90    5.50
   4  -7  -1   41.20    4.40
  -4   7   1   39.00    5.20
   3  -7  -1   95.39    7.50
  -3   7   1   96.59    8.30
   2  -7  -1   47.90    5.80
  -2   7   1   46.60    5.80
   1  -7  -1   48.10    5.70
  -1   7   1   47.10    5.50
   0  -7  -1    0.60    2.00
  -1  -7  -1   33.50    3.50
   1   7   1   37.40    4.80
   2   7   1    3.20    2.50
   3   7   1   23.80    4.00
   4   7   1    1.40    1.80
   5   7   1   -1.20    0.30
   9  -8  -1    0.50    0.90
   9  -8  -1    0.00    0.80
   8  -8  -1   -0.50    1.20
   8  -8  -1    0.00    1.10
   7  -8  -1    0.60    1.10
   7  -8  -1   -0.60    1.40
   6  -8  -1    0.10    1.30
   6  -8  -1    2.20    1.60
   5  -8  -1    1.30    1.40
   5  -8  -1   -0.20    2.40
   5  -8  -1    1.80    1.40
   4  -8  -1    1.20    2.60
   4  -8  -1    0.70    1.30
   4  -8  -1    2.10    1.50
   3  -8  -1   -0.20    2.60
   3  -8  -1    1.90    1.60
   3  -8  -1    0.00    1.40
   2  -8  -1   86.39    5.50
   2  -8  -1  105.89    8.90
   2  -8  -1   99.69    5.90
   1  -8  -1   29.80    3.30
   1  -8  -1   32.10    5.20
   0  -8  -1   37.40    3.80
   0  -8  -1   36.00    5.30
   1   8   1   53.49    5.90
   2   8   1    4.90    2.30
   3   8   1    0.90    1.60
   4   8   1   24.20    3.00
   8  -9  -1    0.30    1.20
   8  -9  -1    1.10    1.00
   7  -9  -1    7.70    2.00
   7  -9  -1    9.40    2.00
   6  -9  -1   14.90    2.50
   6  -9  -1   17.40    2.60
   5  -9  -1   14.00    2.40
   5  -9  -1   18.00    2.80
   4  -9  -1   11.10    3.40
   4  -9  -1   14.50    2.60
   4  -9  -1   17.20    2.60
   3  -9  -1   13.00    2.30
   3  -9  -1   12.80    3.90
   3  -9  -1   15.50    2.50
   2  -9  -1    0.70    2.50
   2  -9  -1    3.70    1.60
   1  -9  -1   10.00    2.00
   1  -9  -1    9.10    3.30
   0  -9  -1   34.40    3.20
   0  -9  -1   36.70    5.00
   2   9   1   14.20    2.50
   3   9   1    3.50    1.40
   8 -10  -1   14.90    1.70
   8 -10  -1   14.00    1.80
   7 -10  -1    5.90    1.50
   7 -10  -1    7.10    1.60
   6 -10  -1    0.30    0.40
   6 -10  -1    0.30    1.20
  -6  10   1   -1.50    1.70
   5 -10  -1   37.90    3.90
   5 -10  -1   34.20    3.40
   4 -10  -1    4.00    2.70
   4 -10  -1    7.20    1.90
   4 -10  -1   11.90    2.30
   3 -10  -1   43.30    5.60
   3 -10  -1   54.79    4.40
   3 -10  -1   48.30    4.30
   2 -10  -1    5.50    2.60
   2 -10  -1    4.90    1.60
   1 -10  -1    8.20    1.50
   1 -10  -1   12.00    3.10
   6 -11  -1   23.50    2.40
   6 -11  -1   20.80    2.40
  -6  11   1   19.20    2.80
   5 -11  -1    2.10    1.10
   5 -11  -1    1.80    1.10
  -5  11   1    2.60    1.90
   4 -11  -1    6.70    1.90
   3 -11  -1   10.10    1.60
   2 -11  -1    4.20    0.90
   4 -12  -1   17.60    2.20
  -4  12   1   16.80    2.60
  -3  12   1    0.20    1.70
   3 -12   2    4.40    1.00
   4 -12   2    1.00    0.80
   5 -12   2    4.00    1.20
   0 -11   2   11.10    2.30
   0 -11   2   12.00    1.50
   1 -11   2    2.30    1.00
   1 -11   2    2.90    1.90
   2 -11   2   17.90    3.30
   2 -11   2   16.80    2.10
   3 -11   2   28.50    3.60
   3 -11   2   26.00    2.80
   4 -11   2   -1.30    1.00
   4 -11   2    0.40    2.80
   4 -11   2   -2.80    0.80
   5 -11   2   18.40    2.40
   5 -11   2   24.70    2.40
   6 -11   2    2.70    1.40
   6 -11   2    8.80    1.60
  -1 -10   2    0.90    1.00
   0 -10   2    6.70    2.30
   0 -10   2   10.50    1.90
   1 -10   2    0.10    1.00
   1 -10   2    1.70    2.10
   2 -10   2   24.50    4.30
   2 -10   2   35.60    3.40
   3 -10   2   19.90    2.70
   3 -10   2   16.90    4.10
   3 -10   2   17.70    2.80
   4 -10   2   37.00    3.90
   4 -10   2   25.70    4.40
   4 -10   2   34.90    3.60
   5 -10   2    1.50    1.30
   5 -10   2    1.20    1.20
   5 -10   2   -2.00    1.30
   6 -10   2   17.90    2.80
   6 -10   2   24.40    3.00
   7 -10   2   15.20    2.20
   7 -10   2   19.70    2.50
   3   9  -2    5.70    1.80
   2   9  -2   -0.50    1.30
  -2  -9   2   -0.30    0.90
  -1  -9   2   49.00    4.00
   0  -9   2    8.30    1.90
   0  -9   2    9.60    3.00
   1  -9   2   35.20    5.10
   1  -9   2   38.00    3.80
   2  -9   2  110.19    8.50
   2  -9   2  107.99    6.50
   2  -9   2  111.99    6.60
   3  -9   2   23.00    3.10
   3  -9   2   32.50    5.30
   3  -9   2   22.20    3.00
   4  -9   2   50.29    6.20
   4  -9   2   59.79    5.10
   4  -9   2   58.39    5.00
   5  -9   2   16.50    3.90
   5  -9   2   15.10    2.70
   5  -9   2   17.40    2.70
   6  -9   2    1.00    1.30
   6  -9   2    4.70    1.80
   7  -9   2    8.70    1.90
   7  -9   2   13.70    1.90
   8  -9   2    1.10    0.50
   8  -9   2    1.00    1.00
   4   8  -2    2.70    1.60
  -4  -8   2    3.10    1.00
   3   8  -2    2.90    1.90
  -3  -8   2    2.50    1.20
   2   8  -2    2.00    1.90
  -2  -8   2    5.70    1.50
   1   8  -2    8.90    2.80
  -1  -8   2   17.40    3.70
  -1  -8   2    9.50    2.00
   0  -8   2    1.80    1.40
   0  -8   2    0.90    2.30
   1  -8   2   12.20    3.40
   1  -8   2   11.30    2.20
   2  -8   2    5.40    1.60
   2  -8   2   11.20    2.20
   2  -8   2   12.60    3.30
   3  -8   2   26.20    3.10
   3  -8   2   27.30    3.30
   3  -8   2   26.30    4.70
   4  -8   2   14.30    2.50
   4  -8   2   11.50    3.40
   4  -8   2    6.60    1.80
   5  -8   2   26.10    3.40
   5  -8   2   18.90    2.90
   6  -8   2   21.00    3.00
   6  -8   2   22.70    3.10
   7  -8   2   12.20    2.50
   7  -8   2   11.10    2.20
   8  -8   2    9.70    2.00
   8  -8   2    9.60    1.90
   5   7  -2   -1.30    0.60
  -5  -7   2    0.40    0.80
   4   7  -2    6.20    2.20
  -4  -7   2    5.40    1.50
   3   7  -2   -2.40    1.50
  -3  -7   2    0.30    1.00
   2   7  -2  114.19    7.90
  -2  -7   2   98.79    6.10
   1   7  -2    4.80    2.20
  -1  -7   2   10.30    2.10
  -1  -7   2    9.50    3.00
   0   7  -2   40.90    5.30
  -1   7  -2  276.87   14.20
   1  -7   2  276.17   13.50
  -2   7  -2    1.60    1.80
   2  -7   2    5.60    3.10
  -3   7  -2   46.10    5.30
   3  -7   2   45.00    5.60
  -4   7  -2   -0.50    1.90
   4  -7   2    1.20    1.80
   4  -7   2    0.30    3.50
   4  -7   2   -3.10    1.90
   5  -7   2  111.49    6.60
   5  -7   2  102.89    6.60
   6  -7   2   14.70    2.70
   6  -7   2   15.50    2.80
   7  -7   2    0.20    1.20
   7  -7   2   -1.00    1.40
   8  -7   2   20.30    2.80
   8  -7   2   23.50    3.20
   9  -7   2    0.50    1.10
   6   6  -2    9.20    2.60
  -6  -6   2   11.70    1.90
   5   6  -2    3.70    2.80
  -5  -6   2    3.50    1.20
   4   6  -2    0.10    1.70
  -4  -6   2   -0.30    1.00
   3   6  -2   16.00    3.70
  -3  -6   2   22.90    2.90
   2   6  -2   59.79    6.20
  -2  -6   2   75.19    7.70
   0   6  -2    9.40    2.10
   0  -6   2    7.70    1.60
  -1   6  -2    1.70    1.90
   1  -6   2    2.00    2.10
  -2   6  -2  139.29    7.90
   2  -6   2  125.19    7.90
  -3   6  -2  179.18    9.90
   3  -6   2  191.58   10.80
  -4   6  -2  170.38    9.70
   4  -6   2  159.78   10.10
  -5   6  -2   41.30    5.00
   5  -6   2   40.00    4.80
   5  -6   2   44.40    5.10
   5  -6   2   31.30    4.00
   6  -6   2   30.50    3.50
   6  -6   2   30.00    3.70
   7  -6   2   10.00    2.40
   7  -6   2   15.40    2.70
   7  -6   2    9.70    2.60
   8  -6   2   23.50    3.10
   8  -6   2   20.80    3.20
   8  -6   2   32.80    3.50
   9  -6   2    4.00    1.70
   9  -6   2    3.20    1.20
   6   5  -2    2.00    1.80
  -6  -5   2    3.50    1.20
   5   5  -2   32.30    4.80
  -5  -5   2   36.30    3.70
   4   5  -2    9.10    3.00
  -4  -5   2   10.40    2.20
   3   5  -2   41.90    5.50
   3   5  -2   48.00    5.10
   2   5  -2  310.77   14.50
   1   5  -2   62.19    4.40
  -1  -5   2   65.69    4.90
  -1  -5   2   63.99    4.60
   0  -5   2  290.07   13.70
   0  -5   2  325.47   13.80
   1  -5   2  235.58   11.00
  -2   5  -2   24.30    2.90
   2  -5   2   23.60    3.40
  -3   5  -2    2.90    1.50
   3  -5   2   12.00    2.60
  -4   5  -2  559.34   23.40
   4  -5   2  542.55   24.00
   5  -5   2   69.79    6.80
   6  -5   2    4.10    2.30
   6  -5   2   -0.30    1.40
   6  -5   2   -0.70    1.40
   7  -5   2   62.49    5.30
   7  -5   2   68.79    6.30
   7  -5   2   62.19    5.50
   8  -5   2    8.40    2.20
   8  -5   2   10.20    2.30
   8  -5   2   14.30    2.90
  -9   5  -2   11.80    2.10
   9  -5   2    9.90    2.40
   9  -5   2    8.90    1.60
   7   4  -2    3.50    1.20
  -7  -4   2    0.20    0.80
   6   4  -2   -0.70    2.10
  -6  -4   2    0.90    1.20
   5   4  -2    3.80    2.40
  -5  -4   2    4.00    1.70
   4   4  -2   32.40    4.60
  -4  -4   2   29.80    3.40
   3   4  -2  147.09    8.60
   2   4  -2   -1.40    1.00
  -2  -4   2   -0.20    1.00
   1   4  -2    3.10    1.20
  -1  -4   2    1.60    1.10
  -1  -4   2    3.50    1.20
   0   4  -2    1.10    0.70
   0  -4   2    1.70    1.00
   0  -4   2    0.70    0.90
  -1   4  -2  344.77   13.60
   1  -4   2  363.86   14.90
   1  -4   2  343.57   14.60
  -2   4  -2  552.24   22.30
   2  -4   2  559.04   22.60
  -3   4  -2 1199.98   46.20
   3  -4   2 1212.48   46.90
  -4   4  -2  118.09    6.80
   4  -4   2  128.89    7.50
   5  -4   2    3.20    1.90
   6  -4   2    5.60    2.30
   6  -4   2    2.30    1.50
   6  -4   2    4.90    1.90
   7  -4   2   42.80    4.40
   7  -4   2   36.40    4.00
   7  -4   2   36.50    5.00
   8  -4   2   -0.20    1.10
   8  -4   2    0.20    1.30
   8  -4   2    0.60    1.80
  -9   4  -2   11.20    1.90
   9  -4   2   14.80    2.90
   9  -4   2   11.60    1.70
  -8  -3   2    0.40    0.80
  -7  -3   2    7.50    1.70
   6   3  -2   38.90    4.90
  -6  -3   2   49.70    4.40
   5   3  -2   17.00    3.70
  -5  -3   2   20.40    3.00
   4   3  -2   -0.10    1.80
   3   3  -2  584.34   24.40
   2   3  -2  448.46   19.20
  -2  -3   2  491.95   18.70
  -2  -3   2  460.75   18.80
   1   3  -2  200.88    8.90
  -1  -3   2  207.88    8.70
  -1  -3   2  192.58    8.80
   0   3  -2  784.42   29.70
   0  -3   2  794.92   29.90
   0  -3   2  780.32   30.10
  -1   3  -2   91.19    4.10
   1  -3   2   98.79    4.80
   1  -3   2  100.09    4.90
  -2   3  -2 1048.50   39.40
   2  -3   2 1031.70   39.70
  -3   3  -2    2.00    1.00
   3  -3   2    1.30    0.70
   3  -3   2    2.30    0.80
  -4   3  -2  213.78    9.90
   4  -3   2  222.78   11.00
   6  -3   2  146.99    8.00
   6  -3   2  141.49    8.00
   6  -3   2  135.99    9.00
   7  -3   2    8.70    2.20
   7  -3   2    9.00    2.90
   7  -3   2    8.70    2.30
  -8   3  -2    0.10    1.30
   8  -3   2    0.50    1.20
   8  -3   2    1.80    1.70
  -9   3  -2    0.40    1.20
   9  -3   2    0.50    1.20
  -8  -2   2    0.60    1.00
  -7  -2   2    1.90    1.50
  -6  -2   2   13.70    2.50
   5   2  -2   11.70    3.40
   4   2  -2   72.69    5.00
   3   2  -2  225.48   10.60
  -3  -2   2  222.68    9.80
  -3  -2   2  218.68    9.60
   2   2  -2    5.00    1.30
  -2  -2   2    4.60    1.00
  -2  -2   2    4.60    1.10
   1   2  -2   23.60    1.90
  -1  -2   2   25.00    1.60
  -1  -2   2   23.00    2.00
   0   2  -2  101.49    4.40
   0  -2   2   93.69    4.30
   0  -2   2   98.19    4.60
   1  -2   2   46.60    2.30
   1  -2   2   39.40    2.50
   1  -2   2   46.90    2.60
  -2   2  -2 2127.29   78.19
   2  -2   2 2163.38   78.79
   2  -2   2 2083.59   78.09
  -3   2  -2  102.49    4.80
   3  -2   2  103.59    5.70
   3  -2   2   92.79    5.00
   4  -2   2    0.00    1.00
   4  -2   2    1.00    1.30
  -5   2  -2    2.60    2.40
  -5   2  -2    2.10    2.50
  -5   2  -2    3.00    1.50
   6  -2   2   25.10    3.30
   6  -2   2   23.70    3.20
   6  -2   2   19.30    3.70
   7  -2   2   38.40    4.00
   7  -2   2   40.00    5.00
  -8   2  -2    3.70    1.80
   8  -2   2    3.20    1.40
   8  -2   2    5.80    2.20
   9  -2   2    0.90    1.30
  -8  -1   2   23.30    2.80
   7   1  -2   17.80    3.30
  -7  -1   2   18.60    2.80
   6   1  -2   18.90    3.20
  -6  -1   2   15.80    2.60
   5   1  -2    4.30    2.30
   4   1  -2    6.30    2.20
   3   1  -2    8.00    1.80
  -3  -1   2   13.00    1.60
  -3  -1   2   14.10    1.70
   2   1  -2  216.88    8.50
  -2  -1   2  190.08    8.00
  -2  -1   2  163.68    7.50
   1   1  -2  347.87   13.30
  -1  -1   2  315.17   13.20
  -1  -1   2  351.76   12.70
   0  -1   2 1220.48   44.40
   0  -1   2 1201.88   44.70
   1  -1   2 3348.86  124.99
   1  -1   2 3391.06  125.19
   1  -1   2 3522.15  124.79
  -2   1  -2 3924.51  151.18
   2  -1   2 4329.97  152.18
   2  -1   2 4195.98  151.88
   3  -1   2  177.38    8.40
  -4   1  -2   87.89    5.70
  -4   1  -2   94.49    4.40
  -4   1  -2   94.19    6.00
   4  -1   2   85.99    5.80
  -5   1  -2  198.78   11.20
  -5   1  -2  210.78    8.90
  -5   1  -2  207.58   10.90
   5  -1   2  195.58   11.50
   6  -1   2   36.70    3.80
   6  -1   2   31.70    4.50
  -7   1  -2    2.80    1.70
   7  -1   2    3.30    1.60
   7  -1   2    2.20    2.10
  -8   1  -2   14.00    2.40
   8  -1   2   15.10    2.90
   9  -1   2    1.30    1.10
  -9   0   2    1.70    1.00
   8   0  -2   -1.70    1.40
  -8   0   2    0.40    1.20
   7   0  -2   13.50    2.90
  -7   0   2   13.10    2.50
   6   0  -2    6.50    2.10
  -6   0   2    7.80    2.10
   5   0  -2   10.00    2.70
   4   0  -2   69.39    5.10
  -4   0   2   70.39    4.10
  -4   0   2   73.99    4.30
  -4   0   2   79.59    4.40
  -4   0   2   64.39    3.20
   3   0  -2   39.30    2.80
  -3   0   2   29.90    2.20
  -3   0   2   34.70    2.50
  -3   0   2   33.10    1.70
  -3   0   2   33.10    2.40
   2   0  -2  179.58    7.50
   2   0  -2  209.08    8.10
  -2   0   2  171.08    7.80
   1   0  -2 1709.23   60.19
   1   0  -2 1604.44   59.79
  -1   0   2 1604.24   60.29
   0   0  -2  471.55   17.90
   0   0   2  474.75   17.80
   0   0   2  489.45   18.00
  -1   0  -2 1193.38   44.50
  -1   0  -2 1179.28   43.90
  -1   0  -2 1176.48   44.60
   1   0   2 1246.48   44.60
  -2   0  -2  183.18    8.20
  -2   0  -2  181.48    8.30
  -2   0  -2  184.98    7.20
   2   0   2  177.78    8.20
  -3   0  -2  492.95   20.30
  -3   0  -2  492.65   18.60
  -3   0  -2  478.85   19.90
   3   0   2  487.25   20.30
  -4   0  -2  130.39    6.00
  -4   0  -2  126.49    7.50
  -4   0  -2  132.39    7.80
   4   0   2  128.99    8.10
  -5   0  -2   22.00    3.30
   5   0   2   19.00    4.10
  -6   0  -2   59.29    5.50
   6   0   2   63.39    6.20
   6   0   2   78.39    5.10
   7   0   2   19.20    2.60
   7   0   2   22.90    3.80
   8   0   2    3.70    1.70
   9  -1  -2   25.70    3.10
  -9   1   2   30.80    2.90
   8  -1  -2   16.90    3.30
  -8   1   2   13.60    2.50
   7  -1  -2   37.40    4.60
  -7   1   2   33.60    3.90
   6  -1  -2  104.69    9.10
   5  -1  -2  156.98    8.70
  -5   1   2  161.38    8.20
  -5   1   2  157.18    6.70
  -5   1   2  163.18    8.10
   4  -1  -2  541.55   22.70
   4  -1  -2  586.14   22.70
  -4   1   2  567.84   22.50
   3  -1  -2  135.39    6.40
   3  -1  -2  140.79    6.40
  -3   1   2  134.59    6.40
   2  -1  -2 1772.62   64.29
   2  -1  -2 1733.53   64.39
  -2   1   2 1730.23   64.59
   1  -1  -2 2635.04  101.89
   1  -1  -2 2739.23  102.09
  -1   1   2 3006.40  102.29
   0  -1  -2  517.65   21.70
   0   1   2  596.74   21.70
   0   1   2  609.84   21.50
  -1  -1  -2 1029.10   39.60
   1   1   2 1074.49   39.60
  -2  -1  -2  435.46   18.10
   2   1   2  452.25   18.30
  -3  -1  -2  678.33   26.00
   3   1   2  597.64   26.10
  -4  -1  -2  403.36   17.20
   4   1   2  345.47   17.60
  -5  -1  -2  254.47   12.80
   5   1   2  223.48   13.50
   6   1   2   25.70    3.80
   6   1   2   27.60    3.30
   7   1   2    0.90    1.70
   9  -2  -2    2.40    1.60
  -9   2   2    0.30    1.10
   8  -2  -2    9.90    2.70
  -8   2   2   11.10    2.40
   7  -2  -2   41.00    4.80
   5  -2  -2   53.69    4.20
  -5   2   2   44.20    4.00
   4  -2  -2  159.88    7.40
   4  -2  -2  161.08    7.80
  -4   2   2  142.29    7.60
   3  -2  -2  119.49    5.50
   3  -2  -2  123.99    6.10
  -3   2   2  127.29    6.20
   2  -2  -2  979.90   36.80
   2  -2  -2  919.91   36.00
  -2   2   2 1037.80   37.10
   1  -2  -2   40.30    2.60
  -1   2   2   44.00    2.60
  -1   2   2   40.60    2.00
   0  -2  -2  791.32   30.20
   0   2   2  803.52   29.80
   0   2   2  780.92   29.70
  -1  -2  -2  185.68    8.30
   1   2   2  172.78    7.30
   1   2   2  185.48    8.30
  -2  -2  -2  269.27   12.20
   2   2   2  283.57   12.60
  -3  -2  -2  399.06   17.30
   3   2   2  391.26   17.90
  -4  -2  -2    0.90    2.30
   4   2   2    0.00    1.70
   5   2   2    0.90    1.50
   5   2   2   -0.10    2.40
   6   2   2  103.69    7.80
   9  -3  -2    5.00    1.90
  -9   3   2    3.60    1.50
   8  -3  -2    7.50    2.50
   7  -3  -2   44.80    5.20
   7  -3  -2   48.50    4.80
   5  -3  -2  604.24   24.70
  -5   3   2  563.74   24.20
   4  -3  -2  142.89    7.60
  -4   3   2  139.89    7.60
   3  -3  -2    0.90    1.00
  -3   3   2    1.20    1.00
   2  -3  -2   81.19    4.60
  -2   3   2   78.79    4.60
   1  -3  -2  142.79    6.70
  -1   3   2  150.78    6.70
  -1   3   2  126.99    5.60
   0  -3  -2  677.43   26.20
   0   3   2  672.03   25.60
   0   3   2  645.54   25.60
  -1  -3  -2   18.90    2.60
   1   3   2   20.70    2.50
   1   3   2   22.70    2.10
  -2  -3  -2  228.58   11.30
   2   3   2  257.37   12.00
  -3  -3  -2   49.90    4.60
   3   3   2   44.80    5.30
  -4  -3  -2   17.20    2.80
   4   3   2    9.10    3.00
   5   3   2    8.10    2.90
   6   3   2   26.90    4.10
   9  -4  -2    5.40    2.00
  -9   4   2    2.40    1.40
   8  -4  -2   36.30    4.80
   8  -4  -2   40.90    4.60
   7  -4  -2   13.90    2.80
   7  -4  -2   15.90    3.20
   6  -4  -2   50.19    5.30
   6  -4  -2   32.50    5.10
   5  -4  -2  157.68    9.00
  -5   4   2  142.59    8.60
   4  -4  -2    1.70    1.40
  -4   4   2    2.80    1.60
   3  -4  -2  602.04   24.90
  -3   4   2  617.54   25.10
   2  -4  -2  984.20   38.10
  -2   4   2  969.40   38.10
   1  -4  -2  348.67   14.70
  -1   4   2  332.57   14.70
   0  -4  -2  300.87   13.40
   0   4   2  294.67   12.60
   0   4   2  297.37   12.90
  -1  -4  -2  904.51   35.80
   1   4   2  902.81   35.80
  -2  -4  -2  750.22   31.30
   2   4   2  800.22   32.20
  -3  -4  -2    5.80    2.30
   3   4   2    8.60    2.80
   4   4   2    4.00    2.50
   5   4   2  121.69    8.90
   6   4   2   -0.20    1.40
   9  -5  -2    7.60    2.90
  -9   5   2   10.50    1.60
   8  -5  -2   27.30    3.60
   8  -5  -2   30.60    4.30
   7  -5  -2   29.10    4.10
   7  -5  -2   23.00    3.10
   7  -5  -2   30.90    4.10
   6  -5  -2   58.69    5.10
   6  -5  -2   57.09    5.30
   6  -5  -2   55.29    4.50
   5  -5  -2  122.09    8.00
  -5   5   2  107.99    7.70
   4  -5  -2   67.89    5.30
  -4   5   2   63.59    5.90
   3  -5  -2   31.10    3.70
  -3   5   2   27.50    3.30
   2  -5  -2   14.40    2.30
  -2   5   2   18.10    2.80
   1  -5  -2 1734.23   64.69
  -1   5   2 1639.04   64.49
   0  -5  -2  169.28    9.20
   0   5   2  167.78    8.80
  -1  -5  -2  867.21   35.10
  -2  -5  -2  386.56   17.90
   2   5   2  387.16   20.20
  -3  -5  -2   33.90    3.50
   3   5   2   24.30    3.90
   4   5   2  141.49    9.80
   5   5   2   -0.10    1.90
   6   5   2   47.80    4.50
   9  -6  -2    6.70    2.60
   8  -6  -2    2.50    1.40
   8  -6  -2    2.70    2.00
   8  -6  -2    3.80    1.70
   7  -6  -2   14.00    2.80
   7  -6  -2   11.50    2.20
   7  -6  -2   15.10    3.00
   6  -6  -2   78.59    5.40
   6  -6  -2   84.59    6.40
   5  -6  -2    1.90    2.10
  -5   6   2   -0.30    2.10
   4  -6  -2  102.49    7.40
  -4   6   2  103.19    7.50
   3  -6  -2   41.00    4.70
  -3   6   2   28.30    4.10
   2  -6  -2   85.69    6.20
  -2   6   2   81.59    7.30
   1  -6  -2   30.50    4.10
  -1   6   2   26.00    4.20
   0  -6  -2   54.39    5.60
  -1  -6  -2   96.09    7.30
  -2  -6  -2   25.10    3.20
   2   6   2   25.60    4.30
   3   6   2   28.10    4.70
   4   6   2   73.59    7.00
   5   6   2   16.10    3.40
   9  -7  -2    0.20    1.10
   8  -7  -2    9.60    1.90
   8  -7  -2   11.20    2.40
   7  -7  -2    7.20    2.00
   7  -7  -2    5.10    2.10
   6  -7  -2   10.20    2.30
   6  -7  -2    9.30    2.30
   5  -7  -2    0.10    1.30
   5  -7  -2    0.70    1.40
   4  -7  -2    0.80    2.50
   4  -7  -2   -3.10    3.20
   4  -7  -2    2.40    1.30
   3  -7  -2   12.90    2.30
  -3   7   2    8.40    4.00
   2  -7  -2    8.10    3.30
  -2   7   2    1.40    1.80
   1  -7  -2   40.00    5.70
  -1   7   2   44.60    4.60
   0  -7  -2   15.00    2.50
   0  -7  -2   14.00    4.20
  -1  -7  -2   19.80    2.90
   1   7   2   21.80    3.90
  -2  -7  -2   31.00    3.40
   2   7   2   28.20    4.50
   3   7   2    5.10    2.40
   4   7   2    3.10    1.80
   5   7   2    8.20    1.20
   9  -8  -2    2.10    1.00
   8  -8  -2    1.70    1.50
   8  -8  -2    3.00    1.20
   7  -8  -2    0.00    1.50
   7  -8  -2    2.10    1.40
   6  -8  -2    3.70    1.90
   6  -8  -2    4.60    1.60
   5  -8  -2    7.10    2.00
   5  -8  -2    8.70    2.10
   4  -8  -2    3.30    3.20
   4  -8  -2    1.60    1.40
   4  -8  -2    1.00    1.30
   3  -8  -2   56.09    4.80
   3  -8  -2   66.19    7.60
   2  -8  -2   92.39    8.70
   2  -8  -2  107.99    6.40
   1  -8  -2    0.40    2.40
   1  -8  -2   -1.40    1.10
   0  -8  -2   -1.20    1.00
   0  -8  -2    1.80    2.40
  -1  -8  -2   13.80    2.30
   1   8   2   17.20    3.40
   2   8   2   14.80    3.10
   3   8   2    0.10    1.50
   4   8   2    4.20    1.40
   8  -9  -2    1.50    1.00
   8  -9  -2   -0.50    1.00
   7  -9  -2    7.80    1.90
   7  -9  -2    5.20    1.50
   6  -9  -2    4.50    1.70
   6  -9  -2    4.30    1.70
  -6   9   2    8.00    2.80
   5  -9  -2   44.00    4.30
   5  -9  -2   40.60    3.90
   4  -9  -2    6.20    1.80
   4  -9  -2    6.40    3.30
   4  -9  -2    5.30    1.80
   3  -9  -2   26.00    4.90
   3  -9  -2   16.70    2.80
   2  -9  -2   94.69    8.70
   2  -9  -2   98.39    6.10
   1  -9  -2    5.50    2.80
   1  -9  -2    1.80    1.30
   0  -9  -2   53.79    4.20
  -1  -9  -2    6.10    1.10
   2   9   2    8.20    2.10
   3   9   2   12.00    1.90
   8 -10  -2    8.70    1.40
   7 -10  -2   23.20    2.40
   7 -10  -2   19.80    2.30
   6 -10  -2   23.10    2.70
   6 -10  -2   29.00    3.00
  -6  10   2   22.50    3.60
   5 -10  -2    0.60    0.90
   5 -10  -2    1.10    1.20
  -5  10   2   -0.60    2.20
   4 -10  -2   15.60    2.60
   3 -10  -2   44.20    3.90
   3 -10  -2   42.20    5.30
   2 -10  -2    0.60    2.10
   2 -10  -2   -0.40    0.90
   1 -10  -2   -0.80    1.20
   1 -10  -2   -0.40    1.50
   0 -10  -2    5.70    0.80
   6 -11  -2   25.60    2.20
  -6  11   2   22.50    2.90
   5 -11  -2    9.10    1.60
  -5  11   2    4.50    2.00
   4 -11  -2    1.70    1.30
  -4  11   2    2.20    1.80
   3 -11  -2   30.20    2.90
  -3  11   2   19.50    3.50
   2 -11  -2    1.90    1.30
  -2  11   2    2.10    2.40
   1 -11  -2   12.60    1.10
  -1  11   2    7.30    1.40
   2 -12   3    2.10    0.80
   2 -12   3    1.40    1.30
   3 -12   3    0.30    0.70
   3 -12   3    1.60    0.80
   4 -12   3    1.30    0.80
   0 -11   3    6.70    1.20
   0 -11   3    4.10    1.80
   1 -11   3    2.60    1.00
   1 -11   3   -0.50    1.50
   2 -11   3   11.20    2.80
   2 -11   3   13.20    2.10
   3 -11   3   13.40    2.10
   3 -11   3   11.80    3.10
   4 -11   3    3.20    1.30
   4 -11   3    0.00    0.60
   4 -11   3    2.80    2.30
   5 -11   3   17.30    2.10
   5 -11   3   15.90    2.20
   6 -11   3    0.10    0.90
  -2 -10   3    7.30    1.20
  -1 -10   3    0.70    0.90
   0 -10   3   51.89    4.00
   0 -10   3   37.40    4.60
   1 -10   3    0.70    1.90
   1 -10   3    0.20    1.10
   2 -10   3   87.19    5.30
   2 -10   3   67.09    6.90
   3 -10   3    0.60    1.30
   3 -10   3    0.00    2.20
   4 -10   3   20.30    4.00
   4 -10   3   27.70    3.10
   4 -10   3   26.00    3.20
   5 -10   3   69.79    4.70
   5 -10   3   51.59    5.10
   5 -10   3   60.79    4.70
   6 -10   3    5.40    1.60
   6 -10   3    5.00    2.20
   7 -10   3    1.30    1.00
   3   9  -3   -0.70    1.10
  -3  -9   3    0.80    0.70
   2   9  -3   12.60    2.60
  -2  -9   3   11.30    1.80
  -1  -9   3    2.10    1.30
  -1  -9   3    1.10    1.90
   0  -9   3   13.10    3.30
   0  -9   3   13.30    2.30
   1  -9   3    4.90    2.70
   1  -9   3    2.90    1.50
   2  -9   3   23.10    4.40
   2  -9   3   23.00    3.10
   3  -9   3    5.00    1.80
   3  -9   3    3.90    2.60
   3  -9   3    5.60    1.70
   4  -9   3   15.00    2.50
   4  -9   3   20.20    2.90
   4  -9   3   17.60    4.10
   5  -9   3    6.10    1.90
   5  -9   3    9.90    2.20
   6  -9   3    9.20    2.10
   6  -9   3    8.70    2.10
   7  -9   3   20.10    2.90
   7  -9   3   18.60    2.50
   8  -9   3   -0.50    1.40
   8  -9   3    0.60    0.30
   4   8  -3   18.30    2.80
  -4  -8   3   10.20    1.50
   3   8  -3   -1.30    1.50
  -3  -8   3    1.00    1.00
   2   8  -3    0.90    1.80
  -2  -8   3    1.30    1.20
   1   8  -3    1.70    2.00
  -1  -8   3    4.40    1.70
  -1  -8   3    4.00    2.50
   0  -8   3   -1.70    1.10
   0  -8   3   -0.30    2.30
   1  -8   3   37.30    3.60
   1  -8   3   28.50    4.60
   2  -8   3   27.10    3.10
   2  -8   3   31.90    4.80
   3  -8   3    7.00    1.80
   3  -8   3    9.30    2.20
   3  -8   3    6.10    2.80
   4  -8   3   12.70    2.50
   4  -8   3    9.10    2.20
   4  -8   3   13.00    3.50
   5  -8   3    0.40    1.20
   5  -8   3    1.00    1.60
   6  -8   3    4.60    1.90
   6  -8   3    6.80    2.00
   7  -8   3    5.10    2.00
   7  -8   3    4.80    1.50
   8  -8   3    2.80    1.80
   8  -8   3    2.70    1.20
   5   7  -3    0.20    0.40
  -5  -7   3   -0.10    0.70
   4   7  -3    0.40    1.60
  -4  -7   3    0.10    1.00
   3   7  -3   34.30    4.50
  -3  -7   3   37.90    3.80
   2   7  -3    9.80    2.90
  -2  -7   3    8.10    2.10
  -1  -7   3   -0.20    2.00
  -1  -7   3    0.90    1.30
   0   7  -3   -1.90    1.50
  -1   7  -3  163.38    9.50
  -2   7  -3   -0.70    1.00
   2  -7   3    0.00    1.60
  -3   7  -3   31.20    4.30
   3  -7   3   29.20    4.90
  -4   7  -3   20.00    3.90
   4  -7   3   15.00    5.10
   4  -7   3   18.80    2.70
   4  -7   3   18.70    2.60
   5  -7   3   23.10    3.10
   5  -7   3   17.00    2.90
   6  -7   3   -0.50    1.20
   6  -7   3   -0.10    1.40
   7  -7   3   12.80    2.40
   7  -7   3    9.40    2.30
   8  -7   3   38.00    3.70
   8  -7   3   31.20    3.80
   9  -7   3    6.50    1.40
   6   6  -3   36.50    4.10
  -6  -6   3   36.00    2.40
   5   6  -3   50.79    5.50
  -5  -6   3   46.90    3.80
   4   6  -3   18.60    3.40
  -4  -6   3   16.70    2.50
   3   6  -3   15.10    3.20
  -3  -6   3   15.00    2.60
  -2  -6   3   13.50    2.50
  -1  -6   3   84.19    6.00
  -1   6  -3  319.97   15.00
   1  -6   3  324.17   14.70
  -2   6  -3  174.18    9.40
   2  -6   3  177.78    9.90
  -3   6  -3    1.70    1.50
   3  -6   3    1.50    1.70
  -4   6  -3  198.08   10.40
   4  -6   3  165.78   10.70
   5  -6   3    0.30    1.40
   5  -6   3   -0.20    1.30
   6  -6   3   40.30    4.20
   6  -6   3   42.40    4.30
   7  -6   3    7.90    2.50
   7  -6   3    6.60    2.20
   7  -6   3    6.10    2.00
   8  -6   3   27.80    3.40
   8  -6   3   24.10    2.90
   8  -6   3   21.60    2.90
  -9   6  -3    1.10    1.10
   9  -6   3    1.70    1.00
   9  -6   3   -0.90    0.80
  -7  -5   3   32.70    2.60
   6   5  -3   34.80    4.30
  -6  -5   3   32.80    3.00
   5   5  -3   18.40    3.70
  -5  -5   3   17.10    2.60
   4   5  -3   30.80    4.50
  -4  -5   3   32.80    3.60
   3   5  -3   -0.80    1.60
   2   5  -3   77.69    5.40
  -2  -5   3   74.29    5.30
   1   5  -3   64.69    4.40
  -1  -5   3   62.59    4.60
   0   5  -3  392.76   17.80
   0  -5   3  402.06   16.70
   0  -5   3  394.46   17.20
   1  -5   3    1.90    1.30
   1  -5   3    1.50    1.50
  -2   5  -3  221.28   10.80
   2  -5   3  237.78   11.20
  -3   5  -3  135.89    7.50
   3  -5   3  126.69    8.00
  -4   5  -3  119.69    7.00
   4  -5   3   94.09    7.30
   5  -5   3   51.89    5.20
   6  -5   3   70.19    5.50
   6  -5   3   80.39    5.50
   6  -5   3   66.29    6.30
   7  -5   3   30.00    4.30
   7  -5   3   36.80    4.00
   7  -5   3   29.00    3.70
   8  -5   3   -0.40    1.30
   8  -5   3   -0.10    0.90
   8  -5   3   -0.90    1.70
  -9   5  -3   26.50    2.70
   9  -5   3   20.50    2.90
   9  -5   3   19.80    2.20
  -7  -4   3    5.10    1.20
   6   4  -3   13.50    3.00
  -6  -4   3   13.90    2.30
   5   4  -3   53.29    6.00
  -5  -4   3   53.79    4.70
  -4  -4   3    1.60    1.30
   3   4  -3   88.69    6.20
   2   4  -3  190.78    9.20
  -2  -4   3  172.48    8.80
   1   4  -3    8.30    1.60
  -1  -4   3    7.70    1.70
  -1  -4   3    8.50    1.70
   0   4  -3  612.94   22.20
   0  -4   3  532.15   22.60
   0  -4   3  553.24   22.30
  -1   4  -3   94.69    4.40
   1  -4   3   87.39    5.00
   1  -4   3   90.19    5.10
  -2   4  -3   54.39    3.70
   2  -4   3   52.19    4.10
  -3   4  -3  838.32   32.70
   3  -4   3  829.62   33.40
  -4   4  -3   26.10    3.00
   4  -4   3   31.90    4.00
   5  -4   3  346.07   17.00
   6  -4   3   36.30    4.70
   6  -4   3   35.20    3.80
   6  -4   3   32.50    3.70
   7  -4   3   36.00    5.00
   7  -4   3   30.40    3.80
   7  -4   3   30.90    3.70
   8  -4   3    8.60    2.10
   8  -4   3   13.00    2.90
  -9   4  -3    1.10    2.00
   9  -4   3    1.00    0.90
   9  -4   3   -1.00    1.90
  -8  -3   3    1.10    0.80
  -7  -3   3   35.20    3.40
   6   3  -3    2.00    2.50
  -6  -3   3    1.10    1.40
   5   3  -3    1.90    2.20
  -5  -3   3    1.00    1.30
   4   3  -3   35.40    4.30
   3   3  -3  309.67   13.90
  -3  -3   3  288.47   13.10
   2   3  -3  247.88   10.90
  -2  -3   3  226.08   10.50
   1   3  -3   21.30    2.20
  -1  -3   3   21.00    2.30
  -1  -3   3   24.00    1.80
   0   3  -3   19.50    1.80
   0  -3   3   17.20    1.70
   0  -3   3   17.00    2.00
  -1   3  -3  508.55   19.90
   1  -3   3  528.75   20.60
   1  -3   3  532.35   20.50
  -2   3  -3    3.70    1.00
   2  -3   3    4.00    1.30
   2  -3   3    4.30    0.90
  -3   3  -3  115.29    5.70
   3  -3   3  105.39    5.40
   3  -3   3  109.39    6.50
   4  -3   3 1238.38   50.19
   4  -3   3 1332.37   50.29
   6  -3   3    6.80    1.90
   6  -3   3    6.10    2.30
   6  -3   3    6.60    2.50
   7  -3   3   44.00    4.50
   7  -3   3   54.99    6.10
   7  -3   3   42.90    4.50
  -8   3  -3   18.60    2.90
   8  -3   3   12.80    2.30
   8  -3   3   18.70    2.50
   9  -3   3    2.70    1.00
   9  -3   3    3.90    1.50
  -8  -2   3    2.30    1.00
  -7  -2   3    2.80    1.40
  -6  -2   3   34.90    3.80
   5   2  -3    6.70    3.00
   4   2  -3  194.78   10.20
   3   2  -3  138.49    7.40
  -3  -2   3  133.89    6.80
   2   2  -3   59.29    3.90
  -2  -2   3   64.29    3.10
  -2  -2   3   65.19    3.80
   1   2  -3   82.49    4.20
  -1  -2   3   73.59    3.30
  -1  -2   3   82.09    4.20
   0   2  -3  299.07   12.00
   0  -2   3  303.37   12.20
   0  -2   3  305.07   11.70
   1  -2   3    4.30    0.90
   1  -2   3    2.40    0.80
   1  -2   3    3.90    0.90
  -2   2  -3  991.30   38.20
   2  -2   3 1023.90   39.00
   2  -2   3 1049.79   38.40
  -3   2  -3    4.80    1.00
   3  -2   3    3.60    1.10
   3  -2   3    0.70    0.70
  -4   2  -3  543.05   22.70
  -4   2  -3  523.25   22.90
  -4   2  -3  536.35   20.70
   4  -2   3  540.05   22.30
  -5   2  -3   48.00    3.60
  -5   2  -3   49.80    5.60
  -5   2  -3   57.59    6.00
   5  -2   3   55.99    5.10
   6  -2   3   14.70    2.70
   6  -2   3   13.40    3.00
   6  -2   3   14.50    2.70
   7  -2   3   50.69    4.70
   7  -2   3   48.10    5.70
   8  -2   3    3.00    1.30
   8  -2   3   -0.20    1.60
   9  -2   3    3.10    1.30
  -8  -1   3   75.79    4.80
   7   1  -3    0.70    1.90
  -7  -1   3    1.70    1.40
   6   1  -3    8.40    2.40
  -6  -1   3    9.10    2.10
   5   1  -3    8.70    3.00
   4   1  -3  103.79    6.50
  -4  -1   3  108.39    5.80
   3   1  -3  256.77   11.90
  -3  -1   3  266.27   11.40
  -3  -1   3  274.47   11.60
   2   1  -3  179.58    7.60
  -2  -1   3  158.68    7.30
  -2  -1   3  155.68    6.50
   1   1  -3    6.50    1.10
  -1  -1   3    6.00    1.10
   0  -1   3    4.40    0.90
   0  -1   3    4.70    0.80
   1  -1   3  808.12   31.70
   1  -1   3  850.81   31.30
   1  -1   3  874.11   31.80
  -2   1  -3  197.88    8.20
   2  -1   3  231.48    9.30
  -3   1  -3 3364.66  126.49
  -3   1  -3 3364.16  126.19
  -3   1  -3 3410.06  124.69
   3  -1   3 3493.15  126.29
  -4   1  -3  263.57   13.00
  -4   1  -3  269.17   12.70
  -4   1  -3  270.27   10.90
   4  -1   3  256.97   12.80
  -5   1  -3   13.30    2.00
  -5   1  -3    9.70    3.00
  -5   1  -3   11.10    3.00
   5  -1   3   11.40    3.80
   6  -1   3   78.29    6.90
   6  -1   3   92.59    6.00
   7  -1   3    7.10    2.50
   7  -1   3    8.70    2.00
   8  -1   3   15.10    2.80
   8  -1   3   11.50    1.80
  -9   0   3   -0.10    0.80
   8   0  -3    3.80    2.00
  -8   0   3    6.10    1.80
   7   0  -3    9.60    2.50
  -7   0   3   10.00    2.30
   6   0  -3    0.80    1.50
  -6   0   3    2.60    1.50
   5   0  -3  274.17   13.40
   4   0  -3  107.99    6.30
  -4   0   3  105.39    5.70
   3   0  -3   34.60    2.70
  -3   0   3   29.20    2.70
   2   0  -3 3972.30  138.49
   2   0  -3 3691.33  137.69
  -2   0   3 3662.23  138.39
   1   0  -3 1076.99   38.80
   1   0  -3 1018.70   38.20
  -1   0   3 1029.20   38.80
   0   0  -3  148.49    6.20
   0   0   3  144.79    6.00
   0   0   3  152.08    6.30
  -1   0  -3  153.58    5.90
  -1   0  -3  148.29    6.50
  -1   0  -3  150.68    6.70
   1   0   3  158.88    6.70
   1   0   3  137.29    5.60
  -2   0  -3  444.46   18.70
  -2   0  -3  454.65   17.50
  -2   0  -3  461.45   18.50
   2   0   3  481.95   18.80
  -3   0  -3   71.99    3.50
  -3   0  -3   66.09    4.60
  -3   0  -3   68.39    4.80
   3   0   3   71.49    5.10
  -4   0  -3    5.50    1.60
  -4   0  -3    7.80    1.90
  -4   0  -3    3.30    0.90
   4   0   3    7.70    2.70
  -5   0  -3    4.80    2.60
   5   0   3    4.60    3.10
   6   0   3   49.70    5.60
   6   0   3   53.89    4.60
   7   0   3   -0.60    1.10
   7   0   3    3.10    2.00
   8   0   3    6.40    1.80
   9  -1  -3    9.00    2.00
  -9   1   3   11.60    1.90
   8  -1  -3    2.50    1.90
  -8   1   3    2.10    1.40
   7  -1  -3   46.60    5.10
  -7   1   3   61.19    5.30
   6  -1  -3    6.20    3.20
   5  -1  -3    2.60    1.40
  -5   1   3    1.80    1.40
   4  -1  -3  211.38    9.20
   4  -1  -3  190.88    9.40
  -4   1   3  204.18    9.50
   3  -1  -3   11.60    1.60
   3  -1  -3   11.60    1.50
  -3   1   3   11.40    1.70
   2  -1  -3   18.60    1.50
   2  -1  -3   18.70    1.70
  -2   1   3   15.90    1.90
   1  -1  -3   17.70    1.40
  -1   1   3   18.30    1.70
  -1   1   3   18.00    1.50
   0  -1  -3    6.60    1.10
   0   1   3    8.70    1.00
   0   1   3    8.80    1.20
  -1  -1  -3  600.94   23.70
   1   1   3  610.94   23.70
  -2  -1  -3  491.05   21.00
   2   1   3  548.15   21.50
  -3  -1  -3   80.09    5.40
   3   1   3   76.19    5.30
  -4  -1  -3  141.59    8.50
   4   1   3  123.39    8.70
   5   1   3   14.80    3.60
   5   1   3   18.20    2.60
   6   1   3   78.49    5.20
   6   1   3   70.29    6.60
   7   1   3    5.90    1.70
   7   1   3    7.50    2.20
   9  -2  -3   24.00    3.10
  -9   2   3   20.00    2.60
   8  -2  -3   -0.50    1.60
  -8   2   3    2.10    1.30
   7  -2  -3   27.60    4.00
   5  -2  -3  135.29    7.90
  -5   2   3  129.29    7.40
   4  -2  -3   45.70    3.30
   4  -2  -3   55.79    3.70
  -4   2   3   58.19    4.00
   3  -2  -3 1350.66   50.79
   3  -2  -3 1362.06   51.29
  -3   2   3 1380.36   51.59
   2  -2  -3 1875.21   69.89
   2  -2  -3 1931.41   70.59
  -2   2   3 1901.31   70.79
   1  -2  -3   16.80    1.80
  -1   2   3   23.30    2.10
  -1   2   3   17.90    1.40
   0  -2  -3    3.40    1.00
   0   2   3    3.70    1.00
   0   2   3    4.20    0.90
  -1  -2  -3  733.83   28.10
   1   2   3  723.23   28.10
   1   2   3  690.73   26.60
  -2  -2  -3   65.89    4.60
   2   2   3   70.19    5.00
  -3  -2  -3    3.40    1.90
   3   2   3    6.70    2.30
  -4  -2  -3   21.80    3.60
   4   2   3   20.70    3.90
   5   2   3   31.50    3.50
   5   2   3   37.60    5.10
   6   2   3    7.50    2.00
   6   2   3    9.70    2.90
   9  -3  -3   12.60    2.60
  -9   3   3    8.70    1.90
   8  -3  -3   40.30    4.90
   7  -3  -3   29.70    3.80
   7  -3  -3   34.20    4.20
   5  -3  -3   72.69    5.30
  -5   3   3   72.89    5.30
   4  -3  -3   24.10    3.00
  -4   3   3   27.30    3.20
   3  -3  -3   16.60    2.30
  -3   3   3   13.40    2.20
   2  -3  -3  877.81   33.50
  -2   3   3  856.31   33.70
   1  -3  -3  139.59    6.80
  -1   3   3  143.19    6.80
  -1   3   3  132.19    5.90
   0  -3  -3  514.05   20.90
   0   3   3  506.35   20.30
   0   3   3  527.35   20.50
  -1  -3  -3  146.39    7.70
   1   3   3  141.89    7.60
  -2  -3  -3   30.90    3.60
   2   3   3   32.00    4.00
  -3  -3  -3   63.49    5.90
   3   3   3   66.49    6.70
   4   3   3   27.70    4.60
   4   3   3   23.70    3.10
   5   3   3  228.98   13.00
   5   3   3  201.38   10.30
   6   3   3    1.10    1.90
   9  -4  -3    3.60    2.00
  -9   4   3    3.80    1.10
   8  -4  -3   30.70    3.80
   8  -4  -3   27.90    4.20
   7  -4  -3   37.20    4.40
   7  -4  -3   39.90    4.40
   6  -4  -3    7.30    2.20
   6  -4  -3    6.50    2.60
  -6   4   3    7.50    2.60
   5  -4  -3   18.70    3.00
  -5   4   3   15.30    3.10
   4  -4  -3   16.90    2.80
  -4   4   3   23.20    3.20
   3  -4  -3  512.95   20.80
  -3   4   3  477.25   20.90
   2  -4  -3   88.79    5.30
  -2   4   3   78.69    5.30
   1  -4  -3  634.54   25.30
  -1   4   3  611.34   25.10
   0  -4  -3  233.88   11.10
   0   4   3  235.28   10.60
   0   4   3  225.18   10.40
  -1  -4  -3   35.70    3.90
   1   4   3   33.20    3.70
  -2  -4  -3  194.38   10.40
   2   4   3  176.88   10.50
  -3  -4  -3  170.78   10.30
   3   4   3  187.18   11.30
   4   4   3    9.60    3.40
   4   4   3   10.80    2.40
   5   4   3   30.90    5.00
   6   4   3   -1.50    1.30
   9  -5  -3    4.00    2.50
  -9   5   3    3.30    1.60
   8  -5  -3   50.49    5.30
   8  -5  -3   41.20    4.60
   7  -5  -3    4.80    2.10
   7  -5  -3    5.10    2.20
   6  -5  -3   17.70    2.60
   6  -5  -3   13.30    2.80
   6  -5  -3   13.30    2.80
   5  -5  -3   95.69    6.90
  -5   5   3   90.29    7.10
   4  -5  -3   32.20    4.10
  -4   5   3   25.00    3.70
   3  -5  -3  438.86   18.30
  -3   5   3  372.46   18.30
   2  -5  -3    4.80    1.70
  -2   5   3    3.30    2.40
   1  -5  -3  483.25   21.00
  -1   5   3  493.75   21.10
   0  -5  -3   40.30    4.40
  -1  -5  -3  192.48   10.70
  -2  -5  -3  302.17   14.90
  -3  -5  -3   54.89    4.50
   3   5   3   55.99    6.40
  -4  -5  -3  329.97   14.20
   4   5   3  317.97   17.10
   5   5   3   13.90    3.50
   6   5   3    8.40    2.30
   9  -6  -3    5.30    2.40
   8  -6  -3   23.30    3.60
   8  -6  -3   24.40    3.40
   7  -6  -3    0.00    1.60
   7  -6  -3    2.50    2.00
   7  -6  -3    0.60    1.50
   6  -6  -3   16.00    2.90
   6  -6  -3   18.00    2.60
   5  -6  -3  183.68   11.10
  -5   6   3  192.28   13.70
   4  -6  -3   19.10    3.50
  -4   6   3   17.40    2.60
   3  -6  -3    3.00    1.80
  -3   6   3    2.50    1.80
   2  -6  -3  200.88   10.60
  -2   6   3  174.38   10.70
   1  -6  -3   94.59    6.80
  -1   6   3   90.59    6.60
   0  -6  -3   10.80    3.20
  -1  -6  -3  138.19    8.90
  -2  -6  -3  123.69    6.80
   2   6   3  100.29    8.70
  -3  -6  -3    6.30    2.00
   3   6   3    2.70    2.40
   4   6   3   47.00    5.20
   5   6   3    0.40    1.90
   8  -7  -3    0.30    1.10
   8  -7  -3    2.90    1.70
   7  -7  -3    1.80    1.30
   7  -7  -3    0.70    1.50
   6  -7  -3   43.80    4.10
   6  -7  -3   39.40    4.20
   5  -7  -3    6.60    2.00
   5  -7  -3    6.60    1.90
   4  -7  -3   23.50    4.80
   4  -7  -3   18.80    2.70
   3  -7  -3   21.70    3.90
  -3   7   3   15.00    4.20
   2  -7  -3   20.30    4.50
  -2   7   3   20.40    4.20
   1  -7  -3   62.99    5.40
   1  -7  -3   71.79    9.00
   0  -7  -3   27.20    3.10
  -1  -7  -3   46.30    4.20
   1   7   3   48.40    5.80
  -2  -7  -3   -0.50    1.30
   2   7   3    2.80    2.40
  -3  -7  -3   -0.40    0.60
   3   7   3    2.30    2.20
   4   7   3    5.30    1.90
   8  -8  -3    1.80    1.10
   8  -8  -3    4.20    1.50
   7  -8  -3    3.40    1.50
   7  -8  -3    4.10    1.80
   6  -8  -3    3.40    1.80
   6  -8  -3    1.70    1.50
  -6   8   3    3.20    3.40
   5  -8  -3   -0.40    1.20
   5  -8  -3    0.10    1.50
   4  -8  -3   -0.70    2.20
   4  -8  -3   -0.80    1.10
   3  -8  -3   58.69    7.30
   3  -8  -3   51.99    4.60
   2  -8  -3   12.60    3.70
   2  -8  -3   14.50    2.60
   1  -8  -3   24.60    3.20
   1  -8  -3   26.70    4.70
   0  -8  -3   61.89    5.10
  -1  -8  -3   15.40    2.40
   1   8   3   18.20    4.00
  -2  -8  -3    2.50    1.00
   2   8   3   -0.70    1.70
   3   8   3    0.90    1.50
   4   8   3    0.30    1.00
   8  -9  -3    3.90    1.30
   8  -9  -3    7.60    1.30
   7  -9  -3   41.90    3.80
   7  -9  -3   38.30    3.70
   6  -9  -3    1.00    1.40
   6  -9  -3    1.10    1.20
  -6   9   3    0.70    2.20
   5  -9  -3    1.00    1.30
  -5   9   3    2.80    2.80
   4  -9  -3   -1.80    1.00
   3  -9  -3    1.60    2.40
   3  -9  -3    2.10    1.60
   2  -9  -3  131.39    7.30
   2  -9  -3  124.59    9.50
   1  -9  -3    7.60    1.80
   1  -9  -3   10.70    3.20
   0  -9  -3   99.49    5.70
  -1  -9  -3   14.10    1.60
   2   9   3    1.80    1.40
   7 -10  -3    1.70    1.10
   6 -10  -3   43.30    3.70
  -6  10   3   41.30    4.70
   5 -10  -3    3.50    1.40
  -5  10   3    1.30    2.10
   4 -10  -3   12.30    2.10
  -4  10   3    9.10    3.20
   3 -10  -3    0.80    1.10
   2 -10  -3   13.20    2.40
   1 -10  -3    4.70    1.10
  -1  10   3    0.10    1.20
   0 -10  -3    5.80    1.10
   6 -11  -3    2.40    1.00
  -6  11   3    1.10    1.30
   5 -11  -3    8.40    1.40
  -5  11   3    5.90    2.20
   4 -11  -3    5.10    1.60
  -4  11   3    2.60    1.90
   3 -11  -3   28.10    2.80
  -3  11   3   27.60    4.40
   2 -11  -3    4.40    1.10
  -2  11   3   -0.10    1.20
   1 -11  -3   21.90    1.70
   2 -12   4   -0.20    1.20
   2 -12   4    0.30    0.70
   3 -12   4    0.90    1.30
   3 -12   4    3.20    1.00
   4 -12   4    0.90    0.80
   0 -11   4    8.80    1.40
   0 -11   4    6.10    1.90
   1 -11   4   12.80    2.60
   1 -11   4   18.80    2.10
   2 -11   4   11.20    1.90
   2 -11   4    8.30    2.50
   3 -11   4   10.50    1.90
   3 -11   4   10.80    3.20
   4 -11   4    5.20    2.40
   4 -11   4    2.70    1.30
   5 -11   4    3.70    1.20
   5 -11   4    2.30    1.20
   6 -11   4    2.80    0.70
   6 -11   4    0.20    1.00
  -2 -10   4    9.30    1.30
  -1 -10   4    4.80    1.20
  -1 -10   4    3.20    1.80
   0 -10   4   23.50    3.80
   0 -10   4   21.20    2.50
   1 -10   4    1.80    1.90
   1 -10   4    0.70    1.00
   2 -10   4  105.99    6.20
   2 -10   4  108.09    8.10
   3 -10   4    1.80    2.30
   3 -10   4    1.20    1.40
   4 -10   4    4.20    1.00
   4 -10   4    9.40    2.90
   4 -10   4    8.20    2.00
   5 -10   4   37.10    3.40
   5 -10   4   33.90    3.70
   6 -10   4   -2.80    1.00
   7 -10   4   13.90    2.30
   7 -10   4   15.80    2.40
   3   9  -4   -1.40    1.00
  -3  -9   4   -0.10    0.70
   2   9  -4   -1.20    1.30
  -2  -9   4    2.10    1.10
  -1  -9   4   -0.10    1.80
  -1  -9   4    1.70    1.20
   0  -9   4    9.70    2.90
   0  -9   4   12.70    2.20
   1  -9   4   11.80    2.20
   1  -9   4    8.20    3.00
   2  -9   4   10.00    2.20
   2  -9   4    7.80    2.80
   3  -9   4    7.80    1.90
   3  -9   4   11.10    3.40
   4  -9   4    8.80    2.10
   4  -9   4   10.40    2.20
   4  -9   4    8.10    3.20
   5  -9   4   11.30    2.30
   5  -9   4    9.70    2.10
   6  -9   4    7.70    2.50
   6  -9   4    5.20    2.00
   7  -9   4   10.90    1.90
   7  -9   4   11.30    1.90
   8  -9   4    6.60    1.70
   8  -9   4   10.80    2.10
   4   8  -4    1.30    1.50
  -4  -8   4    3.00    1.00
   3   8  -4    7.40    2.40
  -3  -8   4    7.60    1.60
   2   8  -4   32.80    4.20
  -2  -8   4   36.00    3.60
   1   8  -4    3.30    2.00
  -1  -8   4    2.50    2.30
  -1  -8   4    2.50    1.50
   0  -8   4   19.70    4.10
   0  -8   4   16.50    2.50
   1  -8   4   42.00    4.00
   1  -8   4   46.20    5.80
   2  -8   4   20.60    4.10
   2  -8   4   26.10    3.10
   3  -8   4   38.90    4.10
   3  -8   4   52.09    4.40
   3  -8   4   58.19    6.30
   4  -8   4    2.60    1.50
   4  -8   4   -0.90    1.20
   4  -8   4    2.70    2.60
   5  -8   4    0.80    1.30
   5  -8   4    0.40    1.30
   6  -8   4    7.30    2.10
   6  -8   4    1.50    1.50
   7  -8   4    1.40    1.70
   7  -8   4   -1.00    1.10
   8  -8   4    2.10    1.40
   8  -8   4    1.60    0.40
   5   7  -4   24.10    2.90
  -5  -7   4   19.60    2.10
   4   7  -4    0.80    1.60
  -4  -7   4    1.60    1.10
   3   7  -4   19.40    3.50
  -3  -7   4   20.00    2.70
  -2  -7   4    8.30    2.00
  -1  -7   4   58.69    6.10
  -1  -7   4   56.29    5.80
  -1  -7   4   52.29    4.50
   0   7  -4   43.70    5.20
  -1   7  -4   40.10    5.00
  -2   7  -4   54.79    5.40
  -3   7  -4   40.60    4.80
   3  -7   4   43.70    4.60
   4  -7   4    2.20    1.40
   4  -7   4    0.00    1.50
   5  -7   4    3.90    1.60
   5  -7   4    3.80    1.80
   6  -7   4    2.00    1.60
   6  -7   4   -0.40    1.40
   7  -7   4   11.20    2.30
   7  -7   4    9.90    2.20
   8  -7   4    3.40    1.40
   8  -7   4    1.70    1.20
   6   6  -4   11.20    2.60
  -6  -6   4   13.00    1.60
   5   6  -4    6.40    2.60
  -5  -6   4    5.50    1.50
   4   6  -4   25.40    3.90
  -4  -6   4   32.90    3.40
  -3  -6   4   76.39    5.10
  -2  -6   4   28.30    3.30
  -2  -6   4   27.00    3.90
  -1  -6   4   43.70    4.90
   0  -6   4   30.00    3.70
  -2   6  -4   43.90    4.50
   2  -6   4   49.50    4.80
  -3   6  -4    5.80    2.00
   3  -6   4    3.50    2.00
  -4   6  -4  289.87   13.90
   4  -6   4  262.77   14.70
   5  -6   4   13.80    2.40
   5  -6   4   12.80    2.40
   6  -6   4   14.90    2.70
   6  -6   4   14.10    2.60
   7  -6   4    0.10    1.40
   7  -6   4    3.30    2.00
   7  -6   4    1.70    1.70
   8  -6   4    2.80    1.10
   8  -6   4    2.10    1.50
   8  -6   4    1.70    1.70
   9  -6   4   14.80    1.80
  -7  -5   4   16.60    1.60
   6   5  -4   65.79    5.70
  -6  -5   4   67.59    4.20
   5   5  -4    1.10    2.10
  -5  -5   4    2.10    1.20
   4   5  -4  164.18   10.10
  -4  -5   4  157.98    8.40
   3   5  -4  128.29    8.00
  -3  -5   4  107.79    7.90
  -3  -5   4  129.99    7.00
   2   5  -4   64.49    4.80
  -2  -5   4   62.79    5.40
   1   5  -4    2.40    1.30
  -1  -5   4    0.80    1.30
   0   5  -4    7.80    1.50
   0  -5   4    5.70    1.60
   1  -5   4  256.87   11.90
   1  -5   4  248.78   11.50
  -2   5  -4  307.37   13.70
   2  -5   4  298.27   14.00
  -3   5  -4  130.79    7.10
   3  -5   4  114.99    7.60
  -4   5  -4  328.67   16.10
   4  -5   4  321.57   16.20
   5  -5   4    1.30    3.20
   6  -5   4   19.20    3.30
   6  -5   4   18.80    2.90
   6  -5   4   16.80    2.90
   7  -5   4   80.89    6.30
   7  -5   4   84.49    5.90
   7  -5   4   76.59    7.00
   8  -5   4    0.40    1.30
   8  -5   4    1.60    2.10
   8  -5   4    1.70    1.10
   9  -5   4    1.30    1.40
   9  -5   4    0.60    0.90
  -7  -4   4   -0.20    0.80
   6   4  -4   99.79    7.20
  -6  -4   4   99.09    5.80
   5   4  -4   39.20    5.00
  -5  -4   4   37.10    3.90
  -4  -4   4   13.60    3.20
  -4  -4   4   24.30    3.10
   3   4  -4   81.29    5.80
  -3  -4   4   82.99    5.50
   2   4  -4   71.59    4.90
  -2  -4   4   69.09    4.80
   1   4  -4  142.59    7.30
  -1  -4   4  155.38    7.70
   0   4  -4  562.94   22.10
   0  -4   4  542.35   22.00
   0  -4   4  583.94   22.80
  -1   4  -4  150.68    6.60
   1  -4   4  153.28    7.50
   1  -4   4  136.59    7.10
  -2   4  -4  446.36   16.70
   2  -4   4  394.96   17.80
  -3   4  -4  419.26   17.60
   3  -4   4  424.46   18.60
   4  -4   4    8.50    2.70
   6  -4   4   11.40    2.30
   6  -4   4    9.30    2.60
   6  -4   4    9.70    2.30
   7  -4   4   34.40    3.90
   7  -4   4   43.30    4.50
   7  -4   4   44.70    5.40
   8  -4   4   31.40    3.60
   8  -4   4   35.90    4.30
   9  -4   4    4.80    1.20
   9  -4   4    4.40    1.80
  -8  -3   4    0.00    0.60
  -7  -3   4    1.90    1.10
   6   3  -4   10.60    2.90
  -6  -3   4   11.80    2.20
   5   3  -4   51.39    5.40
  -5  -3   4   61.39    5.00
   4   3  -4  113.39    7.50
   3   3  -4    0.20    1.10
  -3  -3   4   -0.60    0.90
   2   3  -4   60.59    4.20
  -2  -3   4   59.69    4.00
   1   3  -4  411.66   17.30
  -1  -3   4  441.66   17.60
   0   3  -4  241.18   10.30
   0  -3   4  254.07   10.80
   0  -3   4  245.88   10.10
   1  -3   4   49.80    3.30
   1  -3   4   53.19    3.30
   2  -3   4   39.10    2.60
   2  -3   4   39.70    3.20
  -3   3  -4  895.91   33.00
   3  -3   4  849.72   33.00
   3  -3   4  823.92   34.00
   4  -3   4   94.79    5.40
  -5   3  -4    3.00    0.60
  -5   3  -4    5.30    1.40
  -5   3  -4    4.70    1.10
   6  -3   4  163.68    9.00
   6  -3   4  160.18    9.00
   6  -3   4  173.28   10.50
   7  -3   4    9.00    2.90
   7  -3   4    8.90    2.50
   7  -3   4   11.80    2.50
   8  -3   4    6.20    1.70
   8  -3   4    9.10    1.10
   9  -3   4    3.30    0.90
   9  -3   4    0.30    0.90
  -8  -2   4    0.00    0.80
  -7  -2   4  186.28    9.40
  -6  -2   4    6.80    1.80
   5   2  -4   -2.00    2.00
  -5  -2   4    0.30    1.40
   4   2  -4   81.89    5.40
  -4  -2   4   75.99    5.10
   3   2  -4   34.60    3.60
  -3  -2   4   27.40    2.90
   2   2  -4    8.30    1.50
  -2  -2   4    7.50    1.50
   1   2  -4  507.25   19.70
  -1  -2   4  487.35   19.70
   0   2  -4 1544.35   57.29
   0  -2   4 1567.84   57.49
   0  -2   4 1520.95   56.79
   1  -2   4   22.80    2.10
   1  -2   4   24.50    2.00
   1  -2   4   23.90    2.10
   2  -2   4  113.89    5.60
   2  -2   4  107.79    5.80
   3  -2   4    2.80    1.30
  -4   2  -4  197.58   10.30
  -4   2  -4  202.98    8.40
  -4   2  -4  190.98   10.50
   4  -2   4  182.48    9.90
  -5   2  -4  157.48   10.00
  -5   2  -4  148.69    7.40
  -5   2  -4  143.29    9.40
   5  -2   4  164.78    9.30
   6  -2   4  144.49    8.30
   6  -2   4  150.58    9.70
   7  -2   4   10.20    2.90
   7  -2   4   11.50    2.50
   8  -2   4   17.40    3.10
   8  -2   4    9.30    1.90
   9  -2   4   17.60    2.00
  -8  -1   4   62.49    4.30
   7   1  -4   17.40    3.60
  -7  -1   4   20.90    2.90
   6   1  -4   53.09    5.00
  -6  -1   4   52.99    4.70
   5   1  -4  103.39    7.60
   4   1  -4   41.80    4.20
  -4  -1   4   43.90    3.40
   3   1  -4   30.20    3.10
  -3  -1   4   33.70    3.00
   2   1  -4  212.88    9.10
  -2  -1   4  192.38    8.90
   1   1  -4  442.76   17.60
  -1  -1   4  454.45   17.70
   0   1  -4    8.60    0.60
   0   1  -4    8.10    0.90
   0   1  -4    8.80    1.00
   0  -1   4   10.70    1.40
   0  -1   4    7.40    1.20
  -1   1  -4    4.70    1.10
  -1   1  -4    4.80    0.60
  -1   1  -4    5.80    1.10
   1  -1   4    3.40    0.70
   1  -1   4    5.00    1.20
  -2   1  -4  502.85   20.80
  -2   1  -4  574.64   22.30
  -2   1  -4  568.74   21.00
  -2   1  -4  581.14   22.50
   2  -1   4  579.54   22.30
  -3   1  -4   96.89    5.80
  -3   1  -4   99.49    6.10
  -3   1  -4  108.89    4.60
   3  -1   4   85.69    5.70
  -4   1  -4   59.79    4.40
  -4   1  -4   50.79    3.00
  -4   1  -4   53.69    4.40
   4  -1   4   49.20    5.20
  -5   1  -4  148.59    9.50
  -5   1  -4  148.59    7.10
  -5   1  -4  133.09    9.00
   5  -1   4  166.48   10.60
   6  -1   4    5.60    2.00
   6  -1   4    4.30    2.20
   7  -1   4   20.90    3.70
   7  -1   4   16.70    2.60
   8  -1   4    1.80    1.00
   8  -1   4    0.00    1.40
  -9   0   4    1.80    1.00
   8   0  -4   89.89    6.20
  -8   0   4   92.09    5.70
   7   0  -4   10.10    2.50
  -7   0   4    7.20    2.00
   6   0  -4   59.29    5.50
  -6   0   4   58.29    5.00
   5   0  -4   85.29    5.90
  -5   0   4   87.99    5.60
   4   0  -4  181.68    9.10
  -4   0   4  171.88    8.50
   3   0  -4 2341.67   88.69
  -3   0   4 2427.96   88.59
   2   0  -4  165.48    6.90
   2   0  -4  182.38    7.90
  -2   0   4  184.78    7.90
   1   0  -4  431.06   16.50
   1   0  -4  410.16   15.80
  -1   0   4  429.26   16.60
   0   0  -4   28.10    2.00
   0   0   4   31.60    2.20
   0   0   4   27.00    1.80
  -1   0  -4  429.86   17.00
  -1   0  -4  438.56   17.10
  -1   0  -4  432.96   16.10
   1   0   4  393.06   15.90
   1   0   4  448.16   17.20
  -2   0  -4   41.20    3.10
  -2   0  -4   36.00    3.40
  -2   0  -4   40.20    2.20
   2   0   4   39.50    3.00
  -3   0  -4   28.10    3.00
  -3   0  -4   26.50    1.90
  -3   0  -4   26.80    3.10
   3   0   4   25.90    3.50
  -4   0  -4  424.36   19.10
  -4   0  -4  425.96   16.90
  -4   0  -4  425.96   19.30
   4   0   4  420.76   19.80
  -5   0  -4  137.09    9.60
   5   0   4  112.39   10.10
   5   0   4  141.79   13.90
   5   0   4  121.79    8.30
   6   0   4    8.00    2.70
   6   0   4    8.40    2.10
   7   0   4   12.50    2.10
   7   0   4    9.50    2.60
   8   0   4    1.80    1.00
   8   0   4    2.70    1.40
   9  -1  -4   27.10    3.10
  -9   1   4   25.70    2.60
   8  -1  -4    2.60    2.00
  -8   1   4    2.10    1.40
   7  -1  -4    3.60    2.00
  -7   1   4    2.50    1.50
   6  -1  -4    5.70    2.20
   5  -1  -4   63.09    4.50
  -5   1   4   67.39    4.70
   4  -1  -4  218.28   10.50
  -4   1   4  239.08   10.70
   3  -1  -4   10.30    1.50
   3  -1  -4    8.50    1.30
  -3   1   4   10.60    1.70
   2  -1  -4  762.92   28.10
   2  -1  -4  719.63   27.80
  -2   1   4  733.13   28.50
   1  -1  -4   21.30    1.70
  -1   1   4   18.40    1.80
  -1   1   4   24.40    2.10
   0  -1  -4  342.37   14.40
   0   1   4  358.86   14.60
   0   1   4  378.16   14.10
  -1  -1  -4   31.80    3.00
   1   1   4   31.80    3.00
  -2  -1  -4  538.65   22.00
   2   1   4  523.35   22.10
  -3  -1  -4  183.88    9.70
   3   1   4  168.38    9.70
  -4  -1  -4   19.50    3.70
   4   1   4   25.30    3.50
   5   1   4   40.80    4.10
   5   1   4   34.70    4.60
   5   1   4   38.40    5.20
   6   1   4   27.40    3.20
   6   1   4   20.90    3.50
   7   1   4    5.30    1.90
   7   1   4    6.40    1.60
   9  -2  -4    3.30    1.60
  -9   2   4    3.80    0.70
   8  -2  -4    6.00    2.20
  -8   2   4    3.30    1.60
   7  -2  -4   43.00    4.90
   6  -2  -4    2.00    1.80
  -5   2   4   82.39    5.60
   4  -2  -4 2383.56   85.09
   4  -2  -4 2186.38   84.69
  -4   2   4 2273.97   85.59
   3  -2  -4  420.06   17.00
   3  -2  -4  414.56   16.70
  -3   2   4  433.76   17.60
   2  -2  -4    4.40    0.90
   2  -2  -4    2.40    0.90
  -2   2   4    4.40    1.20
   1  -2  -4    0.40    0.70
  -1   2   4    0.60    0.60
  -1   2   4    0.90    0.90
   0  -2  -4    6.20    1.40
   0   2   4    7.30    1.40
   0   2   4    6.30    1.10
  -1  -2  -4  401.16   16.00
   1   2   4  341.67   15.70
  -2  -2  -4    8.20    1.30
   2   2   4   10.10    2.30
  -3  -2  -4  321.87   15.10
   3   2   4  318.17   15.90
  -4  -2  -4   32.80    4.80
   4   2   4   27.20    4.50
   5   2   4   48.90    4.50
   5   2   4   51.29    6.30
   6   2   4    5.00    2.50
   6   2   4    3.50    1.50
   9  -3  -4    4.30    1.70
  -9   3   4    2.50    1.30
   8  -3  -4   36.40    4.60
  -8   3   4   34.60    4.10
   7  -3  -4   32.30    4.30
   7  -3  -4   24.80    3.60
   6  -3  -4   12.70    3.00
  -6   3   4   14.70    3.10
   5  -3  -4  293.97   16.60
  -5   3   4  261.97   13.20
   4  -3  -4   21.60    2.80
  -4   3   4   24.10    3.10
   3  -3  -4   20.70    2.60
  -3   3   4   26.30    2.90
   2  -3  -4  198.28    9.30
   2  -3  -4  222.58    9.90
  -2   3   4  223.48   10.10
   1  -3  -4   13.90    2.10
  -1   3   4   12.70    1.50
  -1   3   4   13.00    1.90
   0  -3  -4   28.40    3.10
   0   3   4   30.70    2.80
   0   3   4   30.50    3.00
  -1  -3  -4  182.08    9.20
   1   3   4  182.88    9.40
  -2  -3  -4  263.07   13.00
   2   3   4  271.67   13.60
  -3  -3  -4   41.70    5.10
   3   3   4   30.50    4.60
   4   3   4  143.19    7.80
   4   3   4  130.89    9.50
   5   3   4   22.20    3.00
   5   3   4   23.20    4.40
   6   3   4   18.10    3.70
   9  -4  -4   20.10    3.20
  -9   4   4   15.70    2.70
   8  -4  -4   13.90    3.20
   7  -4  -4    9.80    2.70
   7  -4  -4   13.40    2.70
   6  -4  -4   26.60    3.40
   6  -4  -4   28.20    3.60
   5  -4  -4  402.26   18.10
  -5   4   4  393.36   18.50
   4  -4  -4    6.70    1.90
  -4   4   4    6.20    2.00
   3  -4  -4  112.39    6.50
  -3   4   4   99.39    6.80
   2  -4  -4    2.40    1.30
  -2   4   4   -1.10    1.60
   1  -4  -4  190.18    9.40
  -1   4   4  173.78    9.20
   0  -4  -4  125.09    7.30
   0   4   4  120.19    6.60
  -1  -4  -4  204.58   10.40
   1   4   4  182.58   10.10
  -2  -4  -4  102.29    7.30
   2   4   4  101.59    7.60
   3   4   4   10.20    2.30
   3   4   4    6.10    2.60
   4   4   4   97.29    9.10
   4   4   4  116.69    6.80
   5   4   4   18.80    3.80
   6   4   4    0.10    1.60
   9  -5  -4   39.60    4.50
  -9   5   4   37.20    3.80
   8  -5  -4   23.10    3.60
   8  -5  -4   24.10    3.40
   7  -5  -4    3.00    2.00
   7  -5  -4    4.40    1.90
   6  -5  -4   76.49    5.80
   6  -5  -4   80.39    5.60
   5  -5  -4   44.50    5.00
  -5   5   4   42.90    5.40
   4  -5  -4   48.00    4.90
  -4   5   4   34.30    4.40
   3  -5  -4  287.97   13.70
  -3   5   4  279.47   14.20
   2  -5  -4  109.19    6.80
  -2   5   4   96.49    6.80
   1  -5  -4   86.39    6.00
  -1   5   4   81.09    5.60
   0  -5  -4    6.20    1.50
  -1  -5  -4  118.69    7.90
  -2  -5  -4   84.29    5.30
   2   5   4   78.39    7.30
  -3  -5  -4   16.30    2.50
   3   5   4   16.00    4.00
  -4  -5  -4   60.89    4.70
   4   5   4   52.29    6.20
  -5  -5  -4   42.10    2.80
   5   5   4   49.10    5.50
   6   5   4   11.00    2.20
   9  -6  -4    0.40    2.00
  -9   6   4    2.60    2.00
   8  -6  -4   19.50    3.10
   8  -6  -4   20.40    3.30
   7  -6  -4   24.70    3.00
   7  -6  -4   25.70    3.60
   7  -6  -4   23.10    3.40
   6  -6  -4    4.70    1.90
   6  -6  -4    3.60    1.60
   5  -6  -4   62.09    4.80
  -5   6   4   68.79    7.10
   4  -6  -4    7.30    2.70
  -4   6   4   12.00    3.90
   3  -6  -4   17.80    3.50
  -3   6   4   12.00    4.10
   2  -6  -4  116.59    7.70
  -2   6   4  102.49    8.00
   1  -6  -4   20.30    3.00
   0  -6  -4  199.58   11.50
  -1  -6  -4    2.20    1.70
   1   6   4    1.80    2.30
  -2  -6  -4    4.70    1.80
   2   6   4    1.50    2.40
  -3  -6  -4   30.60    3.40
   3   6   4   36.80    5.60
  -4  -6  -4   52.99    4.10
   4   6   4   61.39    6.20
   5   6   4    7.60    1.90
   8  -7  -4    2.40    1.60
   7  -7  -4    8.10    1.80
   7  -7  -4    8.00    2.10
   6  -7  -4   12.60    2.30
   6  -7  -4   16.70    3.00
   5  -7  -4    5.20    1.80
  -5   7   4    5.80    2.90
   4  -7  -4   56.49    4.70
   3  -7  -4   79.59    7.80
   3  -7  -4   69.69    4.90
   2  -7  -4   56.99    5.00
   2  -7  -4   68.89    7.50
  -2   7   4   65.19    6.70
   1  -7  -4    6.40    3.00
   1  -7  -4    5.80    2.00
   0  -7  -4   13.70    2.50
  -1  -7  -4    6.10    1.70
   1   7   4    6.20    2.80
  -2  -7  -4    4.40    1.70
   2   7   4    4.30    2.40
  -3  -7  -4    3.50    0.90
   3   7   4    3.10    2.10
   4   7   4    2.80    1.50
   8  -8  -4    1.70    1.10
   8  -8  -4    2.40    1.30
   7  -8  -4    2.40    1.30
   7  -8  -4    4.30    1.80
   6  -8  -4   11.80    2.40
   6  -8  -4   16.00    2.60
  -6   8   4   12.70    3.40
   5  -8  -4    5.60    1.80
  -5   8   4    5.60    3.00
   4  -8  -4    8.80    2.20
   3  -8  -4   16.50    2.60
   3  -8  -4   12.20    3.50
   2  -8  -4    2.40    2.60
   2  -8  -4    3.30    1.60
   1  -8  -4  114.29    6.90
   1  -8  -4  113.19    8.60
   0  -8  -4    7.40    2.10
  -1  -8  -4   25.70    3.20
  -2  -8  -4   -1.40    0.90
   2   8   4    0.50    1.60
   3   8   4    7.50    1.90
   8  -9  -4    3.30    1.10
   7  -9  -4   12.30    2.00
   6  -9  -4   15.50    2.40
  -6   9   4   19.90    3.60
   5  -9  -4    9.10    1.90
  -5   9   4    5.90    3.00
   4  -9  -4   19.20    2.70
  -4   9   4   15.10    4.00
   3  -9  -4   30.70    3.50
   2  -9  -4    5.40    1.90
   1  -9  -4    3.70    1.50
   0  -9  -4   11.90    2.00
  -1  -9  -4   13.00    2.00
   7 -10  -4    0.10    0.90
   6 -10  -4   27.20    2.80
  -6  10   4   26.20    3.80
   5 -10  -4    6.70    1.60
  -5  10   4    4.30    2.30
   4 -10  -4    6.20    1.10
  -4  10   4    4.60    2.60
   3 -10  -4   -2.20    1.10
  -3  10   4    0.30    3.10
   2 -10  -4    5.20    1.80
  -2  10   4    7.50    3.30
   1 -10  -4   15.00    2.10
  -1  10   4   12.80    2.30
   0 -10  -4   40.80    3.10
   6 -11  -4    0.60    0.80
  -6  11   4    0.80    1.20
   5 -11  -4    2.20    1.00
  -5  11   4    0.40    1.50
   4 -11  -4    0.80    1.10
  -4  11   4    2.00    0.50
   3 -11  -4   12.00    1.70
  -3  11   4   17.80    3.70
   2 -11  -4    2.70    1.00
  -2  11   4    3.20    2.20
   1 -11  -4    1.30    0.90
   2 -12   5    0.90    1.10
   2 -12   5    1.00    0.70
   3 -12   5    1.00    0.70
   3 -12   5    0.70    1.40
  -1 -11   5    4.70    0.90
   0 -11   5   12.00    1.50
   0 -11   5    8.80    2.00
   1 -11   5   20.70    3.00
   1 -11   5   26.80    2.50
   2 -11   5    0.80    1.00
   2 -11   5    3.10    0.90
   3 -11   5    1.40    2.20
   3 -11   5    5.30    1.50
   4 -11   5    0.30    1.00
   4 -11   5    1.60    2.20
   5 -11   5    2.50    0.80
   6 -11   5    6.30    1.40
  -2 -10   5    9.90    1.40
  -1 -10   5    7.90    2.30
  -1 -10   5   10.00    1.60
   0 -10   5   -0.30    0.90
   0 -10   5   -0.10    1.70
   1 -10   5   13.60    2.20
   1 -10   5   13.70    3.20
   2 -10   5   32.50    3.40
   2 -10   5   27.70    4.30
   3 -10   5   23.30    4.20
   3 -10   5   27.90    3.20
   4 -10   5   37.60    3.90
   4 -10   5   39.40    5.60
   5 -10   5   23.20    2.90
   5 -10   5   17.00    2.40
   6 -10   5   -0.40    1.20
   6 -10   5   -3.60    1.10
   7 -10   5   19.20    2.20
   7 -10   5   17.60    2.10
   3   9  -5   -0.20    1.10
  -3  -9   5    0.40    0.70
   2   9  -5   19.20    3.10
  -2  -9   5   19.50    2.30
   1   9  -5    8.20    3.40
  -1  -9   5   11.10    2.10
  -1  -9   5    9.70    2.60
   0  -9   5    2.10    1.40
   0  -9   5   -0.50    1.80
   1  -9   5   66.19    5.40
   1  -9   5   67.49    7.20
   2  -9   5    5.50    1.70
   2  -9   5    5.50    2.80
   3  -9   5    9.90    2.00
   3  -9   5    9.90    3.20
   4  -9   5   11.60    3.30
   4  -9   5   10.50    2.20
   4  -9   5    9.60    2.20
   5  -9   5    4.30    1.80
   5  -9   5    4.50    1.70
   6  -9   5    6.50    2.00
   6  -9   5    8.30    2.20
   7  -9   5    0.80    1.80
   7  -9   5    1.20    1.70
   8  -9   5    2.50    1.10
   8  -9   5    4.60    1.20
   4   8  -5   -0.70    1.20
  -4  -8   5   -0.70    0.70
   3   8  -5   20.70    3.40
  -3  -8   5   21.00    2.50
   2   8  -5    7.10    2.30
  -2  -8   5    8.90    1.80
  -1  -8   5    4.00    2.40
  -1  -8   5    1.60    1.30
   0  -8   5   -1.70    1.70
   0  -8   5    0.60    1.20
   1  -8   5    4.00    1.50
   1  -8   5    4.20    2.60
   2  -8   5    5.70    1.70
   2  -8   5    1.70    2.50
   3  -8   5    7.70    2.90
   3  -8   5    4.00    1.70
   4  -8   5    2.60    1.80
   4  -8   5    2.40    1.60
   5  -8   5    3.70    1.60
   5  -8   5    1.10    1.50
   6  -8   5    4.00    1.70
   6  -8   5    2.20    1.50
   7  -8   5    0.00    1.40
   7  -8   5    0.80    1.20
   8  -8   5   20.40    2.30
   8  -8   5   17.00    2.40
   5   7  -5   20.20    2.90
  -5  -7   5   19.10    2.10
   4   7  -5    2.90    1.80
  -4  -7   5    1.20    1.00
   3   7  -5   58.69    6.10
  -3  -7   5   57.39    4.70
  -2  -7   5    6.10    2.40
  -2  -7   5    5.10    1.70
  -1  -7   5    2.00    2.10
  -1  -7   5    2.10    1.30
  -1  -7   5    3.40    2.20
   0  -7   5  363.66   15.50
   0  -7   5  338.77   17.00
  -2   7  -5   50.59    5.20
  -3   7  -5   15.80    3.20
   3  -7   5   17.20    2.50
   4  -7   5    3.40    1.90
   4  -7   5    2.60    1.60
   5  -7   5   18.70    2.80
   5  -7   5   15.90    2.60
   6  -7   5   12.20    2.40
   6  -7   5   10.40    2.20
   7  -7   5    7.90    2.20
   7  -7   5    6.70    1.80
   8  -7   5   -0.50    1.10
   8  -7   5   -0.90    0.40
   6   6  -5   30.50    3.40
  -6  -6   5   31.30    2.60
   5   6  -5   -0.50    2.10
  -5  -6   5   -0.20    0.80
   4   6  -5    0.10    1.60
  -4  -6   5    0.50    1.10
  -3  -6   5   36.60    4.90
  -3  -6   5   44.20    3.90
  -2  -6   5    6.40    2.70
  -2  -6   5    6.90    1.80
  -2  -6   5    8.60    3.00
  -2  -6   5    4.70    2.10
  -1  -6   5   72.09    5.60
   0  -6   5  132.19    8.10
   1  -6   5  189.08   10.10
  -2   6  -5   29.60    3.60
   2  -6   5   28.50    3.30
  -3   6  -5  175.58    9.60
   3  -6   5  171.78   10.20
   4  -6   5   94.19    7.40
   5  -6   5   16.70    2.80
   5  -6   5   16.20    2.60
   6  -6   5    9.00    2.50
   6  -6   5    9.80    2.40
   7  -6   5   75.49    6.50
   7  -6   5   92.39    6.10
   7  -6   5   80.09    5.60
   8  -6   5    9.10    1.40
   8  -6   5   15.40    2.30
   8  -6   5   15.60    2.30
  -7  -5   5    5.70    1.00
   6   5  -5   20.60    3.30
  -6  -5   5   22.70    2.50
   5   5  -5   53.89    5.80
  -5  -5   5   52.39    4.50
  -4  -5   5   78.69    5.20
   3   5  -5   33.50    6.40
  -3  -5   5   33.60    4.70
  -3  -5   5   38.90    3.80
   2   5  -5   27.50    3.40
  -2  -5   5   21.30    3.10
   1   5  -5  357.76   16.20
  -1  -5   5  395.96   16.90
   0   5  -5   26.00    2.80
   0  -5   5   32.00    3.50
   1  -5   5   61.39    6.20
   1  -5   5   61.59    4.70
   2  -5   5   47.20    4.60
  -3   5  -5  100.09    6.00
   3  -5   5   89.89    6.40
   4  -5   5  186.08   11.00
   5  -5   5    7.50    2.00
   5  -5   5   10.40    2.20
   6  -5   5  150.18    8.90
   6  -5   5  161.48    8.70
   6  -5   5  164.98    9.90
   7  -5   5   10.90    2.50
   7  -5   5    7.20    2.10
   7  -5   5   12.20    2.90
   8  -5   5   22.50    3.40
   8  -5   5   20.30    2.80
   9  -5   5    7.40    1.30
   9  -5   5    6.60    1.60
  -7  -4   5   27.80    2.60
   6   4  -5    7.90    2.40
  -6  -4   5    8.40    1.90
   5   4  -5   27.80    4.20
  -5  -4   5   34.10    3.70
  -4  -4   5  113.69    8.40
  -4  -4   5  142.19    7.30
   3   4  -5   54.49    5.40
  -3  -4   5   56.59    5.20
   2   4  -5  254.87   12.20
  -2  -4   5  265.47   12.30
   1   4  -5   66.69    4.50
  -1  -4   5   77.19    4.90
   0   4  -5    7.80    1.50
   0  -4   5    6.80    1.20
  -1   4  -5   44.10    3.00
   1  -4   5   40.40    3.70
   1  -4   5   43.50    3.30
   2  -4   5   16.30    2.60
  -3   4  -5   37.90    3.50
   3  -4   5   42.00    4.60
   4  -4   5   38.10    5.10
  -5   4  -5   28.70    4.60
  -5   4  -5   31.30    5.00
  -5   4  -5   27.60    2.80
   6  -4   5   20.20    3.00
   6  -4   5    8.80    2.50
   7  -4   5    3.20    1.70
   7  -4   5    6.80    2.70
   8  -4   5    5.40    1.70
   8  -4   5    5.20    1.80
   9  -4   5    2.20    0.90
   9  -4   5    4.30    1.60
  -8  -3   5    1.40    0.70
  -7  -3   5    7.00    1.60
   6   3  -5   40.90    4.80
  -6  -3   5   45.60    4.20
  -5  -3   5    1.30    1.20
   4   3  -5  110.19    7.30
   3   3  -5  146.69    8.10
  -3  -3   5  136.09    7.50
   2   3  -5    2.70    1.20
  -2  -3   5    2.20    1.20
   1   3  -5  147.79    7.40
  -1  -3   5  158.78    7.70
   0   3  -5  178.28    8.00
   0  -3   5  182.68    8.40
   0  -3   5  168.78    7.50
   1  -3   5   39.70    2.90
   1  -3   5   40.90    3.00
   2  -3   5    8.50    1.80
   2  -3   5    6.90    1.40
   3  -3   5    9.40    1.70
   3  -3   5    8.10    2.30
  -4   3  -5  198.68    8.50
  -4   3  -5  199.88   10.90
  -4   3  -5  205.58   10.70
   4  -3   5  173.88    9.30
  -5   3  -5   98.79    7.50
  -5   3  -5  101.89    7.80
  -5   3  -5  106.49    5.50
   6  -3   5    4.10    1.80
   6  -3   5    6.90    2.70
   7  -3   5    6.90    2.70
   7  -3   5    5.30    1.90
   8  -3   5   38.70    3.60
   8  -3   5   33.30    3.30
  -8  -2   5   11.40    1.80
  -7  -2   5   34.20    3.50
  -6  -2   5   23.50    3.00
  -5  -2   5   91.19    5.80
   4   2  -5   13.40    2.80
  -4  -2   5   11.80    2.30
   3   2  -5  235.38   11.50
  -3  -2   5  253.17   11.30
   2   2  -5  296.87   12.90
  -2  -2   5  287.37   12.70
   1   2  -5  189.58    8.50
  -1  -2   5  182.98    8.50
   0   2  -5  602.54   23.20
   0  -2   5  594.54   23.30
   1  -2   5  196.78    8.40
   1  -2   5  188.48    8.50
   2  -2   5  229.88   10.30
  -3   2  -5 1130.59   43.50
  -3   2  -5 1108.39   41.60
  -3   2  -5 1139.89   43.90
   3  -2   5 1078.69   43.10
  -4   2  -5   47.30    5.00
  -4   2  -5   44.30    4.70
  -4   2  -5   42.10    3.10
   4  -2   5   47.30    4.90
  -5   2  -5   53.49    5.50
  -5   2  -5   55.69    3.20
  -5   2  -5   55.49    5.30
   5  -2   5   56.09    5.40
   6  -2   5   10.30    3.10
   6  -2   5   11.30    2.50
   7  -2   5    1.00    1.20
   7  -2   5    1.60    2.00
   8  -2   5    0.00    1.10
   8  -2   5   -0.60    1.40
  -8  -1   5   16.00    2.20
   7   1  -5  127.59    8.60
  -7  -1   5  127.79    7.40
   6   1  -5   94.99    6.50
  -6  -1   5   99.49    6.20
   5   1  -5  469.85   21.10
   4   1  -5  385.76   17.80
  -4  -1   5  423.96   17.40
   3   1  -5    3.00    1.50
  -3  -1   5    1.00    0.90
   2   1  -5   83.49    4.70
  -2  -1   5   84.99    4.70
   1   1  -5   33.00    2.40
  -1  -1   5   31.90    2.40
   0   1  -5 1681.73   64.19
   0   1  -5 1773.82   63.59
   0   1  -5 1694.93   64.29
   0  -1   5 1826.22   64.99
   0  -1   5 1743.53   64.59
  -1   1  -5  278.47   11.70
  -1   1  -5  276.77   11.60
  -1   1  -5  272.27   10.60
   1  -1   5  273.17   11.10
   1  -1   5  284.17   11.80
  -2   1  -5  117.59    6.60
  -2   1  -5  122.99    5.30
  -2   1  -5  126.29    6.50
   2  -1   5  122.99    6.60
  -3   1  -5   32.10    3.60
  -3   1  -5   30.80    2.40
  -3   1  -5   33.50    3.90
   3  -1   5   36.30    3.90
  -4   1  -5   65.59    5.80
  -4   1  -5   67.29    4.20
  -4   1  -5   79.09    6.00
   4  -1   5   69.39    6.70
  -5   1  -5  135.49   14.40
   5  -1   5  127.49    9.70
   5  -1   5  105.29    6.70
   5  -1   5  102.49    7.70
   6  -1   5   98.89    6.40
   6  -1   5   95.09    8.30
   7  -1   5   76.49    6.90
   7  -1   5   75.69    5.20
   8  -1   5    1.60    1.40
   8  -1   5    1.30    1.00
  -9   0   5   -0.60    0.70
   8   0  -5   39.40    4.20
  -8   0   5   36.20    3.20
   7   0  -5   40.00    4.50
  -7   0   5   42.70    4.30
   6   0  -5  129.29    8.10
  -6   0   5  135.19    7.60
   5   0  -5   68.79    6.30
  -5   0   5   73.89    5.10
   4   0  -5  377.16   16.50
  -4   0   5  375.66   16.10
   3   0  -5 1478.35   55.89
  -3   0   5 1474.95   55.79
   2   0  -5   18.50    2.20
  -2   0   5   14.70    1.90
   1   0  -5 1218.38   44.70
  -1   0   5 1201.78   45.40
   0   0  -5  439.96   17.70
   0   0   5  441.16   17.50
   0   0   5  477.15   18.10
  -1   0  -5   16.10    2.10
   1   0   5   14.30    1.10
   1   0   5   18.00    2.20
  -2   0  -5 1827.82   67.79
  -2   0  -5 1846.32   67.99
  -2   0  -5 1840.22   66.19
   2   0   5 1671.63   67.89
  -3   0  -5   10.70    2.20
  -3   0  -5   10.00    2.30
  -3   0  -5   10.40    1.40
   3   0   5    9.00    2.50
  -4   0  -5   14.30    2.30
   4   0   5   17.50    3.30
   5   0   5   32.30    3.60
   5   0   5   25.40    4.10
   6   0   5    3.10    1.70
   6   0   5    5.70    2.40
   7   0   5   17.60    2.40
   7   0   5   14.50    2.90
   8   0   5   16.20    2.10
   8   0   5   17.90    1.90
   9  -1  -5    1.10    1.30
  -9   1   5    0.00    0.50
   8  -1  -5    5.30    2.10
  -8   1   5    6.50    1.90
   7  -1  -5   37.30    4.70
  -7   1   5   38.20    4.20
   6  -1  -5   24.80    3.60
  -6   1   5   22.00    3.10
   5  -1  -5  100.89    6.20
  -5   1   5  103.19    6.30
   4  -1  -5  209.38   10.20
  -4   1   5  221.28   10.40
   3  -1  -5  482.95   19.40
  -3   1   5  480.15   19.70
   2  -1  -5  187.08    8.00
   2  -1  -5  200.68    8.50
  -2   1   5  190.68    8.80
   1  -1  -5 2433.86   89.39
  -1   1   5 2405.96   89.69
  -1   1   5 2438.16   89.59
   0  -1  -5   15.30    1.90
   0   1   5   17.20    1.70
   0   1   5   14.50    2.00
  -1  -1  -5   13.50    2.10
   1   1   5   15.50    2.30
  -2  -1  -5   43.20    4.20
   2   1   5   33.80    3.90
  -3  -1  -5   92.59    5.90
   3   1   5   80.99    6.40
  -4  -1  -5   77.29    7.30
   4   1   5   67.39    6.90
   5   1   5  183.88   11.00
   5   1   5  178.18    9.30
   5   1   5  158.68   10.00
   6   1   5   32.50    3.60
   6   1   5   30.50    4.20
   7   1   5    0.90    1.10
   7   1   5   -0.30    1.30
   9  -2  -5    0.40    1.30
  -9   2   5   -0.40    1.00
   8  -2  -5   32.50    4.20
  -8   2   5   27.30    3.50
   7  -2  -5    0.30    1.60
  -7   2   5    0.90    1.50
   6  -2  -5    0.30    1.30
   6  -2  -5    0.70    1.60
  -6   2   5    0.50    1.70
  -5   2   5    3.40    1.80
   4  -2  -5   72.99    4.50
  -4   2   5   82.29    5.30
   3  -2  -5    0.40    0.80
   3  -2  -5    1.30    0.80
  -3   2   5    2.90    0.90
   2  -2  -5  640.24   24.90
   2  -2  -5  657.33   25.30
  -2   2   5  648.04   25.70
   1  -2  -5  985.80   38.50
  -1   2   5 1017.60   38.50
  -1   2   5 1023.20   38.20
   0  -2  -5   75.59    4.70
   0   2   5   71.89    4.50
   0   2   5   80.39    4.20
  -1  -2  -5  573.54   23.40
   1   2   5  563.14   23.50
  -2  -2  -5   13.20    2.60
   2   2   5   13.80    2.90
  -3  -2  -5   55.89    5.70
   3   2   5   56.99    6.10
   4   2   5    2.00    2.50
   4   2   5    7.40    2.00
   5   2   5   17.50    2.80
   5   2   5   12.80    3.50
   6   2   5   25.10    4.00
   6   2   5   25.80    3.10
   9  -3  -5   13.00    2.40
  -9   3   5   14.20    2.30
   8  -3  -5   60.99    5.70
  -8   3   5   52.69    5.00
   7  -3  -5    3.00    1.90
   7  -3  -5    6.00    2.10
   6  -3  -5   58.49    5.10
   6  -3  -5   55.09    5.50
  -6   3   5   53.09    6.30
  -5   3   5  273.27   13.60
   4  -3  -5  357.46   15.70
  -4   3   5  366.76   16.50
   3  -3  -5  472.35   19.40
  -3   3   5  469.95   20.10
   2  -3  -5  168.38    8.20
  -2   3   5  168.28    8.60
   1  -3  -5  145.39    7.40
  -1   3   5  134.19    6.60
  -1   3   5  142.49    7.30
   0  -3  -5    1.80    1.20
   0   3   5    1.60    1.10
  -1  -3  -5   25.30    3.40
   1   3   5   24.60    3.30
  -2  -3  -5   11.40    1.80
   2   3   5   10.00    2.80
  -3  -3  -5  144.49    9.00
   3   3   5  136.79    9.90
   4   3   5  285.77   13.30
   4   3   5  277.27   15.60
   5   3   5   12.00    3.20
   5   3   5   10.00    2.10
   6   3   5    3.20    2.40
   9  -4  -5   12.40    2.70
  -9   4   5   10.90    2.20
   8  -4  -5    1.90    1.90
   7  -4  -5   48.50    4.90
   7  -4  -5   41.50    4.60
   6  -4  -5   22.10    3.30
   6  -4  -5   18.10    3.00
  -5   4   5   46.20    5.30
   4  -4  -5  212.68   10.60
  -4   4   5  195.48   10.90
   3  -4  -5  191.48    9.50
  -3   4   5  170.08    9.80
   2  -4  -5  303.87   13.60
  -2   4   5  280.27   13.60
   1  -4  -5   49.60    4.60
  -1   4   5   44.50    4.10
   0  -4  -5    6.70    2.00
   0   4   5    9.50    2.60
  -1  -4  -5   20.20    2.60
   1   4   5   23.80    3.60
  -2  -4  -5   41.40    5.20
   2   4   5   42.60    5.70
   3   4   5   45.80    6.10
   3   4   5   51.89    4.80
   4   4   5   65.69    7.30
  -5  -4  -5   19.60    2.80
   5   4   5   14.90    3.30
  -6  -4  -5   -0.30    0.40
   6   4   5    0.40    1.40
   9  -5  -5   17.50    3.20
  -9   5   5   18.40    2.50
   8  -5  -5    3.90    1.80
   8  -5  -5    3.70    1.70
   7  -5  -5   20.10    3.30
   7  -5  -5   20.50    3.20
   6  -5  -5   29.20    3.70
   6  -5  -5   37.40    4.30
   5  -5  -5   41.00    4.80
  -5   5   5   37.60    5.10
   4  -5  -5  286.27   13.70
  -4   5   5  251.47   14.20
   3  -5  -5   12.70    2.70
  -3   5   5   11.10    3.40
   2  -5  -5    7.00    2.10
  -2   5   5    5.90    3.00
   1  -5  -5   28.70    4.00
   0  -5  -5   33.60    4.20
  -1  -5  -5  237.38   12.90
  -2  -5  -5   66.29    5.30
   2   5   5   60.59    6.70
  -3  -5  -5   79.09    5.20
   3   5   5   67.69    7.30
  -4  -5  -5    0.40    1.20
   4   5   5    2.00    2.20
  -5  -5  -5    0.40    0.60
   5   5   5    0.70    2.10
   9  -6  -5   10.40    2.40
  -9   6   5    8.20    1.70
   8  -6  -5   15.40    2.80
   8  -6  -5   10.40    2.20
   7  -6  -5   22.50    3.30
   7  -6  -5   23.00    3.40
   6  -6  -5    6.50    2.20
   6  -6  -5    4.20    1.80
   5  -6  -5   83.59    5.40
  -5   6   5  102.29    8.70
   4  -6  -5   13.10    3.10
  -4   6   5   19.60    4.20
   3  -6  -5   30.40    4.30
  -3   6   5   23.70    4.20
   2  -6  -5   12.70    3.00
  -2   6   5   17.40    3.40
   1  -6  -5   32.00    4.50
   0  -6  -5   46.20    4.50
  -1  -6  -5   23.60    3.20
   1   6   5   25.80    4.50
  -2  -6  -5    5.00    2.10
   2   6   5    7.60    3.20
  -3  -6  -5    9.70    2.10
   3   6   5    5.90    2.60
  -4  -6  -5    1.30    1.20
   4   6   5    3.40    1.80
   5   6   5   11.40    1.60
  -9   7   5    5.00    1.30
   8  -7  -5    4.70    1.80
   7  -7  -5    1.20    1.30
   7  -7  -5    0.20    1.70
   6  -7  -5   62.79    5.10
  -6   7   5   70.09    7.10
   5  -7  -5   16.50    2.60
  -5   7   5   20.90    4.60
   4  -7  -5    2.40    1.50
  -4   7   5    3.80    3.30
   3  -7  -5   33.80    3.60
   2  -7  -5   -1.50    1.10
   2  -7  -5   -0.30    2.30
   1  -7  -5    9.90    2.30
   0  -7  -5  278.57   13.30
  -1  -7  -5   22.80    3.20
   1   7   5   22.50    4.10
  -2  -7  -5    5.30    1.70
   2   7   5    6.10    2.70
  -3  -7  -5   -0.70    1.20
   3   7   5    1.30    1.70
   4   7   5    3.50    1.50
   7  -8  -5   16.40    2.30
   6  -8  -5   27.60    3.20
  -6   8   5   31.60    4.80
   5  -8  -5    5.30    1.80
  -5   8   5   12.60    3.90
   4  -8  -5    3.80    1.60
  -4   8   5    2.50    3.10
   3  -8  -5   52.59    4.60
   2  -8  -5   65.29    5.40
   1  -8  -5   19.20    2.90
   0  -8  -5   16.20    2.70
  -1  -8  -5   12.90    2.30
  -2  -8  -5    2.70    1.10
   2   8   5    1.60    1.50
   3   8   5    4.50    1.50
   7  -9  -5   12.20    1.90
   6  -9  -5   12.00    2.10
  -6   9   5   14.60    3.30
   5  -9  -5    8.10    1.90
  -5   9   5    9.20    3.40
   4  -9  -5    7.30    2.00
  -4   9   5    7.60    3.30
   3  -9  -5   15.80    2.40
  -3   9   5    9.20    3.60
   2  -9  -5    0.10    0.90
  -2   9   5    2.40    2.60
   1  -9  -5   76.99    5.00
  -1   9   5   66.39    6.70
   0  -9  -5   20.30    2.80
  -1  -9  -5   20.90    2.10
  -2  -9  -5   10.10    1.20
   7 -10  -5    3.90    1.10
   6 -10  -5   11.10    1.70
  -6  10   5    7.50    2.20
   5 -10  -5    3.30    1.40
  -5  10   5    6.40    2.40
   4 -10  -5   39.90    3.70
   3 -10  -5   24.50    2.60
  -3  10   5   18.80    4.60
   2 -10  -5   -1.30    1.20
  -2  10   5   -1.30    1.70
   1 -10  -5    0.10    1.00
   0 -10  -5    1.70    0.80
   5 -11  -5    0.50    0.80
  -5  11   5    0.40    1.30
   4 -11  -5   10.10    1.20
  -4  11   5   12.80    2.60
   3 -11  -5    0.20    0.80
  -3  11   5    1.20    2.40
   2 -11  -5    3.30    1.10
  -2  11   5    6.10    2.30
   0 -11   6   -0.50    1.10
   0 -11   6    0.70    0.80
   1 -11   6    2.20    1.40
   1 -11   6    3.90    1.00
   2 -11   6    4.80    0.90
   2 -11   6    6.60    1.50
   3 -11   6    2.80    0.50
   3 -11   6    5.00    2.70
   4 -11   6    4.50    1.60
   4 -11   6    4.30    1.90
   5 -11   6    3.00    1.40
   6 -11   6    0.30    1.20
  -2 -10   6    0.00    0.60
  -1 -10   6   33.80    3.80
  -1 -10   6   35.20    2.90
   0 -10   6   20.50    2.50
   0 -10   6   20.40    3.50
   1 -10   6   95.79    7.20
   1 -10   6   94.89    5.60
   2 -10   6    4.50    1.50
   2 -10   6    2.20    2.10
   3 -10   6   -0.30    1.20
   3 -10   6    0.50    1.80
   4 -10   6   27.20    3.50
   4 -10   6   19.50    2.90
   5 -10   6    9.70    2.20
   6 -10   6    2.30    1.10
   6 -10   6    2.50    1.80
   7 -10   6    0.60    1.60
   7 -10   6    1.10    1.00
   3   9  -6    2.90    1.40
  -3  -9   6    2.70    0.90
   2   9  -6   35.40    4.10
  -2  -9   6   35.40    3.20
   1   9  -6    5.60    1.90
  -1  -9   6    5.50    2.20
  -1  -9   6    4.20    1.40
   0  -9   6   10.40    2.00
   0  -9   6   14.60    3.40
   1  -9   6   63.09    6.60
   1  -9   6   73.49    5.70
   2  -9   6   12.80    2.40
   2  -9   6   11.60    3.20
   3  -9   6   22.60    3.10
   3  -9   6   25.20    4.20
   4  -9   6   17.70    2.70
   4  -9   6   12.40    3.30
   5  -9   6   12.10    2.30
   5  -9   6   12.40    2.30
   6  -9   6   38.50    3.90
   6  -9   6   27.00    3.20
   7  -9   6    5.50    1.40
   7  -9   6    2.10    0.90
   4   8  -6   11.50    2.30
  -4  -8   6   12.00    1.60
   3   8  -6   14.80    3.00
  -3  -8   6   16.70    2.20
   2   8  -6   37.70    4.30
  -2  -8   6   41.30    4.80
  -2  -8   6   52.69    4.20
  -1  -8   6    9.80    3.00
  -1  -8   6   14.80    2.50
   0  -8   6  142.29    9.60
   0  -8   6  160.48    8.30
   1  -8   6   11.10    2.30
   1  -8   6   10.00    2.80
   2  -8   6   21.20    4.10
   2  -8   6   23.60    3.10
   3  -8   6   31.60    3.50
   3  -8   6   33.10    4.90
   4  -8   6    3.80    1.90
   4  -8   6    1.50    1.60
   5  -8   6    6.20    1.80
   5  -8   6    5.80    1.90
   6  -8   6    1.00    1.40
   6  -8   6    0.90    1.30
   7  -8   6   -0.10    1.50
   7  -8   6    0.00    1.90
   8  -8   6    9.00    1.70
   5   7  -6    0.80    1.70
  -5  -7   6    0.90    0.70
   4   7  -6   -0.50    1.30
  -4  -7   6   -0.60    0.80
  -3  -7   6   13.20    2.30
  -2  -7   6   32.50    4.40
  -2  -7   6   36.50    3.60
  -2  -7   6   37.00    4.90
  -1  -7   6   40.10    4.90
  -1  -7   6   36.40    3.60
  -1  -7   6   32.10    4.50
   0  -7   6  163.18    9.90
   0  -7   6  156.68    8.30
   1  -7   6    8.10    2.90
   1  -7   6    7.60    1.90
  -2   7  -6   97.69   10.40
   2  -7   6   80.19    7.90
   2  -7   6   74.89    5.10
   3  -7   6    3.30    2.50
   3  -7   6   -0.90    1.10
   4  -7   6   12.30    2.30
   4  -7   6   11.00    2.40
   5  -7   6   19.80    3.00
   5  -7   6   21.40    3.00
   6  -7   6    1.10    1.40
   6  -7   6   -0.10    1.60
   7  -7   6   22.70    3.00
   7  -7   6   21.70    2.40
   8  -7   6   11.60    2.20
   6   6  -6   11.60    2.40
  -6  -6   6    8.70    1.30
   5   6  -6   -0.30    1.60
  -5  -6   6    1.50    1.00
   4   6  -6   51.79    5.70
  -4  -6   6   40.70    3.80
  -3  -6   6  120.89    9.50
  -3  -6   6  101.89    6.20
  -2  -6   6    6.20    1.80
  -2  -6   6    6.50    2.50
  -2  -6   6    3.00    2.10
  -1  -6   6  120.19    7.80
   0  -6   6    0.80    1.40
   1  -6   6   67.59    6.10
  -2   6  -6  182.58   10.00
  -3   6  -6  161.68    9.00
   3  -6   6  145.49    8.90
   4  -6   6    8.30    3.80
   4  -6   6    5.40    2.00
   4  -6   6    4.00    1.80
   5  -6   6   21.50    3.00
   5  -6   6   22.30    2.90
   6  -6   6    7.00    2.20
   6  -6   6    9.30    2.40
   7  -6   6   69.69    5.80
   7  -6   6   55.09    4.10
   7  -6   6   77.99    5.00
   8  -6   6    6.70    1.00
   8  -6   6    9.20    1.60
  -7  -5   6    8.00    1.10
   6   5  -6   18.60    2.80
  -6  -5   6   20.00    2.30
   5   5  -6   57.99    5.80
  -5  -5   6   58.79    4.70
  -4  -5   6   13.50    2.30
  -4  -5   6   16.30    3.50
  -3  -5   6   43.90    5.20
  -3  -5   6   55.29    4.70
   2   5  -6    0.40    1.30
  -2  -5   6   -0.20    1.40
   1   5  -6   84.49    5.60
  -1  -5   6   90.59    6.10
   0   5  -6   57.09    4.10
   0  -5   6   61.79    4.30
   1  -5   6  476.45   20.60
   2  -5   6   15.40    2.30
  -3   5  -6   51.69    4.60
   3  -5   6   55.99    5.30
   4  -5   6   89.19    6.90
   5  -5   6   41.10    4.10
   6  -5   6  172.98   10.50
   6  -5   6  178.58    9.80
   7  -5   6   34.10    4.40
   7  -5   6   31.80    3.80
   8  -5   6   14.60    2.20
   8  -5   6   13.30    2.60
  -7  -4   6    5.20    1.20
   6   4  -6    4.20    1.90
  -6  -4   6    4.40    1.40
  -5  -4   6   69.29    4.80
  -4  -4   6  317.87   15.70
  -4  -4   6  291.27   13.60
   3   4  -6   15.90    3.10
  -3  -4   6    9.50    2.30
   2   4  -6   12.60    2.40
  -2  -4   6   13.10    2.50
   1   4  -6   12.60    2.20
  -1  -4   6   12.70    2.20
   0   4  -6  114.29    6.20
   0  -4   6  124.49    6.90
  -1   4  -6  145.59    6.90
   1  -4   6  134.09    7.50
   1  -4   6  130.69    8.10
   2  -4   6    0.90    1.40
   2  -4   6    1.80    1.50
   3  -4   6   39.00    4.40
  -4   4  -6    4.20    2.30
  -4   4  -6    4.30    2.20
  -4   4  -6    3.50    1.30
   5  -4   6  158.78    9.60
   5  -4   6  150.88    8.50
   6  -4   6  113.89    8.20
   6  -4   6  108.79    7.10
   7  -4   6   54.79    5.10
   7  -4   6   71.29    6.60
   8  -4   6    3.00    1.50
   8  -4   6    4.90    1.40
  -8  -3   6    1.30    0.70
  -7  -3   6    8.40    1.60
   6   3  -6   70.79    6.10
  -6  -3   6   68.29    4.80
  -5  -3   6  172.28    9.10
  -5  -3   6  189.48   10.80
   4   3  -6    6.40    2.10
  -4  -3   6    7.30    2.10
   3   3  -6   28.00    3.50
  -3  -3   6   25.00    3.20
   2   3  -6    3.10    1.40
  -2  -3   6    2.00    1.20
   1   3  -6  818.72   32.40
  -1  -3   6  839.42   32.60
   0   3  -6  385.56   16.10
   0  -3   6  397.66   16.60
   1  -3   6   37.10    2.90
   1  -3   6   33.00    3.10
   2  -3   6  405.06   16.40
   2  -3   6  390.26   16.50
  -3   3  -6    8.50    2.30
  -3   3  -6    6.10    2.00
  -3   3  -6    5.20    1.10
   3  -3   6    3.10    1.50
  -4   3  -6   19.10    3.30
  -4   3  -6   18.60    3.50
  -4   3  -6   18.40    2.00
   4  -3   6   19.30    2.50
   5  -3   6    5.40    2.50
   5  -3   6    0.20    1.70
   6  -3   6   47.30    4.70
   6  -3   6   49.40    5.80
   7  -3   6    0.40    1.90
   7  -3   6    1.30    1.50
   8  -3   6    6.10    1.60
   8  -3   6   11.10    1.30
  -8  -2   6    3.40    0.70
  -7  -2   6   38.30    3.70
  -6  -2   6    2.70    1.60
  -5  -2   6  171.48    8.90
   4   2  -6   42.80    4.90
  -4  -2   6   45.20    4.40
   3   2  -6   15.40    2.20
  -3  -2   6   21.00    2.80
   2   2  -6    2.70    1.20
  -2  -2   6    3.00    1.20
   1   2  -6  308.17   13.10
  -1  -2   6  303.57   13.20
   0   2  -6   67.49    2.90
   0   2  -6   66.39    3.30
   0   2  -6   74.29    4.10
   0   2  -6   66.49    3.40
   0  -2   6   74.49    4.20
  -1   2  -6   43.30    3.10
  -1   2  -6   43.50    2.20
  -1   2  -6   45.10    3.00
   1  -2   6   43.90    2.90
   1  -2   6   41.90    3.20
  -2   2  -6   20.60    2.50
  -2   2  -6   16.80    1.50
  -2   2  -6   15.20    2.40
   2  -2   6   16.00    2.40
  -3   2  -6   31.70    3.80
  -3   2  -6   30.90    2.40
  -3   2  -6   39.90    4.30
   3  -2   6   35.00    3.80
  -4   2  -6   57.69    5.40
  -4   2  -6   54.79    3.70
  -4   2  -6   54.09    5.70
   4  -2   6   52.99    5.60
   5  -2   6   42.80    5.20
   5  -2   6   54.19    4.90
   6  -2   6   60.19    6.60
   6  -2   6   55.49    5.20
   7  -2   6    0.00    1.10
   7  -2   6    0.10    1.60
   8  -2   6   -0.20    1.20
   8  -2   6    1.50    1.10
  -8  -1   6   38.20    3.20
   7   1  -6  137.79    9.30
  -7  -1   6  138.19    7.80
   6   1  -6    5.80    2.00
  -6  -1   6    8.50    2.00
   5   1  -6   84.19    6.70
  -5  -1   6   96.79    6.20
   4   1  -6  276.27   13.90
  -4  -1   6  308.47   13.50
   3   1  -6  154.18    8.10
  -3  -1   6  151.38    7.70
   2   1  -6 2731.33  100.79
  -2  -1   6 2692.03  100.59
   1   1  -6  469.25   18.90
  -1  -1   6  473.55   19.00
   0   1  -6  173.28    7.30
   0  -1   6  166.58    7.90
   0  -1   6  166.58    7.60
  -1   1  -6   19.50    2.40
  -1   1  -6   22.80    2.40
  -1   1  -6   17.70    1.40
   1  -1   6   19.80    2.50
   1  -1   6   17.30    1.80
  -2   1  -6 1187.18   44.60
  -2   1  -6 1236.48   46.20
  -2   1  -6 1220.48   46.50
   2  -1   6 1160.18   46.40
  -3   1  -6  434.66   19.20
  -3   1  -6  434.96   17.30
  -3   1  -6  442.66   19.60
   3  -1   6  450.45   19.70
  -4   1  -6   23.00    4.00
  -4   1  -6   27.30    4.10
  -4   1  -6   25.50    2.60
   4  -1   6   18.40    4.00
   5  -1   6  177.18    9.20
   5  -1   6  155.68   10.30
   6  -1   6    2.50    2.10
   6  -1   6    1.30    1.40
   7  -1   6    4.80    1.60
   7  -1   6    8.20    2.40
   8  -1   6   31.30    3.00
   8  -1   6   25.70    2.40
  -9   0   6    1.20    1.10
   8   0  -6   73.29    5.40
  -8   0   6   76.99    5.10
   7   0  -6    4.40    1.70
  -7   0   6    1.20    1.50
   6   0  -6  158.08    9.10
  -6   0   6  158.88    8.60
   5   0  -6  554.44   24.10
  -5   0   6  565.74   23.50
   4   0  -6  833.02   34.10
  -4   0   6  883.41   34.00
   3   0  -6   50.49    3.90
  -3   0   6   47.60    3.60
   2   0  -6 1109.09   42.20
  -2   0   6 1104.09   42.30
   1   0  -6  880.91   33.90
  -1   0   6  938.01   34.80
   0   0  -6    1.80    0.80
   0   0   6    2.60    1.00
   0   0   6    4.10    1.00
  -1   0  -6   49.50    3.60
   1   0   6   49.70    3.70
  -2   0  -6  257.27   12.00
   2   0   6  244.98   11.90
  -3   0  -6  137.99    8.20
   3   0   6  130.69    8.60
  -4   0  -6   62.69    6.60
   5   0   6   74.49    5.70
   5   0   6   71.19    6.70
   6   0   6   40.80    5.00
   6   0   6   49.70    4.50
   7   0   6   18.90    2.90
   7   0   6   18.00    2.40
   8   0   6    4.80    1.20
   9  -1  -6    0.40    1.20
  -9   1   6   -0.20    1.10
   8  -1  -6    1.00    1.70
  -8   1   6    1.50    1.40
   7  -1  -6    3.40    2.00
  -7   1   6    2.30    1.70
   6  -1  -6    6.50    1.90
  -6   1   6    9.80    2.30
   5  -1  -6   17.00    2.40
  -5   1   6   14.80    2.60
   4  -1  -6  323.67   14.60
  -4   1   6  342.67   14.90
   3  -1  -6 1199.78   46.60
  -3   1   6 1248.78   47.10
   2  -1  -6  363.56   14.70
   2  -1  -6  335.97   14.00
  -2   1   6  365.96   15.10
   1  -1  -6    7.70    1.30
  -1   1   6    7.10    1.40
  -1   1   6    7.30    1.40
   0  -1  -6  124.89    6.50
   0   1   6  132.69    6.80
   0   1   6  135.29    6.10
  -1  -1  -6 1567.14   58.49
   1   1   6 1507.55   58.79
  -2  -1  -6   46.50    4.60
   2   1   6   54.99    5.50
  -3  -1  -6   11.10    2.60
   3   1   6    8.70    2.60
   4   1   6   29.30    3.40
   5   1   6   18.20    3.70
   5   1   6   20.50    2.90
   5   1   6   13.70    3.10
   6   1   6    5.50    2.00
   6   1   6    6.00    1.80
   7   1   6   24.00    2.80
   7   1   6   23.70    2.50
   9  -2  -6    2.80    1.50
  -9   2   6    4.50    1.70
   8  -2  -6    0.10    1.50
  -8   2   6   -0.60    1.30
   7  -2  -6   14.60    3.00
  -7   2   6   12.20    2.50
   6  -2  -6   43.20    4.50
  -5   2   6   87.09    6.10
  -4   2   6  240.28   11.80
   3  -2  -6   35.90    2.80
   3  -2  -6   35.30    2.80
  -3   2   6   39.70    3.80
   2  -2  -6   22.90    2.40
   2  -2  -6   24.80    2.40
  -2   2   6   25.60    2.90
   1  -2  -6    0.50    0.90
  -1   2   6    0.60    0.90
  -1   2   6    1.00    0.90
   0  -2  -6   24.00    3.00
   0   2   6   31.30    3.20
   0   2   6   33.20    3.70
  -1  -2  -6  296.57   13.30
   1   2   6  266.07   13.30
  -2  -2  -6   99.99    6.60
   2   2   6   91.39    6.90
  -3  -2  -6  130.49    8.00
   3   2   6  139.29    9.60
   4   2   6    6.30    2.00
   4   2   6    7.60    2.90
   5   2   6   32.10    3.60
   5   2   6   30.80    4.80
   6   2   6    8.70    1.90
   6   2   6   10.10    2.10
  -7  -2  -6    1.70    1.20
   9  -3  -6    1.60    1.50
  -9   3   6    1.00    1.70
   8  -3  -6   24.40    3.50
  -8   3   6   20.10    2.90
   7  -3  -6   16.70    3.00
   6  -3  -6    9.80    2.50
   6  -3  -6    8.90    2.30
  -5   3   6  326.87   15.80
  -4   3   6   42.00    4.50
   3  -3  -6   27.00    3.10
  -3   3   6   35.50    4.00
   2  -3  -6  225.28   10.70
  -2   3   6  237.88   11.30
   1  -3  -6  918.51   36.00
  -1   3   6  917.11   35.80
  -1   3   6  905.01   35.20
   0  -3  -6  515.85   21.50
   0   3   6  501.05   21.30
  -1  -3  -6   83.19    5.90
   1   3   6   78.49    6.00
  -2  -3  -6   68.49    6.30
   2   3   6   71.69    7.20
   3   3   6  143.69    7.90
   3   3   6  134.79    9.50
   4   3   6   34.70    5.50
   4   3   6   41.60    4.20
   5   3   6   17.10    2.70
   5   3   6   14.70    3.50
  -6  -3  -6   17.80    2.10
   6   3   6   16.20    3.20
   9  -4  -6   32.50    3.60
  -9   4   6   19.20    2.50
   8  -4  -6  101.09    6.80
  -8   4   6   86.59    6.00
   7  -4  -6   11.80    2.50
   7  -4  -6   13.60    2.80
   6  -4  -6   99.59    6.50
   6  -4  -6   78.19    5.70
  -5   4   6    8.40    2.70
   4  -4  -6   77.59    5.70
  -4   4   6   80.59    6.20
   3  -4  -6   36.50    4.00
  -3   4   6   37.80    4.50
   2  -4  -6  240.78   11.80
  -2   4   6  242.28   12.10
   1  -4  -6   10.50    2.40
  -1   4   6    7.20    1.40
   0  -4  -6    4.40    1.80
  -1  -4  -6   15.60    3.20
   1   4   6   19.30    3.70
   2   4   6  290.07   16.40
   2   4   6  367.06   17.60
   2   4   6  307.17   14.40
   3   4   6   11.20    2.50
   3   4   6   12.30    3.60
   4   4   6   12.70    3.40
  -5  -4  -6   13.80    2.30
   5   4   6   12.50    3.50
  -6  -4  -6    1.00    0.60
   6   4   6    4.10    1.40
   9  -5  -6    0.00    2.10
  -9   5   6    0.00    1.40
   8  -5  -6    1.20    1.90
   7  -5  -6   25.10    3.60
   7  -5  -6   25.60    3.50
   6  -5  -6   95.39    6.60
  -5   5   6    7.70    3.10
   4  -5  -6  215.28   11.20
  -4   5   6  191.08   12.00
   3  -5  -6    0.10    1.50
  -3   5   6   -4.50    1.50
   2  -5  -6  678.53   28.30
  -2   5   6  652.53   28.40
   1  -5  -6   55.69    5.80
   0  -5  -6   25.20    4.00
  -1  -5  -6   73.89    5.70
   1   5   6   82.09    7.60
  -2  -5  -6  587.84   24.50
   2   5   6  590.94   27.30
  -3  -5  -6   39.00    4.00
   3   5   6   31.80    4.80
  -4  -5  -6   15.50    2.40
   4   5   6    8.30    2.50
  -5  -5  -6    6.50    1.70
   5   5   6    5.90    2.40
   9  -6  -6   55.39    4.10
   8  -6  -6   10.80    2.50
   7  -6  -6    8.40    2.30
  -6   6   6    1.00    2.40
   5  -6  -6    5.30    1.80
  -5   6   6    6.00    3.00
   4  -6  -6    3.70    1.50
  -4   6   6    3.70    2.70
   3  -6  -6  258.07   13.50
  -3   6   6  239.58   14.40
   2  -6  -6   37.80    4.90
   1  -6  -6    8.60    2.30
   0  -6  -6   23.10    3.20
  -1  -6  -6  215.38   11.20
   1   6   6  235.38   13.20
  -2  -6  -6   24.90    3.50
   2   6   6   32.10    5.20
  -3  -6  -6    5.60    1.70
   3   6   6    4.50    2.30
  -4  -6  -6    0.20    0.80
   4   6   6    1.60    1.60
   6  -7  -6   17.40    2.50
  -6   7   6   20.50    4.00
   5  -7  -6   47.60    4.40
  -5   7   6   45.40    6.40
   4  -7  -6    2.00    1.50
  -4   7   6    3.20    3.00
   3  -7  -6   75.39    5.70
  -3   7   6   80.39    9.10
   2  -7  -6   28.60    3.50
  -2   7   6   25.70    5.40
   1  -7  -6    6.30    2.00
  -1   7   6    4.00    3.70
   0  -7  -6   66.29    5.40
  -1  -7  -6  128.69    7.40
   1   7   6  118.89    8.60
  -2  -7  -6    8.30    1.90
   2   7   6    7.50    2.60
  -3  -7  -6    6.30    1.50
   3   7   6    5.50    2.20
   4   7   6    8.70    1.70
   7  -8  -6    1.80    1.30
   6  -8  -6   17.80    2.50
  -6   8   6   21.70    3.90
   5  -8  -6   19.10    2.80
  -5   8   6   23.70    5.00
   4  -8  -6   48.90    4.60
  -4   8   6   50.99    7.50
   3  -8  -6   11.40    2.30
  -3   8   6   21.70    4.80
   2  -8  -6    0.30    1.20
  -2   8   6    6.60    3.30
   1  -8  -6    3.90    1.60
  -1   8   6    2.20    2.90
   0  -8  -6   78.39    5.40
  -1  -8  -6   37.60    3.70
  -2  -8  -6   23.50    2.40
   2   8   6   17.70    2.80
   3   8   6    0.30    1.00
   7  -9  -6   33.10    2.80
   6  -9  -6   10.30    1.90
  -6   9   6   13.40    3.10
   5  -9  -6   22.80    2.80
  -5   9   6   22.80    4.60
   4  -9  -6   15.30    2.40
  -4   9   6   14.30    4.00
   3  -9  -6   56.49    4.50
  -3   9   6   42.80    6.60
   2  -9  -6    2.80    1.30
  -2   9   6    2.30    2.70
   1  -9  -6   15.90    2.40
   0  -9  -6    4.50    1.50
  -1  -9  -6    0.00    1.00
   6 -10  -6    9.80    1.60
  -6  10   6    6.40    2.00
   5 -10  -6    1.40    1.00
  -5  10   6    1.80    1.70
   4 -10  -6    0.00    0.90
  -4  10   6    2.40    0.80
   3 -10  -6   12.00    1.90
  -3  10   6    5.30    3.50
   2 -10  -6   14.70    1.80
  -2  10   6   10.50    2.80
   1 -10  -6   13.80    1.90
   0 -10  -6    7.90    1.30
   5 -11  -6    1.00    0.70
  -5  11   6    2.50    1.30
   4 -11  -6   25.90    2.20
  -4  11   6   21.20    3.20
   3 -11  -6    4.70    0.90
  -3  11   6    6.00    1.80
   0 -11   7    8.20    1.20
   0 -11   7    5.50    1.60
   1 -11   7   10.30    1.20
   1 -11   7    6.30    2.00
   2 -11   7   23.10    3.10
   2 -11   7   31.90    2.80
   3 -11   7    0.30    1.70
   3 -11   7    0.80    1.40
   4 -11   7    0.50    1.20
   4 -11   7   -0.20    0.70
   5 -11   7    3.00    1.50
  -2 -10   7    2.10    0.70
  -1 -10   7    9.00    2.10
  -1 -10   7    9.40    1.50
   0 -10   7    1.10    0.30
   0 -10   7    0.30    1.40
   1 -10   7    7.40    1.90
   1 -10   7    6.30    2.20
   2 -10   7   15.70    2.50
   2 -10   7   17.90    4.00
   3 -10   7   18.30    2.50
   3 -10   7   22.40    4.00
   4 -10   7   30.60    3.40
   4 -10   7   33.40    3.70
   5 -10   7   -0.90    1.20
   6 -10   7    5.20    1.20
   3   9  -7    6.60    1.70
  -3  -9   7    5.00    1.00
   2   9  -7   17.00    2.60
  -2  -9   7   19.80    3.00
  -2  -9   7   26.20    2.60
   1   9  -7   24.50    3.50
  -1  -9   7   27.00    2.80
  -1  -9   7   26.00    4.10
   0  -9   7   30.90    3.30
   0  -9   7   30.10    4.50
   1  -9   7   44.70    4.20
   1  -9   7   39.70    5.20
   2  -9   7    2.30    2.30
   2  -9   7    2.30    1.50
   3  -9   7   18.60    2.80
   3  -9   7   15.80    3.70
   4  -9   7   28.10    3.10
   5  -9   7   -0.10    1.20
   6  -9   7   -0.20    1.60
   6  -9   7   -1.70    0.70
   7  -9   7   10.40    2.10
   7  -9   7    6.10    1.20
   4   8  -7    6.80    1.80
  -4  -8   7    5.10    1.10
   3   8  -7    2.30    1.60
  -3  -8   7    1.50    1.00
  -2  -8   7   12.80    2.80
  -2  -8   7   14.60    2.20
  -1  -8   7   22.70    3.70
  -1  -8   7   25.20    4.20
  -1  -8   7   22.40    2.90
   0  -8   7   98.89    6.10
   0  -8   7   91.59    8.00
   1  -8   7   84.09    7.50
   1  -8   7   75.39    5.20
   2  -8   7    2.30    2.30
   2  -8   7    4.40    1.70
   3  -8   7   47.60    5.80
   3  -8   7   41.00    4.00
   4  -8   7    1.30    1.40
   5  -8   7   16.30    2.50
   5  -8   7   22.70    3.20
   6  -8   7   16.50    3.30
   7  -8   7    0.60    0.60
   7  -8   7    2.30    1.30
   5   7  -7   -1.20    1.40
  -5  -7   7    0.00    0.60
   4   7  -7    4.50    1.80
  -4  -7   7    1.40    0.70
  -3  -7   7   22.30    2.80
  -2  -7   7  189.78   10.90
  -2  -7   7  193.58   11.20
  -2  -7   7  192.28    9.60
  -1  -7   7   40.30    4.00
  -1  -7   7   36.40    4.70
  -1  -7   7   39.40    5.20
   0  -7   7   37.70    6.00
   0  -7   7   40.30    4.00
   0  -7   7   42.70    5.40
   1  -7   7    8.20    2.90
   1  -7   7    3.50    1.50
   2  -7   7   10.30    3.30
   2  -7   7    7.40    2.00
   3  -7   7    7.60    1.90
   4  -7   7    9.80    2.20
   5  -7   7    0.60    1.30
   5  -7   7    0.70    1.60
   6  -7   7   -0.20    1.40
   6  -7   7    2.00    1.40
   7  -7   7    1.00    2.10
   8  -7   7    1.30    1.20
   6   6  -7   11.30    2.00
  -6  -6   7   11.40    1.40
   5   6  -7    0.20    1.60
  -5  -6   7    2.50    0.50
  -4  -6   7   42.40    3.90
  -3  -6   7    8.70    2.70
  -3  -6   7    4.30    1.70
  -2  -6   7   40.30    4.90
  -2  -6   7   46.40    4.20
  -2  -6   7   36.60    4.60
  -1  -6   7  255.97   12.80
  -1  -6   7  209.98   12.70
  -1  -6   7  257.97   13.80
   0  -6   7  202.38   10.80
   1  -6   7  112.29    7.80
  -2   6  -7   28.40    3.70
   4  -6   7   61.39    5.00
   4  -6   7   75.19    5.00
   5  -6   7   46.50    4.60
   6  -6   7   12.60    2.60
   7  -6   7   14.10    2.70
   7  -6   7   14.20    2.00
   8  -6   7    0.10    0.80
   8  -6   7    3.10    1.50
  -7  -5   7   10.60    1.20
   6   5  -7    1.30    1.10
  -6  -5   7    3.00    0.50
   5   5  -7    1.20    2.00
  -5  -5   7    0.60    1.00
  -4  -5   7   18.00    2.80
  -4  -5   7   26.90    4.30
  -3  -5   7  580.24   24.70
  -3  -5   7  539.55   22.30
  -3  -5   7  483.85   26.50
   2   5  -7   29.20    3.70
  -2  -5   7   36.80    4.50
   1   5  -7   27.70    3.50
  -1  -5   7   26.90    3.60
   0   5  -7    2.70    1.40
   0  -5   7    3.60    2.10
   1  -5   7    5.90    2.60
  -4   5  -7   37.50    5.30
  -4   5  -7   43.70    3.50
  -4   5  -7   42.80    5.30
   5  -5   7    1.90    1.60
   5  -5   7    0.30    1.80
   6  -5   7   58.99    6.00
   6  -5   7   57.89    5.20
   7  -5   7   13.30    2.90
   7  -5   7   13.60    2.50
   8  -5   7   21.40    2.70
   8  -5   7   22.00    2.10
  -7  -4   7    4.90    0.60
   6   4  -7    0.60    1.70
  -6  -4   7    1.10    1.00
  -5  -4   7   63.49    5.10
  -4  -4   7    5.70    2.40
  -4  -4   7    8.60    1.90
   3   4  -7   19.90    3.30
  -3  -4   7   27.90    3.70
   2   4  -7  126.59    7.50
  -2  -4   7  130.19    7.70
   1   4  -7   56.09    4.30
  -1  -4   7   64.79    4.50
   0   4  -7  693.23   28.10
   0  -4   7  724.13   28.90
  -1   4  -7  309.67   13.70
   1  -4   7  321.67   14.30
   2  -4   7  182.48    9.10
  -3   4  -7   12.40    2.70
  -3   4  -7   15.30    3.10
  -3   4  -7   15.20    1.80
  -4   4  -7    6.90    2.50
  -4   4  -7    4.60    1.40
  -4   4  -7    3.70    2.30
   5  -4   7   17.30    3.00
   5  -4   7   26.90    4.10
   6  -4   7    9.10    2.50
   6  -4   7    7.00    2.40
   7  -4   7    6.00    1.90
   7  -4   7    5.90    2.60
   8  -4   7    1.50    1.00
   8  -4   7    1.40    1.50
  -8  -3   7    3.80    0.70
  -7  -3   7    7.90    1.90
   6   3  -7   -0.60    1.40
  -6  -3   7   -0.50    1.30
  -5  -3   7   28.10    4.20
  -5  -3   7   25.80    3.20
   4   3  -7  464.45   23.10
  -4  -3   7  507.85   21.30
   3   3  -7   28.10    3.80
  -3  -3   7   27.00    3.50
   2   3  -7   24.10    3.10
  -2  -3   7   24.50    3.10
   1   3  -7    1.50    1.10
  -1  -3   7    1.10    1.30
   0   3  -7   77.59    4.80
   0  -3   7   79.19    5.20
   1  -3   7  103.39    5.90
  -2   3  -7  133.19    7.50
  -2   3  -7  125.59    5.80
  -2   3  -7  126.79    7.20
   2  -3   7  145.99    8.90
   2  -3   7  130.09    6.90
  -3   3  -7   11.00    1.50
  -3   3  -7    9.90    2.50
  -3   3  -7   10.70    2.50
   3  -3   7   13.30    2.30
  -4   3  -7  162.78   10.00
  -4   3  -7  158.48    9.60
  -4   3  -7  166.18    7.50
   4  -3   7  146.39    8.40
   5  -3   7    9.90    2.50
   5  -3   7   14.20    3.40
   6  -3   7    4.10    2.50
   6  -3   7    1.60    1.50
   7  -3   7    5.60    1.70
   7  -3   7    3.80    2.20
   8  -3   7    0.80    0.60
   8  -3   7   -0.20    0.90
  -8  -2   7    6.20    1.40
  -7  -2   7    5.10    1.60
  -6  -2   7    3.90    1.50
  -5  -2   7   10.60    2.20
   4   2  -7   41.30    4.50
  -4  -2   7   49.90    4.80
   3   2  -7   53.89    4.20
  -3  -2   7   60.19    4.40
   2   2  -7    1.50    1.00
  -2  -2   7    2.20    1.00
   1   2  -7 2185.28   80.89
  -1  -2   7 2135.09   80.89
   0  -2   7   69.59    4.30
  -1   2  -7  976.50   37.10
  -1   2  -7  981.30   35.90
  -1   2  -7  974.50   37.40
   1  -2   7  955.40   37.00
   1  -2   7  955.90   37.60
  -2   2  -7  215.38   10.70
  -2   2  -7  219.38   10.50
  -2   2  -7  213.68    9.00
   2  -2   7  221.98   10.60
  -3   2  -7    1.80    0.90
  -3   2  -7    2.00    1.60
  -3   2  -7    0.80    1.40
   3  -2   7    3.60    1.80
  -4   2  -7   28.30    4.20
  -4   2  -7   23.40    2.40
  -4   2  -7   29.40    4.00
   4  -2   7   19.00    4.00
   5  -2   7    0.40    1.80
   5  -2   7   -0.30    1.70
   6  -2   7    7.30    2.20
   6  -2   7    9.40    3.00
   7  -2   7    5.70    2.00
   7  -2   7    5.80    1.80
   8  -2   7    0.50    0.90
   8  -2   7    0.00    1.10
  -8  -1   7    0.30    1.10
   7   1  -7   52.79    5.90
  -7  -1   7   58.59    4.90
   6   1  -7  171.08    9.50
  -6  -1   7  170.08    9.00
   5   1  -7  167.38   10.40
  -5  -1   7  192.28    9.90
   4   1  -7   74.89    5.80
  -4  -1   7   82.59    5.40
   3   1  -7  182.88    9.60
  -3  -1   7  193.48    9.40
   2   1  -7   47.20    4.20
  -2  -1   7   47.90    3.50
   1   1  -7   19.60    2.30
  -1  -1   7   22.80    2.70
   0   1  -7 1054.29   39.10
   0  -1   7 1023.60   39.50
   0  -1   7 1026.10   39.90
  -1   1  -7  383.96   15.70
   1  -1   7  358.96   15.40
   1  -1   7  363.76   15.90
  -2   1  -7   21.60    1.80
  -2   1  -7   17.30    2.80
  -2   1  -7   19.60    2.80
   2  -1   7   19.60    3.10
  -3   1  -7   64.09    3.90
  -3   1  -7   63.29    5.70
  -3   1  -7   58.29    5.60
   3  -1   7   52.09    5.90
  -4   1  -7   24.30    4.10
   4  -1   7   15.20    4.10
   5  -1   7  116.79    8.50
   5  -1   7  115.99    7.10
   6  -1   7   75.79    5.80
   6  -1   7   72.79    7.10
   7  -1   7    6.90    1.60
   7  -1   7    8.30    2.30
   8  -1   7   10.00    1.40
   8  -1   7    9.00    1.70
  -9   0   7    9.10    1.30
   8   0  -7    5.20    1.70
  -8   0   7    4.90    1.80
   7   0  -7   -1.00    1.20
  -7   0   7    0.80    1.20
   6   0  -7  114.99    7.20
  -6   0   7  105.89    6.70
   5   0  -7    6.00    2.20
  -5   0   7    4.80    1.90
   4   0  -7  258.07   12.70
  -4   0   7  275.27   12.60
   3   0  -7  457.15   19.90
  -3   0   7  494.35   20.00
   2   0  -7 1731.93   62.79
  -2   0   7 1593.14   62.69
  -1   0   7  658.73   26.00
   0   0  -7  574.54   22.40
   0   0   7  578.64   23.00
   0   0   7  545.75   22.10
  -1   0  -7  494.15   20.80
   1   0   7  512.45   21.20
  -2   0  -7    3.20    1.60
   2   0   7    3.40    1.00
  -3   0  -7   22.00    3.70
   3   0   7   23.20    4.30
   4   0   7    8.50    2.80
   4   0   7    8.40    1.90
   5   0   7   31.10    3.60
   5   0   7   34.50    6.20
   5   0   7   24.30    4.10
   6   0   7   24.00    3.10
   6   0   7   22.90    3.70
   7   0   7    1.10    1.10
   7   0   7    0.00    1.30
   9  -1  -7    0.90    1.10
  -9   1   7    0.70    1.30
   8  -1  -7   20.70    3.20
  -8   1   7   18.50    3.00
   7  -1  -7   86.59    6.50
  -7   1   7   85.89    5.80
   6  -1  -7    1.20    1.50
  -6   1   7    1.60    1.60
  -5   1   7   19.00    3.00
   4  -1  -7   42.60    4.10
  -4   1   7   42.20    4.20
   3  -1  -7   58.19    4.30
  -3   1   7   59.29    4.10
   2  -1  -7  502.25   20.40
  -2   1   7  499.95   20.70
   1  -1  -7 1402.96   51.99
  -1   1   7 1300.67   52.19
  -1   1   7 1443.36   52.59
   0  -1  -7    5.20    1.40
   0   1   7    7.40    1.80
   0   1   7    6.40    1.30
  -1  -1  -7  147.19    7.90
   1   1   7  141.39    8.20
  -2  -1  -7   52.79    5.10
   2   1   7   51.09    5.60
  -3  -1  -7    5.30    2.20
   3   1   7    8.10    2.50
   4   1   7   56.79    5.80
   4   1   7   56.79    5.00
   4   1   7   58.79    6.50
   5   1   7   23.50    3.70
   5   1   7   32.40    4.90
   5   1   7   28.80    3.50
   6   1   7    2.40    1.40
   6   1   7    0.60    1.40
   7   1   7   -0.30    0.90
   9  -2  -7    0.90    1.30
  -9   2   7   -1.30    0.90
   8  -2  -7    1.30    1.50
  -8   2   7    2.40    1.60
   7  -2  -7    0.10    1.60
  -7   2   7   -0.20    1.40
   6  -2  -7  211.18   11.30
  -5   2   7  609.34   26.00
  -4   2   7    0.20    1.30
   3  -2  -7    5.10    1.00
  -3   2   7    6.30    2.10
   2  -2  -7  711.33   27.80
   2  -2  -7  700.13   27.80
  -2   2   7  716.63   28.70
   1  -2  -7    7.10    1.60
  -1   2   7    6.70    1.60
  -1   2   7    8.20    2.00
   0  -2  -7  307.07   13.90
   0   2   7  306.37   14.00
  -1  -2  -7   77.79    5.40
   1   2   7   69.89    5.60
  -2  -2  -7   16.60    3.10
   2   2   7   17.60    3.70
  -3  -2  -7    6.20    2.90
   3   2   7    4.60    1.70
   3   2   7    5.40    3.10
   3   2   7    3.40    2.80
   4   2   7    5.30    3.00
   4   2   7    1.00    1.40
   4   2   7   -0.80    1.70
   5   2   7    9.20    2.20
   5   2   7    9.80    3.10
   6   2   7   10.70    2.00
   6   2   7    7.70    1.70
  -7  -2  -7    0.10    1.00
   9  -3  -7   23.30    2.90
  -9   3   7   13.30    1.80
   8  -3  -7   59.09    5.40
  -8   3   7   56.19    5.20
   7  -3  -7   44.40    4.90
  -7   3   7   31.70    3.90
   6  -3  -7   38.30    4.80
  -5   3   7    2.70    2.10
  -4   3   7    0.10    0.60
   3  -3  -7  510.65   21.90
  -3   3   7  522.05   22.50
   2  -3  -7  111.39    6.50
  -2   3   7  112.79    6.80
   1  -3  -7    5.80    1.90
  -1   3   7    7.20    1.70
   0  -3  -7  110.99    6.90
   0   3   7  107.69    6.70
  -1  -3  -7   66.49    6.30
   1   3   7   72.59    6.60
  -2  -3  -7  270.27   14.40
   2   3   7  298.67   15.70
   3   3   7   31.30    3.60
   3   3   7   39.20    5.50
   4   3   7  125.39    9.40
   4   3   7  132.19    7.70
   5   3   7   13.60    3.50
   5   3   7   10.00    2.00
  -6  -3  -7    0.70    0.90
   6   3   7    0.40    1.80
   9  -4  -7   24.20    3.00
  -9   4   7   13.80    2.30
   8  -4  -7    7.20    2.30
  -8   4   7    8.80    2.30
   7  -4  -7   13.80    2.90
   6  -4  -7  753.42   31.40
  -4   4   7  223.08   12.60
   3  -4  -7  493.85   21.10
  -3   4   7  484.55   22.00
   2  -4  -7   10.20    2.40
  -2   4   7    6.10    2.40
   1  -4  -7  169.48    9.50
   0  -4  -7  231.48   12.20
  -1  -4  -7   68.39    6.70
   2   4   7   27.10    4.90
   3   4   7   16.80    4.00
   4   4   7   43.00    5.80
  -5  -4  -7    3.80    1.80
   5   4   7   -0.10    2.20
  -9   5   7    3.80    1.10
   8  -5  -7   53.99    5.00
  -8   5   7   34.30    3.30
   7  -5  -7    5.70    2.20
   6  -5  -7   26.30    3.40
  -6   5   7   24.30    4.40
   5  -5  -7    2.00    1.70
  -5   5   7    2.50    2.60
  -4   5   7  335.87   17.60
   3  -5  -7   63.99    6.20
  -3   5   7   73.89    7.50
   2  -5  -7  125.19    8.20
   1  -5  -7    4.10    2.20
   0  -5  -7   33.50    4.20
   0  -5  -7   26.60    4.20
  -1  -5  -7  310.27   14.50
   1   5   7  322.57   16.60
  -2  -5  -7    9.70    2.10
   2   5   7    9.10    3.20
  -3  -5  -7   98.19    6.30
   3   5   7  112.89    9.40
  -4  -5  -7    0.40    1.70
   4   5   7   -2.90    0.90
  -5  -5  -7    2.90    0.90
   5   5   7    4.00    1.90
   9  -6  -7    4.00    1.50
   8  -6  -7   -0.90    1.40
   7  -6  -7   55.29    5.20
  -6   6   7   15.00    3.60
  -5   6   7   63.99    7.40
   4  -6  -7    3.50    1.60
  -4   6   7    1.90    2.90
   3  -6  -7   49.60    4.30
  -3   6   7   52.09    7.20
   2  -6  -7   48.90    4.50
  -2   6   7   39.80    6.10
   1  -6  -7  107.69    6.60
  -1   6   7   93.29    9.40
   0  -6  -7   67.79    5.80
  -1  -6  -7   27.40    3.60
   1   6   7   24.00    4.30
  -2  -6  -7   40.80    4.20
   2   6   7   45.80    6.10
  -3  -6  -7    1.50    1.70
   3   6   7    6.20    2.50
  -4  -6  -7   -0.40    1.00
   4   6   7   -0.60    1.30
  -6   7   7    7.90    2.80
   5  -7  -7    4.70    1.60
  -5   7   7    0.80    2.60
   4  -7  -7    1.20    1.30
  -4   7   7    3.40    3.00
   3  -7  -7    4.30    1.70
  -3   7   7    2.50    3.30
   2  -7  -7   12.70    2.50
  -2   7   7   11.80    4.20
   1  -7  -7    3.30    1.80
  -1   7   7    4.80    3.10
   0  -7  -7   83.89    5.70
  -1  -7  -7   -0.60    1.10
   1   7   7    1.90    2.30
  -2  -7  -7   71.29    5.30
   2   7   7   70.69    6.80
  -3  -7  -7    1.10    1.10
   3   7   7    0.00    1.30
   6  -8  -7   50.59    4.10
  -6   8   7   50.39    5.70
   5  -8  -7   -2.10    0.90
  -5   8   7   -1.20    1.90
   4  -8  -7   49.90    4.50
  -4   8   7   50.19    7.10
   3  -8  -7   23.50    2.90
  -3   8   7   14.90    4.50
   2  -8  -7   23.80    3.00
  -2   8   7   16.70    4.50
   1  -8  -7    3.10    1.50
  -1   8   7    5.20    4.20
   0  -8  -7    4.40    1.40
  -1  -8  -7   11.90    2.10
  -2  -8  -7   10.00    1.80
   2   8   7    6.40    1.70
  -7   9   7    0.70    1.30
   6  -9  -7    0.40    1.00
  -6   9   7   -0.20    1.70
   5  -9  -7   36.50    3.30
  -5   9   7   32.50    4.90
   4  -9  -7    4.70    1.50
  -4   9   7    6.30    1.30
   3  -9  -7   33.30    3.50
  -3   9   7   28.80    5.40
   2  -9  -7    9.40    1.80
  -2   9   7    4.30    3.20
   1  -9  -7   14.70    1.60
   0  -9  -7   20.80    2.60
  -1  -9  -7    3.50    1.20
   6 -10  -7    2.20    0.90
  -6  10   7    3.20    1.50
   5 -10  -7    9.40    1.50
  -5  10   7    7.30    2.20
   4 -10  -7   21.30    2.30
  -4  10   7   15.70    3.20
   3 -10  -7    9.30    1.60
  -3  10   7   10.10    2.90
   2 -10  -7    0.70    0.50
  -2  10   7    1.90    1.20
   1 -10  -7   -1.30    0.70
   0 -11   8    8.90    1.80
   0 -11   8   10.60    1.10
   1 -11   8    0.80    1.20
   1 -11   8    0.40    0.90
   2 -11   8    1.80    1.00
   2 -11   8    1.70    1.80
   3 -11   8    1.20    1.20
   3 -11   8    3.70    1.30
   4 -11   8    4.30    1.20
   5 -11   8    4.20    1.20
  -2 -10   8   15.60    1.30
  -1 -10   8   25.00    2.20
  -1 -10   8   24.50    3.20
   0 -10   8    9.30    2.50
   0 -10   8    7.10    1.70
   1 -10   8   16.60    2.40
   1 -10   8   18.70    2.50
   2 -10   8   12.40    3.40
   2 -10   8   12.90    2.20
   3 -10   8   -1.60    1.40
   3 -10   8   -0.80    1.60
   4 -10   8   14.30    2.10
   5 -10   8    0.80    1.40
   6 -10   8    4.70    1.00
   3   9  -8    0.60    1.00
  -3  -9   8    1.30    0.20
   2   9  -8   -0.10    1.20
  -2  -9   8    1.00    1.00
  -2  -9   8   -0.20    1.50
   1   9  -8    1.00    1.50
  -1  -9   8    3.50    2.10
  -1  -9   8    3.40    1.60
   0  -9   8   13.70    2.20
   0  -9   8   11.40    3.20
   1  -9   8   26.10    3.00
   1  -9   8   10.50    2.90
   2  -9   8    7.90    3.10
   2  -9   8    6.40    1.70
   3  -9   8   18.80    3.60
   3  -9   8   19.90    2.70
   4  -9   8   31.90    3.40
   5  -9   8    2.80    1.50
   6  -9   8    0.20    0.50
   4   8  -8    0.50    1.00
  -4  -8   8    0.30    0.30
   3   8  -8   33.30    3.70
  -3  -8   8   25.80    2.70
  -2  -8   8   45.20    4.90
  -2  -8   8   47.70    4.00
  -1  -8   8   34.80    4.70
  -1  -8   8   28.70    4.00
  -1  -8   8   28.60    3.30
   0  -8   8    7.40    1.80
   0  -8   8   12.50    3.10
   1  -8   8   31.80    5.10
   1  -8   8   17.20    2.60
   2  -8   8   -1.90    1.80
   2  -8   8   -0.20    1.10
   3  -8   8   66.19    6.70
   3  -8   8   70.49    5.50
   4  -8   8    0.30    1.30
   5  -8   8   20.00    2.60
   6  -8   8   -1.50    1.10
   7  -8   8    2.50    1.80
   5   7  -8   17.80    2.50
  -5  -7   8   15.30    1.60
   4   7  -8   20.10    3.20
  -4  -7   8   18.50    2.30
  -3  -7   8   31.40    5.80
  -3  -7   8   41.20    3.80
  -3  -7   8   27.50    4.20
  -2  -7   8   73.79    5.00
  -2  -7   8   70.89    6.80
  -2  -7   8   72.29    6.90
  -1  -7   8   39.70    3.90
  -1  -7   8   30.10    4.50
  -1  -7   8   39.00    5.10
   0  -7   8   69.19    6.40
   0  -7   8   74.49    7.10
   0  -7   8   72.49    4.90
   1  -7   8   29.00    4.60
   1  -7   8   20.80    2.90
   2  -7   8   72.39    4.90
   3  -7   8   19.00    2.80
   4  -7   8    7.20    1.80
   5  -7   8    2.10    1.90
   6  -7   8    6.90    2.90
   7  -7   8   -0.20    1.20
   6   6  -8    1.20    1.20
   5   6  -8    0.90    1.10
  -5  -6   8    0.20    1.00
  -4  -6   8   35.40    3.50
  -4  -6   8   36.20    4.70
  -3  -6   8   21.20    3.50
  -3  -6   8   26.20    3.10
  -3  -6   8   25.90    3.90
  -2  -6   8  178.28    9.00
  -2  -6   8  176.48   10.30
  -2  -6   8  174.98   10.70
  -1  -6   8   16.20    2.70
  -1  -6   8   19.10    3.50
  -1  -6   8   14.10    3.00
   0  -6   8   23.20    4.20
   0  -6   8   28.80    4.40
   1  -6   8   66.69    6.60
  -2   6  -8   65.79    5.90
   5  -6   8    1.20    1.50
   6  -6   8   63.49    5.50
   7  -6   8   -3.10    1.70
   8  -6   8    0.90    1.00
   6   5  -8    0.40    1.40
  -6  -5   8    0.70    0.70
  -5  -5   8   22.80    2.70
  -4  -5   8   39.20    3.80
  -4  -5   8   38.10    4.70
  -3  -5   8   76.49    5.80
  -3  -5   8   83.09    5.20
  -3  -5   8   70.19    6.40
   2   5  -8    4.90    1.90
  -2  -5   8    4.70    2.40
  -2  -5   8    6.00    2.60
   1   5  -8  201.68   10.40
  -1  -5   8  197.98   10.80
   0   5  -8  265.37   13.10
   0  -5   8  309.57   14.20
   1  -5   8  204.68   10.90
   4  -5   8   24.50    3.30
   5  -5   8   21.10    3.40
   5  -5   8   17.10    3.10
   6  -5   8   28.10    3.80
   6  -5   8   30.40    4.10
   7  -5   8   32.40    3.50
   7  -5   8   36.70    4.40
   8  -5   8    2.50    1.10
   8  -5   8    0.70    1.30
  -7  -4   8    5.40    1.40
   6   4  -8    3.00    1.80
  -6  -4   8   -0.30    1.00
  -5  -4   8   40.60    3.80
  -5  -4   8   39.90    4.80
  -4  -4   8    0.60    1.30
  -4  -4   8    1.80    2.00
  -3  -4   8  300.37   14.80
  -3  -4   8  244.58   13.90
   2   4  -8   79.79    5.80
  -2  -4   8   84.59    6.00
   1   4  -8   42.80    4.30
  -1  -4   8   47.30    4.70
   0   4  -8  378.66   16.60
   0  -4   8  392.86   17.40
  -1   4  -8   14.60    2.30
   1  -4   8   22.60    3.50
  -3   4  -8   -0.80    1.70
  -3   4  -8   -0.80    0.90
  -3   4  -8    0.80    1.70
   4  -4   8    1.30    1.60
   4  -4   8    1.70    1.70
   5  -4   8  217.28   11.50
   5  -4   8  235.58   12.50
   6  -4   8   10.80    2.40
   6  -4   8   10.90    2.70
   7  -4   8    1.10    2.50
   7  -4   8    1.70    1.30
   8  -4   8   20.70    2.70
   8  -4   8   21.10    1.90
  -7  -3   8    3.00    1.00
   6   3  -8   -1.60    1.40
  -6  -3   8    2.30    1.20
  -5  -3   8    1.30    1.70
  -5  -3   8   -0.20    1.10
  -4  -3   8    2.50    1.60
  -4  -3   8    2.20    2.20
   3   3  -8    4.90    1.90
  -3  -3   8    4.30    1.90
   2   3  -8  304.57   14.60
  -2  -3   8  332.37   14.70
   1   3  -8  440.86   19.00
  -1  -3   8  457.65   19.40
   0   3  -8  246.78   11.60
   0  -3   8  255.67   11.90
   1  -3   8   21.90    2.70
  -2   3  -8   58.99    4.60
  -2   3  -8   60.79    4.90
  -2   3  -8   64.89    3.40
   2  -3   8   63.59    4.50
  -3   3  -8   51.79    5.40
  -3   3  -8   48.00    3.40
  -3   3  -8   53.19    5.10
   3  -3   8   51.69    4.90
  -4   3  -8    1.30    1.30
  -4   3  -8    1.90    2.20
  -4   3  -8    1.50    2.20
   4  -3   8    0.30    1.60
   4  -3   8    1.50    1.10
   4  -3   8    5.00    2.60
   5  -3   8    3.10    2.00
   5  -3   8    3.40    2.20
   6  -3   8    2.80    1.70
   6  -3   8    1.00    1.90
   7  -3   8    2.10    2.20
   7  -3   8    1.30    0.90
   8  -3   8    0.30    0.60
   8  -3   8    2.00    0.90
  -8  -2   8    0.60    1.00
  -7  -2   8    0.20    1.50
  -6  -2   8   35.60    3.80
  -5  -2   8    1.80    1.40
  -5  -2   8    1.00    2.80
  -4  -2   8   82.59    5.90
   3   2  -8  197.98   10.30
  -3  -2   8  208.98   10.40
   2   2  -8    1.30    1.20
  -2  -2   8    0.50    0.60
   1   2  -8  338.37   14.70
  -1  -2   8  326.07   14.70
   0   2  -8   62.19    4.30
   0  -2   8   66.09    4.30
   1  -2   8  202.88    9.10
   1  -2   8  193.58    9.70
  -2   2  -8   50.99    3.30
  -2   2  -8   53.59    4.80
  -2   2  -8   52.19    5.00
   2  -2   8   50.59    5.00
  -3   2  -8   62.19    5.60
  -3   2  -8   62.39    6.00
  -3   2  -8   67.99    3.80
   3  -2   8   62.39    5.70
  -4   2  -8  122.69   11.40
  -4   2  -8  125.69    8.60
  -4   2  -8  126.39   12.10
   4  -2   8  113.19    7.00
   4  -2   8  105.79    7.90
   4  -2   8  116.89    8.90
   5  -2   8    5.50    2.20
   5  -2   8    1.20    1.60
   6  -2   8   14.70    3.20
   6  -2   8   18.60    2.90
   7  -2   8    6.30    1.90
   7  -2   8    5.30    1.60
   8  -2   8   -0.20    0.70
   8  -2   8   -0.50    0.90
  -8  -1   8   11.30    2.00
   7   1  -8    8.60    2.80
  -7  -1   8    9.00    2.00
   6   1  -8   16.30    2.80
  -6  -1   8   21.10    3.00
   5   1  -8   22.40    3.10
  -5  -1   8   29.50    3.50
   4   1  -8  122.99    8.00
  -4  -1   8  127.19    7.50
   3   1  -8  120.59    7.40
  -3  -1   8  148.09    7.70
   2   1  -8   29.20    3.20
  -2  -1   8   32.10    3.50
   1   1  -8  441.06   18.40
  -1  -1   8  432.36   18.30
   0  -1   8   43.70    3.30
   0  -1   8   36.80    3.70
  -1   1  -8   35.90    3.60
   1  -1   8   36.10    3.70
  -2   1  -8  518.65   21.90
   2  -1   8  495.35   22.00
  -3   1  -8  279.17   13.90
   3  -1   8  256.07   14.00
   4  -1   8   21.20    3.70
   4  -1   8   25.90    4.60
   4  -1   8   21.00    3.20
   5  -1   8    6.30    2.40
   5  -1   8    8.20    2.20
   6  -1   8   14.70    2.50
   6  -1   8   16.50    3.40
   7  -1   8    3.90    1.40
   7  -1   8    3.10    1.60
  -9   0   8   -0.20    0.80
   8   0  -8    2.60    1.50
  -8   0   8    1.60    1.20
   7   0  -8   11.60    2.50
  -7   0   8   12.00    2.40
   6   0  -8   30.20    3.70
  -6   0   8   37.90    4.00
   5   0  -8   86.69    8.90
   5   0  -8   60.69    5.50
  -5   0   8   74.59    5.70
   4   0  -8  313.17   14.70
  -4   0   8  319.87   14.70
   3   0  -8    8.00    2.00
  -3   0   8   10.00    1.40
   2   0  -8  353.96   15.40
  -2   0   8  351.26   15.40
  -1   0   8  261.17   11.70
   0   0  -8  234.28   10.10
   0   0   8  220.18   10.70
   0   0   8  205.58    9.70
  -1   0  -8  795.92   32.40
   1   0   8  835.32   33.10
  -2   0  -8   61.49    5.00
   2   0   8   62.99    6.10
  -3   0  -8    0.60    1.70
   3   0   8    1.30    1.50
   4   0   8   63.39    6.50
   4   0   8   54.29    6.00
   4   0   8   59.59    5.10
   5   0   8   70.19    5.80
   5   0   8   68.09    6.90
   5   0   8   67.09    6.50
   6   0   8   -0.80    1.50
   6   0   8   -1.20    1.00
   7   0   8   13.80    1.90
   7   0   8   14.20    2.30
   9  -1  -8   18.10    2.10
  -9   1   8   12.90    1.60
   8  -1  -8    8.00    2.10
  -8   1   8    9.00    1.70
   7  -1  -8   14.70    2.90
  -7   1   8   16.90    2.80
   6  -1  -8    3.20    1.70
  -6   1   8    2.70    1.70
  -5   1   8  212.28   11.20
   4  -1  -8    9.00    1.90
  -4   1   8    2.00    1.40
   3  -1  -8    7.10    2.00
  -3   1   8    8.90    2.20
   2  -1  -8  523.05   21.60
  -2   1   8  525.35   21.90
   1  -1  -8   62.79    4.50
  -1   1   8   75.29    4.90
  -1   1   8   69.99    4.60
   0  -1  -8   57.09    4.10
   0   1   8   53.09    4.30
  -1  -1  -8  426.76   18.80
   1   1   8  429.16   19.30
  -2  -1  -8  162.88    9.20
   2   1   8  140.99    9.40
  -3  -1  -8   20.00    3.70
   3   1   8   25.00    4.60
   3   1   8   15.30    3.80
   4   1   8    5.90    2.40
   4   1   8    3.50    2.60
   4   1   8   11.40    2.40
   5   1   8    5.10    2.10
   5   1   8    4.90    2.50
   5   1   8    2.40    1.60
   6   1   8    0.00    1.40
   6   1   8   -1.30    1.00
   9  -2  -8    8.10    1.70
  -9   2   8    3.10    1.30
   8  -2  -8   11.20    2.40
  -8   2   8    1.10    1.80
   7  -2  -8  106.19    7.30
   6  -2  -8   10.30    2.30
  -5   2   8    9.10    2.60
  -4   2   8  127.59    7.50
   3  -2  -8    3.10    0.80
  -3   2   8    2.00    2.20
   2  -2  -8  256.97   11.40
  -2   2   8  241.18   11.90
   1  -2  -8  346.37   15.50
  -1   2   8  370.76   15.50
  -1   2   8  347.87   15.50
   0  -2  -8 1506.35   58.19
   0   2   8 1524.25   58.59
  -1  -2  -8    1.30    1.50
   1   2   8    0.00    1.60
  -2  -2  -8    4.50    2.20
   2   2   8    7.30    3.00
   3   2   8   18.80    2.90
   3   2   8   14.30    3.60
   3   2   8   16.60    3.10
   4   2   8    0.40    1.80
   4   2   8    2.60    1.50
   4   2   8   -1.10    2.20
   5   2   8   16.10    3.40
   5   2   8   11.90    2.20
   6   2   8    4.50    1.40
   9  -3  -8    0.70    1.10
  -9   3   8   -0.60    0.60
   8  -3  -8   11.30    2.30
  -8   3   8    5.50    1.40
   7  -3  -8    3.00    1.90
  -7   3   8   -0.90    1.70
   6  -3  -8  110.59    7.50
   5  -3  -8   35.80    4.20
  -4   3   8   33.30    4.80
  -3   3   8  207.98   11.30
   2  -3  -8   34.00    3.80
  -2   3   8   42.10    4.50
   1  -3  -8  210.08   10.50
  -1   3   8  197.18   10.10
   0  -3  -8  295.37   14.20
   0   3   8  288.07   14.10
  -1  -3  -8   31.80    4.20
   1   3   8   27.90    4.20
   2   3   8    0.00    2.10
   2   3   8    1.10    1.50
   3   3   8   56.39    6.90
   3   3   8   66.39    5.40
   4   3   8    2.80    2.50
   4   3   8    1.00    1.30
   5   3   8    7.20    3.40
  -6  -3  -8   -0.10    1.20
   6   3   8    0.90    1.40
   9  -4  -8   11.60    2.20
  -9   4   8    8.30    1.70
   8  -4  -8   74.29    6.20
   7  -4  -8   55.09    5.50
   6  -4  -8   24.30    3.70
   5  -4  -8    9.40    2.50
  -5   4   8   16.00    3.40
  -4   4   8  137.99    9.60
  -3   4   8  499.45   22.70
   2  -4  -8  118.19    7.60
  -2   4   8  126.59    7.60
   1  -4  -8  468.35   21.00
   0  -4  -8    9.90    2.70
  -1  -4  -8  119.99    7.10
   1   4   8  126.29    8.90
   2   4   8    1.00    2.10
   3   4   8    3.80    2.40
  -4  -4  -8  239.88   11.30
   4   4   8  234.28   13.30
  -5  -4  -8    0.60    1.40
   5   4   8    0.60    2.00
   9  -5  -8    4.80    2.10
   8  -5  -8    2.80    1.90
   7  -5  -8    2.50    1.70
   6  -5  -8   62.89    5.50
  -6   5   8   73.29    7.00
   5  -5  -8   46.70    4.90
  -5   5   8   40.50    5.60
  -4   5   8  205.58   12.60
   3  -5  -8  245.28   12.60
  -3   5   8  209.38   14.10
  -3   5   8  220.38   12.70
   2  -5  -8  448.96   20.70
   1  -5  -8  212.08   12.70
   1  -5  -8  177.98   10.00
   0  -5  -8    1.60    1.60
   0   5   8    0.70    2.20
  -1  -5  -8   56.29    5.20
   1   5   8   57.09    6.50
  -2  -5  -8  125.99    7.50
   2   5   8  127.69    9.50
  -3  -5  -8   -1.40    1.10
   3   5   8    1.40    2.20
  -4  -5  -8    1.20    0.90
   4   5   8    1.90    1.60
   9  -6  -8    0.40    1.30
   8  -6  -8   11.80    2.30
   7  -6  -8    3.00    1.60
  -6   6   8   -0.20    1.90
  -5   6   8   16.10    4.10
   4  -6  -8    5.50    1.80
  -4   6   8    5.20    3.10
   3  -6  -8   64.99    5.10
  -3   6   8   52.69    7.00
   2  -6  -8   -1.20    1.30
  -2   6   8    3.70    3.30
   1  -6  -8   23.40    3.20
  -1   6   8   20.10    4.50
   0  -6  -8  197.08   10.40
  -1  -6  -8    0.00    1.20
   1   6   8    1.10    1.90
  -2  -6  -8   11.60    2.10
   2   6   8   14.20    3.60
  -3  -6  -8   92.59    5.70
   3   6   8  105.39    7.20
  -4  -6  -8    0.40    1.10
   4   6   8    1.00    1.30
  -6   7   8    3.00    2.30
   5  -7  -8    8.20    2.00
  -5   7   8    6.20    3.00
   4  -7  -8    9.90    2.10
  -4   7   8    9.80    3.70
   3  -7  -8   10.40    2.20
  -3   7   8   11.40    3.90
   2  -7  -8    1.90    1.60
  -2   7   8    4.00    2.90
   1  -7  -8    8.40    2.30
   0  -7  -8   23.40    3.30
  -1  -7  -8   30.80    3.40
   1   7   8   30.80    4.50
  -2  -7  -8    7.40    2.00
   2   7   8    7.10    2.00
  -3  -7  -8    3.50    1.30
   3   7   8    2.80    1.40
  -7   8   8   10.40    2.30
  -6   8   8   27.10    4.20
   5  -8  -8   -0.30    1.10
  -5   8   8   -0.40    2.20
   4  -8  -8   41.50    4.00
  -4   8   8   46.60    6.70
   3  -8  -8    1.00    1.30
  -3   8   8   -0.50    2.30
   2  -8  -8    5.80    1.70
  -2   8   8    8.30    3.30
   1  -8  -8   17.60    2.60
   0  -8  -8   21.50    2.70
  -1  -8  -8    7.10    1.70
  -2  -8  -8   -0.70    0.80
  -7   9   8    8.20    1.80
   6  -9  -8    6.40    1.40
  -6   9   8    9.00    2.30
   5  -9  -8   22.10    2.50
  -5   9   8   18.40    3.40
   4  -9  -8   12.40    2.00
  -4   9   8   16.10    4.30
   3  -9  -8   16.00    2.30
  -3   9   8   15.00    3.90
   2  -9  -8   23.20    2.50
  -2   9   8   14.00    2.60
   1  -9  -8    8.80    1.70
   0  -9  -8    3.60    0.80
  -6  10   8    1.20    1.10
   5 -10  -8    1.90    0.90
  -5  10   8    1.70    1.50
   4 -10  -8   15.70    1.90
  -4  10   8   10.30    2.50
   3 -10  -8    2.10    0.90
  -3  10   8    1.00    1.20
   2 -10  -8    2.10    0.80
   1 -11   9   10.40    1.30
   1 -11   9   10.20    1.40
   2 -11   9    1.00    1.70
   2 -11   9   -0.10    1.00
   3 -11   9   15.00    2.70
   3 -11   9   13.00    1.60
   4 -11   9    4.40    1.30
  -1 -10   9   -0.60    0.70
  -1 -10   9    0.60    1.20
   0 -10   9    2.40    1.40
   0 -10   9    2.20    1.30
   1 -10   9   10.20    2.00
   1 -10   9   11.10    1.70
   2 -10   9    8.80    1.70
   2 -10   9    5.30    2.90
   3 -10   9   -1.30    1.70
   3 -10   9    0.10    0.80
   4 -10   9   14.10    2.10
   5 -10   9    1.40    0.60
   3   9  -9    3.10    1.20
  -3  -9   9    3.30    1.00
   2   9  -9    7.80    1.90
  -2  -9   9   10.70    1.60
  -2  -9   9    7.20    1.90
  -1  -9   9    0.50    1.30
  -1  -9   9    0.00    1.60
   0  -9   9   33.10    3.60
   0  -9   9   46.00    5.40
   1  -9   9    1.70    2.10
   1  -9   9    1.90    1.10
   2  -9   9    4.00    1.40
   2  -9   9    4.80    2.40
   3  -9   9    4.70    1.80
   3  -9   9    6.60    1.80
   4  -9   9    0.90    0.60
   5  -9   9    2.90    0.60
   4   8  -9    0.60    1.10
  -4  -8   9    1.60    0.80
   3   8  -9    0.30    1.30
  -3  -8   9   -0.10    0.70
  -2  -8   9    3.70    1.40
  -2  -8   9    3.50    1.80
  -2  -8   9    6.30    2.10
  -1  -8   9   22.20    3.90
  -1  -8   9   16.10    3.10
  -1  -8   9   19.20    2.60
   0  -8   9    2.70    1.40
   0  -8   9    2.10    1.90
   1  -8   9   13.80    2.40
   1  -8   9   16.30    3.70
   2  -8   9   12.90    3.50
   2  -8   9    2.90    1.50
   3  -8   9   52.89    6.40
   3  -8   9   35.40    3.60
   4  -8   9    2.20    1.30
   6  -8   9    6.50    1.30
   7  -8   9    8.90    1.50
   5   7  -9    1.70    1.40
  -5  -7   9    0.10    0.70
   4   7  -9    0.10    1.20
  -4  -7   9    0.90    0.70
  -3  -7   9  153.58    7.90
  -3  -7   9  158.88    9.00
  -3  -7   9  161.58    9.60
  -2  -7   9   27.20    3.10
  -2  -7   9   33.10    4.50
  -2  -7   9   24.80    3.80
  -1  -7   9  214.78   12.00
  -1  -7   9  241.28   10.70
  -1  -7   9  181.98   11.50
   0  -7   9   42.90    5.50
   0  -7   9   33.60    4.70
   0  -7   9   43.50    4.10
   1  -7   9    7.60    1.90
   1  -7   9    0.40    2.00
   2  -7   9   15.30    2.50
   2  -7   9   27.00    4.30
   6  -7   9    9.70    2.10
   7  -7   9    0.50    1.60
   6   6  -9    6.90    1.40
  -6  -6   9    6.10    1.00
   5   6  -9    1.20    1.40
  -5  -6   9    2.80    1.20
  -4  -6   9   10.00    2.60
  -4  -6   9    7.20    1.60
  -3  -6   9   12.10    2.80
  -3  -6   9   14.80    2.90
  -3  -6   9   12.50    2.20
  -2  -6   9  166.18   10.00
  -2  -6   9  139.59    8.00
  -2  -6   9  163.18    9.60
  -1  -6   9    6.80    2.60
  -1  -6   9    7.30    1.90
  -1  -6   9    8.30    2.50
   0  -6   9   54.99    5.60
   0  -6   9   47.00    4.00
   0  -6   9   48.30    5.10
   1  -6   9   53.79    5.80
   2  -6   9   74.09    6.90
   5  -6   9    2.00    1.90
   6  -6   9   13.60    3.30
   7  -6   9    0.40    1.10
   6   5  -9    0.20    1.90
  -6  -5   9    0.00    0.90
  -5  -5   9    5.90    1.60
  -4  -5   9  185.58   11.20
  -4  -5   9  198.98    9.50
  -3  -5   9   27.40    4.00
  -3  -5   9   24.60    3.00
  -3  -5   9   28.60    3.90
  -2  -5   9  242.68   12.30
  -2  -5   9  235.68   11.10
  -2  -5   9  223.38   12.60
   1   5  -9   27.90    3.90
  -1  -5   9   23.20    4.00
   0   5  -9   17.50    3.00
   0  -5   9   15.00    3.60
   1  -5   9  196.58   11.00
   5  -5   9   72.69    6.10
   5  -5   9   76.89    6.40
   6  -5   9    3.60    2.00
   6  -5   9    4.20    1.90
   7  -5   9    1.10    2.30
   7  -5   9    0.20    1.80
  -7  -4   9   11.10    1.50
   6   4  -9    1.50    1.50
  -6  -4   9    1.20    1.50
  -5  -4   9    7.90    1.70
  -5  -4   9    7.70    2.40
  -4  -4   9   10.80    2.30
  -4  -4   9    9.80    2.90
  -3  -4   9   78.19    7.00
  -3  -4   9   92.39    6.30
  -3  -4   9   83.69    5.40
   2   4  -9    4.70    1.90
  -2  -4   9    2.40    1.80
   1   4  -9   58.39    4.80
  -1  -4   9   64.99    5.90
   0   4  -9  122.09    7.10
   0  -4   9  121.89    7.60
  -1   4  -9  161.48    8.70
   1  -4   9  163.18    8.70
  -2   4  -9  382.66   17.00
   4  -4   9   11.00    2.70
   4  -4   9   11.00    2.70
   5  -4   9   30.90    4.30
   5  -4   9   38.90    4.40
   6  -4   9   19.30    3.10
   6  -4   9   23.80    3.70
   7  -4   9   22.70    3.60
   7  -4   9   20.70    2.50
  -7  -3   9    5.40    1.60
  -6  -3   9    6.00    1.60
  -5  -3   9   93.79    7.00
  -5  -3   9   94.49    5.80
  -4  -3   9   73.99    5.60
  -4  -3   9   81.99    7.50
  -4  -3   9   72.79    5.00
   3   3  -9   11.70    2.50
  -3  -3   9    7.60    2.20
   2   3  -9   25.40    3.40
  -2  -3   9   30.10    3.40
   1   3  -9  430.86   18.70
  -1  -3   9  428.66   18.90
   0   3  -9  455.25   19.50
   0  -3   9  451.15   19.60
   1  -3   9    0.10    0.70
   2  -3   9  287.87   13.50
  -3   3  -9   16.30    4.30
  -3   3  -9   17.80    4.30
  -3   3  -9   18.80    2.60
   3  -3   9   13.70    3.10
   4  -3   9   34.70    4.10
   4  -3   9   42.40    5.00
   5  -3   9   22.20    3.40
   5  -3   9   29.80    4.30
   6  -3   9    1.70    1.50
   6  -3   9    4.30    2.30
   7  -3   9    0.90    1.90
   7  -3   9    5.80    1.50
  -8  -2   9   15.60    1.70
  -7  -2   9   -0.50    1.00
  -6  -2   9    5.40    1.60
  -5  -2   9    8.00    2.90
  -5  -2   9    6.30    2.00
   3   2  -9   11.50    2.80
  -3  -2   9   10.60    2.30
   2   2  -9   88.69    5.90
  -2  -2   9  100.39    6.40
   1   2  -9  136.99    7.60
  -1  -2   9  135.69    7.70
   0   2  -9  110.49    6.50
   0  -2   9  102.39    6.20
   1  -2   9  483.65   20.70
  -2   2  -9  319.87   16.10
   2  -2   9  302.57   14.80
  -3   2  -9   27.50    4.20
   3  -2   9   25.70    3.90
   4  -2   9   63.39    6.40
   4  -2   9   71.99    5.80
   5  -2   9   33.40    3.90
   5  -2   9   32.50    4.70
   6  -2   9   13.40    2.50
   6  -2   9   15.70    3.10
   7  -2   9    2.00    0.70
   7  -2   9   -0.50    1.10
  -8  -1   9   14.70    1.90
  -7  -1   9    0.50    1.40
   6   1  -9   22.60    3.30
  -6  -1   9   20.50    3.00
   5   1  -9  123.59    7.30
  -5  -1   9   95.49    9.40
   4   1  -9  122.39    8.20
  -4  -1   9  139.39    8.00
   3   1  -9    6.80    2.40
  -3  -1   9    5.90    1.10
   2   1  -9  477.15   20.30
  -2  -1   9  469.75   20.20
   1   1  -9  133.39    7.40
  -1  -1   9  133.09    7.20
   0  -1   9    9.00    1.30
   0  -1   9   14.60    2.50
   1  -1   9  206.88   10.60
  -2   1  -9  107.79    7.10
   2  -1   9   93.99    7.00
  -3   1  -9    5.40    2.50
   3  -1   9    3.50    2.80
   4  -1   9  113.49    8.00
   4  -1   9  113.79    6.90
   4  -1   9  109.39    7.80
   5  -1   9   68.19    5.70
   5  -1   9   71.39    6.90
   6  -1   9    9.70    2.00
   6  -1   9    7.30    2.30
   7  -1   9    8.50    1.90
   7  -1   9    8.60    1.60
   8   0  -9   -0.30    1.20
  -8   0   9    0.20    1.30
   7   0  -9    0.40    1.30
  -7   0   9    0.30    1.30
   6   0  -9    1.10    1.40
  -6   0   9    0.00    1.30
   5   0  -9   50.79    5.20
   4   0  -9   14.10    3.30
  -4   0   9   14.90    2.80
   3   0  -9  201.98   10.40
  -3   0   9  206.28   10.50
   2   0  -9   98.29    6.40
  -2   0   9  100.79    6.20
   1   0  -9  158.58    8.50
  -1   0   9  160.08    8.30
   0   0   9   29.90    3.70
  -1   0  -9   65.59    5.00
   1   0   9   73.79    5.60
  -2   0  -9    5.10    2.10
   2   0   9    1.90    1.70
  -3   0  -9  186.28   14.10
   3   0   9  126.29    7.50
   3   0   9  140.39    8.90
   3   0   9  127.39    8.60
   4   0   9   37.90    4.30
   4   0   9   45.30    5.60
   4   0   9   47.70    5.70
   5   0   9   28.80    4.30
   5   0   9   30.40    3.70
   5   0   9   24.30    4.00
   6   0   9   -1.40    1.40
   6   0   9    2.70    0.70
   7   0   9    9.30    1.50
   7   0   9    7.10    1.60
   9  -1  -9   11.70    1.90
   8  -1  -9    0.50    1.30
  -8   1   9    0.40    0.90
   7  -1  -9   41.10    4.60
   6  -1  -9    0.80    1.40
   5  -1  -9    5.20    2.10
  -5   1   9    8.40    2.50
   4  -1  -9  105.49    6.30
  -4   1   9   92.89    6.20
   3  -1  -9   16.90    2.50
  -3   1   9   14.60    3.00
   2  -1  -9   38.50    3.90
  -2   1   9   42.10    4.10
  -1   1   9   42.40    3.30
   0  -1  -9   67.39    4.80
   0   1   9   64.99    5.10
  -1  -1  -9  148.59    8.60
   1   1   9  151.38    9.10
  -2  -1  -9   21.40    3.70
   2   1   9   16.20    3.40
   3   1   9   39.00    5.10
   3   1   9   40.60    4.80
   3   1   9   41.70    4.20
   4   1   9   25.40    3.90
   4   1   9   22.60    3.20
   4   1   9   25.40    4.20
   5   1   9   12.40    2.40
   5   1   9    7.70    2.50
   5   1   9    6.20    2.60
   6   1   9    6.80    1.80
   6   1   9    8.10    1.60
   9  -2  -9    2.00    1.20
  -9   2   9   -0.10    0.40
   8  -2  -9    0.30    1.30
  -8   2   9   -0.60    0.40
   7  -2  -9    4.30    2.00
   6  -2  -9    2.60    1.50
   5  -2  -9   -1.10    1.20
  -5   2   9    0.80    1.80
  -4   2   9  109.69    7.70
  -3   2   9   10.00    2.80
   2  -2  -9  360.06   15.90
  -2   2   9  363.76   16.50
  -1   2   9   75.19    5.40
   0  -2  -9   26.70    3.60
   0   2   9   34.50    4.10
  -1  -2  -9   31.60    4.30
   1   2   9   31.60    4.50
   2   2   9  156.38    8.10
   2   2   9  136.69    8.80
   2   2   9  147.29    9.60
   3   2   9   14.60    3.90
   3   2   9   14.80    3.30
   3   2   9   18.80    2.80
   4   2   9    8.60    2.50
   4   2   9    8.80    2.10
   4   2   9   11.40    3.50
   5   2   9    1.20    2.30
   5   2   9    2.40    1.30
  -6  -2  -9   25.50    2.60
   6   2   9   25.70    2.80
   9  -3  -9    8.00    1.70
   8  -3  -9   51.79    4.70
   7  -3  -9   59.39    5.60
   6  -3  -9  186.88   10.60
   5  -3  -9  179.38   10.40
  -5   3   9  193.48   10.70
  -4   3   9    0.80    2.70
  -3   3   9   60.59    6.10
  -2   3   9    4.00    1.60
   1  -3  -9   22.30    3.40
   0  -3  -9  133.49    8.50
   0   3   9  137.99    8.60
  -1  -3  -9  129.29    9.30
   1   3   9  109.79    8.40
   1   3   9  133.69    9.10
   2   3   9   37.60    4.00
   2   3   9   25.10    4.30
   3   3   9   24.30    3.30
   3   3   9   20.30    4.10
   4   3   9    1.10    2.20
  -5  -3  -9   53.39    4.10
   5   3   9   58.89    5.80
   9  -4  -9    0.70    1.30
   8  -4  -9    6.70    2.30
   7  -4  -9   71.89    6.20
   6  -4  -9    1.50    1.70
  -6   4   9   -0.10    2.10
   5  -4  -9  153.08    9.10
  -5   4   9  150.08    9.80
   4  -4  -9   51.19    5.00
  -4   4   9   58.39    6.40
  -3   4   9  335.77   16.70
   1  -4  -9  210.68   11.60
   0  -4  -9   43.90    4.20
   0   4   9   36.80    4.90
  -1  -4  -9  198.08   10.10
   1   4   9  201.98   12.30
  -2  -4  -9   32.60    3.70
   2   4   9   32.00    5.00
  -3  -4  -9   35.00    3.90
   3   4   9   28.60    4.50
  -4  -4  -9   23.90    2.70
   4   4   9   21.10    3.00
  -5  -4  -9    4.70    1.40
   5   4   9    4.70    2.00
   9  -5  -9   15.00    2.30
   8  -5  -9   27.80    3.50
   7  -5  -9   89.29    6.20
   6  -5  -9   16.20    3.00
  -6   5   9   14.90    3.30
   5  -5  -9    6.70    2.30
  -5   5   9    6.30    2.90
  -4   5   9   31.40    4.90
  -3   5   9   29.60    5.40
   2  -5  -9  113.89    6.90
  -2   5   9  129.89    9.60
   1  -5  -9   96.59    6.10
  -1   5   9   93.09    9.20
   0  -5  -9  391.36   17.70
   0   5   9  399.66   19.30
  -1  -5  -9    5.50    1.80
   1   5   9    6.80    3.00
  -2  -5  -9   10.10    2.10
   2   5   9    6.50    2.90
   3   5   9    6.90    2.60
  -4  -5  -9   42.60    3.50
   4   5   9   38.50    4.10
   8  -6  -9   20.50    2.40
   7  -6  -9    2.10    1.50
  -6   6   9   10.00    3.10
  -5   6   9   16.10    4.00
  -4   6   9    4.80    3.30
   3  -6  -9   69.19    5.40
  -3   6   9   72.89    8.10
   2  -6  -9   32.20    3.60
  -2   6   9   33.10    5.90
   1  -6  -9    1.40    1.70
   0  -6  -9  125.59    7.50
  -1  -6  -9   11.00    2.40
   1   6   9    8.20    2.70
  -2  -6  -9   26.10    3.30
   2   6   9   21.70    4.00
  -3  -6  -9   15.20    2.20
   3   6   9   11.50    2.50
  -7   7   9   -2.00    1.50
  -6   7   9   17.30    3.60
  -5   7   9   -1.80    1.80
   4  -7  -9    0.70    1.30
  -4   7   9    0.00    2.50
   3  -7  -9    9.00    2.00
  -3   7   9    8.10    3.40
   2  -7  -9   -1.20    1.10
  -2   7   9   -0.30    2.40
   1  -7  -9   71.29    5.50
   0  -7  -9    4.90    1.80
  -1  -7  -9    0.60    1.00
   1   7   9   -0.50    1.70
  -2  -7  -9   10.70    1.40
   2   7   9   10.80    2.20
  -7   8   9    7.70    2.10
  -6   8   9   -2.10    1.40
   5  -8  -9   17.00    2.20
  -5   8   9   17.90    3.90
   4  -8  -9   94.69    5.50
  -4   8   9  100.49    8.90
   3  -8  -9    2.20    1.40
  -3   8   9    2.20    2.80
   2  -8  -9    1.60    1.20
  -2   8   9    5.00    2.90
   1  -8  -9   22.80    2.70
   0  -8  -9   -1.10    0.70
  -1  -8  -9    4.40    0.50
  -6   9   9    2.00    1.50
   5  -9  -9    6.30    1.40
  -5   9   9    8.40    2.40
   4  -9  -9   36.80    3.00
  -4   9   9   27.90    4.60
   3  -9  -9   11.90    1.90
  -3   9   9    7.70    2.70
   2  -9  -9   17.20    2.00
  -2   9   9   13.10    2.00
   1  -9  -9    6.90    1.30
   0  -9  -9    6.90    1.10
   4 -10  -9    2.00    0.80
  -4  10   9    1.60    1.60
   3 -10  -9    3.80    0.90
   2 -11  10    0.90    1.50
  -1 -10  10    8.60    1.60
  -1 -10  10   11.70    1.40
   0 -10  10    8.30    2.00
   0 -10  10    6.60    1.10
   1 -10  10    3.10    0.90
   1 -10  10    3.40    1.50
   2 -10  10    3.60    1.30
   2 -10  10    5.40    2.20
   3 -10  10    4.10    0.80
   3 -10  10    5.00    1.70
   2   9 -10    0.60    1.10
  -2  -9  10    1.30    1.30
  -2  -9  10    0.50    1.00
  -1  -9  10    9.80    1.70
  -1  -9  10   11.50    2.50
   0  -9  10   18.10    3.00
   0  -9  10   19.20    2.30
   1  -9  10    2.80    1.40
   1  -9  10    4.60    2.30
   2  -9  10    1.60    1.20
   2  -9  10   -2.10    1.80
   3  -9  10   12.90    2.00
   4   8 -10    1.60    1.10
  -4  -8  10    1.40    0.80
   3   8 -10    3.90    1.50
  -3  -8  10    4.60    1.70
  -3  -8  10    4.50    1.40
  -2  -8  10    5.40    2.20
  -2  -8  10    8.70    1.60
  -2  -8  10    9.70    2.40
  -1  -8  10   14.80    2.60
  -1  -8  10   13.60    2.20
  -1  -8  10   10.90    2.80
   0  -8  10   31.00    4.30
   0  -8  10   19.50    3.30
   0  -8  10   24.50    2.90
   1  -8  10    5.50    2.40
   1  -8  10    5.40    1.60
   2  -8  10    3.20    2.50
   2  -8  10    0.90    1.10
   5   7 -10    4.20    1.50
  -5  -7  10    3.30    1.00
   4   7 -10   -1.40    0.70
  -4  -7  10   -1.30    0.80
  -3  -7  10   26.00    3.70
  -3  -7  10   23.10    2.80
  -3  -7  10   23.50    3.40
  -2  -7  10    2.40    1.80
  -2  -7  10    1.70    1.20
  -2  -7  10    0.00    1.60
  -1  -7  10   82.49    5.40
  -1  -7  10   97.59    7.00
  -1  -7  10   90.39    6.90
   0  -7  10   21.80    3.80
   0  -7  10   18.10    3.30
   0  -7  10   12.10    2.40
   1  -7  10   10.70    3.00
   2  -7  10   99.39    7.50
   6  -7  10    8.40    1.60
   7  -7  10    4.40    1.20
   5   6 -10   10.30    2.40
  -5  -6  10    8.70    1.60
  -4  -6  10  127.99    6.60
  -4  -6  10  125.19    8.10
  -3  -6  10    8.00    2.40
  -3  -6  10   10.20    2.00
  -3  -6  10   11.70    2.90
  -2  -6  10    1.70    2.00
  -2  -6  10    0.60    1.30
  -2  -6  10    1.80    1.90
  -1  -6  10  149.29    9.30
  -1  -6  10  167.28    9.30
  -1  -6  10  123.29    7.40
   0  -6  10  114.29    7.70
   0  -6  10   94.79    7.00
   1  -6  10   12.10    3.70
   1  -6  10   13.90    3.40
   2  -6  10   19.00    4.70
   6  -6  10    8.50    1.80
   7  -6  10    1.20    1.50
   6   5 -10    7.20    2.10
  -6  -5  10    7.20    1.30
  -5  -5  10   16.60    2.20
  -4  -5  10   21.10    3.80
  -4  -5  10   20.60    3.40
  -4  -5  10   22.30    2.70
  -3  -5  10    0.10    1.10
  -3  -5  10   -0.20    1.50
  -3  -5  10    0.60    1.70
  -2  -5  10  112.19    7.90
  -2  -5  10  120.89    8.20
  -2  -5  10  107.99    7.40
  -1  -5  10    8.60    2.60
  -1  -5  10   12.10    2.60
   0   5 -10   69.39    5.40
   0  -5  10   59.89    5.80
   0  -5  10   60.59    5.40
   1  -5  10   35.70    3.80
   1  -5  10   30.40    4.70
   5  -5  10   59.39    5.60
   5  -5  10   57.49    5.20
   6  -5  10   21.60    3.50
   6  -5  10   16.00    3.00
   7  -5  10    4.70    1.50
   7  -5  10    8.80    2.30
  -7  -4  10    1.80    0.70
   6   4 -10    1.40    0.80
  -6  -4  10    0.60    0.80
  -5  -4  10   52.49    5.50
  -5  -4  10   38.10    3.60
  -4  -4  10   13.10    2.30
  -4  -4  10   10.70    2.70
  -4  -4  10   15.30    3.70
  -3  -4  10    0.90    1.60
  -3  -4  10    1.20    1.90
  -2  -4  10   24.20    3.90
  -2  -4  10   15.90    3.10
   1   4 -10  209.08   11.20
  -1  -4  10  225.98   12.00
   0   4 -10    3.10    1.60
   0  -4  10    0.70    2.50
  -1   4 -10   64.89    5.10
  -2   4 -10   29.40    3.80
   3  -4  10  106.99    7.00
   4  -4  10   39.40    4.50
   5  -4  10   25.10    3.30
   5  -4  10   26.50    3.90
   6  -4  10    5.90    2.00
   6  -4  10   10.80    3.00
   7  -4  10   -2.00    1.40
   7  -4  10   -2.00    1.90
  -7  -3  10    2.80    0.80
  -6  -3  10    1.60    1.30
  -5  -3  10   22.20    3.80
  -5  -3  10   18.30    2.50
  -4  -3  10    4.10    2.30
  -4  -3  10    4.40    1.80
  -3  -3  10   67.89    6.20
  -3  -3  10   65.89    5.80
   2   3 -10  215.68   11.30
  -2  -3  10  202.68   11.10
   1   3 -10   18.70    3.10
  -1  -3  10   11.70    2.80
   0   3 -10   53.09    5.10
   0  -3  10   48.70    4.90
  -1   3 -10  108.79    6.90
   2  -3  10  354.26   16.40
   3  -3  10   15.20    2.90
   4  -3  10  176.18   10.40
   4  -3  10  172.28    9.60
   5  -3  10   61.59    5.40
   5  -3  10   65.89    6.30
   6  -3  10    2.40    2.40
   6  -3  10   -1.30    2.00
   7  -3  10   16.30    2.80
   7  -3  10   18.00    2.10
  -8  -2  10    8.00    1.40
  -7  -2  10    0.70    1.30
  -6  -2  10    9.00    1.90
  -5  -2  10   28.40    5.00
  -5  -2  10   57.39    6.00
  -4  -2  10   58.49    5.50
  -4  -2  10   51.69    5.50
   3   2 -10   21.50    3.80
  -3  -2  10   24.60    3.00
   2   2 -10  208.18   10.70
  -2  -2  10  213.58   11.10
   1   2 -10    2.10    1.40
  -1  -2  10    0.90    1.10
   0   2 -10  253.57   12.60
   0  -2  10  262.77   12.20
   1  -2  10   70.29    5.40
   2  -2  10  105.29    7.50
   3  -2  10  163.68    9.70
   3  -2  10  158.98    9.20
   4  -2  10   25.70    3.30
   4  -2  10   27.10    4.20
   5  -2  10    0.40    1.30
   5  -2  10   -0.60    1.60
   6  -2  10    9.70    2.40
   6  -2  10   13.40    2.60
   7  -2  10    8.30    1.70
   7  -2  10   13.90    2.20
  -8  -1  10    1.90    0.80
  -7  -1  10    8.00    1.40
   6   1 -10    1.30    1.40
  -6  -1  10    0.70    1.40
   5   1 -10    7.40    2.20
  -5  -1  10    7.80    2.70
   4   1 -10   56.39    5.50
  -4  -1  10   63.89    5.80
   3   1 -10  103.39    7.30
  -3  -1  10  111.09    7.20
   2   1 -10   13.90    2.80
  -2  -1  10   16.80    3.10
   1   1 -10    2.40    1.80
  -1  -1  10    2.20    1.30
   1  -1  10   69.99    5.10
   2  -1  10  172.28   10.30
   3  -1  10   26.90    3.50
   3  -1  10   21.30    3.70
   3  -1  10   36.10    4.70
   4  -1  10   54.49    5.70
   4  -1  10   50.39    5.70
   4  -1  10   52.59    5.00
   5  -1  10   51.29    5.70
   5  -1  10   43.50    4.40
   6  -1  10    2.50    1.80
   6  -1  10    2.30    1.70
   7  -1  10    6.60    0.80
   7  -1  10    5.90    1.50
   8   0 -10    4.20    1.50
  -8   0  10    2.70    0.60
   7   0 -10    1.10    1.40
  -7   0  10   -1.00    0.50
   6   0 -10   35.70    4.40
   5   0 -10   23.10    3.50
  -5   0  10   28.70    3.90
   4   0 -10    5.40    2.30
   3   0 -10    0.50    1.60
  -3   0  10    1.40    2.10
   2   0 -10   11.40    2.50
  -2   0  10    4.20    1.60
   1   0 -10  182.18    9.80
  -1   0  10  178.78    9.10
   0   0  10  113.09    7.30
   1   0  10  133.09    8.50
  -2   0 -10  217.68   11.80
   2   0  10  206.18   12.20
   3   0  10    4.30    2.50
   3   0  10    7.20    2.60
   3   0  10    7.10    2.10
   4   0  10    3.20    1.80
   4   0  10    5.90    2.40
   4   0  10    7.60    2.70
   5   0  10   32.40    3.60
   5   0  10   30.50    4.30
   5   0  10   27.80    4.00
   6   0  10    3.50    1.50
   6   0  10    4.20    1.80
   8  -1 -10   16.40    2.50
   7  -1 -10   -0.30    1.50
   6  -1 -10   20.30    3.20
   5  -1 -10   41.40    4.90
  -5   1  10   42.70    4.70
  -4   1  10   62.59    6.30
   3  -1 -10   12.10    2.20
  -3   1  10   11.60    3.00
   2  -1 -10  283.07   13.80
  -2   1  10  292.37   13.90
   0   1  10    2.80    1.90
  -1  -1 -10  537.65   23.50
   1   1  10  540.95   24.40
   2   1  10   28.20    4.50
   2   1  10   32.00    3.60
   2   1  10   33.00    4.60
   3   1  10   25.10    4.80
   3   1  10   26.90    3.50
   3   1  10   24.00    4.10
   4   1  10   79.19    6.30
   4   1  10   87.69    7.80
   4   1  10   84.19    7.80
   5   1  10    1.20    1.50
   5   1  10   -2.30    1.90
   5   1  10    1.40    1.60
   6   1  10    8.70    1.80
   9  -2 -10   13.10    1.80
   8  -2 -10    8.80    2.10
   7  -2 -10   -0.10    1.30
   6  -2 -10   20.30    3.30
  -6   2  10   36.60    6.80
   5  -2 -10   19.10    3.50
  -5   2  10   12.20    2.80
  -4   2  10    6.80    2.50
  -3   2  10    7.70    2.20
   2  -2 -10  108.39    6.30
  -2   2  10   98.39    6.40
   0   2  10  135.89    8.70
  -1  -2 -10   59.19    6.10
   1   2  10   53.19    5.80
   1   2  10   64.19    7.10
   1   2  10   53.59    6.50
   2   2  10    5.20    2.20
   2   2  10    6.40    2.50
   2   2  10    9.50    2.20
   3   2  10    2.80    1.70
   3   2  10    1.40    2.40
   3   2  10   -0.50    1.60
   4   2  10   40.80    5.40
   4   2  10   34.10    3.80
   4   2  10   36.70    4.30
   5   2  10   -0.10    1.80
   9  -3 -10    2.70    1.00
   8  -3 -10    9.00    2.10
   7  -3 -10   23.40    3.40
   6  -3 -10   70.29    6.50
  -6   3  10   58.69    6.00
   5  -3 -10  118.09    7.90
  -5   3  10  117.59    8.10
  -4   3  10   52.49    5.90
  -3   3  10  280.27   14.40
   0  -3 -10   81.19    6.60
   0   3  10   73.79    6.80
   1   3  10    9.10    2.50
   1   3  10   11.00    3.10
   2   3  10   10.60    3.40
   3   3  10   54.09    6.10
  -4  -3 -10   60.49    5.10
   4   3  10   65.99    6.80
  -5  -3 -10   25.30    2.30
   5   3  10   24.40    3.50
   9  -4 -10   12.80    1.90
   8  -4 -10   22.40    3.20
   7  -4 -10   15.30    2.80
   6  -4 -10    3.60    2.00
  -6   4  10    3.30    2.10
   5  -4 -10   58.49    5.90
  -5   4  10   51.59    6.00
  -4   4  10   31.70    4.90
  -3   4  10  116.49    7.60
  -3   4  10  131.09    9.20
  -2   4  10   28.10    3.90
  -2   4  10   24.80    4.70
   1  -4 -10   98.09    6.70
  -1   4  10  105.29    9.80
   0  -4 -10   12.90    2.40
   0   4  10    9.90    3.10
  -1  -4 -10   19.00    3.10
   1   4  10   27.80    4.90
  -2  -4 -10   34.50    3.60
   2   4  10   30.70    4.70
  -3  -4 -10   46.30    4.00
   3   4  10   40.10    4.90
  -4  -4 -10    0.80    1.00
   4   4  10   -0.30    0.50
   8  -5 -10   -1.10    1.40
   7  -5 -10   29.70    3.70
   6  -5 -10   43.20    4.70
  -6   5  10   50.29    5.70
   5  -5 -10   33.10    4.10
  -5   5  10   26.50    4.50
   4  -5 -10   21.50    3.50
  -4   5  10   24.30    4.40
  -3   5  10   18.50    4.20
   2  -5 -10   65.99    7.10
  -2   5  10   64.09    7.30
   1  -5 -10   19.20    2.90
   0  -5 -10  290.77   13.60
   0   5  10  279.77   15.10
  -1  -5 -10    6.40    2.00
   1   5  10    7.70    2.90
  -2  -5 -10   15.00    2.40
   2   5  10   16.30    3.50
  -3  -5 -10   77.39    4.80
   3   5  10   67.19    5.90
  -4  -5 -10    5.00    0.70
   4   5  10    4.30    1.50
   8  -6 -10    8.90    1.40
   7  -6 -10    1.50    1.30
  -7   6  10   -0.90    1.60
  -6   6  10   11.50    3.10
  -5   6  10    4.40    2.60
  -4   6  10   16.90    4.10
  -3   6  10   14.60    4.10
   2  -6 -10   10.30    2.20
  -2   6  10    3.60    3.10
   1  -6 -10    7.10    2.10
   0  -6 -10    9.80    2.20
  -1  -6 -10   24.00    3.10
   1   6  10   19.10    3.50
  -2  -6 -10   25.00    2.80
   2   6  10   28.20    3.70
   3   6  10    1.60    1.30
  -7   7  10    0.50    1.40
  -6   7  10   18.50    3.60
  -5   7  10   -0.60    1.90
  -4   7  10    3.50    2.90
   3  -7 -10   15.90    2.30
  -3   7  10   15.60    4.10
   2  -7 -10   58.49    4.60
  -2   7  10   62.29    7.10
   1  -7 -10  125.59    7.10
   0  -7 -10    1.20    1.20
  -1  -7 -10    3.90    1.30
   1   7  10    1.80    2.50
  -2  -7 -10   10.00    1.40
   2   7  10    9.80    2.00
  -7   8  10   14.50    2.20
  -6   8  10   16.50    3.00
  -5   8  10   22.60    4.00
   4  -8 -10    4.40    1.40
  -4   8  10    7.60    3.50
   3  -8 -10   12.10    1.90
  -3   8  10   13.50    3.10
   2  -8 -10   13.90    2.10
  -2   8  10   15.20    2.70
   1  -8 -10   14.20    2.00
   0  -8 -10    1.10    0.90
  -1  -8 -10    7.90    1.10
  -6   9  10    3.60    1.50
  -5   9  10    1.40    0.60
   4  -9 -10   33.90    2.70
  -4   9  10   35.30    4.60
   3  -9 -10    5.30    1.20
  -3   9  10    4.50    2.70
   2  -9 -10   28.10    2.40
   1  -9 -10   37.80    2.40
   0 -10  11   11.70    2.00
   0 -10  11   10.00    1.30
   1 -10  11   11.00    2.20
   1 -10  11    8.70    1.10
   2 -10  11    0.40    1.00
   2 -10  11    1.00    0.40
   2   9 -11    0.90    1.00
  -2  -9  11    1.30    1.10
  -2  -9  11    0.10    0.70
  -1  -9  11   -0.50    0.90
  -1  -9  11    0.00    1.20
   0  -9  11    2.00    0.50
   0  -9  11    0.50    0.90
   1  -9  11   -1.00    1.70
   1  -9  11   -0.50    0.60
   2  -9  11   11.40    3.20
   3   8 -11    1.50    1.20
  -3  -8  11    0.80    0.60
  -3  -8  11    1.80    1.40
  -2  -8  11    1.20    1.50
  -2  -8  11    1.60    1.10
  -2  -8  11    0.20    1.60
  -1  -8  11    0.80    1.10
  -1  -8  11    3.60    1.90
  -1  -8  11    1.90    1.70
   0  -8  11   48.60    5.30
   0  -8  11   34.20    3.20
   0  -8  11   36.80    3.80
   1  -8  11   51.09    5.90
   2  -8  11   11.00    2.90
   4   7 -11   14.20    1.90
  -4  -7  11   11.10    1.40
  -3  -7  11    6.30    2.30
  -3  -7  11    4.90    1.50
  -3  -7  11    7.40    1.90
  -2  -7  11    2.90    1.90
  -2  -7  11    4.10    1.40
  -2  -7  11    6.50    2.10
  -1  -7  11    2.00    1.90
  -1  -7  11    3.10    2.00
  -1  -7  11    1.90    1.20
   0  -7  11    2.50    2.20
   0  -7  11    6.20    2.40
   1  -7  11   19.30    3.60
   2  -7  11   15.20    3.40
   5   6 -11    2.30    1.70
  -5  -6  11    0.30    0.90
  -4  -6  11   62.49    4.00
  -4  -6  11   45.40    5.70
  -4  -6  11   71.09    5.90
  -3  -6  11   11.90    2.80
  -3  -6  11    9.70    2.50
  -3  -6  11   11.00    2.00
  -2  -6  11   17.20    2.50
  -2  -6  11   13.70    3.10
  -2  -6  11   17.50    3.30
  -1  -6  11  163.28    9.70
  -1  -6  11  161.18    9.90
   0  -6  11    4.00    2.10
   0  -6  11    5.40    2.40
   1  -6  11   23.10    3.40
   1  -6  11   26.40    4.30
   6   5 -11   19.50    2.30
  -6  -5  11   15.60    1.70
  -5  -5  11   10.70    2.40
  -5  -5  11   13.10    2.00
  -4  -5  11    0.50    1.40
  -4  -5  11    0.90    1.70
  -4  -5  11   -1.00    0.90
  -3  -5  11    3.20    1.90
  -3  -5  11    4.30    2.00
  -2  -5  11    3.20    1.80
  -2  -5  11    5.90    2.20
  -1  -5  11    0.90    1.50
  -1  -5  11    2.00    1.80
   0  -5  11   21.90    4.00
   0  -5  11   22.00    3.30
   1  -5  11   58.99    5.40
   1  -5  11   73.19    6.70
   5  -5  11    3.10    1.70
   6  -5  11    2.50    1.60
   6  -5  11   -0.50    0.80
   7  -5  11   -1.90    1.10
   7  -5  11    0.20    1.30
   6   4 -11   -1.10    1.00
  -6  -4  11    2.10    0.90
  -5  -4  11   24.30    3.70
  -5  -4  11   18.50    2.40
  -4  -4  11    1.80    2.00
  -4  -4  11    0.90    1.50
  -3  -4  11    2.40    1.90
  -3  -4  11    0.80    1.90
  -2  -4  11   28.10    3.70
  -2  -4  11   22.40    3.50
  -1  -4  11    2.80    1.90
  -1  -4  11    5.10    2.30
   0  -4  11    9.90    2.80
   0  -4  11    5.60    2.20
   0  -4  11    8.30    2.30
   1  -4  11    6.30    2.10
   2  -4  11    0.30    1.80
   3  -4  11    3.90    2.10
   4  -4  11   66.09    6.10
   5  -4  11   15.60    2.70
   5  -4  11   14.20    3.00
   6  -4  11    5.10    2.40
   6  -4  11    2.90    2.00
   7  -4  11    2.80    1.10
   7  -4  11    0.50    1.60
  -7  -3  11   29.90    2.00
  -6  -3  11   13.00    1.80
  -5  -3  11   -0.70    1.50
  -4  -3  11    8.20    2.20
  -4  -3  11    9.30    2.70
  -3  -3  11    0.10    1.60
  -3  -3  11    0.80    1.50
  -2  -3  11    1.10    1.50
  -2  -3  11    2.80    1.60
   1   3 -11   11.50    2.60
  -1  -3  11    8.60    3.30
   0   3 -11   48.80    5.00
  -1   3 -11   60.49    5.80
   2  -3  11  113.49    7.00
   2  -3  11  100.09    7.00
   3  -3  11    3.10    1.90
   3  -3  11    2.10    1.90
   4  -3  11    7.50    2.70
   4  -3  11    7.20    2.20
   5  -3  11   27.30    4.20
   5  -3  11   27.20    3.30
   6  -3  11   10.20    2.00
   6  -3  11    8.40    2.70
   7  -3  11    7.80    1.70
   7  -3  11    8.30    1.60
  -7  -2  11    8.60    1.20
  -5  -2  11   69.99    5.90
  -5  -2  11   68.39    6.60
  -4  -2  11   97.59    7.10
  -4  -2  11   94.09    6.60
  -3  -2  11   64.49    5.90
  -3  -2  11   66.49    6.30
  -2  -2  11  432.06   19.60
   1   2 -11  142.19    8.50
  -1  -2  11  138.69    8.30
   0   2 -11    5.80    2.00
   2  -2  11    2.70    1.90
   2  -2  11    6.90    2.50
   3  -2  11  121.99    8.40
   3  -2  11  124.79    8.00
   4  -2  11    5.60    2.10
   4  -2  11    8.70    2.60
   4  -2  11    2.70    2.40
   5  -2  11   77.19    5.80
   5  -2  11   80.39    7.00
   6  -2  11    9.10    2.30
   6  -2  11   12.30    2.30
   6   1 -11    2.70    1.50
   5   1 -11   19.60    3.30
  -5  -1  11   17.70    3.20
   4   1 -11   -0.50    1.70
  -4  -1  11    1.30    2.00
  -4  -1  11   -0.50    1.60
   3   1 -11  117.69    8.70
  -3  -1  11  124.49    9.60
  -3  -1  11   98.29    7.00
   2   1 -11  356.86   17.20
  -2  -1  11  395.76   17.50
   1   1 -11   56.79    5.40
  -1  -1  11   62.49    4.50
   2  -1  11   35.20    4.50
   2  -1  11   31.40    4.30
   3  -1  11   23.40    3.70
   3  -1  11   15.10    3.40
   3  -1  11   13.90    2.70
   4  -1  11   63.59    6.70
   4  -1  11   57.99    5.10
   4  -1  11   69.69    6.50
   5  -1  11    6.80    2.40
   5  -1  11    7.00    2.10
   6  -1  11    3.50    1.80
   6  -1  11    0.10    1.30
   8   0 -11   10.30    1.80
   7   0 -11    0.90    1.40
   6   0 -11   72.19    6.40
   5   0 -11   24.60    3.70
  -5   0  11   43.90    4.70
  -4   0  11    1.20    1.60
   3   0 -11  129.39    8.50
  -3   0  11  135.99    8.50
   2   0 -11   40.10    4.60
  -2   0  11   43.50    5.10
   1   0 -11   32.30    4.60
   0   0  11   77.69    7.40
   1   0  11   36.30    4.90
   1   0  11   35.90    7.00
   1   0  11   46.10    6.90
   2   0  11   64.89    6.30
   2   0  11   71.39    7.10
   3   0  11   27.90    4.40
   3   0  11   24.80    4.20
   3   0  11   26.70    3.50
   4   0  11  154.18    8.80
   4   0  11  170.48   10.40
   4   0  11  167.58   10.30
   5   0  11   10.00    2.30
   5   0  11   12.90    2.80
   5   0  11   12.10    2.20
   6   0  11    0.30    1.20
   6   0  11    0.20    1.20
   8  -1 -11    7.90    1.70
   7  -1 -11    1.30    1.50
   6  -1 -11   21.00    3.30
  -6   1  11   29.40    4.60
   5  -1 -11    1.40    1.80
  -5   1  11   -1.40    1.40
  -4   1  11   45.60    5.40
   3  -1 -11  352.06   16.40
  -3   1  11  370.26   20.80
  -3   1  11  335.37   18.80
  -3   1  11  362.06   17.10
   2  -1 -11    0.20    1.80
  -2   1  11    3.50    1.50
   1  -1 -11   17.20    2.90
   0   1  11   17.60    3.60
   1   1  11  100.09    7.00
   1   1  11   84.69    7.40
   2   1  11   39.00    5.10
   2   1  11   48.40    5.90
   2   1  11   39.70    4.10
   3   1  11   59.79    5.20
   3   1  11   49.40    6.00
   3   1  11   57.99    6.50
   4   1  11   17.00    3.30
   4   1  11   21.30    4.00
   4   1  11   16.40    2.80
   5   1  11    2.30    1.60
   5   1  11    4.50    2.30
   5   1  11    2.00    1.40
  -6  -1 -11   -0.30    0.70
   8  -2 -11    7.30    1.90
   7  -2 -11    7.80    2.10
   6  -2 -11   25.50    3.70
  -6   2  11   29.20    4.10
   5  -2 -11  106.79    7.50
  -5   2  11  106.29    7.50
  -4   2  11    2.40    2.10
  -3   2  11   32.10    4.10
  -3   2  11   24.70    3.60
  -3   2  11   29.20    4.40
   0   2  11  132.49    8.40
   0   2  11  139.89    8.80
   1   2  11   26.10    4.10
   1   2  11   29.40    4.20
   2   2  11   92.19    8.30
   2   2  11   74.09    6.60
   2   2  11   83.09    5.70
   3   2  11   53.19    5.00
   3   2  11   49.70    5.80
   3   2  11   45.10    5.00
   4   2  11   11.90    2.50
   4   2  11   13.30    3.70
  -5  -2 -11    9.00    1.60
   5   2  11   10.10    2.20
   8  -3 -11   -1.10    0.90
   7  -3 -11   12.90    2.30
   6  -3 -11    3.60    2.00
  -6   3  11    0.60    1.70
   5  -3 -11    0.70    1.60
  -5   3  11   -0.40    2.00
  -4   3  11  177.38   10.80
  -3   3  11    2.00    2.50
  -3   3  11    3.40    2.00
  -2   3  11   43.30    5.60
  -2   3  11   34.80    4.30
  -1   3  11   22.90    4.30
  -1   3  11   22.10    3.30
  -1   3  11   24.00    3.70
   0   3  11   47.30    4.90
   0   3  11   52.69    5.60
  -1  -3 -11   47.40    4.40
   1   3  11   43.70    4.80
   1   3  11   47.60    6.10
  -2  -3 -11    9.50    2.30
   2   3  11   14.20    3.10
   2   3  11   10.50    3.20
  -3  -3 -11   26.10    3.10
   3   3  11   22.00    4.20
  -4  -3 -11   17.10    2.20
   4   3  11   16.70    3.40
  -5  -3 -11    8.30    1.30
   5   3  11    8.70    1.90
   8  -4 -11    1.20    1.60
   7  -4 -11   12.20    2.70
   6  -4 -11   51.39    5.30
  -6   4  11   51.79    5.60
   5  -4 -11   30.80    4.20
  -5   4  11   22.20    4.00
  -4   4  11    5.70    2.60
  -3   4  11   23.20    3.60
  -3   4  11   27.00    4.80
  -2   4  11   11.30    2.70
  -2   4  11    9.50    3.50
   0  -4 -11   52.39    4.90
   0   4  11   61.59    6.50
  -1  -4 -11   65.69    5.40
   1   4  11   73.19    7.40
  -2  -4 -11    1.40    1.30
   2   4  11   -0.20    2.00
  -3  -4 -11    9.70    1.90
   3   4  11    7.40    2.40
  -4  -4 -11   44.50    3.60
   4   4  11   50.79    4.30
   8  -5 -11    2.40    1.30
   7  -5 -11   10.40    2.30
  -7   5  11   11.60    2.50
   6  -5 -11    7.90    2.30
  -6   5  11    8.10    2.80
   5  -5 -11   20.70    3.20
  -5   5  11   18.10    3.90
   4  -5 -11   -1.40    1.40
  -4   5  11   -2.40    1.90
  -3   5  11   18.20    4.30
  -2   5  11   69.89    7.40
   1  -5 -11   15.00    2.60
   0  -5 -11   22.50    3.00
   0   5  11   20.10    4.00
  -1  -5 -11    0.50    1.40
   1   5  11    2.90    2.10
  -2  -5 -11    3.30    1.30
   2   5  11    4.60    2.10
  -3  -5 -11   19.60    2.20
   3   5  11   22.40    3.20
   7  -6 -11    4.10    0.90
  -7   6  11    0.30    1.60
  -6   6  11    1.80    1.90
  -5   6  11   -1.10    2.00
  -4   6  11    4.60    2.70
  -3   6  11    2.10    2.90
   2  -6 -11    5.00    1.70
  -2   6  11    5.00    2.90
   1  -6 -11   41.80    4.00
   0  -6 -11    3.10    1.50
  -1  -6 -11    2.60    1.40
   1   6  11    4.90    2.00
  -2  -6 -11   10.50    1.60
   2   6  11   13.20    2.40
  -7   7  11    2.50    1.50
  -6   7  11    7.80    2.60
  -5   7  11    6.70    2.60
  -4   7  11   23.80    4.80
   3  -7 -11   60.89    4.20
  -3   7  11   65.09    7.00
   2  -7 -11   43.00    3.60
  -2   7  11   39.50    5.20
   1  -7 -11    8.10    1.70
   0  -7 -11    1.10    1.00
  -1  -7 -11    0.40    0.80
  -6   8  11    0.90    1.50
  -5   8  11   12.20    2.30
  -4   8  11   13.60    3.30
   3  -8 -11    7.60    1.50
  -3   8  11    7.80    2.10
   2  -8 -11   31.10    2.60
   1  -8 -11    6.00    1.20
   0  -8 -11    5.50    1.10
  -5   9  11    6.90    1.20
  -4   9  11   14.90    2.90
   3  -9 -11    0.40    0.80
   1 -10  12    9.10    2.00
   2 -10  12    0.50    1.30
  -2  -9  12    2.00    1.00
  -1  -9  12   16.60    2.40
  -1  -9  12   10.10    1.20
   0  -9  12    2.00    1.40
   1  -9  12   43.80    4.70
   2  -9  12    5.80    2.10
   3   8 -12   -0.10    0.80
  -3  -8  12   -0.30    0.40
  -3  -8  12   -0.30    1.00
  -2  -8  12    1.50    1.30
  -2  -8  12    0.70    0.40
  -2  -8  12    1.90    1.50
  -1  -8  12    0.20    1.20
  -1  -8  12    2.70    1.90
   0  -8  12    2.80    2.30
   0  -8  12   -0.40    0.60
   1  -8  12   46.60    5.50
   2  -8  12   90.39    6.30
   4   7 -12   28.90    2.60
  -4  -7  12   22.80    1.60
  -3  -7  12    1.50    1.20
  -3  -7  12    0.30    1.80
  -3  -7  12    0.00    0.30
  -2  -7  12    0.50    1.90
  -2  -7  12    2.20    1.60
  -1  -7  12   22.90    3.40
  -1  -7  12   25.20    3.90
   0  -7  12   54.49    5.20
   0  -7  12   54.99    6.00
   1  -7  12   10.90    3.00
   2  -7  12   10.90    3.20
   5   6 -12    9.80    2.10
  -5  -6  12    5.80    0.80
  -4  -6  12    0.60    1.40
  -4  -6  12   -0.20    1.20
  -4  -6  12   -0.50    0.40
  -3  -6  12   44.80    4.60
  -3  -6  12   38.80    4.20
  -2  -6  12   34.60    4.60
  -2  -6  12   26.10    3.60
  -1  -6  12   18.80    3.40
  -1  -6  12   24.50    3.90
   0  -6  12   -0.10    1.60
   0  -6  12    0.10    1.80
   1  -6  12   88.29    6.40
   1  -6  12   92.59    7.10
  -5  -5  12   43.80    4.10
  -5  -5  12   39.10    3.60
  -4  -5  12    0.90    1.60
  -4  -5  12    1.50    1.40
  -3  -5  12    4.70    1.90
  -3  -5  12    3.50    1.90
  -2  -5  12   39.50    4.60
  -2  -5  12   36.80    4.50
  -1  -5  12   29.20    3.80
  -1  -5  12   26.00    3.80
   0  -5  12   50.89    5.70
   0  -5  12   43.80    4.70
   1  -5  12   11.70    2.50
   1  -5  12   12.90    3.10
   2  -5  12   -3.40    1.30
   5  -5  12   18.10    2.40
   6  -5  12    2.70    1.20
   6   4 -12    2.30    0.70
  -5  -4  12    1.60    1.50
  -4  -4  12    0.80    1.50
  -4  -4  12    3.50    2.10
  -3  -4  12    0.50    1.30
  -3  -4  12   -3.10    1.40
  -2  -4  12    3.90    1.90
  -2  -4  12    4.00    1.80
  -1  -4  12    3.30    1.90
  -1  -4  12    1.50    1.60
   0  -4  12   61.69    5.40
   0  -4  12   72.59    6.70
   1  -4  12    4.90    1.90
   2  -4  12  378.66   17.30
   3  -4  12    6.80    2.40
   4  -4  12    0.30    1.70
   5  -4  12    9.60    2.50
   6  -4  12   -1.70    1.20
   6  -4  12    0.10    0.90
  -5  -3  12    6.80    2.20
  -5  -3  12    9.00    2.20
  -4  -3  12   66.49    6.10
  -4  -3  12   72.99    7.00
  -3  -3  12    1.00    1.40
  -3  -3  12   -0.60    1.50
  -2  -3  12    6.30    2.10
  -2  -3  12    4.90    2.00
  -1  -3  12    4.60    2.20
  -1  -3  12    0.50    1.40
   0  -3  12   83.99    6.20
   0  -3  12  101.09    6.90
   0  -3  12   85.89    8.50
   1  -3  12   11.00    2.70
   1  -3  12   15.80    2.90
   2  -3  12    8.90    2.70
   2  -3  12   12.60    2.90
   3  -3  12   13.70    3.10
   3  -3  12   18.20    3.30
   4  -3  12   56.09    6.10
   5  -3  12   -1.70    1.00
   5  -3  12   -1.00    2.30
   6  -3  12   -0.40    1.60
   6  -3  12   -0.50    1.50
  -5  -2  12    5.70    2.00
  -5  -2  12    2.80    2.00
  -4  -2  12   35.00    4.50
  -4  -2  12   39.00    5.00
  -3  -2  12   38.80    4.80
  -3  -2  12   34.30    4.20
  -2  -2  12  140.69    8.50
  -2  -2  12  130.39    8.20
  -2  -2  12  142.59    8.40
  -1  -2  12   21.60    3.40
  -1  -2  12   22.70    3.70
  -1  -2  12   21.90    3.40
   0  -2  12   35.60    4.40
   0  -2  12   45.90    7.10
   0  -2  12   43.60    4.90
   1  -2  12  831.62   34.00
   1  -2  12  822.82   34.20
   2  -2  12   56.59    5.40
   2  -2  12   60.89    6.30
   3  -2  12   13.00    3.10
   3  -2  12   14.50    3.40
   4  -2  12    2.70    2.00
   4  -2  12    1.20    1.50
   4  -2  12    3.40    2.20
   5  -2  12    7.20    2.40
   5  -2  12   11.50    1.80
   6  -2  12   -0.60    0.80
   6  -2  12    1.90    1.10
   6   1 -12   57.99    5.00
   5   1 -12  133.79    8.00
  -5  -1  12  139.09    8.30
   4   1 -12    2.40    2.00
  -4  -1  12    3.40    2.10
  -4  -1  12    4.40    2.00
  -3  -1  12  129.99    8.00
  -3  -1  12  130.99    8.10
  -3  -1  12  123.29    8.00
  -2  -1  12    6.30    2.20
  -2  -1  12    8.20    2.30
  -2  -1  12    7.40    2.50
  -1  -1  12    5.30    2.50
  -1  -1  12    3.30    1.70
  -1  -1  12    2.00    3.90
   0  -1  12  120.19    7.90
   0  -1  12  124.69    7.80
   1  -1  12   44.40    5.40
   1  -1  12   35.40    4.40
   2  -1  12   45.20    5.30
   2  -1  12   33.30    4.60
   3  -1  12   88.39    7.60
   3  -1  12   79.19    7.30
   4  -1  12    3.70    2.10
   4  -1  12    1.30    1.80
   4  -1  12    1.10    1.60
   5  -1  12    1.30    1.80
   5  -1  12    3.60    1.20
   6  -1  12   20.20    2.30
   6  -1  12   25.40    2.80
   8   0 -12   10.80    2.20
   7   0 -12   73.99    5.00
   6   0 -12   -1.20    1.20
  -6   0  12    0.00    2.00
   5   0 -12   22.50    3.70
  -5   0  12   29.20    4.00
  -4   0  12   13.50    2.90
  -3   0  12    2.50    1.90
  -3   0  12    2.80    1.90
  -3   0  12    0.80    1.60
  -2   0  12  187.48   10.60
  -2   0  12  188.08   10.20
  -2   0  12  189.38   10.40
   1   0 -12  141.49   13.60
  -1   0  12  126.19    8.20
  -1   0  12  171.28   16.80
  -1   0  12  133.69    8.30
   0   0  12  272.67   13.70
   0   0  12  261.67   13.50
   1   0  12   -0.70    1.60
   1   0  12   -1.10    1.20
   2   0  12   48.90    6.20
   2   0  12   57.39    6.30
   3   0  12    0.00    1.90
   3   0  12   -1.70    1.50
   3   0  12   -0.20    1.90
   4   0  12   58.09    5.10
   4   0  12   60.09    6.00
   4   0  12   85.29    7.40
   5   0  12    7.20    1.90
   5   0  12    9.70    1.90
   5   0  12    7.20    2.10
   8  -1 -12   11.40    1.80
   7  -1 -12   24.00    3.10
   6  -1 -12   33.60    4.10
  -6   1  12   34.30    4.20
   5  -1 -12   11.10    2.70
  -5   1  12   16.60    3.20
  -4   1  12   81.39    7.50
  -3   1  12    2.30    1.70
  -3   1  12    1.20    1.70
  -2   1  12   44.00    4.90
  -2   1  12   47.70    5.70
  -2   1  12   40.40    4.70
  -1   1  12   53.79    5.60
  -1   1  12   53.69    5.60
  -1   1  12   72.29    6.90
   0   1  12   13.30    3.10
   0   1  12   10.00    2.60
   1   1  12   16.60    3.20
   1   1  12   11.50    2.80
   2   1  12   34.10    3.80
   2   1  12   36.20    4.90
   2   1  12   39.50    5.30
   3   1  12   28.60    3.60
   3   1  12   28.90    4.60
   3   1  12   25.90    4.00
   4   1  12   16.60    3.00
   4   1  12   19.70    4.10
   4   1  12   13.70    2.60
   5   1  12   28.90    3.50
   5   1  12   26.80    3.00
   8  -2 -12   17.40    2.30
   7  -2 -12    0.80    1.30
   6  -2 -12    6.50    2.10
  -6   2  12   10.10    2.50
   5  -2 -12    4.20    2.10
  -5   2  12    7.80    2.60
  -4   2  12   69.89    7.20
  -3   2  12  855.81   36.30
  -3   2  12  868.91   35.70
  -2   2  12   74.99    7.30
  -2   2  12   66.79    6.40
  -1   2  12   13.20    2.80
  -1   2  12   15.20    3.60
  -1   2  12   15.50    3.10
   0   2  12   19.30    3.40
   0   2  12   21.70    3.70
   1   2  12    0.10    1.80
   1   2  12    0.60    1.80
   2   2  12    1.30    1.90
   2   2  12   -0.20    1.60
   3   2  12   45.70    5.10
   3   2  12   55.59    6.10
  -4  -2 -12   37.10    3.30
   4   2  12   47.00    4.30
   4   2  12   42.60    4.90
  -5  -2 -12    7.50    1.30
   5   2  12    7.00    1.50
   8  -3 -12    0.00    1.00
   7  -3 -12    2.20    0.80
   6  -3 -12   42.50    4.60
  -6   3  12   36.00    4.50
   5  -3 -12   37.40    4.90
  -5   3  12   29.80    4.60
  -4   3  12   12.80    3.30
  -3   3  12   13.80    3.70
  -3   3  12   16.00    3.00
  -2   3  12   14.10    3.60
  -2   3  12   14.90    3.00
  -1   3  12    7.70    2.30
  -1   3  12    2.80    2.30
   0   3  12   43.00    5.30
   0   3  12   38.80    4.80
  -1  -3 -12   33.90    3.70
   1   3  12   40.00    4.80
   1   3  12   37.90    5.10
  -2  -3 -12   47.60    4.30
   2   3  12   45.20    4.90
   2   3  12   38.50    5.20
  -3  -3 -12   13.40    2.30
   3   3  12    9.00    2.20
  -4  -3 -12   33.10    3.00
   4   3  12   27.50    3.60
   8  -4 -12    6.60    1.80
   7  -4 -12    1.10    1.60
  -7   4  12    2.30    1.60
   6  -4 -12   11.60    2.60
  -6   4  12    6.90    2.50
   5  -4 -12   32.00    4.20
  -5   4  12   32.90    5.10
   4  -4 -12  331.07   16.00
  -4   4  12  324.17   17.10
  -3   4  12    9.20    3.20
  -3   4  12    7.70    2.40
  -2   4  12   17.20    4.00
  -2   4  12   17.20    3.20
  -1   4  12    0.60    1.70
   0  -4 -12    5.60    2.00
   0   4  12    2.40    2.20
  -1  -4 -12   31.70    3.70
   1   4  12   38.10    5.00
  -2  -4 -12    3.70    1.60
   2   4  12    6.00    2.20
  -3  -4 -12   32.50    3.00
   3   4  12   34.80    4.00
   8  -5 -12    7.00    1.50
   7  -5 -12   45.60    3.90
  -7   5  12   41.60    4.20
   6  -5 -12    4.70    2.50
  -6   5  12    0.70    1.70
   5  -5 -12   11.10    2.30
  -5   5  12    9.00    2.90
   4  -5 -12   -1.00    1.50
  -4   5  12   -0.20    2.00
  -3   5  12   21.20    4.60
  -2   5  12   10.90    3.40
   1  -5 -12   60.59    6.30
   0  -5 -12   30.10    3.20
   0   5  12   23.60    3.80
  -1  -5 -12    6.20    1.70
   1   5  12   13.20    3.10
  -2  -5 -12    4.80    1.40
   2   5  12    1.30    1.70
  -3  -5 -12   24.70    2.20
   3   5  12   37.90    3.60
   7  -6 -12   21.40    2.10
  -7   6  12   18.50    2.60
  -6   6  12    5.50    2.20
  -5   6  12   27.60    4.60
  -4   6  12   12.70    3.50
  -3   6  12   43.40    5.80
  -2   6  12   23.80    3.90
   1  -6 -12    0.90    1.20
   0  -6 -12   20.10    2.50
  -1  -6 -12    0.70    1.00
   1   6  12    0.80    1.50
  -2  -6 -12    3.50    1.00
   2   6  12    3.90    1.70
  -7   7  12    0.30    1.20
  -6   7  12    5.40    2.00
  -5   7  12    4.50    2.00
  -4   7  12    2.30    1.60
  -3   7  12    2.10    1.50
   2  -7 -12   56.49    3.60
   1  -7 -12   18.80    2.10
   0  -7 -12    0.80    0.80
  -6   8  12    1.00    1.20
  -5   8  12   24.70    2.80
  -4   8  12   24.00    4.00
  -3   8  12    0.30    1.40
   2  -8 -12   17.20    1.70
   1  -8 -12    6.60    1.30
  -1  -9  13   24.70    2.60
   0  -9  13    1.20    1.70
   1  -9  13   -0.50    0.90
   2  -9  13    1.40    0.70
  -2  -8  13    5.50    1.70
  -2  -8  13    7.30    1.60
  -1  -8  13    3.40    1.70
  -1  -8  13    1.40    1.20
   0  -8  13    9.70    2.50
   0  -8  13    8.20    1.30
   1  -8  13   21.50    3.20
   2  -8  13    1.30    1.30
   4   7 -13   29.50    2.20
  -3  -7  13   -0.10    1.00
  -3  -7  13   -0.30    1.40
  -2  -7  13   17.80    2.80
  -2  -7  13   11.10    2.70
  -1  -7  13   10.10    2.30
  -1  -7  13   12.60    2.30
   0  -7  13    7.40    2.20
   0  -7  13    8.20    2.50
   1  -7  13   -0.60    2.00
   1  -7  13    0.70    1.30
  -4  -6  13    1.50    1.20
  -4  -6  13    1.00    1.20
  -3  -6  13    7.60    1.90
  -3  -6  13    3.80    1.60
  -2  -6  13   20.20    3.20
  -2  -6  13   22.20    3.60
  -1  -6  13   52.29    5.70
  -1  -6  13   44.70    5.00
   0  -6  13   23.40    3.80
   0  -6  13   35.80    4.20
   1  -6  13   17.50    3.40
   1  -6  13   13.10    2.60
  -4  -5  13    1.40    1.40
  -4  -5  13    1.10    1.30
  -3  -5  13    4.00    1.70
  -3  -5  13    3.50    2.00
  -2  -5  13   14.70    3.10
  -2  -5  13   13.80    2.70
  -1  -5  13    4.10    2.10
  -1  -5  13    2.00    2.00
   0  -5  13   84.19    6.50
   0  -5  13   87.79    6.30
   1  -5  13   21.40    3.30
   1  -5  13   26.60    3.80
   2  -5  13  100.09    6.60
   5  -5  13   10.10    1.50
  -5  -4  13    2.10    1.50
  -5  -4  13    1.70    1.50
  -4  -4  13    1.20    1.80
  -4  -4  13    0.00    1.30
  -3  -4  13   30.50    3.80
  -3  -4  13   31.70    4.60
  -2  -4  13    8.00    2.30
  -2  -4  13   10.40    2.60
  -1  -4  13    0.20    1.60
  -1  -4  13   -0.60    1.40
   0  -4  13   -1.30    1.20
   0  -4  13    2.30    2.00
   1  -4  13    7.30    2.10
   2  -4  13    1.30    1.70
   2  -4  13    1.80    1.70
   3  -4  13   15.10    2.90
   3  -4  13   19.00    4.40
   4  -4  13   29.20    4.20
   5  -4  13   16.20    2.60
   6  -4  13    2.80    1.30
  -5  -3  13    4.00    1.70
  -5  -3  13    0.30    1.50
  -4  -3  13   10.50    2.70
  -4  -3  13    5.00    1.90
  -3  -3  13    0.60    1.60
  -3  -3  13    1.10    1.50
  -2  -3  13    1.00    1.50
  -2  -3  13    0.90    1.70
  -1  -3  13   30.10    4.00
  -1  -3  13   32.40    4.50
   0  -3  13   -1.60    1.50
   0  -3  13    1.90    1.90
   0  -3  13    0.70    1.90
   1  -3  13   74.39    6.50
   1  -3  13   86.49    6.20
   2  -3  13   35.30    4.40
   2  -3  13   36.00    4.30
   3  -3  13    1.20    1.70
   3  -3  13    2.20    1.70
   4  -3  13   20.20    3.70
   5  -3  13    5.60    2.50
   6  -3  13   12.60    1.90
  -5  -2  13    2.70    1.50
  -5  -2  13    1.40    2.00
  -4  -2  13   80.99    6.90
  -4  -2  13   87.39    6.20
  -3  -2  13   69.49    6.20
  -3  -2  13   56.89    5.60
  -2  -2  13   93.09    6.90
  -2  -2  13   92.89    6.60
  -2  -2  13   86.19    6.40
  -1  -2  13   54.39    5.50
  -1  -2  13   48.10    5.30
  -1  -2  13   33.10    4.10
   0  -2  13  129.89    7.70
   0  -2  13  100.99    7.60
   0  -2  13  108.99    7.50
   1  -2  13    3.40    2.00
   1  -2  13    4.80    2.20
   2  -2  13   -2.50    1.50
   2  -2  13   -1.60    1.50
   3  -2  13   43.10    5.10
   3  -2  13   48.40    5.50
   4  -2  13   14.60    2.60
   4  -2  13    7.30    2.50
   5  -2  13    2.00    0.90
   5  -2  13    0.00    0.50
   6   1 -13    4.00    1.60
   5   1 -13   58.09    5.40
  -5  -1  13   49.99    5.10
   4   1 -13    2.30    1.80
  -4  -1  13    5.90    2.30
  -4  -1  13    5.20    2.00
  -3  -1  13   63.19    5.90
  -3  -1  13   74.49    6.40
  -3  -1  13   72.49    6.70
  -2  -1  13   49.30    5.20
  -2  -1  13   43.40    5.20
  -2  -1  13   50.79    5.30
  -1  -1  13  241.58   13.10
  -1  -1  13  236.68   12.60
  -1  -1  13  259.27   12.90
   0  -1  13  211.68   11.70
   0  -1  13  206.98   11.40
   1  -1  13    8.50    2.70
   1  -1  13   11.60    3.00
   2  -1  13   15.50    3.40
   2  -1  13   12.40    3.10
   3  -1  13   15.50    3.50
   3  -1  13   21.20    3.60
   4  -1  13   12.60    3.00
   4  -1  13   11.30    3.30
   4  -1  13    9.50    1.20
   5  -1  13   16.50    2.70
   5  -1  13   11.60    2.00
   7   0 -13   25.10    2.80
   6   0 -13   18.70    3.00
  -6   0  13   15.10    2.80
   5   0 -13   51.49    5.10
  -5   0  13   56.69    5.60
  -4   0  13   57.19    6.10
  -3   0  13   94.89    6.90
  -3   0  13   81.59    6.30
  -3   0  13   90.89    6.80
  -2   0  13   23.00    3.60
  -2   0  13   20.90    3.70
  -2   0  13   27.90    4.40
  -1   0  13  403.46   18.90
  -1   0  13  410.66   19.40
  -1   0  13  406.76   18.90
   0   0  13   36.80    5.00
   0   0  13   29.30    4.10
   1   0  13   69.19    7.20
   1   0  13   70.59    7.10
   2   0  13  114.69    9.60
   2   0  13  107.09    8.10
   3   0  13   29.20    4.40
   3   0  13   19.10    3.80
   4   0  13   16.00    2.50
   4   0  13   24.30    3.70
   4   0  13   20.20    3.50
   5   0  13    2.00    0.80
   5   0  13    0.00    1.20
   8  -1 -13    0.20    1.00
   7  -1 -13    5.10    1.60
   6  -1 -13   47.70    4.80
  -6   1  13   56.39    5.20
   5  -1 -13    3.60    2.20
  -5   1  13    3.20    2.00
  -4   1  13    7.20    2.60
  -3   1  13    2.00    2.00
  -3   1  13   -0.60    1.50
  -2   1  13  165.58    9.90
  -2   1  13  166.18    9.70
  -2   1  13  162.58   10.20
  -1   1  13    4.50    2.30
  -1   1  13    4.60    2.10
  -1   1  13    2.80    2.70
   0   1  13   43.70    5.30
   0   1  13   36.80    4.70
   1   1  13    1.90    2.10
   1   1  13    0.30    1.90
   2   1  13   17.70    3.50
   2   1  13   30.90    4.80
   3   1  13   44.70    5.50
   3   1  13   57.29    6.10
  -4  -1 -13    1.40    1.10
   4   1  13    4.50    1.80
   4   1  13    1.20    2.60
  -5  -1 -13    1.60    1.10
   8  -2 -13    1.20    1.00
   7  -2 -13   22.30    2.90
   6  -2 -13   22.10    3.30
  -6   2  13   17.80    3.10
   5  -2 -13   44.40    5.00
  -5   2  13   40.10    5.20
  -4   2  13   24.20    4.30
  -3   2  13   29.50    4.30
  -3   2  13   22.70    4.20
  -2   2  13  180.98   11.00
  -2   2  13  177.88   10.20
  -2   2  13  161.88   10.00
  -1   2  13   18.20    3.50
  -1   2  13   33.00    5.20
  -1   2  13   19.20    3.40
   0   2  13   29.90    4.40
   0   2  13   42.60    5.20
   1   2  13   50.09    5.90
   1   2  13   54.59    6.40
  -2  -2 -13    3.40    1.60
   2   2  13    5.60    2.30
   2   2  13    8.50    2.60
  -3  -2 -13    3.50    1.50
   3   2  13    3.80    1.90
   3   2  13    4.80    1.80
  -4  -2 -13    0.90    1.00
   4   2  13    1.20    2.00
   4   2  13    1.40    1.40
   8  -3 -13    8.70    1.50
   7  -3 -13   30.10    3.10
   6  -3 -13    5.60    2.30
  -6   3  13    4.60    2.10
   5  -3 -13   -0.50    1.70
  -5   3  13   -1.70    1.60
  -4   3  13   40.00    5.30
  -3   3  13  123.29    8.80
  -3   3  13  111.99    7.80
  -2   3  13   33.60    5.40
  -2   3  13   35.00    4.60
  -1   3  13  166.18    9.70
  -1   3  13  165.78   10.10
   0   3  13   31.10    4.30
   0   3  13   29.40    4.70
   1   3  13   23.90    3.60
   1   3  13   27.50    4.50
  -2  -3 -13   31.70    3.40
   2   3  13   36.80    4.20
   2   3  13   31.30    4.30
  -3  -3 -13    0.00    1.00
   3   3  13   -0.20    1.30
   7  -4 -13   16.00    2.40
  -7   4  13   19.70    2.70
   6  -4 -13   37.20    4.30
  -6   4  13   39.00    4.70
   5  -4 -13   -0.10    1.50
  -5   4  13    0.40    1.90
   4  -4 -13   12.70    2.70
  -4   4  13   14.30    3.50
  -3   4  13    8.80    2.30
  -3   4  13    7.00    3.20
  -2   4  13   25.50    4.70
  -2   4  13   21.50    3.60
  -1   4  13   31.80    4.20
   0   4  13   37.10    4.80
  -1  -4 -13   26.60    3.10
   1   4  13   17.10    3.50
  -2  -4 -13    2.30    1.30
   2   4  13    4.30    2.00
  -3  -4 -13   35.50    2.70
   3   4  13   29.30    3.30
   7  -5 -13    3.20    1.10
  -7   5  13    0.10    1.20
   6  -5 -13    6.40    2.30
  -6   5  13    4.90    2.00
   5  -5 -13   78.09    5.60
  -5   5  13   96.19    7.10
   4  -5 -13   17.30    2.90
  -4   5  13   23.70    4.50
  -3   5  13   41.20    5.60
  -2   5  13    2.90    2.30
   0  -5 -13    8.80    1.90
   0   5  13   11.50    2.70
  -1  -5 -13    1.50    1.10
   1   5  13    1.10    1.60
  -2  -5 -13    2.10    1.00
   2   5  13    4.30    1.60
  -7   6  13   10.30    2.00
  -6   6  13   -0.30    1.30
  -5   6  13    6.10    2.40
  -4   6  13   -1.10    1.90
  -3   6  13   19.70    3.60
  -2   6  13    0.60    1.20
   0  -6 -13    5.50    1.30
  -1  -6 -13    0.20    0.70
  -6   7  13   22.50    3.00
  -5   7  13   18.60    2.60
  -4   7  13   51.89    5.40
  -3   7  13    6.90    2.80
   1  -7 -13    1.50    1.20
  -4   8  13   17.50    3.30
   0  -9  14    3.90    1.40
   1  -9  14    4.90    1.90
  -2  -8  14    7.30    1.40
  -2  -8  14    7.00    1.40
  -1  -8  14   14.30    1.80
  -1  -8  14   12.90    2.10
   0  -8  14    4.80    1.80
   1  -8  14    4.40    2.10
  -3  -7  14   -0.90    1.10
  -3  -7  14    0.60    0.90
  -2  -7  14   29.60    3.40
  -1  -7  14   22.60    3.20
  -1  -7  14   23.80    3.20
   0  -7  14   -0.40    2.00
   0  -7  14   -0.90    1.80
   1  -7  14   13.80    2.10
   1  -7  14   13.30    2.80
  -4  -6  14    7.10    1.40
  -4  -6  14    6.00    1.50
  -3  -6  14   10.70    2.20
  -3  -6  14    8.90    1.90
  -2  -6  14   41.60    4.50
  -2  -6  14   37.40    4.30
  -1  -6  14    0.10    1.60
  -1  -6  14    1.70    1.80
   0  -6  14   15.70    2.70
   0  -6  14   10.60    2.60
   1  -6  14   23.20    3.30
   1  -6  14   21.30    3.60
  -4  -5  14    5.10    1.60
  -4  -5  14    5.40    1.50
  -3  -5  14   51.89    4.90
  -3  -5  14   36.60    4.30
  -2  -5  14  107.49    7.00
  -2  -5  14   99.99    7.10
  -1  -5  14    7.80    2.30
  -1  -5  14    6.80    2.30
   0  -5  14   36.90    4.60
   0  -5  14   34.70    4.10
   1  -5  14    1.70    1.50
   2  -5  14   20.90    3.10
  -5  -4  14   13.20    2.20
  -5  -4  14   11.70    2.00
  -4  -4  14   27.20    3.40
  -4  -4  14   23.50    3.40
  -3  -4  14   22.30    3.70
  -3  -4  14   22.80    3.50
  -2  -4  14    6.30    2.00
  -2  -4  14    8.70    2.40
  -1  -4  14   22.10    3.50
  -1  -4  14   21.50    3.70
   0  -4  14   41.50    5.00
   0  -4  14   47.30    4.90
   1  -4  14   38.30    4.20
   2  -4  14   15.20    2.80
   2  -4  14   18.20    3.00
   3  -4  14   12.20    2.30
   3  -4  14   17.40    2.20
   4  -4  14    6.20    2.50
   5  -4  14    3.10    1.90
  -5  -3  14   22.30    2.90
  -5  -3  14   28.80    3.50
  -4  -3  14    8.10    2.30
  -4  -3  14   10.30    2.70
  -3  -3  14   83.69    7.10
  -3  -3  14   74.69    5.80
  -2  -3  14   47.70    5.40
  -2  -3  14   33.00    4.30
  -1  -3  14    9.00    2.40
  -1  -3  14    8.20    2.40
   0  -3  14  114.19    7.00
   0  -3  14   95.79    7.10
   0  -3  14   87.29    6.60
   1  -3  14   45.10    4.80
   1  -3  14   53.39    5.10
   2  -3  14   11.30    2.70
   2  -3  14   12.70    2.70
   3  -3  14   20.30    3.30
   3  -3  14   19.60    3.40
   4  -3  14   27.90    4.40
   5  -3  14    0.30    1.60
  -5  -2  14   55.49    4.80
  -4  -2  14    1.60    1.80
  -4  -2  14    1.80    1.40
  -3  -2  14    0.00    1.50
  -3  -2  14    0.70    1.70
  -2  -2  14   47.40    5.20
  -2  -2  14   44.90    5.30
  -2  -2  14   49.10    5.20
  -1  -2  14   41.70    4.80
  -1  -2  14   42.00    4.90
  -1  -2  14   36.20    4.90
   0  -2  14  230.88   12.20
   0  -2  14  233.78   12.40
   1  -2  14   43.80    5.00
   1  -2  14   44.00    5.40
   2  -2  14    1.70    1.90
   2  -2  14   -0.80    1.80
   3  -2  14   -2.50    1.40
   3  -2  14    2.20    2.00
   4  -2  14    1.90    1.50
   4  -2  14    2.10    1.90
   5  -2  14   -0.30    0.60
   6   1 -14   26.40    2.90
  -6  -1  14   26.10    3.10
   5   1 -14    1.40    1.40
  -5  -1  14   -0.30    1.20
   4   1 -14   20.60    3.20
  -4  -1  14   19.60    3.30
  -4  -1  14   20.00    3.40
  -3  -1  14  116.29    7.90
  -3  -1  14  140.59    8.60
  -3  -1  14  128.49    8.20
  -2  -1  14   19.00    3.70
  -2  -1  14   20.20    3.40
  -2  -1  14   21.30    3.40
  -1  -1  14    0.40    2.00
  -1  -1  14    2.30    2.20
  -1  -1  14   -0.50    1.50
   0  -1  14   28.00    4.40
   0  -1  14   23.00    3.60
   1  -1  14   43.20    5.20
   1  -1  14   29.30    4.80
   2  -1  14    6.00    2.40
   2  -1  14    3.20    2.20
   3  -1  14   46.60    5.30
   3  -1  14   36.00    4.50
   4  -1  14   14.20    2.90
   4  -1  14   13.10    3.00
   5  -1  14    6.90    1.70
   7   0 -14    8.10    1.50
   6   0 -14   39.00    3.80
  -6   0  14   33.20    3.60
   5   0 -14    6.40    2.20
  -5   0  14   10.50    2.50
   4   0 -14    6.50    2.40
  -4   0  14    4.20    2.10
  -3   0  14   31.30    4.10
  -3   0  14   24.20    4.00
  -3   0  14   28.90    4.20
  -2   0  14    1.50    1.70
  -2   0  14    2.40    2.00
  -2   0  14   -0.90    2.00
  -1   0  14  192.98   11.20
  -1   0  14  197.58   11.60
  -1   0  14  204.88   11.30
   0   0  14  103.09    7.70
   0   0  14  103.79    7.50
   1   0  14   17.20    3.50
   1   0  14   15.80    3.20
   2   0  14   -0.70    1.80
   2   0  14    0.80    1.90
   3   0  14    9.30    3.10
   3   0  14   11.50    3.00
   4   0  14   10.10    2.40
   4   0  14   10.10    2.20
   7  -1 -14    8.20    1.70
   6  -1 -14    0.40    1.20
  -6   1  14    0.20    1.30
   5  -1 -14    4.40    2.00
  -5   1  14    2.80    1.90
  -4   1  14   66.19    6.30
  -3   1  14    2.90    1.90
  -3   1  14    2.10    2.10
  -2   1  14   31.20    4.80
  -2   1  14   29.60    4.00
  -2   1  14   27.90    4.10
  -1   1  14  125.79    8.70
  -1   1  14  127.39    8.40
  -1   1  14  132.19    8.60
   0   1  14    0.10    1.90
   0   1  14    2.20    2.00
   1   1  14    2.40    2.00
   1   1  14    4.60    2.30
   2   1  14   -1.90    1.50
   2   1  14    0.50    2.10
   3   1  14   24.90    3.90
   3   1  14   26.60    3.80
  -4  -1 -14   -1.00    0.80
   4   1  14   -0.70    1.10
   4   1  14    0.30    1.70
   7  -2 -14    7.50    1.70
   6  -2 -14    1.00    1.20
  -6   2  14    2.00    1.60
   5  -2 -14   38.30    4.60
  -5   2  14   34.50    4.60
  -4   2  14   57.79    6.10
  -3   2  14    3.20    2.00
  -3   2  14    3.00    2.40
  -2   2  14   79.69    7.80
  -2   2  14   86.29    6.50
  -2   2  14   91.89    7.90
  -1   2  14   81.09    7.40
  -1   2  14   90.79    7.70
   0   2  14   22.90    3.70
   0   2  14   14.80    3.30
   1   2  14    1.70    2.00
   1   2  14   -0.30    1.70
   2   2  14    0.10    1.50
   2   2  14    0.70    1.60
  -3  -2 -14    2.60    1.30
   3   2  14    3.30    0.80
   3   2  14    0.70    1.40
   7  -3 -14   14.90    1.80
  -7   3  14   15.00    2.20
   6  -3 -14   26.00    3.50
  -6   3  14   26.30    3.70
   5  -3 -14   23.50    3.80
  -5   3  14   30.00    4.10
   4  -3 -14   20.40    3.40
  -4   3  14   16.80    3.40
  -3   3  14  113.99    8.00
  -3   3  14   62.39    6.10
  -2   3  14    8.30    2.70
  -2   3  14    4.30    2.60
  -1   3  14   21.90    3.70
  -1   3  14   27.60    4.30
   0   3  14   42.80    4.70
   0   3  14   42.50    5.00
   1   3  14    4.70    2.10
   1   3  14    6.00    2.50
  -2  -3 -14   48.50    4.40
   2   3  14   74.39    6.30
   2   3  14   54.19    6.60
  -3  -3 -14    2.20    1.00
   3   3  14    0.20    1.10
   7  -4 -14    9.50    1.90
  -7   4  14   17.80    2.30
   6  -4 -14   23.70    3.30
  -6   4  14   25.60    3.50
   5  -4 -14   80.39    5.70
  -5   4  14   72.79    6.60
   4  -4 -14   55.99    5.30
  -4   4  14   59.69    6.60
  -3   4  14   25.70    4.40
  -2   4  14   24.90    3.50
  -2   4  14   16.50    3.50
  -1   4  14    8.70    2.40
   0   4  14   34.40    4.20
   1   4  14    5.90    2.10
  -2  -4 -14    3.80    1.10
   2   4  14    3.30    1.60
   6  -5 -14   16.20    2.40
  -6   5  14   17.80    2.90
   5  -5 -14    4.20    1.60
  -5   5  14    5.80    2.20
   4  -5 -14    0.90    1.30
  -4   5  14    0.00    2.00
  -3   5  14   21.30    3.90
  -2   5  14    3.00    1.20
   0   5  14   12.60    3.20
   1   5  14   12.10    2.10
  -6   6  14   15.30    2.50
  -5   6  14   47.40    4.40
  -4   6  14   23.50    4.00
  -3   6  14    1.50    2.20
  -5   7  14    9.20    2.20
  -4   7  14   55.59    4.30
  -3   7  14    1.70    0.70
  -1  -8  15   20.30    2.50
   0  -8  15    4.00    1.60
   1  -8  15   -0.60    0.70
  -2  -7  15    0.50    1.30
  -2  -7  15    3.70    1.20
  -1  -7  15    1.80    1.40
  -1  -7  15    3.70    1.50
   0  -7  15    4.10    1.90
   0  -7  15    8.80    2.10
   1  -7  15    9.50    1.60
  -3  -6  15    1.00    0.90
  -3  -6  15    0.30    0.90
  -2  -6  15   56.09    4.80
  -2  -6  15   52.09    4.80
  -1  -6  15    3.50    1.60
  -1  -6  15    0.70    2.00
   0  -6  15   15.60    2.70
   0  -6  15   15.80    2.80
   1  -6  15   22.30    2.80
  -4  -5  15    0.40    0.90
  -4  -5  15    1.00    1.10
  -3  -5  15   14.10    2.70
  -3  -5  15   14.20    2.40
  -2  -5  15   34.60    3.50
  -2  -5  15   44.50    4.20
  -1  -5  15   12.20    2.90
  -1  -5  15   14.10    2.90
   0  -5  15   25.20    3.80
   0  -5  15   25.30    3.50
   1  -5  15   33.70    3.80
   2  -5  15   26.30    2.90
  -5  -4  15    9.60    1.60
  -5  -4  15    9.30    1.70
  -4  -4  15   12.60    2.10
  -4  -4  15   15.50    2.80
  -3  -4  15   37.00    4.20
  -3  -4  15   34.80    3.70
  -2  -4  15   55.39    5.20
  -2  -4  15   53.19    5.20
  -1  -4  15   89.19    6.40
  -1  -4  15   96.79    6.70
   0  -4  15    1.00    1.80
   0  -4  15    1.30    1.40
   1  -4  15   39.10    4.20
   2  -4  15    4.00    1.10
   2  -4  15    2.30    2.00
   3  -4  15    3.20    1.00
   3  -4  15    5.20    1.40
   4  -4  15   11.60    2.30
  -5  -3  15    8.80    1.80
  -5  -3  15   11.00    2.00
  -4  -3  15   11.00    2.50
  -4  -3  15    9.70    2.00
  -3  -3  15   74.19    6.40
  -3  -3  15   69.49    5.40
  -2  -3  15   13.20    3.00
  -2  -3  15    7.20    2.30
  -1  -3  15   70.19    6.60
  -1  -3  15   73.79    6.50
  -1  -3  15   64.89    6.50
   0  -3  15   37.10    4.60
   0  -3  15   38.20    4.60
   0  -3  15   33.90    4.10
   1  -3  15   20.70    3.30
   1  -3  15   21.20    3.30
   2  -3  15   19.90    3.20
   2  -3  15   17.10    3.00
   3  -3  15   12.50    2.40
   3  -3  15   12.90    2.80
   4  -3  15   29.90    3.60
  -5  -2  15   26.90    3.30
  -4  -2  15   12.10    2.50
  -4  -2  15   17.60    3.10
  -3  -2  15  106.29    7.40
  -3  -2  15  117.69    7.50
  -2  -2  15   69.69    6.70
  -2  -2  15   59.69    5.60
  -2  -2  15   65.79    6.00
  -1  -2  15   44.70    5.10
  -1  -2  15   45.60    5.20
  -1  -2  15   44.00    4.90
   0  -2  15  342.47   16.40
   0  -2  15  344.57   16.50
   1  -2  15   26.20    3.90
   1  -2  15   31.70    4.10
   2  -2  15    4.00    2.10
   2  -2  15    6.70    2.50
   3  -2  15   55.69    5.60
   3  -2  15   50.69    4.70
   4  -2  15   10.20    1.30
   4  -2  15    7.90    2.40
  -6  -1  15   22.00    2.60
   5   1 -15    1.00    1.30
  -5  -1  15    2.40    1.40
   4   1 -15   22.50    3.30
  -4  -1  15   25.40    3.60
  -4  -1  15   26.90    3.60
  -3  -1  15   12.40    2.80
  -3  -1  15   11.10    2.70
  -2  -1  15   64.09    6.60
  -2  -1  15   52.59    5.60
  -2  -1  15   66.69    6.30
  -1  -1  15   10.10    2.80
  -1  -1  15    8.10    2.30
  -1  -1  15    8.90    3.10
   0  -1  15   15.80    3.10
   0  -1  15   14.30    3.30
   1  -1  15  148.79    9.20
   1  -1  15  140.49    9.30
   2  -1  15   27.50    4.30
   2  -1  15   25.90    4.00
   3  -1  15   14.80    2.10
   3  -1  15   17.70    3.40
   4  -1  15    1.00    1.40
   4  -1  15    2.70    1.50
   6   0 -15   21.20    2.60
  -6   0  15   18.90    2.60
   5   0 -15   19.80    3.00
  -5   0  15   16.40    3.00
   4   0 -15   31.50    4.30
  -4   0  15   42.00    4.90
  -3   0  15    0.20    1.80
  -3   0  15    2.10    1.90
  -3   0  15    3.00    1.90
  -2   0  15   36.70    4.80
  -2   0  15   39.10    4.50
  -2   0  15   32.10    4.60
  -1   0  15  262.47   13.90
  -1   0  15  257.27   13.60
  -1   0  15  270.37   13.90
   0   0  15   68.89    6.70
   0   0  15   63.99    6.50
   1   0  15   21.00    3.50
   1   0  15   27.50    4.20
   2   0  15   13.10    3.50
   2   0  15   17.40    3.20
   3   0  15    0.40    2.10
   3   0  15    3.60    1.90
   4   0  15   16.50    2.40
   4   0  15   15.50    2.10
   7  -1 -15    5.90    1.50
   6  -1 -15    7.30    1.90
  -6   1  15   11.80    2.30
   5  -1 -15    2.80    1.80
  -5   1  15    3.10    1.80
   4  -1 -15   19.60    3.40
  -4   1  15   21.90    3.60
  -3   1  15   18.60    3.40
  -3   1  15   12.90    3.20
  -2   1  15    2.50    2.30
  -2   1  15    2.40    2.10
  -2   1  15    1.40    1.60
  -1   1  15    0.90    1.70
  -1   1  15    1.30    1.80
   0   1  15   54.59    5.80
   0   1  15   48.80    5.40
   1   1  15    0.30    1.80
   1   1  15   -1.70    1.50
   2   1  15    2.20    0.80
   2   1  15    6.80    2.20
   3   1  15   -1.00    1.30
   3   1  15    2.20    2.00
   7  -2 -15   12.90    1.80
   6  -2 -15   32.70    3.40
  -6   2  15   28.10    3.40
   5  -2 -15    1.00    1.60
  -5   2  15    2.40    1.80
   4  -2 -15   15.10    3.00
  -4   2  15   15.90    3.40
  -3   2  15    9.00    2.50
  -3   2  15    7.00    2.60
  -2   2  15   35.00    4.30
  -2   2  15   29.60    4.40
  -2   2  15   30.80    4.30
  -1   2  15    4.40    2.10
  -1   2  15    4.60    2.20
   0   2  15   47.10    5.50
   0   2  15   52.29    5.60
   1   2  15    8.60    2.70
   1   2  15    6.60    2.30
   2   2  15    4.10    1.90
   2   2  15    4.00    1.70
   3   2  15    7.50    1.10
   7  -3 -15   21.60    2.00
   6  -3 -15   -0.90    1.40
  -6   3  15    0.70    1.40
   5  -3 -15   21.60    3.30
  -5   3  15   21.80    3.30
   4  -3 -15   27.00    3.90
  -4   3  15   21.90    3.90
  -3   3  15   78.49    7.40
  -2   3  15   47.90    5.20
  -2   3  15   43.50    4.80
  -1   3  15   25.00    3.70
  -1   3  15   25.30    3.80
   0   3  15   26.60    3.60
   0   3  15   19.20    3.30
   1   3  15   10.30    2.50
   1   3  15    9.30    2.30
   2   3  15    2.80    1.60
   6  -4 -15    2.30    1.80
  -6   4  15    3.00    1.60
   5  -4 -15   61.39    5.10
  -5   4  15   73.49    5.50
   4  -4 -15   17.90    2.90
  -4   4  15   20.20    3.60
   3  -4 -15   -0.50    2.30
  -3   4  15   -0.10    1.80
  -2   4  15   53.09    5.20
  -2   4  15   67.39    4.90
  -1   4  15   39.70    4.00
   0   4  15    0.90    1.60
   1   4  15    7.40    1.90
   6  -5 -15    6.10    1.50
  -6   5  15    7.20    1.80
   5  -5 -15   33.20    2.80
  -5   5  15   35.50    3.60
   4  -5 -15   42.50    2.90
  -4   5  15   47.80    5.30
  -3   5  15   20.40    3.60
  -5   6  15    0.10    1.70
  -4   6  15    6.90    2.30
  -3   6  15    5.30    1.40
  -1  -7  16    1.00    1.00
  -1  -7  16    2.30    1.40
   0  -7  16    2.50    1.20
   0  -7  16   -1.60    1.70
  -3  -6  16    1.10    0.90
  -3  -6  16    0.10    0.70
  -2  -6  16   20.30    2.30
  -2  -6  16   20.40    2.80
  -1  -6  16    6.20    2.00
  -1  -6  16    3.20    1.70
   0  -6  16    3.20    1.60
   0  -6  16    4.20    2.20
   1  -6  16   15.30    2.30
  -4  -5  16    5.50    1.30
  -4  -5  16    4.90    1.30
  -3  -5  16   46.60    4.10
  -2  -5  16   -1.00    1.40
  -2  -5  16    2.30    0.60
  -1  -5  16    7.90    2.40
  -1  -5  16    4.70    2.10
   0  -5  16   45.60    4.60
   0  -5  16   51.19    4.80
   1  -5  16    4.40    1.30
   2  -5  16    6.30    1.60
  -4  -4  16    6.70    1.50
  -4  -4  16    4.70    1.60
  -3  -4  16   12.40    2.50
  -3  -4  16   10.70    2.00
  -2  -4  16   23.10    3.50
  -2  -4  16   30.40    3.80
  -1  -4  16    6.90    1.40
  -1  -4  16    4.60    2.20
   0  -4  16   13.00    2.50
   0  -4  16   12.80    1.80
   1  -4  16   71.49    5.40
   2  -4  16    4.60    2.00
   2  -4  16    2.20    1.00
   3  -4  16   17.00    2.20
  -5  -3  16    7.20    1.40
  -4  -3  16   30.40    3.30
  -4  -3  16   32.10    3.60
  -3  -3  16    0.50    0.50
  -3  -3  16    0.10    1.30
  -2  -3  16   17.60    3.30
  -2  -3  16   29.80    3.90
  -1  -3  16   55.39    5.30
  -1  -3  16   57.79    5.60
  -1  -3  16   47.40    4.50
   0  -3  16   71.59    5.10
   0  -3  16   68.19    5.80
   1  -3  16   61.69    5.60
   1  -3  16   53.39    5.30
   2  -3  16   -0.80    1.30
   2  -3  16    0.30    1.30
   3  -3  16    7.00    2.10
   3  -3  16    6.70    1.90
   4  -3  16   15.40    2.10
  -5  -2  16   15.60    2.20
  -4  -2  16    1.10    1.50
  -4  -2  16    1.30    1.30
   3   2 -16   18.30    2.90
  -3  -2  16   15.50    2.70
  -3  -2  16   18.90    3.00
  -2  -2  16  144.89    8.60
  -2  -2  16  140.79    8.70
  -2  -2  16  141.99    8.30
  -1  -2  16    0.30    1.50
  -1  -2  16    0.10    1.40
  -1  -2  16   -0.80    1.60
   0  -2  16   58.99    5.50
   0  -2  16   75.79    6.10
   1  -2  16    3.10    2.50
   1  -2  16    2.20    2.20
   2  -2  16   70.89    6.40
   2  -2  16   84.39    6.70
   3  -2  16    7.90    1.80
   3  -2  16    6.90    1.60
  -6  -1  16   20.90    2.80
   5   1 -16    2.20    1.30
  -5  -1  16    5.80    1.70
   4   1 -16    1.30    1.50
  -4  -1  16    3.70    1.60
  -4  -1  16    3.30    1.90
  -3  -1  16   18.50    3.50
  -3  -1  16   17.20    2.90
  -2  -1  16    8.20    2.40
  -2  -1  16    7.80    2.40
  -2  -1  16    8.90    2.40
  -1  -1  16   71.19    6.70
  -1  -1  16   87.09    7.50
  -1  -1  16   82.49    6.10
   0  -1  16  115.79    7.80
   0  -1  16  127.99    8.10
   1  -1  16    1.10    2.40
   1  -1  16    1.00    1.00
   2  -1  16   -0.20    1.70
   2  -1  16   -1.60    1.70
   3  -1  16   33.50    3.10
   3  -1  16   39.70    3.90
   6   0 -16    1.70    1.00
  -6   0  16    0.50    0.90
   5   0 -16   -0.20    1.20
  -5   0  16    0.90    1.20
   4   0 -16    5.60    2.00
  -4   0  16    8.50    2.30
  -3   0  16  248.88   13.30
  -3   0  16  271.37   13.00
  -2   0  16    5.80    2.30
  -2   0  16    3.50    1.90
  -2   0  16    6.60    2.40
  -1   0  16   25.00    4.00
  -1   0  16   21.40    3.20
  -1   0  16   31.70    4.20
   0   0  16    4.90    1.70
   0   0  16    7.10    2.30
   1   0  16   69.39    6.00
   1   0  16   69.29    6.10
   2   0  16    8.60    2.60
   2   0  16    4.90    1.90
   3   0  16    5.10    2.00
   3   0  16    8.40    2.00
   6  -1 -16    2.50    1.20
  -6   1  16    2.90    1.20
   5  -1 -16    5.30    1.80
  -5   1  16    5.10    1.70
   4  -1 -16   44.50    4.50
  -4   1  16   41.60    4.40
  -3   1  16    2.90    1.20
  -3   1  16    1.70    2.10
  -2   1  16   11.70    2.50
  -2   1  16   13.80    3.30
  -2   1  16   14.00    2.90
  -1   1  16   94.39    6.80
  -1   1  16   96.39    7.00
   0   1  16    3.70    2.10
   0   1  16    2.10    1.90
   1   1  16    3.50    1.90
   1   1  16    2.30    2.00
   2   1  16   14.70    2.20
   2   1  16   11.10    2.30
   6  -2 -16    7.60    1.50
  -6   2  16    7.90    1.80
   5  -2 -16    8.90    2.00
  -5   2  16    7.30    2.20
   4  -2 -16  102.89    6.30
  -4   2  16   91.39    6.80
  -3   2  16    2.40    2.60
  -2   2  16   23.70    3.70
  -2   2  16   20.90    3.20
  -2   2  16   28.30    3.90
  -1   2  16   -0.90    1.40
  -1   2  16    0.00    1.60
   0   2  16   36.90    4.40
   0   2  16   38.30    4.50
   1   2  16    5.70    1.90
   1   2  16    3.30    1.80
   2   2  16   22.30    2.60
   2   2  16   21.70    2.80
   6  -3 -16   -0.90    1.30
  -6   3  16    0.70    1.10
   5  -3 -16   35.50    3.60
  -5   3  16   33.90    3.90
   4  -3 -16    9.00    2.50
  -4   3  16   12.50    3.00
  -3   3  16   -0.10    1.70
  -2   3  16   37.70    4.10
  -2   3  16   33.20    3.50
  -1   3  16   65.89    5.30
  -1   3  16   50.89    4.80
   0   3  16   21.20    2.90
   0   3  16   13.00    2.50
   1   3  16   24.70    3.10
   1   3  16   20.60    2.60
   5  -4 -16    8.10    1.60
  -5   4  16    8.90    1.20
   4  -4 -16    4.60    1.30
  -4   4  16    3.50    2.40
   3  -4 -16   13.40    2.40
  -3   4  16    8.60    2.90
   0   4  16   15.50    3.00
  -4   5  16   -0.80    1.60
  -3   5  16    5.00    1.50
  -1  -6  17    8.00    1.80
  -1  -6  17    8.50    1.70
   0  -6  17    3.80    1.30
   1  -6  17    7.80    1.50
  -3  -5  17   25.90    2.50
  -3  -5  17   29.30    2.80
  -2  -5  17    1.30    1.50
  -2  -5  17   -2.00    0.60
  -1  -5  17   11.70    2.40
  -1  -5  17    8.80    1.90
   0  -5  17    4.10    1.50
   0  -5  17    5.00    1.90
   1  -5  17    3.80    1.20
   2  -5  17    4.80    0.80
  -4  -4  17    4.90    1.40
  -4  -4  17    6.40    1.30
  -3  -4  17    0.10    0.90
  -3  -4  17    2.00    0.50
  -2  -4  17   11.90    2.40
  -2  -4  17   15.30    2.60
  -1  -4  17    4.50    1.20
  -1  -4  17    5.40    2.10
   0  -4  17   13.30    2.60
   1  -4  17   13.90    2.40
   2  -4  17    4.80    1.90
  -4  -3  17   24.10    2.80
  -4  -3  17   24.00    2.80
  -3  -3  17   -0.50    1.20
  -3  -3  17    1.20    0.80
  -2  -3  17   53.59    4.80
  -2  -3  17   49.99    5.00
  -1  -3  17    4.60    1.70
  -1  -3  17    2.70    1.90
   0  -3  17    4.90    1.60
   0  -3  17    6.30    2.00
   1  -3  17   77.49    5.40
   1  -3  17   64.59    4.80
   2  -3  17    7.30    2.30
   2  -3  17    9.60    2.10
   3  -3  17   50.59    3.50
  -5  -2  17   18.00    2.10
  -4  -2  17    5.00    1.60
  -4  -2  17    5.80    1.50
   3   2 -17    9.70    2.00
  -3  -2  17   11.90    2.70
  -3  -2  17   13.30    2.50
  -2  -2  17   11.70    2.60
  -2  -2  17    6.60    2.50
  -1  -2  17   13.40    2.60
  -1  -2  17    8.30    1.90
  -1  -2  17    7.10    2.70
   0  -2  17   38.90    4.10
   0  -2  17   30.50    3.90
   1  -2  17   51.29    4.90
   1  -2  17   45.40    4.60
   2  -2  17   22.00    3.20
   2  -2  17   15.10    2.90
   3  -2  17   17.40    2.50
   5   1 -17    0.60    1.00
  -5  -1  17   -0.20    0.90
   4   1 -17   24.70    2.80
  -4  -1  17   22.10    3.00
   3   1 -17   56.49    4.70
  -3  -1  17   63.39    5.60
  -3  -1  17   48.40    4.60
  -2  -1  17   29.00    3.80
  -2  -1  17   25.30    3.50
  -2  -1  17   26.80    3.50
  -1  -1  17   71.89    6.60
  -1  -1  17   72.79    5.60
  -1  -1  17   74.29    5.50
   0  -1  17   71.89    6.40
   0  -1  17   79.99    5.70
   1  -1  17   31.20    3.30
   1  -1  17   27.40    3.80
   2  -1  17   65.79    5.00
   2  -1  17   74.79    5.10
   5   0 -17   22.50    2.50
  -5   0  17   30.80    3.20
   4   0 -17    0.20    1.30
  -4   0  17   -0.80    0.60
  -3   0  17   13.50    2.50
  -3   0  17   21.70    3.50
  -2   0  17   17.50    3.40
  -2   0  17   11.10    2.40
  -2   0  17   13.00    3.00
  -1   0  17   59.09    5.70
  -1   0  17   57.29    5.20
   0   0  17   59.39    5.50
   0   0  17   57.79    5.30
   1   0  17   45.10    4.40
   1   0  17   33.40    3.80
   2   0  17    5.60    1.70
   2   0  17    3.40    1.50
   5  -1 -17   19.60    2.40
  -5   1  17   23.20    2.90
   4  -1 -17    7.40    1.90
  -4   1  17    7.80    2.30
  -3   1  17    3.40    2.30
  -2   1  17   90.59    6.30
  -2   1  17   85.59    5.90
  -2   1  17   80.09    5.70
  -1   1  17   29.00    3.50
  -1   1  17   27.20    3.70
   0   1  17    8.00    2.30
   0   1  17    7.00    2.20
   1   1  17   17.60    2.70
   1   1  17   16.90    2.80
   5  -2 -17    1.90    1.10
  -5   2  17    1.60    1.30
   4  -2 -17   13.10    1.90
  -4   2  17   15.60    2.90
   3  -2 -17   20.50    3.00
  -3   2  17   21.50    3.20
  -2   2  17   58.89    4.20
  -2   2  17   69.99    5.10
  -1   2  17   33.20    3.60
  -1   2  17   32.60    3.70
   0   2  17   29.40    3.30
   0   2  17   31.40    3.50
   1   2  17   15.10    2.20
   1   2  17   19.20    2.50
   5  -3 -17    1.90    1.30
  -5   3  17    0.10    0.30
   4  -3 -17   25.90    2.90
  -4   3  17   24.80    3.40
   3  -3 -17    1.80    2.10
  -3   3  17   -1.50    1.70
  -1   3  17   66.79    4.50
   0   3  17   -0.20    1.10
   4  -4 -17   18.80    2.70
  -4   4  17   17.50    2.70
   3  -4 -17   11.50    1.80
  -1  -5  18    3.80    1.60
   0  -5  18    1.10    1.70
  -2  -4  18   -0.60    1.50
  -2  -4  18    3.00    1.30
  -1  -4  18    4.20    0.90
  -1  -4  18    4.00    0.90
   0  -4  18    4.00    1.60
   1  -4  18    0.50    1.30
  -3  -3  18    0.30    1.10
  -3  -3  18    0.80    1.40
  -2  -3  18   10.70    2.00
  -2  -3  18   13.10    2.10
  -1  -3  18    4.40    0.90
  -1  -3  18    7.60    1.90
   0  -3  18    9.50    1.50
   0  -3  18   10.10    2.00
   1  -3  18    7.70    2.00
   1  -3  18    6.30    1.40
  -4  -2  18    1.00    0.90
  -3  -2  18    8.60    1.90
  -3  -2  18    9.00    1.60
   2   2 -18    4.60    1.60
  -2  -2  18    5.10    1.50
  -2  -2  18    5.20    1.70
  -1  -2  18   38.70    3.90
  -1  -2  18   38.50    3.90
   0  -2  18   12.60    2.10
   0  -2  18   17.40    2.60
   1  -2  18    0.70    1.50
   1  -2  18    1.40    1.30
   4   1 -18    5.60    1.30
  -4  -1  18    3.40    0.90
   3   1 -18   55.89    4.00
  -3  -1  18   55.59    5.00
  -3  -1  18   62.59    4.30
  -2  -1  18   40.90    3.90
  -2  -1  18   41.50    4.30
  -1  -1  18    1.60    1.30
  -1  -1  18   -0.20    2.10
   0  -1  18    6.90    2.30
   0  -1  18    3.70    1.60
   1  -1  18   21.80    3.10
   1  -1  18   25.40    2.60
   4   0 -18   12.20    1.80
  -4   0  18   12.80    2.40
   3   0 -18    4.40    1.50
  -3   0  18    6.00    1.90
  -2   0  18   30.40    3.10
  -2   0  18   32.40    3.40
  -1   0  18   18.00    2.70
  -1   0  18   20.10    3.20
   0   0  18    4.70    1.20
   0   0  18    6.20    1.70
   1   0  18    0.60    1.20
   1   0  18    0.50    1.00
   4  -1 -18   33.00    3.00
  -4   1  18   24.30    3.00
   3  -1 -18   15.50    2.20
  -3   1  18   16.20    2.40
  -2   1  18    2.30    1.50
  -1   1  18   18.10    2.60
  -1   1  18   13.20    2.20
   0   1  18   50.59    4.30
   0   1  18   55.09    3.90
   4  -2 -18   -0.90    0.50
  -4   2  18   -1.60    1.40
   3  -2 -18    1.50    1.30
  -3   2  18    2.70    1.90
  -1   2  18   32.40    3.20
  -1  -2  19    6.90    1.60
   2   1 -19    3.20    1.20
  -2  -1  19    5.00    1.90
  -1  -1  19   12.70    2.00
   0   0   0    0.00    0.00
;
_shelx_hkl_checksum              80045
_olex2_submission_special_instructions 'No special instructions were received'
loop_
_space_group_symop_operation_xyz
'x, y, z'
'-x, -y, -z'
loop_
_atom_site_label
_atom_site_type_symbol
_atom_site_fract_x
_atom_site_fract_y
_atom_site_fract_z
_atom_site_U_iso_or_equiv
_atom_site_adp_type
_atom_site_occupancy
_atom_site_site_symmetry_order
_atom_site_calc_flag
_atom_site_refinement_flags_posn
_atom_site_refinement_flags_adp
_atom_site_refinement_flags_occupancy
_atom_site_disorder_assembly
_atom_site_disorder_group
Cu1 Cu 1.000000 1.000000 1.000000 0.0424(2) Uani 1 2 d S . P . .
O1 O 0.4423(3) 0.6338(3) 0.08960(15) 0.0493(6) Uani 1 1 d . . . . .
H1 H 0.490924 0.669611 0.050815 0.074 Uiso 1 1 calc R U . . .
O2 O 0.5869(3) 0.8543(3) 0.16691(15) 0.0511(6) Uani 1 1 d . . . . .
O3 O 0.6131(3) 0.7075(2) 0.96773(14) 0.0455(5) Uani 1 1 d . . . . .
O4 O 0.6906(3) 0.9252(3) 0.92887(15) 0.0480(6) Uani 1 1 d . . . . .
N1 N 1.0027(4) 0.7981(3) 0.9807(2) 0.0505(7) Uani 1 1 d . . . . .
H1A H 0.878280 0.733175 0.960962 0.061 Uiso 1 1 calc R U . . .
N2 N 1.0673(4) 1.0162(4) 0.88149(18) 0.0526(7) Uani 1 1 d . . . . .
H2 H 1.197124 1.066175 0.891991 0.063 Uiso 1 1 calc R U . . .
C1 C 0.4799(5) 0.7338(4) 0.1589(2) 0.0441(7) Uani 1 1 d . . . . .
C2 C 0.3745(4) 0.6830(4) 0.2270(2) 0.0434(7) Uani 1 1 d . . . . .
C3 C 0.2792(5) 0.5384(4) 0.2247(2) 0.0476(8) Uani 1 1 d . . . . .
H3 H 0.281115 0.470749 0.179824 0.057 Uiso 1 1 calc R U . . .
C4 C 0.1812(5) 0.4940(4) 0.2888(2) 0.0478(8) Uani 1 1 d . . . . .
H4 H 0.119743 0.396713 0.286995 0.057 Uiso 1 1 calc R U . . .
C5 C 0.1737(5) 0.5941(4) 0.3562(2) 0.0450(8) Uani 1 1 d . . . . .
C6 C 0.2702(5) 0.7392(4) 0.3579(2) 0.0464(8) Uani 1 1 d . . . . .
H6 H 0.267304 0.807351 0.402243 0.056 Uiso 1 1 calc R U . . .
C7 C 0.3696(5) 0.7829(4) 0.2947(2) 0.0457(8) Uani 1 1 d . . . . .
H7 H 0.433999 0.879845 0.297284 0.055 Uiso 1 1 calc R U . . .
C8 C 0.0767(5) 0.5462(4) 0.4277(2) 0.0461(8) Uani 1 1 d . . . . .
C9 C 0.1671(5) 0.6015(4) 0.5137(2) 0.0477(8) Uani 1 1 d . . . . .
H9 H 0.280890 0.671202 0.522973 0.057 Uiso 1 1 calc R U . . .
C10 C 0.0968(5) 0.5582(4) 0.5864(2) 0.0467(8) Uani 1 1 d . . . . .
C11 C 0.2154(5) 0.6193(4) 0.6741(2) 0.0457(8) Uani 1 1 d . . . . .
C12 C 0.3118(5) 0.7662(4) 0.6962(2) 0.0451(8) Uani 1 1 d . . . . .
H12 H 0.294696 0.827094 0.657714 0.054 Uiso 1 1 calc R U . . .
C13 C 0.4327(4) 0.8227(4) 0.7745(2) 0.0435(7) Uani 1 1 d . . . . .
H13 H 0.496158 0.920952 0.788077 0.052 Uiso 1 1 calc R U . . .
C14 C 0.4597(4) 0.7336(4) 0.83279(19) 0.0418(7) Uani 1 1 d . . . . .
C15 C 0.3625(5) 0.5877(4) 0.8121(2) 0.0444(7) Uani 1 1 d . . . . .
H15 H 0.378428 0.527262 0.851160 0.053 Uiso 1 1 calc R U . . .
C16 C 0.2416(5) 0.5311(4) 0.7335(2) 0.0469(8) Uani 1 1 d . . . . .
H16 H 0.177188 0.432920 0.720377 0.056 Uiso 1 1 calc R U . . .
C17 C 0.5978(4) 0.7960(4) 0.9170(2) 0.0435(7) Uani 1 1 d . . . . .
C18 C 1.0320(6) 0.8691(5) 0.8389(3) 0.0652(11) Uani 1 1 d . . . . .
H18A H 1.095462 0.870859 0.790737 0.078 Uiso 1 1 calc R U . . .
H18B H 0.905148 0.820745 0.815853 0.078 Uiso 1 1 calc R U . . .
C19 C 1.0949(5) 0.7909(5) 0.9063(3) 0.0654(11) Uani 1 1 d . . . . .
H19A H 1.067243 0.691579 0.880935 0.078 Uiso 1 1 calc R U . . .
H19B H 1.223321 0.835165 0.926201 0.078 Uiso 1 1 calc R U . . .
C20 C 1.0783(5) 0.7469(4) 1.0564(3) 0.0659(11) Uani 1 1 d . . . . .
H20A H 1.203900 0.805316 1.075709 0.079 Uiso 1 1 calc R U . . .
H20B H 1.069275 0.648631 1.039138 0.079 Uiso 1 1 calc R U . . .
C21 C 0.9800(6) 0.7545(5) 1.1314(3) 0.0724(13) Uani 1 1 d . . . . .
H21A H 0.852750 0.706767 1.109216 0.087 Uiso 1 1 calc R U . . .
H21B H 1.015327 0.701850 1.174734 0.087 Uiso 1 1 calc R U . . .
C22 C 0.9872(6) 1.0960(5) 0.8241(3) 0.0685(12) Uani 1 1 d . . . . .
H22A H 0.859381 1.044079 0.806992 0.082 Uiso 1 1 calc R U . . .
H22B H 1.037383 1.101325 0.771396 0.082 Uiso 1 1 calc R U . . .
C1A C 0.2766(12) 0.2732(10) 0.5369(5) 0.143(3) Uani 1 1 d . . . . .
H1AA H 0.393468 0.326245 0.573082 0.172 Uiso 0.805(7) 1 calc R U P A 1
H1AB H 0.216084 0.340564 0.527811 0.172 Uiso 0.805(7) 1 calc R U P A 1
H1AC H 0.178992 0.308089 0.539362 0.172 Uiso 0.195(7) 1 calc R U P A 2
H1AD H 0.373693 0.331286 0.584395 0.172 Uiso 0.195(7) 1 calc R U P A 2
Cl1A Cl 0.1619(3) 0.1525(3) 0.59073(13) 0.1034(9) Uani 0.805(7) 1 d . . P A 1
Cl2A Cl 0.3062(3) 0.2018(5) 0.43389(15) 0.1318(14) Uani 0.805(7) 1 d . . P A 1
Cl1B Cl 0.199(3) 0.082(3) 0.5608(16) 0.234(10) Uiso 0.195(7) 1 d . . P A 2
Cl2B Cl 0.3463(13) 0.3052(12) 0.4427(6) 0.095(3) Uiso 0.195(7) 1 d . . P A 2
loop_
_atom_site_aniso_label
_atom_site_aniso_U_11
_atom_site_aniso_U_22
_atom_site_aniso_U_33
_atom_site_aniso_U_23
_atom_site_aniso_U_13
_atom_site_aniso_U_12
Cu1 0.0484(4) 0.0458(4) 0.0302(4) 0.0025(3) 0.0090(3) 0.0140(3)
O1 0.0587(15) 0.0519(13) 0.0349(12) 0.0064(10) 0.0165(10) 0.0138(11)
O2 0.0563(14) 0.0508(14) 0.0421(13) 0.0054(11) 0.0182(11) 0.0110(12)
O3 0.0493(13) 0.0538(13) 0.0287(11) 0.0058(10) 0.0065(9) 0.0133(11)
O4 0.0496(13) 0.0495(13) 0.0368(12) 0.0011(10) 0.0028(10) 0.0112(11)
N1 0.0482(16) 0.0426(15) 0.0568(18) 0.0013(13) 0.0054(13) 0.0150(13)
N2 0.0495(16) 0.070(2) 0.0308(14) 0.0066(13) 0.0098(12) 0.0118(15)
C1 0.0499(19) 0.0520(19) 0.0323(16) 0.0062(14) 0.0085(13) 0.0205(16)
C2 0.0447(17) 0.0543(19) 0.0303(15) 0.0066(14) 0.0071(13) 0.0165(15)
C3 0.0511(19) 0.0508(19) 0.0355(17) 0.0018(14) 0.0100(14) 0.0121(16)
C4 0.055(2) 0.0461(18) 0.0324(16) 0.0023(14) 0.0093(14) 0.0065(15)
C5 0.0461(18) 0.0517(19) 0.0277(15) 0.0018(13) 0.0053(13) 0.0074(15)
C6 0.054(2) 0.0519(19) 0.0284(15) 0.0014(14) 0.0078(14) 0.0138(16)
C7 0.0510(19) 0.0448(17) 0.0349(16) 0.0046(14) 0.0078(14) 0.0095(15)
C8 0.055(2) 0.0486(18) 0.0298(15) 0.0037(13) 0.0106(14) 0.0124(16)
C9 0.0462(19) 0.0518(19) 0.0357(17) 0.0025(14) 0.0083(14) 0.0069(15)
C10 0.0510(19) 0.0512(19) 0.0299(16) -0.0003(14) 0.0069(13) 0.0106(15)
C11 0.0493(19) 0.0504(18) 0.0303(16) 0.0013(14) 0.0106(14) 0.0090(15)
C12 0.0511(19) 0.0524(19) 0.0304(15) 0.0078(14) 0.0101(13) 0.0154(15)
C13 0.0472(18) 0.0455(17) 0.0337(16) 0.0020(13) 0.0114(13) 0.0111(14)
C14 0.0432(17) 0.0500(18) 0.0288(15) 0.0010(13) 0.0104(13) 0.0126(15)
C15 0.0493(18) 0.0488(18) 0.0347(16) 0.0073(14) 0.0136(14) 0.0145(15)
C16 0.0512(19) 0.0471(18) 0.0353(16) 0.0004(14) 0.0117(14) 0.0088(15)
C17 0.0407(17) 0.0531(19) 0.0334(16) 0.0029(14) 0.0105(13) 0.0124(15)
C18 0.056(2) 0.082(3) 0.044(2) -0.016(2) 0.0113(17) 0.014(2)
C19 0.051(2) 0.065(2) 0.068(3) -0.023(2) 0.0094(18) 0.0150(19)
C20 0.051(2) 0.052(2) 0.090(3) 0.019(2) 0.001(2) 0.0158(18)
C21 0.052(2) 0.077(3) 0.080(3) 0.042(3) 0.003(2) 0.009(2)
C22 0.055(2) 0.102(3) 0.041(2) 0.026(2) 0.0090(17) 0.014(2)
C1A 0.186(8) 0.199(9) 0.131(6) 0.082(6) 0.084(6) 0.140(7)
Cl1A 0.1000(14) 0.1141(16) 0.0776(12) -0.0018(10) 0.0203(9) 0.0185(11)
Cl2A 0.1027(16) 0.209(4) 0.0880(14) 0.0222(17) 0.0337(11) 0.055(2)
loop_
_atom_type_symbol
_atom_type_description
_atom_type_scat_dispersion_real
_atom_type_scat_dispersion_imag
_atom_type_scat_source
C C 0.0181 0.0091 'International Tables Vol C Tables 4.2.6.8 and 6.1.1.4'
H H 0.0000 0.0000 'International Tables Vol C Tables 4.2.6.8 and 6.1.1.4'
Cl Cl 0.3639 0.7018 'International Tables Vol C Tables 4.2.6.8 and 6.1.1.4'
Cu Cu -1.9646 0.5888 'International Tables Vol C Tables 4.2.6.8 and 6.1.1.4'
N N 0.0311 0.0180 'International Tables Vol C Tables 4.2.6.8 and 6.1.1.4'
O O 0.0492 0.0322 'International Tables Vol C Tables 4.2.6.8 and 6.1.1.4'
loop_
_geom_angle_atom_site_label_1
_geom_angle_atom_site_label_2
_geom_angle_atom_site_label_3
_geom_angle
_geom_angle_site_symmetry_1
_geom_angle_site_symmetry_3
_geom_angle_publ_flag
O4 Cu1 O4 180.0 2_777 . ?
N1 Cu1 O4 93.10(10) . . ?
N1 Cu1 O4 93.10(10) 2_777 2_777 ?
N1 Cu1 O4 86.90(10) 2_777 . ?
N1 Cu1 O4 86.90(10) . 2_777 ?
N1 Cu1 N1 180.0 2_777 . ?
N2 Cu1 O4 91.67(10) . 2_777 ?
N2 Cu1 O4 88.33(10) . . ?
N2 Cu1 O4 88.33(10) 2_777 2_777 ?
N2 Cu1 O4 91.67(10) 2_777 . ?
N2 Cu1 N1 93.57(13) . 2_777 ?
N2 Cu1 N1 86.43(13) 2_777 2_777 ?
N2 Cu1 N1 93.57(13) 2_777 . ?
N2 Cu1 N1 86.43(13) . . ?
N2 Cu1 N2 180.0(2) . 2_777 ?
C1 O1 H1 109.5 . . ?
C17 O4 Cu1 118.5(2) . . ?
Cu1 N1 H1A 107.0 . . ?
C19 N1 Cu1 105.7(2) . . ?
C19 N1 H1A 107.0 . . ?
C20 N1 Cu1 117.4(2) . . ?
C20 N1 H1A 107.0 . . ?
C20 N1 C19 112.1(3) . . ?
Cu1 N2 H2 106.6 . . ?
C18 N2 Cu1 106.2(2) . . ?
C18 N2 H2 106.6 . . ?
C18 N2 C22 112.2(3) . . ?
C22 N2 Cu1 117.9(3) . . ?
C22 N2 H2 106.6 . . ?
O1 C1 C2 112.7(3) . . ?
O2 C1 O1 124.4(3) . . ?
O2 C1 C2 122.8(3) . . ?
C3 C2 C1 121.8(3) . . ?
C3 C2 C7 118.9(3) . . ?
C7 C2 C1 119.3(3) . . ?
C2 C3 H3 119.7 . . ?
C4 C3 C2 120.6(3) . . ?
C4 C3 H3 119.7 . . ?
C3 C4 H4 119.6 . . ?
C3 C4 C5 120.7(3) . . ?
C5 C4 H4 119.6 . . ?
C4 C5 C8 120.8(3) . . ?
C6 C5 C4 118.2(3) . . ?
C6 C5 C8 120.8(3) . . ?
C5 C6 H6 119.6 . . ?
C7 C6 C5 120.9(3) . . ?
C7 C6 H6 119.6 . . ?
C2 C7 H7 119.7 . . ?
C6 C7 C2 120.7(3) . . ?
C6 C7 H7 119.7 . . ?
C9 C8 C5 117.8(3) . . ?
C9 C8 C10 118.1(3) . 2_566 ?
C10 C8 C5 123.9(3) 2_566 . ?
C8 C9 H9 118.2 . . ?
C10 C9 C8 123.7(3) . . ?
C10 C9 H9 118.2 . . ?
C8 C10 C11 124.4(3) 2_566 . ?
C9 C10 C8 118.2(3) . 2_566 ?
C9 C10 C11 117.3(3) . . ?
C12 C11 C10 120.4(3) . . ?
C16 C11 C10 121.2(3) . . ?
C16 C11 C12 118.3(3) . . ?
C11 C12 H12 119.5 . . ?
C13 C12 C11 120.9(3) . . ?
C13 C12 H12 119.5 . . ?
C12 C13 H13 119.8 . . ?
C12 C13 C14 120.4(3) . . ?
C14 C13 H13 119.8 . . ?
C13 C14 C17 119.9(3) . . ?
C15 C14 C13 119.2(3) . . ?
C15 C14 C17 120.9(3) . . ?
C14 C15 H15 119.8 . . ?
C14 C15 C16 120.4(3) . . ?
C16 C15 H15 119.8 . . ?
C11 C16 H16 119.6 . . ?
C15 C16 C11 120.8(3) . . ?
C15 C16 H16 119.6 . . ?
O3 C17 C14 116.2(3) . . ?
O4 C17 O3 125.6(3) . . ?
O4 C17 C14 118.1(3) . . ?
N2 C18 H18A 110.1 . . ?
N2 C18 H18B 110.1 . . ?
N2 C18 C19 108.1(3) . . ?
H18A C18 H18B 108.4 . . ?
C19 C18 H18A 110.1 . . ?
C19 C18 H18B 110.1 . . ?
N1 C19 C18 108.2(3) . . ?
N1 C19 H19A 110.0 . . ?
N1 C19 H19B 110.0 . . ?
C18 C19 H19A 110.0 . . ?
C18 C19 H19B 110.0 . . ?
H19A C19 H19B 108.4 . . ?
N1 C20 H20A 109.5 . . ?
N1 C20 H20B 109.5 . . ?
N1 C20 C21 110.9(3) . . ?
H20A C20 H20B 108.0 . . ?
C21 C20 H20A 109.5 . . ?
C21 C20 H20B 109.5 . . ?
C20 C21 H21A 108.6 . . ?
C20 C21 H21B 108.6 . . ?
H21A C21 H21B 107.5 . . ?
C22 C21 C20 114.8(3) 2_777 . ?
C22 C21 H21A 108.6 2_777 . ?
C22 C21 H21B 108.6 2_777 . ?
N2 C22 C21 112.2(3) . 2_777 ?
N2 C22 H22A 109.2 . . ?
N2 C22 H22B 109.2 . . ?
C21 C22 H22A 109.2 2_777 . ?
C21 C22 H22B 109.2 2_777 . ?
H22A C22 H22B 107.9 . . ?
H1AA C1A H1AB 107.5 . . ?
H1AC C1A H1AD 107.0 . . ?
Cl1A C1A H1AA 108.6 . . ?
Cl1A C1A H1AB 108.6 . . ?
Cl1A C1A Cl2A 114.8(6) . . ?
Cl2A C1A H1AA 108.6 . . ?
Cl2A C1A H1AB 108.6 . . ?
Cl1B C1A H1AC 107.5 . . ?
Cl1B C1A H1AD 107.5 . . ?
Cl2B C1A H1AC 107.5 . . ?
Cl2B C1A H1AD 107.5 . . ?
Cl2B C1A Cl1B 119.4(9) . . ?
loop_
_geom_bond_atom_site_label_1
_geom_bond_atom_site_label_2
_geom_bond_distance
_geom_bond_site_symmetry_2
_geom_bond_publ_flag
Cu1 O4 2.414(2) . ?
Cu1 O4 2.414(2) 2_777 ?
Cu1 N1 2.024(3) . ?
Cu1 N1 2.024(3) 2_777 ?
Cu1 N2 2.016(3) . ?
Cu1 N2 2.016(3) 2_777 ?
O1 H1 0.8200 . ?
O1 C1 1.322(4) . ?
O2 C1 1.208(4) . ?
O3 C17 1.276(4) . ?
O4 C17 1.238(4) . ?
N1 H1A 0.9800 . ?
N1 C19 1.480(5) . ?
N1 C20 1.474(5) . ?
N2 H2 0.9800 . ?
N2 C18 1.470(5) . ?
N2 C22 1.484(5) . ?
C1 C2 1.486(4) . ?
C2 C3 1.389(5) . ?
C2 C7 1.395(5) . ?
C3 H3 0.9300 . ?
C3 C4 1.385(5) . ?
C4 H4 0.9300 . ?
C4 C5 1.402(5) . ?
C5 C6 1.397(5) . ?
C5 C8 1.487(4) . ?
C6 H6 0.9300 . ?
C6 C7 1.380(5) . ?
C7 H7 0.9300 . ?
C8 C9 1.393(4) . ?
C8 C10 1.411(5) 2_566 ?
C9 H9 0.9300 . ?
C9 C10 1.391(5) . ?
C10 C11 1.492(4) . ?
C11 C12 1.394(5) . ?
C11 C16 1.391(5) . ?
C12 H12 0.9300 . ?
C12 C13 1.384(5) . ?
C13 H13 0.9300 . ?
C13 C14 1.388(5) . ?
C14 C15 1.385(5) . ?
C14 C17 1.519(4) . ?
C15 H15 0.9300 . ?
C15 C16 1.388(5) . ?
C16 H16 0.9300 . ?
C18 H18A 0.9700 . ?
C18 H18B 0.9700 . ?
C18 C19 1.509(6) . ?
C19 H19A 0.9700 . ?
C19 H19B 0.9700 . ?
C20 H20A 0.9700 . ?
C20 H20B 0.9700 . ?
C20 C21 1.521(6) . ?
C21 H21A 0.9700 . ?
C21 H21B 0.9700 . ?
C21 C22 1.505(7) 2_777 ?
C22 H22A 0.9700 . ?
C22 H22B 0.9700 . ?
C1A H1AA 0.9700 . ?
C1A H1AB 0.9700 . ?
C1A H1AC 0.9700 . ?
C1A H1AD 0.9700 . ?
C1A Cl1A 1.650(8) . ?
C1A Cl2A 1.777(8) . ?
C1A Cl1B 1.90(2) . ?
C1A Cl2B 1.678(11) . ?
loop_
_geom_torsion_atom_site_label_1
_geom_torsion_atom_site_label_2
_geom_torsion_atom_site_label_3
_geom_torsion_atom_site_label_4
_geom_torsion
_geom_torsion_site_symmetry_1
_geom_torsion_site_symmetry_2
_geom_torsion_site_symmetry_3
_geom_torsion_site_symmetry_4
_geom_torsion_publ_flag
Cu1 O4 C17 O3 33.6(4) . . . . ?
Cu1 O4 C17 C14 -142.9(2) . . . . ?
Cu1 N1 C19 C18 -40.8(3) . . . . ?
Cu1 N1 C20 C21 57.7(4) . . . . ?
Cu1 N2 C18 C19 -41.7(4) . . . . ?
Cu1 N2 C22 C21 54.8(4) . . . 2_777 ?
O1 C1 C2 C3 13.3(5) . . . . ?
O1 C1 C2 C7 -166.1(3) . . . . ?
O2 C1 C2 C3 -167.2(3) . . . . ?
O2 C1 C2 C7 13.4(5) . . . . ?
N1 C20 C21 C22 -70.3(5) . . . 2_777 ?
N2 C18 C19 N1 56.5(4) . . . . ?
C1 C2 C3 C4 -179.6(3) . . . . ?
C1 C2 C7 C6 178.7(3) . . . . ?
C2 C3 C4 C5 1.1(6) . . . . ?
C3 C2 C7 C6 -0.7(5) . . . . ?
C3 C4 C5 C6 -1.2(5) . . . . ?
C3 C4 C5 C8 -176.7(3) . . . . ?
C4 C5 C6 C7 0.2(5) . . . . ?
C4 C5 C8 C9 128.7(4) . . . . ?
C4 C5 C8 C10 -47.1(5) . . . 2_566 ?
C5 C6 C7 C2 0.7(5) . . . . ?
C5 C8 C9 C10 -175.3(3) . . . . ?
C6 C5 C8 C9 -46.7(5) . . . . ?
C6 C5 C8 C10 137.5(4) . . . 2_566 ?
C7 C2 C3 C4 -0.2(5) . . . . ?
C8 C5 C6 C7 175.8(3) . . . . ?
C8 C9 C10 C8 -0.8(6) . . . 2_566 ?
C8 C9 C10 C11 175.5(3) . . . . ?
C8 C10 C11 C12 -136.6(4) 2_566 . . . ?
C8 C10 C11 C16 47.6(5) 2_566 . . . ?
C9 C10 C11 C12 47.4(5) . . . . ?
C9 C10 C11 C16 -128.5(4) . . . . ?
C10 C8 C9 C10 0.8(6) 2_566 . . . ?
C10 C11 C12 C13 -174.9(3) . . . . ?
C10 C11 C16 C15 175.0(3) . . . . ?
C11 C12 C13 C14 -0.2(5) . . . . ?
C12 C11 C16 C15 -0.9(5) . . . . ?
C12 C13 C14 C15 -0.8(5) . . . . ?
C12 C13 C14 C17 177.7(3) . . . . ?
C13 C14 C15 C16 0.9(5) . . . . ?
C13 C14 C17 O3 179.1(3) . . . . ?
C13 C14 C17 O4 -4.0(5) . . . . ?
C14 C15 C16 C11 0.0(5) . . . . ?
C15 C14 C17 O3 -2.5(5) . . . . ?
C15 C14 C17 O4 174.4(3) . . . . ?
C16 C11 C12 C13 1.0(5) . . . . ?
C17 C14 C15 C16 -177.5(3) . . . . ?
C18 N2 C22 C21 178.7(3) . . . 2_777 ?
C19 N1 C20 C21 -179.5(3) . . . . ?
C20 N1 C19 C18 -170.0(3) . . . . ?
C22 N2 C18 C19 -171.9(3) . . . . ?
