#------------------------------------------------------------------------------
#$Date: 2021-06-05 21:59:48 +0300 (Sat, 05 Jun 2021) $
#$Revision: 266099 $
#$URL: file:///home/coder/svn-repositories/cod/cif/7/70/70/7707045.cif $
#------------------------------------------------------------------------------
#
# This file is available in the Crystallography Open Database (COD),
# http://www.crystallography.net/
#
# All data on this site have been placed in the public domain by the
# contributors.
#
data_7707045
loop_
_publ_author_name
'Kobayashi, Daiya'
'Hamakawa, Akira'
'Yamaguchi, Yuki'
'Takahashi, Toshiaki'
'Yanagita, Mitsuhiro'
'Arai, Shigebumi'
'Minoura, Mao'
_publ_section_title
;
 Broadened bioactivity and enhanced durability of two structurally
 distinct metal-organic frameworks containing Zn<sup>2+</sup> ions and
 thiabendazole.
;
_journal_issue                   21
_journal_name_full
'Dalton transactions (Cambridge, England : 2003)'
_journal_page_first              7176
_journal_page_last               7180
_journal_paper_doi               10.1039/d1dt00733e
_journal_volume                  50
_journal_year                    2021
_chemical_formula_sum            'C30 H18 Cl N9 S3 Zn2'
_chemical_formula_weight         766.90
_space_group_crystal_system      trigonal
_space_group_IT_number           146
_space_group_name_Hall           'R 3'
_space_group_name_H-M_alt        'R 3 :H'
_atom_sites_solution_hydrogens   geom
_atom_sites_solution_primary     direct
_atom_sites_solution_secondary   difmap
_audit_creation_method           SHELXL-2014/7
_audit_update_record
;
2020-12-22 deposited with the CCDC.	2021-03-22 downloaded from the CCDC.
;
_cell_angle_alpha                90
_cell_angle_beta                 90
_cell_angle_gamma                120
_cell_formula_units_Z            3
_cell_length_a                   10.3859(8)
_cell_length_b                   10.3859(8)
_cell_length_c                   24.7964(19)
_cell_measurement_reflns_used    9966
_cell_measurement_temperature    100(2)
_cell_measurement_theta_max      15.55
_cell_measurement_theta_min      2.27
_cell_volume                     2316.4(3)
_computing_cell_refinement       'Bruker SAINT'
_computing_data_collection       'APEX3 with Henkan-kun-R'
_computing_data_reduction        'Bruker SAINT'
_computing_molecular_graphics    'Bruker SHELXTL'
_computing_publication_material  'Bruker SHELXTL'
_computing_structure_refinement  'SHELXL-2014/7 (Sheldrick, 2014)'
_computing_structure_solution    'SHELXT-2014 (Sheldrick 2014)'
_diffrn_ambient_temperature      100(2)
_diffrn_measured_fraction_theta_full 1.000
_diffrn_measured_fraction_theta_max 1.000
_diffrn_measurement_device_type  'Dectris Pilatus CdTe1M'
_diffrn_measurement_method       'Phi scan'
_diffrn_radiation_type           synchrotron
_diffrn_radiation_wavelength     0.4118
_diffrn_reflns_av_R_equivalents  0.0364
_diffrn_reflns_av_unetI/netI     0.0219
_diffrn_reflns_Laue_measured_fraction_full 1.000
_diffrn_reflns_Laue_measured_fraction_max 1.000
_diffrn_reflns_limit_h_max       13
_diffrn_reflns_limit_h_min       -13
_diffrn_reflns_limit_k_max       13
_diffrn_reflns_limit_k_min       -13
_diffrn_reflns_limit_l_max       32
_diffrn_reflns_limit_l_min       -32
_diffrn_reflns_number            18080
_diffrn_reflns_point_group_measured_fraction_full 0.999
_diffrn_reflns_point_group_measured_fraction_max 1.000
_diffrn_reflns_theta_full        14.305
_diffrn_reflns_theta_max         15.551
_diffrn_reflns_theta_min         1.395
_diffrn_source                   'BL02B1 SPring-8'
_exptl_absorpt_coefficient_mu    0.425
_exptl_absorpt_correction_T_max  0.7439
_exptl_absorpt_correction_T_min  0.5645
_exptl_absorpt_correction_type   empirical
_exptl_absorpt_process_details   SADABS
_exptl_crystal_colour            'pale yellow'
_exptl_crystal_density_diffrn    1.649
_exptl_crystal_description       plate
_exptl_crystal_F_000             1158
_exptl_crystal_size_max          0.010
_exptl_crystal_size_mid          0.010
_exptl_crystal_size_min          0.010
_refine_diff_density_max         0.187
_refine_diff_density_min         -0.194
_refine_diff_density_rms         0.047
_refine_ls_abs_structure_details
;
 Flack x determined using 1193 quotients [(I+)-(I-)]/[(I+)+(I-)]
 (Parsons, Flack and Wagner, Acta Cryst. B69 (2013) 249-259).
;
_refine_ls_abs_structure_Flack   0.006(7)
_refine_ls_extinction_coef       0.0155(9)
_refine_ls_extinction_expression Fc^*^=kFc[1+0.001xFc^2^\l^3^/sin(2\q)]^-1/4^
_refine_ls_extinction_method     'SHELXL-2014/7 (Sheldrick 2014'
_refine_ls_goodness_of_fit_ref   1.087
_refine_ls_hydrogen_treatment    constr
_refine_ls_matrix_type           full
_refine_ls_number_parameters     137
_refine_ls_number_reflns         2399
_refine_ls_number_restraints     1
_refine_ls_restrained_S_all      1.087
_refine_ls_R_factor_all          0.0143
_refine_ls_R_factor_gt           0.0143
_refine_ls_shift/su_max          0.001
_refine_ls_shift/su_mean         0.000
_refine_ls_structure_factor_coef Fsqd
_refine_ls_weighting_details
'w=1/[\s^2^(Fo^2^)+(0.0169P)^2^+1.0048P] where P=(Fo^2^+2Fc^2^)/3'
_refine_ls_weighting_scheme      calc
_refine_ls_wR_factor_gt          0.0369
_refine_ls_wR_factor_ref         0.0369
_reflns_Friedel_coverage         0.999
_reflns_Friedel_fraction_full    0.999
_reflns_Friedel_fraction_max     0.999
_reflns_number_gt                2399
_reflns_number_total             2399
_reflns_threshold_expression     'I > 2\s(I)'
_cod_data_source_file            d1dt00733e2.cif
_cod_data_source_block           55_DK01_0m
_cod_depositor_comments
'Adding full bibliography for 7707045--7707046.cif.'
_cod_original_cell_volume        2316.4(4)
_cod_database_code               7707045
_shelx_shelxl_version_number     2014/7
_shelx_space_group_comment
;
The symmetry employed for this shelxl refinement is uniquely defined
by the following loop, which should always be used as a source of
symmetry information in preference to the above space-group names.
They are only intended as comments.
;
_shelx_estimated_absorpt_t_min   0.996
_shelx_estimated_absorpt_t_max   0.996
_shelx_res_file
;

    55_DK01_0m.res created by SHELXL-2014/7

TITL 55_DK01_0m_a.res
REM  Yadorkari-X generated
CELL 0.41180 10.3859 10.3859 24.7964 90.0000 90.0000 120.0000
ZERR 3.0 0.0008 0.0008 0.0019 0.0000 0.0000 0.0000
LATT -3
SYMM -Y, +X-Y, +Z
SYMM -X+Y, -X, +Z
REM  SPGR R3 trigonal
SFAC C H N S Zn Cl
DISP C -0.0001 0.0005 5.1
DISP H 0. 0. 0.6
DISP N 0.0004 0.001 7.2
DISP S 0.0441 0.0406 110.3
DISP Zn 0.2594 0.5335 1290.8
DISP Cl 0.055 0.0526 140.
UNIT 90 54 27 9 6 3
SIZE 0.01 0.01 0.01
TEMP -173.0
L.S. 10
FMAP 2
PLAN -10
ACTA
CONF
LIST 4
WPDB -1
BOND $H
OMIT -10.000000 55.000000

WGHT    0.016900    1.004800
EXTI    0.015460
FVAR       0.34635
ZN1   5    0.333333    0.666667    0.523416    10.33333    0.01154    0.01154 =
         0.01628    0.00000    0.00000    0.00577
N1    3    0.301675    0.477431    0.576948    11.00000    0.01598    0.01708 =
         0.01849    0.00207    0.00227    0.00810
C1    1    0.203579    0.396095    0.613089    11.00000    0.01837    0.02193 =
         0.02104    0.00499    0.00491    0.00965
AFIX  43
H1A   2    0.145094    0.428268    0.631958    11.00000   -1.20000
AFIX   0
S1    4    0.188745    0.226932    0.623762    11.00000    0.02117    0.02503 =
         0.03165    0.01592    0.01204    0.01219
C2    1    0.324030    0.267342    0.576676    11.00000    0.01877    0.02096 =
         0.02913    0.00972    0.00896    0.01184
AFIX  43
H2A   2    0.360157    0.203039    0.566385    11.00000   -1.20000
AFIX   0
C3    1    0.372065    0.405454    0.556193    11.00000    0.01199    0.01413 =
         0.01767    0.00280    0.00061    0.00536
C4    1    0.479208    0.486535    0.513303    11.00000    0.01156    0.01157 =
         0.01505    0.00137    0.00054    0.00540
N2    3    0.468713    0.595440    0.489034    11.00000    0.01445    0.01387 =
         0.01672    0.00354    0.00210    0.00726
C5    1    0.576122    0.646232    0.449641    11.00000    0.01348    0.01381 =
         0.01645    0.00183    0.00187    0.00634
C6    1    0.615843    0.758302    0.411132    11.00000    0.02494    0.01993 =
         0.02261    0.00782    0.00523    0.01397
AFIX  43
H6A   2    0.567781    0.815635    0.409550    11.00000   -1.20000
AFIX   0
C7    1    0.727608    0.782053    0.375589    11.00000    0.02483    0.01861 =
         0.02024    0.00791    0.00624    0.00988
AFIX  43
H7A   2    0.757191    0.857462    0.348981    11.00000   -1.20000
AFIX   0
C8    1    0.798644    0.697666    0.377755    11.00000    0.01681    0.02113 =
         0.01677    0.00312    0.00413    0.00762
AFIX  43
H8A   2    0.875044    0.717149    0.352489    11.00000   -1.20000
AFIX   0
C9    1    0.760642    0.587035    0.415588    11.00000    0.01627    0.01974 =
         0.01754    0.00263    0.00212    0.01046
AFIX  43
H9A   2    0.808623    0.529576    0.416619    11.00000   -1.20000
AFIX   0
C10   1    0.649073    0.562948    0.452225    11.00000    0.01391    0.01375 =
         0.01463    0.00097   -0.00079    0.00620
N3    3    0.585947    0.461197    0.494086    11.00000    0.01315    0.01391 =
         0.01399    0.00277    0.00263    0.00709
ZN2   5    0.666667    0.333333    0.521272    10.33333    0.01029    0.01029 =
         0.01096    0.00000    0.00000    0.00515
CL1   6    0.666667    0.333333    0.611156    10.33333    0.02170    0.02170 =
         0.01110    0.00000    0.00000    0.01085

HKLF 4 1 1 0 0 0 1 0 0 0 1

REM  55_DK01_0m_a.res
REM R1 =  0.0143 for    2399 Fo > 4sig(Fo)  and  0.0143 for all    2399 data
REM    137 parameters refined using      1 restraints

END

WGHT      0.0166      1.0259

REM Highest difference peak  0.187,  deepest hole -0.194,  1-sigma level  0.047
Q1    1   0.6177  0.6073  0.4522  11.00000  0.05    0.19
Q2    1   0.8009  0.7822  0.3923  11.00000  0.05    0.17
Q3    1   0.3694  0.3457  0.5747  11.00000  0.05    0.17
Q4    1   0.4284  0.4493  0.5313  11.00000  0.05    0.16
Q5    1   0.1834  0.3124  0.6175  11.00000  0.05    0.16
Q6    1   0.1322  0.0641  0.6653  11.00000  0.05    0.15
Q7    1   0.7786  0.6458  0.4004  11.00000  0.05    0.15
Q8    1   0.6551  0.7185  0.2917  11.00000  0.05    0.15
Q9    1   0.3333  0.6667  0.1823  10.33333  0.05    0.14
Q10   1   0.3333  0.6667  0.0417  10.33333  0.05    0.14
;
_shelx_res_checksum              74643
_shelx_hkl_file
;
  -2   1   0  471.65   21.80
   1  -2   0  453.55   22.50
   1  -2   0  441.26   22.10
   1   1   0  456.05   22.10
   1   1   0  433.96   22.80
   1   1   0  481.45   22.60
  -2   1   0  448.26   22.30
  -2   1   0  465.25   22.30
   2  -1   0  448.76   22.20
  -1  -1   0  458.35   22.60
   2  -1   0  439.16   21.70
  -1   2   0  444.46   22.60
   2  -1   0  452.95   22.20
  -1  -1   0  428.86   22.00
  -1  -1   0  433.06   22.50
  -1   2   0  439.16   22.20
   0  -3   0 1572.14   74.99
  -3   3   0 1444.46   75.29
  -3   3   0 1589.14   73.99
   0  -3   0 1588.94   76.09
  -3   0   0 1552.84   74.59
  -3   0   0 1554.34   74.89
  -3   0   0 1490.55   74.89
  -3   0   0 1470.75   74.49
   3  -3   0 1570.74   75.39
   3  -3   0 1489.05   73.89
   0   3   0 1536.25   74.99
  -3   0   0 1683.93   75.19
   2   2   0 3412.86  171.98
  -4   2   0 3707.93  171.68
   2  -4   0 3535.85  171.28
   2  -4   0 3628.14  171.98
  -4   2   0 3391.96  170.38
   2   2   0 3599.54  171.08
   2  -4   0 3510.95  172.28
  -4   2   0 3742.93  170.58
  -2   4   0 3664.73  171.48
  -2  -2   0 3597.54  171.08
   4  -2   0 3642.74  171.58
   4  -2   0 3427.56  171.38
  -2   4   0 3570.84  171.88
   1   4   0 3766.02  183.08
   4  -5   0 3748.53  183.28
   4  -5   0 3870.01  182.88
   4  -5   0 3573.84  181.18
  -5   1   0 3816.02  181.88
   1   4   0 3865.81  183.38
  -5   1   0 3923.91  182.88
   1   4   0 3594.44  181.98
  -1  -4   0 3952.60  182.28
   5  -1   0 3764.92  182.28
  -1  -4   0 3617.94  183.18
  -4   5   0 3717.73  182.68
  -4   5   0 3841.62  181.38
  -4   5   0 3910.31  183.38
  -1  -4   0 3860.21  183.18
   4   1   0 5722.23  279.47
   4   1   0 5930.01  279.67
   1  -5   0 6257.87  279.87
   1  -5   0 5746.92  279.57
   1  -5   0 5586.84  280.17
  -5   4   0 5438.96  279.27
  -5   4   0 5622.04  277.17
  -5   4   0 5577.84  279.57
  -1   5   0 5921.51  279.57
   5  -4   0 5409.16  279.27
  -4  -1   0 6226.58  279.77
  -1   5   0 6162.88  279.87
   5  -4   0 5741.83  277.27
  -4  -1   0 6227.08  279.97
   5  -4   0 5842.12  279.57
   3   3   0 2375.96  122.49
   3   3   0 2654.93  124.39
  -6   3   0 2409.16  121.59
  -6   3   0 2606.84  123.39
  -6   3   0 2498.75  121.69
  -6   3   0 2545.65  123.19
   3   3   0 2406.36  123.89
   3  -6   0 2545.85  122.99
   3  -6   0 2469.45  124.29
   3  -6   0 2741.33  124.09
  -3  -3   0 2555.84  122.69
  -3   6   0 2613.14  124.69
   6  -3   0 2575.24  123.19
   6  -3   0 2493.15  123.09
  -3  -3   0 2541.15  123.89
  -3  -3   0 2660.73  124.39
  -3   6   0 2488.25  123.69
  -3   6   0 2498.65  123.09
  -6   6   0 1770.72   87.89
  -6   6   0 1806.72   88.39
   0  -6   0 1859.61   87.79
  -6   6   0 1804.52   85.39
   0  -6   0 1760.62   88.09
   0  -6   0 1754.72   88.69
   6  -6   0 1767.82   88.19
  -6   0   0 1885.01   87.99
   0   6   0 1790.92   88.29
  -6   0   0 1743.83   86.69
   0   6   0 1743.03   87.39
   6  -6   0 1770.32   85.19
   0   6   0 1713.63   88.59
   6  -6   0 1780.02   87.89
  -6   0   0 1731.63   87.39
  -6   0   0 1757.12   87.59
  -6   0   0 1787.12   87.39
  -6   0   0 1728.83   86.69
   5  -7   0 2279.97  114.99
  -7   2   0 2428.76  113.89
   2   5   0 2241.88  113.19
   2   5   0 2296.07  114.99
  -7   2   0 2441.96  113.49
   2   5   0 2390.26  114.99
  -2  -5   0 2269.47  114.49
   7  -2   0 2381.56  113.49
  -2  -5   0 2336.97  115.09
  -5   7   0 2355.76  115.19
  -2  -5   0 2310.57  113.39
   7  -2   0 2266.67  113.59
  -5   7   0 2246.68  114.19
  -7   5   0 1319.77   68.29
   2  -7   0 1314.57   68.09
  -7   5   0 1332.77   68.09
   2  -7   0 1486.35   68.89
   5   2   0 1420.46   68.79
   5   2   0 1372.16   67.29
  -5  -2   0 1386.06   68.49
  -2   7   0 1362.06   69.49
   7  -5   0 1284.87   67.99
  -5  -2   0 1380.56   68.79
  -2   7   0 1352.06   68.39
  -5  -2   0 1354.26   67.09
   7  -5   0 1363.36   68.09
  -8   1   0 1227.08   64.59
  -8   1   0 1250.87   63.99
  -8   1   0 1272.37   64.39
   7  -8   0 1296.47   65.59
   7  -8   0 1334.27   66.49
  -8   1   0 1243.68   64.69
  -8   1   0 1295.87   65.29
   1   7   0 1298.47   66.19
  -8   1   0 1236.68   63.99
   1   7   0 1198.38   64.39
   1   7   0 1244.58   66.29
  -7   8   0 1293.97   65.49
  -1  -7   0 1382.16   65.19
  -1  -7   0 1321.67   66.59
  -7   8   0 1273.67   62.89
  -7   8   0 1391.16   66.49
  -1  -7   0 1284.27   65.79
   4   4   0 1865.51   95.59
  -8   4   0 1947.61   92.59
  -8   4   0 1923.71   92.59
   4   4   0 1990.40   96.09
   4   4   0 1914.51   93.99
   4  -8   0 1874.01   94.19
   4  -8   0 1876.81   95.99
  -8   4   0 1975.50   94.99
  -8   4   0 1961.30   94.79
   4  -8   0 2024.00   95.79
  -4   8   0 1862.01   94.49
  -4  -4   0 1977.30   96.09
   8  -4   0 1972.10   94.69
  -4  -4   0 1858.21   95.39
   8  -4   0 1831.22   94.49
  -4  -4   0 1869.21   93.89
  -4   8   0 1868.41   96.29
  -4   8   0 1930.91   95.39
   1  -8   0 1070.79   57.39
   1  -8   0 1116.19   56.59
   1  -8   0 1203.38   56.69
  -8   7   0 1103.59   56.69
  -8   7   0 1100.49   56.39
   8  -7   0 1060.99   56.09
  -7  -1   0 1118.99   56.59
  -1   8   0 1100.69   57.59
  -1   8   0 1132.49   56.29
  -7  -1   0 1113.79   56.19
  -7  -1   0 1100.29   56.59
   8  -7   0 1118.69   56.69
   8  -7   0 1019.60   52.49
  -7  -1   0 1118.19   55.09
  -7  -1   0 1106.99   56.19
  -7  -1   0 1114.99   54.99
  -1   8   0  934.21   56.19
   3   6   0 1617.14   85.69
  -9   3   0 1679.03   83.89
   6  -9   0 1620.94   82.79
  -9   3   0 1657.83   83.09
   6  -9   0 1721.93   85.29
   3   6   0 1573.34   83.49
  -9   3   0 1730.03   84.49
  -9   3   0 1680.03   82.79
   3   6   0 1645.34   85.59
   6  -9   0 1662.13   85.79
  -6   9   0 1708.63   83.49
  -6   9   0 1671.93   84.89
   9  -3   0 1685.53   84.19
  -3  -6   0 1770.32   85.59
   9  -3   0 1666.43   83.99
  -6   9   0 1812.02   86.49
  -3  -6   0 1776.02   86.19
  -3  -6   0 1729.73   83.99
   3  -9   0  836.22   48.50
   3  -9   0  910.51   48.10
   3  -9   0  862.71   47.30
  -9   6   0  922.11   47.90
   6   3   0  899.31   48.20
   6   3   0  889.41   46.40
  -9   6   0  901.51   47.60
   9  -6   0  884.51   47.40
  -3   9   0  932.81   48.00
  -6  -3   0  911.51   46.40
   9  -6   0  925.31   47.50
  -6  -3   0  925.71   48.60
  -3   9   0  935.91   48.00
  -6  -3   0  924.21   48.10
  -6  -3   0  956.90   48.70
  -3   9   0  981.00   49.60
  -9   9   0  729.03   40.60
   0  -9   0  730.73   41.30
   0  -9   0  785.22   40.10
  -9   0   0  762.32   39.60
   9  -9   0  769.32   40.80
  -9   0   0  753.02   39.90
  -9   0   0  728.23   40.00
  -9   0   0  666.03   38.10
   9  -9   0  674.93   36.20
  -9   0   0  715.63   38.30
   9  -9   0  741.03   36.10
   0   9   0  757.02   39.60
  -9   0   0  768.82   39.50
   8 -10   0  760.92   40.60
   2   8   0  823.82   44.70
 -10   2   0  844.92   42.40
 -10   2   0  804.82   42.40
 -10   2   0  815.02   44.80
 -10   2   0  837.82   42.60
 -10   2   0  755.12   43.70
   8 -10   0  856.41   44.40
   2   8   0  784.42   42.70
 -10   2   0  819.72   42.80
  -2  -8   0  802.62   45.00
  -8  10   0  801.32   43.80
  -2  -8   0  814.52   44.30
  -2  -8   0  851.01   43.30
  -8  10   0  832.52   44.90
 -10   5   0  921.21   47.70
   5 -10   0  904.61   47.10
 -10   5   0  855.81   44.80
 -10   5   0  960.80   48.30
   5   5   0  878.01   46.80
 -10   5   0  894.61   44.90
   5   5   0  883.01   49.00
  -5  10   0  910.41   47.70
  10  -5   0  900.31   47.50
  -5  -5   0  920.21   49.20
  -5  10   0  981.60   50.19
  -5  -5   0  943.01   48.90
  10  -5   0  916.91   47.60
 -10   8   0 2028.40  102.59
   2 -10   0 1974.50  103.49
   2 -10   0 2048.70  102.39
   2 -10   0 2058.49  102.59
  10  -8   0 1996.80  102.19
  -8  -2   0 1989.40  100.39
  -2  10   0 2080.89  102.99
  -8  -2   0 2049.59  102.89
  10  -8   0 2065.99  102.39
  -2  10   0 2066.49  104.09
  -8  -2   0 2108.19  102.39
  -8  -2   0 2032.40  102.79
 -11   1   0  657.43   35.40
 -11   1   0  664.33   36.00
  10 -11   0  703.43   37.70
 -11   1   0  636.34   35.30
 -11   1   0  650.33   36.40
   1  10   0  667.33   38.70
 -11   1   0  658.33   36.40
   1  10   0  660.63   36.40
  10 -11   0  709.53   38.40
 -11   1   0  620.84   36.80
 -10  11   0  664.23   37.30
 -10  11   0  637.54   37.80
  -1 -10   0  633.94   38.40
  -1 -10   0  650.73   37.50
   7 -11   0  962.80   51.39
   4   7   0  993.90   54.79
   4   7   0  978.60   52.19
 -11   4   0 1032.00   52.79
 -11   4   0  984.90   51.29
   7 -11   0 1028.10   54.99
 -11   4   0  997.40   50.99
   7 -11   0 1083.69   54.49
 -11   4   0 1083.89   53.59
  -4  -7   0 1051.79   52.79
  11  -4   0 1008.20   52.69
  -7  11   0  980.10   52.09
  -4  -7   0 1028.90   54.29
  -4  -7   0 1020.70   54.89
  11  -4   0  972.80   52.79
  -7  11   0 1034.50   55.29
   4 -11   0  711.23   37.70
   4 -11   0  682.23   38.40
   4 -11   0  715.63   36.90
   7   4   0  714.23   35.90
   7   4   0  693.83   38.00
  -7  -4   0  612.74   39.30
  -4  11   0  654.13   37.00
  11  -7   0  612.14   36.20
  11  -7   0  617.34   36.20
  -7  -4   0  639.44   35.30
  -7  -4   0  615.34   37.40
  -4  11   0  683.13   37.20
  -7  -4   0  688.33   38.20
  -4  11   0  710.23   39.20
 -11  10   0  866.61   44.90
   1 -11   0  859.01   45.00
   1 -11   0  821.02   46.00
   1 -11   0  864.11   44.70
 -10  -1   0  794.22   43.90
 -10  -1   0  779.62   42.30
 -10  -1   0  739.43   46.10
 -10  -1   0  852.41   44.20
 -10  -1   0  702.23   46.20
  11 -10   0  834.52   44.60
  -1  11   0  820.62   45.20
  -1  11   0  800.82   46.00
  -1  11   0  789.52   43.90
  11 -10   0  816.12   44.90
 -12   3   0  549.35   32.50
 -12   3   0  565.54   31.30
   9 -12   0  484.85   29.70
 -12   3   0  563.34   32.90
   9 -12   0  627.14   34.30
   9 -12   0  591.04   34.80
   3   9   0  545.95   34.40
   9 -12   0  538.05   30.80
 -12   3   0  558.34   31.90
 -12   3   0  580.14   32.00
 -12   3   0  531.65   31.50
  -9  12   0  625.44   35.10
  -3  -9   0  629.34   34.50
  -3  -9   0  622.24   33.00
  -3  -9   0  626.24   35.40
  -9  12   0  643.04   34.10
   6   6   0  504.25   30.30
 -12   6   0  465.25   24.90
   6   6   0  521.95   28.10
 -12   6   0  422.06   24.80
   6 -12   0  539.25   30.10
   6 -12   0  506.85   28.00
 -12   6   0  517.65   29.30
   6 -12   0  495.65   30.50
  -6  -6   0  493.65   29.60
  -6  -6   0  516.75   30.60
  -6  12   0  487.55   28.40
  -6  -6   0  505.05   30.30
  -6  12   0  495.15   29.20
  12  -6   0  484.15   28.30
  -6  12   0  497.75   30.90
  -6  -6   0  496.85   27.70
 -12   9   0  692.53   39.20
   3 -12   0  691.33   39.10
  -3  12   0  722.53   39.40
  -9  -3   0  643.24   39.50
  -9  -3   0  715.23   39.50
  -9  -3   0  710.93   40.20
  12  -9   0  718.33   39.10
  -9  -3   0  684.23   37.30
  -3  12   0  718.43   41.30
  -3  12   0  714.73   39.80
   8 -13   0  328.57   22.80
 -13   5   0  304.87   18.70
   8 -13   0  303.57   19.30
   5   8   0  328.07   20.50
 -13   5   0  345.57   21.60
   8 -13   0  370.36   22.80
 -13   5   0  314.87   20.80
 -13   5   0  334.97   18.70
   5   8   0  316.37   22.60
  -5  -8   0  345.97   22.50
  -8  13   0  354.26   22.20
  -5  -8   0  334.17   22.90
  -5  -8   0  333.37   20.70
  -5  -8   0  362.26   23.60
  -8  13   0  365.66   23.80
   8   5   0  866.71   45.50
   5 -13   0  849.91   48.50
   5 -13   0  825.42   46.10
   5 -13   0  934.01   48.10
   8   5   0  796.22   47.60
 -13   8   0  809.12   46.40
  13  -8   0  840.92   46.30
  -5  13   0  912.81   49.60
  13  -8   0  794.22   46.10
  -8  -5   0  844.82   45.10
  -8  -5   0  901.81   48.80
  -8  -5   0  826.32   48.40
  -5  13   0  902.91   47.50
  -8  -5   0  896.91   47.80
   0   1  -1 2030.70  101.89
   1  -1  -1 2149.69  101.69
  -1   0  -1 2250.77  101.59
   0   1  -1 2193.18  101.59
   0   1  -1 2462.55  101.89
  -1   0  -1 2339.67  101.79
  -1   1   1 1957.70  101.69
   0  -1   1 2251.67  101.59
  -1   1   1 1822.02  101.79
   1   0   1 2139.49  101.79
   1   0   1 2270.57  101.59
   0  -1   1 1925.31  101.89
   1   0   1 1871.31  101.59
  -1   3  -1 1276.07   67.99
  -1   3  -1 1388.26   67.69
   3  -2  -1 1333.57   67.69
  -2  -1  -1 1389.66   67.99
  -2  -1  -1 1498.65   67.89
  -2  -1  -1 1336.67   67.79
  -2  -1  -1 1378.26   67.39
  -1   3  -1 1304.17   67.59
   3  -2  -1 1324.17   67.49
   1  -3   1 1502.25   67.89
  -3   2   1 1395.76   67.79
   1  -3   1 1312.67   67.99
   1  -3   1 1483.75   67.69
   2   1   1 1509.75   67.89
   2   1   1 1482.45   67.49
  -3   2   1 1376.86   67.49
   0  -2  -1  910.31   47.20
  -2   2  -1  884.91   47.00
  -2   2  -1  930.11   46.30
   0  -2  -1  901.31   47.10
  -2   2  -1  963.30   47.10
   0  -2  -1  927.11   46.90
   2   0  -1  946.61   46.80
  -2   0   1  991.90   46.50
   2  -2   1 1026.60   46.30
   0   2   1  970.40   47.30
  -2   0   1  989.50   47.10
  -2   0   1 1008.30   47.10
   0   2   1  973.30   47.00
  -2   0   1  962.50   46.50
   2  -2   1 1036.10   47.20
  -2   0   1  999.30   46.90
   0   2   1  988.80   47.20
  -3  -2  -1  829.22   40.80
   5  -3  -1  818.52   40.10
   5  -3  -1  778.82   40.30
  -2   5  -1  798.72   40.50
  -2   5  -1  775.72   40.20
  -2   5  -1  789.02   41.10
  -3  -2  -1  796.32   40.70
  -5   3   1  801.62   38.50
   2  -5   1  735.23   40.80
  -5   3   1  795.62   40.50
   2  -5   1  793.52   40.10
  -5   3   1  811.62   38.40
   2  -5   1  854.01   40.80
  -5   3   1  787.12   40.10
   3   2   1  825.22   40.80
  -3   1  -1 2704.83  125.89
   2  -3  -1 2406.06  125.69
   2  -3  -1 2498.55  126.79
   1   2  -1 2526.25  125.79
   1   2  -1 2636.44  126.79
  -3   1  -1 2621.54  126.19
  -3   1  -1 2678.13  125.99
   3  -1   1 2692.93  125.99
  -1  -2   1 2693.33  125.89
   3  -1   1 2665.63  126.19
  -2   3   1 2552.34  126.79
  -2   3   1 2563.14  126.49
  -2   3   1 2499.95  125.79
   3  -1   1 2760.02  125.89
  -1  -2   1 2701.83  126.59
  -1  -2   1 2823.62  126.99
  -3   4  -1 1595.44   77.49
   4  -1  -1 1617.14   77.79
  -1  -3  -1 1508.45   78.59
  -3   4  -1 1524.95   78.39
   4  -1  -1 1509.85   77.49
   3  -4   1 1670.63   78.99
   3  -4   1 1571.94   77.39
  -4   1   1 1659.63   77.59
   1   3   1 1643.24   78.79
   3  -4   1 1618.04   78.49
  -4   1   1 1740.03   77.89
  -4  -3  -1  479.75   27.80
  -3   7  -1  507.05   28.50
  -4  -3  -1  507.15   26.60
   7  -4  -1  462.65   26.80
  -3   7  -1  474.05   27.50
   7  -4  -1  478.25   27.10
  -3   7  -1  505.05   27.30
  -4  -3  -1  496.25   27.80
   3  -7   1  546.15   28.00
   3  -7   1  492.75   28.20
  -7   4   1  548.05   27.80
   4   3   1  538.55   26.90
  -7   4   1  499.65   24.90
  -7   4   1  530.05   24.90
   3  -7   1  523.25   27.10
  -7   4   1  529.25   27.30
   4   3   1  536.05   28.20
   0   4  -1  372.66   20.30
   4  -4  -1  391.86   20.50
  -4   0  -1  361.26   19.60
   4  -4  -1  402.36   20.20
  -4   0  -1  383.16   19.50
   0   4  -1  372.46   19.80
   4  -4  -1  380.06   18.40
  -4   4   1  370.96   20.40
   0  -4   1  363.76   20.10
  -4   4   1  355.86   19.90
   0  -4   1  367.06   20.50
  -4   3  -1  340.17   16.40
  -4   3  -1  315.07   17.70
   1  -4  -1  344.27   18.00
   1  -4  -1  314.57   18.30
  -4   3  -1  318.77   17.80
   3   1  -1  317.67   17.00
  -1   4   1  389.46   19.70
  -1   4   1  355.86   18.10
   4  -3   1  291.17   18.00
  -3  -1   1  346.77   17.10
   4  -3   1  351.16   16.50
  -2  -4  -1 2661.83  129.89
  -4   6  -1 2791.62  130.19
   6  -2  -1 2696.83  128.49
  -2  -4  -1 2657.33  129.69
   6  -2  -1 2640.94  128.99
  -2  -4  -1 2695.23  128.59
   2   4   1 2523.85  129.69
  -6   2   1 2678.23  127.79
   2   4   1 2409.26  128.29
  -6   2   1 2668.63  127.99
  -6   2   1 2774.92  128.59
  -6   2   1 2723.23  129.09
   4  -6   1 2493.85  129.69
   4  -6   1 2753.02  129.49
  -5  -4  -1  757.62   39.10
  -4   9  -1  754.52   41.60
  -4   9  -1  750.72   40.40
  -5  -4  -1  765.72   41.20
  -4   9  -1  732.13   39.80
  -5  -4  -1  758.82   40.70
   9  -5  -1  711.33   39.60
   9  -5  -1  746.03   39.60
  -5  -4  -1  728.23   40.80
  -9   5   1  742.63   39.70
   4  -9   1  758.22   41.30
   5   4   1  754.72   41.00
  -9   5   1  714.93   36.70
   5   4   1  772.82   39.30
  -9   5   1  786.62   40.50
   4  -9   1  848.72   41.20
   4  -9   1  760.22   39.60
  -9   5   1  764.82   36.70
  -5  -1  -1  347.47   19.20
  -1   6  -1  335.77   19.80
  -1   6  -1  318.67   18.80
  -5  -1  -1  317.07   18.10
   6  -5  -1  321.67   18.80
   6  -5  -1  312.17   19.00
  -5  -1  -1  315.77   19.10
  -1   6  -1  326.17   19.30
  -5  -1  -1  328.67   19.00
   1  -6   1  356.26   19.30
  -6   5   1  349.47   19.50
   5   1   1  365.76   19.10
   1  -6   1  393.46   19.50
   1  -6   1  354.06   20.00
   5   1   1  342.27   18.20
  -6   5   1  338.27   19.00
   3  -5  -1 1910.21   96.99
   3  -5  -1 1926.81   95.49
   3  -5  -1 1933.31   96.49
   2   3  -1 1881.41   96.69
   2   3  -1 2020.50   97.09
  -5   2  -1 1959.70   95.99
  -5   2  -1 2066.69   95.39
  -2  -3   1 2004.30   97.09
  -3   5   1 2055.49   97.29
  -2  -3   1 2000.40   96.69
   5  -2   1 2065.69   96.19
  -3   5   1 1920.31   96.39
  -3   5   1 1922.41   95.59
   0  -5  -1  198.88   12.20
  -5   5  -1  198.48    9.90
  -5   5  -1  195.78   11.90
   0  -5  -1  197.28   11.40
   0  -5  -1  192.98   11.80
  -5   5  -1  197.98   11.60
   5   0  -1  192.08   11.20
   5  -5   1  184.78   11.70
  -5   0   1  175.88   11.20
   5  -5   1  180.08    9.70
   5  -5   1  178.28   11.40
   0   5   1  176.88   11.90
  -5   0   1  188.48   11.60
   0   5   1  179.88   11.70
   0   5   1  177.48   11.10
  -5   0   1  176.28   11.00
   8  -3  -1  471.05   24.70
  -3  -5  -1  455.45   25.90
   8  -3  -1  450.35   25.00
  -3  -5  -1  441.36   24.60
  -5   8  -1  476.75   26.60
  -5   8  -1  458.95   24.50
  -3  -5  -1  466.05   26.30
  -5   8  -1  429.86   25.30
  -8   3   1  457.45   23.60
   5  -8   1  443.66   24.00
   5  -8   1  476.95   25.80
   3   5   1  469.75   26.30
  -8   3   1  454.45   24.70
   5  -8   1  446.76   26.20
   3   5   1  423.26   24.40
  -8   3   1  456.45   25.30
  11  -6  -1  762.72   41.30
  -6  -5  -1  800.42   40.90
  -5  11  -1  793.52   42.30
  -6  -5  -1  730.73   42.90
  -6  -5  -1  794.82   42.70
  11  -6  -1  739.83   41.40
  -5  11  -1  828.32   44.20
  -6  -5  -1  789.62   43.40
  -5  11  -1  806.52   42.00
   5 -11   1  747.33   41.00
 -11   6   1  777.42   42.20
   5 -11   1  742.73   43.10
 -11   6   1  704.33   37.40
 -11   6   1  786.72   41.70
   5 -11   1  816.92   42.80
   6   5   1  751.22   42.80
   6   5   1  801.92   41.10
  -6  -2  -1  660.83   37.00
   8  -6  -1  652.93   36.60
  -2   8  -1  676.63   37.00
   8  -6  -1  652.33   36.40
  -2   8  -1  689.03   36.80
  -6  -2  -1  664.73   35.60
  -2   8  -1  665.13   37.80
  -6  -2  -1  676.83   37.30
  -6  -2  -1  657.73   36.80
   6   2   1  695.73   37.00
   6   2   1  712.93   35.80
  -8   6   1  746.53   37.50
   2  -8   1  772.02   37.40
   2  -8   1  726.23   37.00
  -8   6   1  714.33   36.70
   2  -8   1  694.13   37.90
  -6   1  -1  365.36   20.20
  -6   1  -1  363.36   20.00
  -6   1  -1  368.26   20.20
   5  -6  -1  384.56   21.60
  -6   1  -1  355.86   20.00
   5  -6  -1  368.46   20.80
   5  -6  -1  377.56   19.00
   1   5  -1  376.66   21.60
  -6   1  -1  373.26   20.40
   1   5  -1  366.46   21.20
   1   5  -1  349.57   20.00
  -1  -5   1  382.06   21.60
  -5   6   1  375.46   19.20
  -5   6   1  395.06   21.60
  -1  -5   1  385.06   20.40
  -1  -5   1  378.86   21.10
  -5   6   1  383.16   20.90
   2  -6  -1  215.78   13.90
  -6   4  -1  223.88   13.90
  -6   4  -1  219.58   14.00
  -6   4  -1  217.68   12.00
   2  -6  -1  249.48   14.50
   4   2  -1  228.68   14.40
   4   2  -1  246.88   14.70
  -4  -2   1  253.57   14.50
   6  -4   1  241.68   14.00
   6  -4   1  243.18   12.30
  -4  -2   1  285.27   15.20
   6  -4   1  266.07   14.40
  -2   6   1  259.17   15.40
  -2   6   1  250.27   14.40
  -2   6   1  249.88   14.50
  -6   7  -1  301.67   18.40
  -6   7  -1  292.67   17.80
  -1  -6  -1  306.87   17.50
  -1  -6  -1  301.77   18.20
  -6   7  -1  294.07   16.10
  -1  -6  -1  292.87   18.50
   1   6   1  289.97   17.20
  -7   1   1  305.67   16.80
  -7   1   1  310.47   17.90
   6  -7   1  308.97   18.10
   6  -7   1  315.97   18.60
  -7   1   1  309.07   17.30
   1   6   1  307.07   18.40
  -7   1   1  310.27   17.10
  -7   1   1  317.37   17.70
  -7   1   1  316.37   16.90
   6  -7   1  280.67   15.70
   1   6   1  293.27   18.50
  10  -4  -1   70.49    6.70
  10  -4  -1   67.29    6.40
  -4  -6  -1   68.69    7.50
  -4  -6  -1   74.59    6.50
  -6  10  -1   77.89    8.00
  -6  10  -1   73.69    6.50
 -10   4   1   75.99    6.70
   6 -10   1   81.49    8.10
 -10   4   1   84.29    7.40
   4   6   1   79.99    6.60
   4   6   1   75.09    7.70
  -7  -6  -1   42.80    6.60
  -6  13  -1   41.80    6.70
  -6  13  -1   41.00    5.80
  13  -7  -1   36.50    5.10
  -7  -6  -1   40.80    5.00
  13  -7  -1   38.20    5.30
  -7  -6  -1   36.30    6.00
  -7  -6  -1   40.60    6.00
   7   6   1   50.19    5.60
   6 -13   1   47.70    6.90
   6 -13   1   46.30    5.40
   7   6   1   45.10    6.50
   6 -13   1   50.69    6.50
 -13   7   1   47.00    5.80
  -7  -3  -1  217.28   15.10
  -7  -3  -1  217.08   14.60
  10  -7  -1  200.58   14.00
  -3  10  -1  215.98   14.50
  10  -7  -1  213.78   14.00
  -7  -3  -1  209.08   14.70
  -7  -3  -1  211.38   13.10
   7   3   1  206.68   14.50
   3 -10   1  191.48   14.90
   3 -10   1  196.58   13.80
   7   3   1  200.88   13.10
   3 -10   1  219.48   14.60
 -10   7   1  206.18   14.50
 -10   7   1  198.48   13.90
   0   7  -1 1222.28   60.89
   0   7  -1 1140.39   61.09
  -7   0  -1 1230.98   60.19
   7  -7  -1 1216.68   60.79
   7  -7  -1 1142.09   57.19
  -7   0  -1 1197.98   59.59
   0   7  -1 1155.98   59.59
   7  -7  -1 1193.58   60.29
   7  -7  -1 1175.38   56.99
  -7   0  -1 1181.98   59.09
  -7   0  -1 1179.98   59.69
  -7   0  -1 1153.48   59.89
  -7   0  -1 1179.08   58.99
   0  -7   1 1130.89   60.99
  -7   7   1 1207.48   60.89
   0  -7   1 1246.48   60.09
   0  -7   1 1186.28   60.49
  -7   7   1 1139.39   59.99
   3   4  -1 1203.38   60.49
  -7   3  -1 1181.48   57.89
   4  -7  -1 1162.78   58.59
   4  -7  -1 1160.48   60.49
   3   4  -1 1134.89   58.39
  -7   3  -1 1196.98   59.19
   3   4  -1 1145.69   59.99
  -7   3  -1 1172.38   59.09
   4  -7  -1 1179.08   59.89
  -7   3  -1 1155.78   57.69
  -3  -4   1 1193.88   58.49
   7  -3   1 1211.08   59.19
  -3  -4   1 1157.88   59.89
  -4   7   1 1170.68   58.79
   7  -3   1 1179.78   58.99
  -3  -4   1 1217.18   60.59
  -4   7   1 1248.58   60.89
   1  -7  -1 1265.17   64.89
   1  -7  -1 1247.18   63.99
  -7   6  -1 1248.28   60.99
  -7   6  -1 1206.08   63.89
  -7   6  -1 1264.27   63.89
   7  -6   1 1260.97   63.89
  -6  -1   1 1277.87   64.29
   7  -6   1 1245.98   63.99
  -1   7   1 1279.17   65.09
  -1   7   1 1297.77   63.99
   7  -6   1 1236.58   60.99
  -6  -1   1 1282.07   62.59
  -1   7   1 1305.47   64.49
  -6  -1   1 1333.67   63.89
  -7   9  -1   11.30    3.50
  -2  -7  -1    9.40    2.50
  -7   9  -1   10.40    3.00
  -7   9  -1   13.40    2.70
  -2  -7  -1    9.90    3.20
  -2  -7  -1   11.30    3.20
   7  -9   1   14.70    3.80
  -9   2   1   17.90    2.60
  -9   2   1   16.20    2.60
   7  -9   1   19.30    4.10
   2   7   1   20.70    4.70
  -9   2   1   17.70    2.80
   7  -9   1   15.10    2.00
   2   7   1   16.90    2.80
  -9   2   1   19.20    3.20
  12  -5  -1  251.67   16.90
  -5  -7  -1  284.47   19.40
  -7  12  -1  266.87   17.00
  -5  -7  -1  276.87   17.10
  -7  12  -1  274.77   19.40
  -5  -7  -1  277.47   18.60
  -7  12  -1  264.07   18.10
  12  -5  -1  252.17   17.20
  -5  -7  -1  258.47   18.80
 -12   5   1  287.87   18.20
 -12   5   1  231.38   15.20
   7 -12   1  294.97   18.80
 -12   5   1  251.37   15.10
   7 -12   1  272.57   16.40
   5   7   1  281.37   17.10
 -12   5   1  261.07   17.10
   5   7   1  262.07   18.90
   7 -12   1  281.87   19.30
  12  -8  -1  307.57   19.60
  -8  -4  -1  309.67   21.10
  -4  12  -1  312.67   21.70
  -8  -4  -1  303.47   18.50
  -8  -4  -1  294.07   20.70
  -4  12  -1  313.17   20.20
  -8  -4  -1  315.97   20.50
   4 -12   1  321.07   20.60
   4 -12   1  303.67   21.20
   8   4   1  320.57   19.00
 -12   8   1  297.97   19.70
  -8  -1  -1  291.87   18.10
  -8  -1  -1  282.17   17.30
  -8  -1  -1  296.87   18.50
  -8  -1  -1  292.87   18.50
  -8  -1  -1  297.87   18.10
  -1   9  -1  292.67   18.10
  -1   9  -1  287.97   18.80
   9  -8  -1  299.17   18.30
   9  -8  -1  305.77   18.90
   1  -9   1  280.57   18.30
   1  -9   1  293.27   18.20
  -9   8   1  293.77   18.80
  -9   8   1  289.07   18.30
   6  -8  -1    4.70    2.00
  -8   2  -1    5.20    1.70
  -8   2  -1    4.90    1.50
   2   6  -1    4.50    2.10
  -8   2  -1    5.00    1.70
   2   6  -1    4.10    1.90
   2   6  -1    5.30    1.80
   6  -8  -1    6.10    2.60
  -8   2  -1    7.70    2.10
  -6   8   1    8.80    2.70
  -2  -6   1    8.00    2.70
   8  -2   1    8.30    2.20
  -2  -6   1    8.60    2.20
  -6   8   1    8.30    2.40
   8  -2   1   10.30    2.40
  -8   5  -1  472.25   26.40
   3  -8  -1  473.95   27.60
  -8   5  -1  504.05   26.70
   3  -8  -1  492.25   26.40
   3  -8  -1  533.25   27.40
  -8   5  -1  461.45   23.60
   5   3  -1  483.65   25.50
   5   3  -1  494.95   27.20
   5   3  -1  499.65   27.40
  -8   5  -1  464.05   23.70
  -3   8   1  491.15   26.90
   8  -5   1  444.96   26.10
  -5  -3   1  481.75   26.90
  -5  -3   1  474.35   25.30
   8  -5   1  451.25   26.00
  -3   8   1  506.55   28.10
  -3   8   1  483.15   26.60
  -5  -3   1  466.85   27.20
  -8   8  -1  548.25   27.90
   0  -8  -1  550.14   30.70
   0  -8  -1  540.35   31.10
   0  -8  -1  536.55   31.80
  -8   8  -1  533.25   30.90
  -8   8  -1  551.24   31.30
   0   8   1  566.84   30.60
  -8   0   1  572.94   30.70
   0   8   1  545.55   31.90
  -8   0   1  573.74   31.20
  -8   0   1  537.85   30.50
  -8   0   1  562.04   29.40
   8  -8   1  558.64   27.70
  -8   0   1  598.64   30.60
   8  -8   1  565.04   31.00
   0   8   1  579.64   31.70
   8  -8   1  588.84   31.50
  -8   0   1  538.65   30.10
  -3  -8  -1  322.17   21.30
  -8  11  -1  327.97   20.40
  -3  -8  -1  345.97   21.70
  -8  11  -1  325.67   21.30
  -8  11  -1  316.57   18.40
   8 -11   1  289.07   17.50
 -11   3   1  309.17   19.00
   8 -11   1  333.77   21.40
   3   8   1  304.77   19.10
 -11   3   1  302.17   18.60
 -11   3   1  322.47   18.40
 -11   3   1  320.77   19.90
   3   8   1  316.97   21.20
  -9  -2  -1    2.60    1.50
  -2  11  -1    3.90    2.00
  -9  -2  -1    2.00    1.50
  -2  11  -1    2.50    2.10
  -9  -2  -1    1.20    1.70
  -9  -2  -1    3.20    2.00
  11  -9  -1    2.10    1.50
  -2  11  -1    5.00    2.70
   2 -11   1    3.50    2.40
   2 -11   1    3.90    2.10
 -11   9   1    2.70    1.90
   2 -11   1    3.80    2.20
   8  -9  -1  996.30   45.20
  -9   1  -1  847.52   45.30
  -9   1  -1  815.82   44.90
   8  -9  -1  899.71   45.80
  -9   1  -1  772.82   43.80
  -9   1  -1  829.12   44.50
   1   8  -1  822.82   44.40
   1   8  -1  801.42   46.30
  -9   1  -1  836.52   44.10
  -9   1  -1  835.52   44.90
   8  -9  -1  915.21   46.70
   8  -9  -1  771.72   41.90
  -1  -8   1  852.61   45.80
  -8   9   1  887.91   46.40
  -1  -8   1  933.11   45.20
  -9   4  -1  194.98   12.60
   4   5  -1  188.18   13.40
   5  -9  -1  216.08   13.70
   4   5  -1  197.18   13.80
   5  -9  -1  190.08   11.90
  -9   4  -1  182.68   10.80
   4   5  -1  188.08   11.80
   5  -9  -1  190.58   13.80
  -9   4  -1  198.08   12.70
  -5   9   1  186.68   12.20
   9  -4   1  192.28   12.50
  -5   9   1  204.38   14.30
  -4  -5   1  183.68   11.80
  -4  -5   1  186.18   13.60
  -5   9   1  187.48   13.00
   9  -4   1  175.08   12.10
  -4  -5   1  177.88   13.00
  -9   7  -1  218.78   14.80
   2  -9  -1  218.78   15.70
   2  -9  -1  224.98   14.90
   7   2  -1  234.78   15.10
   2  -9  -1  234.28   15.10
  -9   7  -1  230.08   15.00
   7   2  -1  207.28   13.20
   9  -7   1  231.28   14.80
  -7  -2   1  232.68   15.50
  -2   9   1  229.18   15.20
  -7  -2   1  245.58   15.10
  -2   9   1  230.88   15.00
  -7  -2   1  224.38   13.40
   9  -7   1  224.58   14.70
  -9  10  -1  620.84   34.70
  -9  10  -1  603.84   35.10
  -1  -9  -1  617.84   35.00
  -1  -9  -1  650.33   34.40
  -1  -9  -1  618.84   35.80
   1   9   1  640.74   34.00
 -10   1   1  599.74   32.80
 -10   1   1  640.14   33.60
   9 -10   1  636.94   34.90
 -10   1   1  615.34   34.00
 -10   1   1  600.24   34.50
   1   9   1  612.74   35.80
 -10   1   1  564.14   32.60
 -10   1   1  605.74   33.80
  -4  -9  -1   73.59    8.90
  -9  13  -1   76.29    9.00
  -4  -9  -1   79.29    9.20
  -4  -9  -1   72.59    7.50
  -4  -9  -1   73.99    8.50
  -9  13  -1   76.19    8.20
   9 -13   1   87.29    8.90
 -13   4   1   75.39    6.40
 -13   4   1   71.39    6.60
   4   9   1   76.39    8.90
   9 -13   1   80.99    9.00
   9 -13   1   66.29    6.00
   4   9   1   77.59    7.50
  10 -10  -1   18.20    1.60
  10 -10  -1   19.70    4.40
 -10   0  -1   18.70    4.20
 -10   0  -1   20.60    3.80
 -10   0  -1   17.00    3.00
   0  10  -1   19.30    4.60
 -10   0  -1   18.90    3.40
 -10   0  -1   19.00    3.90
  10 -10  -1   16.60    1.60
   0  10  -1   19.40    5.10
  10 -10  -1   20.70    4.80
 -10   0  -1   18.40    3.00
   0 -10   1   20.90    5.10
 -10  10   1   23.10    3.90
   0 -10   1   25.50    5.30
 -10   3  -1  327.37   19.50
   3   7  -1  318.67   19.10
   7 -10  -1  308.37   18.20
   3   7  -1  269.77   22.00
 -10   3  -1  323.17   18.90
 -10   3  -1  327.37   18.60
  10  -3   1  343.97   19.70
  -7  10   1  364.76   22.00
  10  -3   1  334.87   19.70
  -7  10   1  352.76   20.80
  -3  -7   1  367.76   19.90
 -10   6  -1  112.39    6.90
   4 -10  -1  132.79    9.90
   6   4  -1  124.89   10.70
 -10   6  -1  127.79   10.10
 -10   6  -1  128.99    7.20
 -10   6  -1  130.09   10.10
  -6  -4   1  151.98    9.50
  10  -6   1  137.89   10.00
  -4  10   1  145.79   10.50
  -6  -4   1  152.68   11.00
  -6  -4   1  139.39   11.10
  10  -6   1  141.39   10.20
   1 -10  -1    5.70    2.70
 -10   9  -1    5.40    2.50
 -10   9  -1    5.90    2.50
  -9  -1   1    2.60    1.70
  -9  -1   1    2.30    1.70
  10  -9   1    2.20    0.50
  -1  10   1    2.50    2.10
  10  -9   1    2.40    1.80
  -9  -1   1    2.20    1.20
  10  -9   1    2.20    0.50
  -9  -1   1    1.90    1.70
  -9  -1   1    2.40    2.00
  10  -9   1    2.90    2.10
  -9  -1   1    1.80    1.30
  -2 -10  -1  226.98   17.40
  -2 -10  -1  243.08   16.00
 -10  12  -1  234.48   17.10
  -2 -10  -1  230.28   16.60
 -10  12  -1  223.78   16.20
  -2 -10  -1  248.78   17.90
 -12   2   1  210.88   14.40
  10 -12   1  198.18   12.60
   2  10   1  205.68   15.30
   2  10   1  204.98   16.80
  10 -12   1  232.78   17.20
 -12   2   1  209.18   14.90
  10 -12   1  237.98   16.60
 -12   2   1  237.38   14.90
 -12   2   1  219.48   14.50
  12 -11  -1  237.78   17.20
 -11  -1  -1  232.38   16.30
  -1  12  -1  237.88   17.40
 -11  -1  -1  212.28   14.70
  -1  12  -1  239.48   16.40
  12 -11  -1  234.48   16.70
 -11  -1  -1  200.98   16.20
  -1  12  -1  227.88   18.00
 -11  -1  -1  221.88   16.60
 -11  -1  -1  201.88   14.70
   1 -12   1  243.78   18.20
   1 -12   1  251.07   16.80
 -12  11   1  244.68   17.50
   1 -12   1  253.77   17.20
   9 -11  -1  168.48   11.10
   2   9  -1  187.98   14.40
   9 -11  -1  162.08   10.50
 -11   2  -1  184.28   12.90
   9 -11  -1  191.48   14.70
   2   9  -1  170.98   14.30
   2   9  -1  178.28   12.70
 -11   2  -1  188.18   12.70
 -11   2  -1  165.98   12.20
 -11   2  -1  168.48   13.10
 -11   2  -1  187.58   12.50
 -11   2  -1  178.08   12.80
   9 -11  -1  193.08   14.10
  -2  -9   1  196.18   15.00
  -9  11   1  196.58   13.90
  -2  -9   1  205.98   14.50
  -2  -9   1  215.08   13.60
  -9  11   1  212.48   15.10
   6 -11  -1  108.09    9.40
 -11   5  -1   97.69    8.60
 -11   5  -1   98.29    8.50
   5   6  -1   99.49    7.90
   6 -11  -1   96.89    9.60
   5   6  -1   99.99    9.30
   6 -11  -1   98.29    7.90
  -5  -6   1   99.29    9.70
  -5  -6   1   98.89    9.10
  11  -5   1   95.89    8.30
  -6  11   1  105.69   10.10
  -6  11   1  100.49    9.00
  -5  -6   1  100.69    7.90
 -11   8  -1  103.49    9.00
   3 -11  -1   95.69    8.80
 -11   8  -1   97.89    9.00
   8   3  -1   99.79    7.60
   8   3  -1  108.19    9.50
   3 -11  -1  109.99    9.50
  11  -8   1   90.29    8.50
  -3  11   1   99.39   10.00
  11  -8   1   95.99    8.60
  -3  11   1  100.69    9.00
  -8  -3   1   94.59    7.50
   0 -11  -1  195.48   14.30
   0 -11  -1  190.08   14.60
   0 -11  -1  195.18   15.60
 -11  11  -1  183.18   14.70
 -11  11  -1  191.18   14.40
 -11   0   1  171.58   12.30
   0  11   1  193.88   15.60
  11 -11   1  207.58   15.20
 -11   0   1  196.68   12.70
   0  11   1  208.98   14.30
  11 -11   1  200.98   14.70
 -11   0   1  186.78   14.00
  11 -11   1  171.58   10.20
 -11   0   1  204.38   13.90
  11 -11   1  173.58   10.10
 -12   1  -1  143.19   11.70
 -12   1  -1  146.89   10.80
  11 -12  -1  127.49    8.20
 -12   1  -1  150.38   11.40
   1  11  -1  155.28   13.00
   1  11  -1  135.49   12.90
   1  11  -1  148.39   11.60
 -12   1  -1  133.99   10.60
  11 -12  -1  156.18   12.60
  11 -12  -1  151.98   13.00
 -11  12   1  151.78   13.00
  -1 -11   1  149.49   12.50
  -1 -11   1  139.89   13.10
  -1 -11   1  147.59   11.80
 -11  12   1  143.09   12.10
   8 -12  -1  185.68   12.10
   4   8  -1  167.58   14.70
 -12   4  -1  186.58   12.40
   8 -12  -1  185.08   12.80
 -12   4  -1  206.88   14.10
 -12   4  -1  193.88   13.60
   8 -12  -1  210.78   15.70
   4   8  -1  197.78   13.30
 -12   4  -1  201.38   12.30
  -4  -8   1  198.58   14.80
  -8  12   1  203.18   15.60
  -4  -8   1  196.08   15.40
  -4  -8   1  193.98   13.40
  -8  12   1  201.08   14.60
  12  -4   1  181.88   13.30
  12  -4   1  185.68   13.30
   7   5  -1  681.73   41.10
   5 -12  -1  709.33   41.80
 -12   7  -1  678.13   35.30
   5 -12  -1  730.43   41.00
 -12   7  -1  739.63   40.40
   7   5  -1  732.33   39.00
 -12   7  -1  720.63   40.40
   5 -12  -1  708.93   39.60
  12  -7   1  710.73   39.60
  -7  -5   1  769.22   38.90
  -7  -5   1  744.33   41.80
  -7  -5   1  790.42   41.40
  12  -7   1  696.63   39.80
  -5  12   1  802.32   41.20
  -7  -5   1  707.63   41.50
  -5  12   1  800.72   43.10
   2 -12  -1  167.68   12.70
   2 -12  -1  155.18   12.40
 -12  10  -1  152.98   12.60
   2 -12  -1  162.48   13.70
 -12  10  -1  163.18   12.70
 -10  -2   1  140.39   10.40
  12 -10   1  147.39   12.20
 -10  -2   1  153.68   12.20
 -10  -2   1  151.78   12.30
 -10  -2   1  145.39   12.60
  -2  12   1  151.18   13.60
 -10  -2   1  141.39   12.30
  -2  12   1  155.18   12.20
 -10  -2   1  128.59   10.30
  12 -10   1  152.78   12.20
   6   7  -1   43.20    6.30
   7 -13  -1   44.10    6.20
   7 -13  -1   43.40    6.60
 -13   6  -1   42.60    5.50
   7 -13  -1   40.10    5.30
   6   7  -1   43.60    5.10
 -13   6  -1   43.50    5.70
   7 -13  -1   39.70    4.80
  -7  13   1   38.30    6.40
  -6  -7   1   38.80    6.10
  -6  -7   1   37.00    5.70
  -6  -7   1   35.80    6.00
  -7  13   1   38.30    5.60
  -6  -7   1   37.20    4.80
  13  -6   1   35.80    4.90
  13  -6   1   37.00    5.10
 -13   9  -1  207.08   18.10
   9   4  -1  202.38   16.30
   4 -13  -1  233.78   17.70
 -13   9  -1  236.08   16.50
   9   4  -1  226.28   14.60
   4 -13  -1  188.98   18.60
   4 -13  -1  231.48   16.70
  13  -9   1  229.98   16.00
  -9  -4   1  229.58   17.20
  -9  -4   1  230.08   14.60
  -9  -4   1  210.08   16.80
  13  -9   1  221.48   16.00
  -4  13   1  247.58   18.50
  -9  -4   1  237.28   16.70
  -4  13   1  242.98   16.70
   1   0  -2 2291.47  111.19
  -1   1  -2 2355.06  111.19
   0  -1  -2 2336.77  111.39
   0  -1  -2 2409.86  111.49
  -1   0   2 2443.26  111.19
   0   1   2 2298.67  111.49
  -1   0   2 1991.40  111.39
   0   1   2 2361.66  111.49
   1  -1   2 2620.54  111.49
   0   1   2 2175.48  111.29
   1  -1   2 2325.37  111.09
  -2   0  -2 1113.79   55.79
   2  -2  -2 1094.19   56.09
   0   2  -2 1157.38   56.39
  -2   0  -2 1226.28   55.59
   0   2  -2 1221.28   55.79
   2  -2  -2 1214.28   55.29
  -2   0  -2 1169.38   55.99
   0   2  -2 1157.88   56.09
   2  -2  -2 1168.98   55.99
   0  -2   2 1159.78   55.69
  -2   2   2 1064.89   56.19
  -2   2   2 1083.39   55.89
   0  -2   2 1130.09   55.99
  -2   2   2 1165.08   55.19
   2   0   2 1109.49   55.79
   2   0   2 1176.78   55.99
   2   0   2 1170.28   55.49
   3  -1  -2 1384.56   68.39
  -2   3  -2 1381.36   69.29
   3  -1  -2 1400.36   69.19
  -1  -2  -2 1367.36   68.89
  -1  -2  -2 1307.17   69.19
   3  -1  -2 1470.15   68.59
  -2   3  -2 1403.36   68.59
  -1  -2  -2 1388.26   69.19
  -3   1   2 1467.25   69.29
   2  -3   2 1455.85   69.19
   2  -3   2 1386.96   68.49
  -3   1   2 1480.05   68.39
   1   2   2 1432.66   69.29
   1   2   2 1440.66   68.89
  -3   1   2 1563.64   68.59
   2  -3   2 1411.66   69.29
  -3  -1  -2 2530.45  110.59
  -3  -1  -2 2258.07  110.69
   4  -3  -2 2119.89  110.39
  -3  -1  -2 2248.97  109.99
  -1   4  -2 2208.18  110.89
  -1   4  -2 2318.57  110.49
  -1   4  -2 2344.17  110.39
   3   1   2 2415.76  110.39
   1  -4   2 2073.49  110.69
   1  -3  -2 2472.85  118.89
  -3   2  -2 2528.75  118.49
  -3   2  -2 2522.65  118.89
   1  -3  -2 2420.46  118.69
   2   1  -2 2396.36  118.79
  -3   2  -2 2615.44  117.89
   2   1  -2 2524.55  119.09
   1  -3  -2 2414.36  118.79
   2   1  -2 2512.85  117.89
  -2  -1   2 2321.97  117.89
  -2  -1   2 2396.06  119.09
   3  -2   2 2485.65  117.99
   3  -2   2 2522.95  118.89
   3  -2   2 2464.55  118.39
  -2  -1   2 2399.06  118.79
  -2  -3  -2 1377.96   71.19
   5  -2  -2 1435.36   70.89
  -2  -3  -2 1417.06   71.19
  -3   5  -2 1401.46   70.89
  -3   5  -2 1443.56   71.49
  -2  -3  -2 1460.25   71.49
   5  -2  -2 1401.36   69.49
  -2  -3  -2 1435.36   70.49
   2   3   2 1503.95   71.39
  -5   2   2 1545.45   71.19
   3  -5   2 1481.95   71.09
   2   3   2 1341.97   70.29
  -5   2   2 1476.15   69.49
   3  -5   2 1422.06   71.29
  -4  -2  -2 1724.73   83.59
  -2   6  -2 1790.02   85.29
  -2   6  -2 1764.82   84.39
  -4  -2  -2 1706.03   84.49
   6  -4  -2 1702.83   83.89
  -4  -2  -2 1760.02   84.89
  -2   6  -2 1726.53   84.29
   6  -4  -2 1698.03   84.29
  -4  -2  -2 1750.02   84.49
   4   2   2 1736.93   84.49
   4   2   2 1673.33   83.59
   2  -6   2 1772.52   84.49
   2  -6   2 1685.53   83.99
   2  -6   2 1569.04   84.69
  -6   4   2 1695.73   84.49
  -6   4   2 1597.74   83.69
  -4   1  -2 1296.87   62.89
   1   3  -2 1279.77   64.19
   1   3  -2 1217.08   62.79
   3  -4  -2 1290.87   62.59
   3  -4  -2 1300.77   64.19
   3  -4  -2 1245.18   62.59
  -4   1  -2 1364.16   63.19
   1   3  -2 1310.87   63.89
   3  -4  -2 1320.47   63.79
  -1  -3   2 1285.07   63.79
  -3   4   2 1309.17   64.29
  -1  -3   2 1340.77   62.99
   4  -1   2 1312.37   62.89
  -3   4   2 1236.88   63.59
   4  -1   2 1292.87   63.09
  -4   4  -2 1580.54   76.59
   0  -4  -2 1549.74   76.69
  -4   4  -2 1464.85   74.99
   0  -4  -2 1551.14   76.99
   0   4   2 1498.05   76.19
  -4   0   2 1490.85   75.29
  -4   0   2 1537.45   76.49
   4  -4   2 1534.25   76.49
  -4   0   2 1630.44   76.79
   4  -4   2 1622.44   75.09
  -4   0   2 1708.93   75.59
   7  -3  -2 1340.57   67.69
  -3  -4  -2 1386.26   68.79
   7  -3  -2 1397.86   67.19
  -3  -4  -2 1290.57   68.19
  -3  -4  -2 1323.07   67.09
  -4   7  -2 1420.66   68.99
  -3  -4  -2 1361.56   68.49
  -4   7  -2 1294.17   67.79
  -4   7  -2 1345.57   67.09
   4  -7   2 1333.17   66.79
  -7   3   2 1319.67   65.89
   4  -7   2 1397.06   68.19
   3   4   2 1307.67   66.99
  -7   3   2 1419.56   68.09
   3   4   2 1368.36   68.49
   4  -7   2 1297.27   68.39
  -7   3   2 1363.86   67.09
  -7   3   2 1418.66   65.79
  -3   8  -2  611.24   32.20
  -5  -3  -2  565.84   32.30
   8  -5  -2  558.24   31.70
  -5  -3  -2  581.04   32.70
  -3   8  -2  583.74   32.00
   8  -5  -2  570.64   31.40
  -5  -3  -2  569.94   31.10
  -3   8  -2  620.04   33.40
  -5  -3  -2  579.44   32.30
   3  -8   2  653.73   32.70
   3  -8   2  578.94   32.90
   5   3   2  614.24   32.60
   5   3   2  622.14   31.40
  -8   5   2  599.64   32.30
  -8   5   2  567.74   31.50
   3  -8   2  619.24   31.80
   5  -5  -2  144.19    9.90
  -5   0  -2  157.78    9.20
  -5   0  -2  160.88    9.50
   0   5  -2  159.28   11.30
  -5   0  -2  162.28    9.80
   5  -5  -2  148.89    7.80
   5  -5  -2  153.28    9.70
   0   5  -2  156.68   10.10
  -5   0  -2  155.18    9.30
  -5   0  -2  155.28    9.50
   5  -5  -2  150.08    7.90
   0   5  -2  159.28    9.50
   0  -5   2  146.99    9.40
  -5   5   2  139.69    9.90
   0  -5   2  137.39    9.70
  -5   5   2  131.39    9.30
   0  -5   2  137.49   10.10
   3   2  -2  690.83   35.90
   2  -5  -2  747.43   37.30
   2  -5  -2  729.63   37.80
   3   2  -2  711.13   37.20
  -5   3  -2  712.73   35.40
  -5   3  -2  691.63   36.50
  -5   3  -2  748.53   37.10
   3   2  -2  753.02   37.60
   5  -3   2  757.22   37.00
  -3  -2   2  763.32   37.70
  -2   5   2  739.83   37.90
  -3  -2   2  728.93   35.90
  -3  -2   2  705.43   37.10
  -2   5   2  709.53   37.20
   5  -3   2  718.43   35.60
  -5   6  -2 1954.70   96.09
  -5   6  -2 1950.30   97.79
  -5   6  -2 2110.89   98.39
  -1  -5  -2 1985.90   97.39
   6  -1  -2 1910.91   97.49
  -1  -5  -2 1946.91   98.29
  -1  -5  -2 2001.10   98.19
   6  -1  -2 2005.10   96.79
   1   5   2 1914.11   97.09
   1   5   2 1994.70   98.39
  -6   1   2 2007.20   97.59
  -6   1   2 2085.29   96.69
   5  -6   2 1952.70   95.89
   5  -6   2 2017.20   98.29
  -5   9  -2 1047.10   51.69
  -4  -5  -2  961.60   49.10
  -4  -5  -2 1015.90   51.39
  -4  -5  -2  987.60   50.89
  -5   9  -2  941.01   49.99
  -5   9  -2  970.40   49.30
   9  -4  -2  975.00   49.80
  -4  -5  -2  998.60   50.79
   9  -4  -2  960.50   49.20
   5  -9   2  887.31   48.50
   4   5   2  925.11   49.00
   5  -9   2  994.10   50.39
  -9   4   2  965.30   50.09
  -9   4   2  930.31   47.40
   4   5   2  956.80   50.79
  -9   4   2  947.91   47.10
   5  -9   2  897.31   50.59
  -9   4   2  917.51   49.10
  -6  -4  -2  418.26   25.80
  10  -6  -2  407.76   25.10
  -4  10  -2  420.16   25.30
  -6  -4  -2  419.06   26.40
  -6  -4  -2  397.46   25.80
  10  -6  -2  394.46   24.60
  -6  -4  -2  433.16   24.50
   4 -10   2  481.85   26.30
 -10   6   2  481.55   26.20
   6   4   2  485.45   26.70
   6   4   2  471.85   25.00
 -10   6   2  473.35   25.50
   4 -10   2  452.45   25.10
  -1   7  -2  748.33   37.20
  -6  -1  -2  690.33   36.20
   7  -6  -2  715.33   37.10
   7  -6  -2  693.73   37.50
  -6  -1  -2  709.33   37.50
  -1   7  -2  736.53   38.40
  -6  -1  -2  692.13   37.10
  -1   7  -2  719.73   37.70
  -6  -1  -2  681.63   37.00
   6   1   2  668.63   36.10
  -7   6   2  706.13   37.10
   1  -7   2  772.22   37.40
   6   1   2  657.73   36.60
   1  -7   2  699.43   37.30
  -7   6   2  705.53   37.70
   4  -6  -2 1166.98   59.59
   4  -6  -2 1186.68   61.59
  -6   2  -2 1196.58   60.29
   2   4  -2 1209.78   61.59
   4  -6  -2 1189.48   60.99
   2   4  -2 1123.19   59.49
  -2  -4   2 1225.38   61.09
   6  -2   2 1315.77   60.69
   6  -2   2 1209.58   59.59
  -4   6   2 1258.37   61.79
   6  -2   2 1213.28   59.99
  -4   6   2 1204.88   60.89
  -2  -4   2 1206.78   59.79
  -2  -4   2 1293.47   61.89
   1  -6  -2 1001.40   47.20
   1  -6  -2  910.91   47.60
  -6   5  -2  929.91   47.00
   5   1  -2  944.21   46.80
  -6   5  -2  989.00   47.00
  -6   5  -2  893.31   44.50
   1  -6  -2  944.11   47.10
  -1   6   2  897.51   46.80
  -5  -1   2  910.61   46.60
  -5  -1   2  901.41   47.20
   6  -5   2  889.51   46.60
   6  -5   2  884.11   44.60
   6  -5   2  909.61   46.80
  -1   6   2  870.01   47.60
   8  -2  -2  173.78   11.00
   8  -2  -2  166.18   11.70
  -2  -6  -2  180.78   12.80
  -2  -6  -2  164.98   13.50
  -6   8  -2  194.18   13.00
  -6   8  -2  173.48   12.00
  -6   8  -2  179.88   10.80
  -2  -6  -2  172.28   11.50
  -8   2   2  179.48   11.90
  -8   2   2  175.28   11.00
  -8   2   2  186.08   11.20
   6  -8   2  188.18   12.40
  -8   2   2  188.28   10.90
   6  -8   2  169.38   10.30
   6  -8   2  183.08   12.70
   2   6   2  176.88   12.70
   2   6   2  171.18   11.30
  -5  -6  -2  413.96   25.40
  -5  -6  -2  394.36   23.00
  -5  -6  -2  405.76   24.60
  -6  11  -2  420.46   25.70
  -6  11  -2  415.16   23.40
  11  -5  -2  393.06   23.00
  11  -5  -2  380.76   23.40
  -6  11  -2  399.56   24.10
   6 -11   2  386.56   22.50
 -11   5   2  389.56   20.50
 -11   5   2  423.76   24.30
   5   6   2  368.36   24.50
 -11   5   2  408.56   23.30
   5   6   2  404.66   23.10
   6 -11   2  399.16   25.10
   6 -11   2  414.66   24.50
 -11   5   2  359.96   21.00
  -5  12  -2  681.53   37.60
  -7  -5  -2  681.43   38.20
  -7  -5  -2  664.53   38.90
  -5  12  -2  665.53   37.60
  -5  12  -2  683.83   39.50
  -7  -5  -2  624.14   38.00
  -7  -5  -2  688.83   36.40
   5 -12   2  690.33   38.20
   5 -12   2  608.34   38.10
   7   5   2  689.33   36.60
 -12   7   2  688.63   38.10
   5 -12   2  675.83   39.00
  -2   9  -2  256.57   15.80
  -2   9  -2  264.17   17.30
  -7  -2  -2  263.57   16.20
  -7  -2  -2  257.17   16.50
  -2   9  -2  254.67   16.20
  -7  -2  -2  248.48   14.80
  -7  -2  -2  247.88   15.90
   9  -7  -2  251.07   16.00
   9  -7  -2  249.18   15.60
   2  -9   2  225.98   16.40
   2  -9   2  234.28   15.60
  -9   7   2  234.78   15.50
   7   2   2  227.48   14.60
   7   2   2  223.58   15.40
  -9   7   2  238.98   16.10
   2  -9   2  243.68   15.80
  -7   1  -2 2088.49  103.99
  -7   1  -2 2078.79  103.69
  -7   1  -2 2175.68  104.09
   1   6  -2 2037.30  103.59
  -7   1  -2 2099.89  103.69
  -7   1  -2 2081.99  103.69
   1   6  -2 2084.79  105.49
   6  -7  -2 2156.58  105.59
   1   6  -2 2158.38  105.29
  -7   1  -2 2127.79  103.79
   6  -7  -2 2134.69  104.79
   6  -7  -2 2032.30  102.09
   6  -7  -2 2094.89  102.39
  -6   7   2 1987.40  104.39
  -6   7   2 2253.37  105.79
  -1  -6   2 2126.29  105.59
  -1  -6   2 2138.99  104.99
  -1  -6   2 2305.87  104.19
  -7   4  -2 1076.29   55.99
   3  -7  -2 1172.58   57.09
   3  -7  -2 1071.99   57.49
   3  -7  -2 1110.59   56.09
   4   3  -2 1150.88   55.39
  -7   4  -2 1092.09   54.29
  -7   4  -2 1115.59   56.49
   4   3  -2 1119.39   56.99
   4   3  -2 1245.68   57.79
  -4  -3   2 1141.89   57.49
  -4  -3   2 1117.19   56.89
   7  -4   2 1034.20   54.39
  -3   7   2 1102.79   57.79
  -4  -3   2 1110.49   55.19
   7  -4   2 1176.18   56.59
   7  -4   2 1058.19   55.79
  -3   7   2 1132.69   56.89
  -7   7  -2  446.96   25.40
  -7   7  -2  420.66   25.00
   0  -7  -2  422.36   25.30
   0  -7  -2  425.86   25.80
   0  -7  -2  425.86   24.80
  -7   7  -2  426.26   22.70
   0   7   2  452.45   26.10
   0   7   2  459.55   24.90
  -7   0   2  456.65   25.00
  -7   0   2  466.95   24.70
  -7   0   2  455.65   23.70
  -7   0   2  460.15   25.50
   7  -7   2  461.25   25.30
   7  -7   2  465.55   22.60
   7  -7   2  487.65   25.80
  -7   0   2  452.15   23.70
  -7  10  -2  392.56   23.30
  -7  10  -2  376.06   20.70
  10  -3  -2  335.07   20.60
  -3  -7  -2  380.46   21.50
  10  -3  -2  377.36   21.90
  -3  -7  -2  375.56   23.30
  -3  -7  -2  352.36   22.80
   7 -10   2  367.26   22.90
   3   7   2  345.77   22.70
 -10   3   2  351.66   20.30
   3   7   2  352.66   21.10
 -10   3   2  371.16   20.10
   7 -10   2  341.77   19.70
 -10   3   2  377.76   22.00
 -10   3   2  364.56   20.90
  -6  -7  -2  130.09   12.10
  -6  -7  -2  128.99   11.70
  -6  -7  -2  129.99   11.40
  -7  13  -2  132.59   11.20
  -7  13  -2  132.99   10.50
  -7  13  -2  135.59   12.40
  -6  -7  -2  127.39   10.10
  13  -6  -2  125.39   10.50
   6   7   2  124.49   11.60
 -13   6   2  111.39    7.10
   7 -13   2  115.49    9.30
   7 -13   2  138.39   11.60
   7 -13   2  124.79   11.80
 -13   6   2  102.39    7.60
 -13   6   2  131.29   13.10
  11  -8  -2  361.26   22.60
  -3  11  -2  379.36   22.80
  -8  -3  -2  357.66   21.30
  -8  -3  -2  374.76   23.60
  -3  11  -2  375.76   24.30
  -8  -3  -2  384.36   24.60
   3 -11   2  362.26   23.80
 -11   8   2  376.56   23.40
   3 -11   2  375.46   23.00
   8   3   2  367.16   21.50
   8   3   2  356.36   22.80
  -8   0  -2  643.94   34.80
   8  -8  -2  660.53   35.40
  -8   0  -2  644.44   35.10
  -8   0  -2  627.74   34.80
   8  -8  -2  658.33   36.00
  -8   0  -2  624.14   34.30
  -8   0  -2  620.64   34.10
   0   8  -2  690.73   35.00
   8  -8  -2  610.34   31.50
   0   8  -2  674.03   36.10
   0   8  -2  624.74   36.30
  -8   0  -2  646.24   34.10
   8  -8  -2  611.04   31.70
   0  -8   2  679.73   35.70
  -8   8   2  647.74   35.20
  -8   8   2  675.23   36.20
   0  -8   2  649.14   36.40
   0  -8   2  693.33   35.10
  -8   3  -2  340.57   18.90
   3   5  -2  296.37   17.80
  -8   3  -2  337.47   18.70
   3   5  -2  327.47   19.80
   5  -8  -2  321.97   18.00
   5  -8  -2  322.57   20.10
  -8   3  -2  335.17   18.00
   3   5  -2  328.27   20.20
  -5   8   2  318.27   19.30
   8  -3   2  318.27   18.40
  -5   8   2  323.07   20.30
  -3  -5   2  332.87   20.20
  -3  -5   2  333.97   18.20
   8  -3   2  334.37   18.90
  -3  -5   2  310.77   19.40
   6   2  -2 1168.18   60.79
   6   2  -2 1162.68   60.59
   2  -8  -2 1273.47   60.99
  -8   6  -2 1059.29   57.09
   2  -8  -2 1182.68   61.69
  -8   6  -2 1163.48   60.49
  -8   6  -2 1217.68   60.49
   2  -8  -2 1153.68   60.39
   6   2  -2 1122.49   58.59
   8  -6   2 1223.48   60.49
  -6  -2   2 1226.38   61.39
   8  -6   2 1186.38   60.09
  -6  -2   2 1208.48   58.89
  -6  -2   2 1227.78   60.69
  -2   8   2 1250.67   60.89
  -8   9  -2  725.13   38.80
  -1  -8  -2  696.43   38.50
  -1  -8  -2  702.43   39.20
  -1  -8  -2  709.83   37.80
  -9   1   2  689.23   37.70
  -9   1   2  659.53   36.20
   8  -9   2  728.63   40.30
  -9   1   2  698.03   37.30
  -9   1   2  707.93   38.30
  -9   1   2  688.03   36.30
  -9   1   2  701.23   37.00
   1   8   2  686.53   39.00
   1   8   2  677.43   37.30
   8  -9   2  739.13   39.10
  -8  12  -2   72.99    7.70
  -8  12  -2   71.19    6.70
  -4  -8  -2   73.59    7.30
  -4  -8  -2   69.19    7.80
  -8  12  -2   78.39    8.70
  -4  -8  -2   71.79    8.40
  -4  -8  -2   72.59    8.50
  12  -4  -2   66.09    6.70
   8 -12   2   81.09    8.70
 -12   4   2   72.09    7.00
   8 -12   2   86.79    8.50
   4   8   2   77.19    8.50
 -12   4   2   80.49    7.90
 -12   4   2   75.79    6.00
   8 -12   2   72.79    6.10
 -12   4   2   74.29    6.30
  -9  -4  -2   41.60    6.10
  -9  -4  -2   36.30    5.70
  13  -9  -2   37.90    5.40
  -9  -4  -2   36.70    4.70
  -9  -4  -2   40.80    6.30
  13  -9  -2   37.60    5.50
  -4  13  -2   43.30    5.90
  -4  13  -2   43.50    6.90
  -4  13  -2   43.30    6.10
   4 -13   2   37.70    6.30
 -13   9   2   37.90    5.50
   4 -13   2   44.50    6.10
 -13   9   2   36.60    5.80
   9   4   2   39.80    6.00
   9   4   2   37.30    4.80
   4 -13   2   41.60    5.60
  -9  -1  -2  505.45   28.80
  -9  -1  -2  485.95   29.10
  -9  -1  -2  468.35   27.60
  -9  -1  -2  463.25   28.70
  -9  -1  -2  511.65   28.50
  -9  -1  -2  504.65   27.70
  10  -9  -2  541.95   35.80
  -1  10  -2  511.15   29.70
 -10   9   2  488.15   29.50
   1 -10   2  508.75   29.30
 -10   9   2  511.55   29.00
   1 -10   2  530.45   29.10
   1 -10   2  508.85   30.40
  -9   2  -2  626.84   33.20
  -9   2  -2  616.24   33.40
   2   7  -2  600.44   32.90
  -9   2  -2  614.04   33.10
   7  -9  -2  591.14   31.50
   2   7  -2  636.44   34.90
   2   7  -2  627.04   35.20
  -9   2  -2  634.04   33.30
   7  -9  -2  676.33   35.60
  -9   2  -2  608.44   32.70
  -9   2  -2  608.74   33.10
   7  -9  -2  645.44   34.50
  -7   9   2  620.74   35.10
  -2  -7   2  652.33   33.40
  -7   9   2  593.24   33.90
  -2  -7   2  603.84   35.00
  -2  -7   2  607.04   34.40
   4  -9  -2 1133.49   60.99
  -9   5  -2 1152.78   59.39
  -9   5  -2 1151.38   56.99
  -9   5  -2 1068.29   56.69
   5   4  -2 1169.78   60.89
   5   4  -2 1182.68   60.69
   4  -9  -2 1213.38   60.59
   5   4  -2 1179.98   58.49
   4  -9  -2 1151.48   59.19
  -9   5  -2 1179.88   59.79
  -5  -4   2 1198.88   60.39
   9  -5   2 1124.69   58.89
  -4   9   2 1210.38   60.39
   9  -5   2 1182.88   59.69
  -5  -4   2 1136.79   60.79
  -5  -4   2 1190.48   58.39
  -4   9   2 1249.77   61.89
   1  -9  -2  240.38   15.30
   1  -9  -2  252.47   15.40
  -9   8  -2  228.98   11.60
  -9   8  -2  238.78   15.20
  -9   8  -2  243.48   15.40
  -1   9   2  218.58   17.00
  -8  -1   2  199.08   13.00
  -8  -1   2  209.58   15.00
   9  -8   2  197.48   11.50
  -1   9   2  230.38   14.80
  -8  -1   2  223.88   14.50
  -8  -1   2  209.28   13.10
   9  -8   2  218.98   14.80
  -8  -1   2  218.58   14.70
   9  -8   2  216.38   14.80
  -2  -9  -2  493.35   28.80
  -2  -9  -2  488.85   29.50
  -2  -9  -2  480.35   29.30
  -9  11  -2  444.06   28.50
  -9  11  -2  478.35   28.30
 -11   2   2  481.75   26.30
   2   9   2  435.36   28.70
 -11   2   2  498.95   27.80
   9 -11   2  437.56   24.60
 -11   2   2  444.56   27.90
 -11   2   2  454.65   26.20
 -11   2   2  476.05   26.80
   9 -11   2  509.35   29.30
 -11   2   2  490.55   26.50
   9 -11   2  494.05   28.50
  12 -10  -2  168.28   13.60
 -10  -2  -2  163.98   11.90
  12 -10  -2  167.68   13.20
  -2  12  -2  178.48   13.30
 -10  -2  -2  154.58   12.00
  -2  12  -2  169.68   14.70
  -2  12  -2  179.38   14.10
 -10  -2  -2  166.18   13.20
 -10  -2  -2  165.68   13.70
   2 -12   2  178.48   13.50
   2 -12   2  189.98   13.80
 -12  10   2  178.38   13.50
 -12  10   2  185.58   14.40
 -10   1  -2   39.70    4.80
   9 -10  -2   50.79    5.20
 -10   1  -2   39.70    5.10
   1   9  -2   42.00    5.70
   1   9  -2   40.90    5.80
   9 -10  -2   46.50    7.10
 -10   1  -2   40.70    5.10
 -10   1  -2   41.00    4.70
 -10   1  -2   38.70    4.70
 -10   1  -2   38.50    4.60
   1   9  -2   39.90    4.80
   9 -10  -2   40.60    5.40
   9 -10  -2   33.80    3.00
  -9  10   2   44.00    5.50
  -1  -9   2   49.10    5.80
  -1  -9   2   45.30    6.30
  -1  -9   2   51.99    5.50
   4   6  -2  252.37   14.90
 -10   4  -2  238.48   15.50
   6 -10  -2  252.97   15.30
   4   6  -2  257.17   17.30
 -10   4  -2  245.68   14.20
   6 -10  -2  258.27   14.90
 -10   4  -2  264.47   15.70
  10  -4   2  226.88   15.40
  -4  -6   2  229.68   16.80
  -4  -6   2  236.88   14.80
  10  -4   2  229.88   15.00
 -10   7  -2  724.83   39.40
   3 -10  -2  840.62   43.90
   7   3  -2  795.62   41.90
   7   3  -2  833.62   44.60
   3 -10  -2  817.42   45.20
   7   3  -2  841.82   44.40
 -10   7  -2  824.92   43.80
 -10   7  -2  858.51   44.20
  10  -7   2  841.12   43.80
  -7  -3   2  867.81   44.30
  -7  -3   2  808.82   44.70
  -7  -3   2  823.32   42.00
  10  -7   2  804.22   43.30
   0 -10  -2  359.26   22.90
   0 -10  -2  338.17   21.70
 -10  10  -2  329.37   17.80
 -10  10  -2  349.37   21.90
 -10  10  -2  369.66   22.00
   0 -10  -2  366.76   22.90
   0 -10  -2  333.37   23.40
 -10   0   2  368.56   21.00
 -10   0   2  320.47   21.50
   0  10   2  350.06   21.20
 -10   0   2  335.27   21.10
 -10   0   2  308.67   19.30
  10 -10   2  355.66   21.70
   0  10   2  331.37   22.50
 -10   0   2  331.77   19.40
 -10   0   2  337.07   21.10
  10 -10   2  326.77   17.70
 -11   0  -2  428.26   25.10
 -11   0  -2  382.36   26.00
 -11   0  -2  451.95   26.20
  11 -11  -2  458.45   27.90
   0  11  -2  456.15   26.30
   0  11  -2  421.96   28.10
 -11   0  -2  414.86   26.40
   0  11  -2  473.05   28.00
  11 -11  -2  450.85   27.00
 -11   0  -2  424.76   25.70
   0 -11   2  446.46   26.50
   0 -11   2  460.75   27.30
 -11  11   2  460.15   27.00
   0 -11   2  424.26   28.00
 -11  11   2  442.46   27.70
 -11   3  -2  282.67   17.20
 -11   3  -2  268.37   17.90
   8 -11  -2  310.47   20.30
 -11   3  -2  299.07   18.10
   3   8  -2  309.27   20.00
   8 -11  -2  304.77   19.50
   3   8  -2  277.87   17.50
   8 -11  -2  272.27   16.30
 -11   3  -2  298.07   18.20
   8 -11  -2  277.77   16.90
 -11   3  -2  293.17   17.60
   3   8  -2  281.27   19.80
  -8  11   2  307.17   20.30
  -3  -8   2  291.57   20.00
  -8  11   2  282.27   18.80
  -3  -8   2  302.17   18.10
  -3  -8   2  287.77   19.20
   5 -11  -2   58.69    7.20
 -11   6  -2   61.19    6.40
   5 -11  -2   60.79    6.50
 -11   6  -2   57.89    4.30
   5 -11  -2   63.69    7.00
   5 -11  -2   59.99    6.10
 -11   6  -2   57.09    6.40
   6   5  -2   61.69    6.90
   6   5  -2   65.19    5.80
 -11   6  -2   51.19    4.00
  -5  11   2   71.99    7.10
  -6  -5   2   72.79    7.40
  11  -6   2   65.19    6.20
  -6  -5   2   72.79    5.90
  -5  11   2   75.19    8.30
  11  -6   2   69.59    6.70
   2 -11  -2  187.58   13.90
 -11   9  -2  184.78   13.80
   2 -11  -2  180.68   13.70
   2 -11  -2  189.78   14.60
   2 -11  -2  176.98   14.60
  -9  -2   2  191.58   12.10
  -2  11   2  198.18   14.00
  11  -9   2  189.08   13.70
  11  -9   2  184.38   13.70
  -2  11   2  198.88   15.30
  -1 -11  -2  134.99   11.90
  -1 -11  -2  132.59   12.60
 -11  12  -2  133.29   12.00
 -11  12  -2  134.79   11.70
  -1 -11  -2  139.39   12.70
 -12   1   2  131.49   11.10
   1  11   2  138.09   11.10
 -12   1   2  130.79    9.70
   1  11   2  129.89   12.40
  11 -12   2  143.79   12.00
 -12   1   2  131.69   10.90
 -12   1   2  129.19   11.60
 -12   1   2  108.19    9.30
 -12   1   2  138.89   10.70
  11 -12   2  143.19   12.30
 -12   2  -2   15.50    3.80
 -12   2  -2   12.70    3.50
 -12   2  -2   11.70    3.10
 -12   2  -2   13.40    3.30
 -12   2  -2   14.90    3.60
   2  10  -2   17.30    4.70
 -12   2  -2   12.80    3.20
  10 -12  -2   14.50    4.20
   2  10  -2   17.00    5.10
  10 -12  -2   11.80    1.80
  10 -12  -2   14.60    4.50
  10 -12  -2   12.10    2.10
 -10  12   2   18.10    4.90
 -10  12   2   18.80    4.50
  -2 -10   2   19.90    4.80
  -2 -10   2   17.40    4.90
   7 -12  -2 1153.38   61.99
   7 -12  -2 1209.08   64.79
   7 -12  -2 1267.57   64.19
 -12   5  -2 1077.69   59.89
 -12   5  -2 1253.67   62.89
   7 -12  -2 1154.38   61.19
   5   7  -2 1283.67   64.69
 -12   5  -2 1137.89   59.99
   5   7  -2 1148.89   64.39
   5   7  -2 1209.28   61.69
  12  -5   2 1185.98   62.09
  -5  -7   2 1202.48   64.69
  -5  -7   2 1285.87   64.19
  -7  12   2 1277.77   65.59
  -5  -7   2 1273.77   61.99
   4 -12  -2  154.88   12.40
   8   4  -2  143.79   10.40
 -12   8  -2  153.68   12.10
   4 -12  -2  142.99   12.90
 -12   8  -2  157.28   12.10
   8   4  -2  149.69   12.60
  12  -8   2  154.18   11.90
  -8  -4   2  152.28   12.70
  -8  -4   2  147.89   10.40
  -8  -4   2  144.29   12.60
  -8  -4   2  151.98   12.20
  12  -8   2  148.49   11.50
  -4  12   2  158.48   12.40
  -4  12   2  171.38   14.10
 -12  11  -2   17.60    4.60
   1 -12  -2   19.00    4.80
   1 -12  -2   19.30    5.40
   1 -12  -2   21.40    5.00
   1 -12  -2   20.70    5.30
 -12  11  -2   23.40    5.50
 -11  -1   2   22.30    5.30
  12 -11   2   22.40    5.30
  -1  12   2   20.90    4.70
 -11  -1   2   18.70    4.60
 -11  -1   2   22.80    4.30
  -1  12   2   18.80    5.40
 -11  -1   2   19.80    4.50
 -11  -1   2   19.30    3.10
  12 -11   2   22.80    5.20
   9 -13  -2  442.56   26.20
 -13   4  -2  445.46   28.10
 -13   4  -2  441.26   27.10
   4   9  -2  441.16   30.30
   9 -13  -2  464.95   27.20
   9 -13  -2  524.35   31.40
 -13   4  -2  487.35   27.00
 -13   4  -2  508.15   28.90
   4   9  -2  454.15   31.70
   9 -13  -2  541.75   30.60
  -4  -9   2  538.95   30.50
  -9  13   2  527.25   30.10
  -4  -9   2  493.35   31.00
  -9  13   2  525.95   31.40
  -4  -9   2  528.15   28.60
   6 -13  -2    7.10    2.60
 -13   7  -2    6.00    1.20
 -13   7  -2    5.00    2.90
   6 -13  -2    5.70    3.20
   7   6  -2   11.20    4.10
   6 -13  -2   10.30    3.70
   6 -13  -2    8.00    3.00
   7   6  -2    7.10    2.40
 -13   7  -2    7.00    2.80
 -13   7  -2    5.70    1.10
  13  -7   2    6.50    2.40
  -7  -6   2    7.00    2.30
  -7  -6   2    7.10    3.10
  -6  13   2    6.80    3.00
  -7  -6   2    7.90    3.40
  -6  13   2    8.50    4.00
  13  -7   2    8.80    3.10
   0   0  -3 3564.54  185.58
   0   0  -3 4255.87  186.08
   0   0  -3 3502.75  185.58
   0   0   3 4217.08  185.68
   0   0   3 3939.01  185.68
  -1  -1  -3 9728.33  434.36
  -1   2  -3 9927.81  434.26
  -1  -1  -3 9999.00  434.86
  -1   2  -3 9213.68  434.46
  -1   2  -3 9905.61  434.36
  -2   1   3 8692.83  433.66
  -2   1   3 7588.14  433.76
   1  -2   3 8241.98  434.26
   1   1   3 8945.91  434.36
   1   1   3 8909.31  434.06
   1  -2  -3 1392.86   75.99
  -2   1  -3 1454.75   75.69
  -2   1  -3 1584.44   76.09
   1  -2  -3 1529.25   75.99
   1   1  -3 1544.95   75.99
   1  -2  -3 1401.26   76.29
   1   1  -3 1576.84   75.19
  -2   1  -3 1609.44   75.29
   1   1  -3 1496.05   76.29
   2  -1   3 1728.53   75.89
  -1   2   3 1651.63   76.59
  -1   2   3 1576.44   76.09
  -1  -1   3 1657.03   76.09
   2  -1   3 1695.33   75.29
  -1   2   3 1629.84   75.99
  -1  -1   3 1677.53   76.49
   4  -2  -3 4279.17  196.58
   4  -2  -3 4072.19  197.98
   4  -2  -3 3789.02  197.08
  -2  -2  -3 4223.68  198.48
  -2   4  -3 4205.78  197.88
   2  -4   3 4191.68  197.38
  -4   2   3 4390.96  196.48
  -4   2   3 4138.99  197.18
   2   2   3 4349.36  197.98
   2  -4   3 4027.00  197.88
   2  -4   3 3644.64  197.88
   3  -3  -3 2562.84  131.79
  -3   0  -3 2489.15  131.59
   3  -3  -3 2755.52  130.79
  -3   0  -3 2938.11  131.39
  -3   0  -3 2691.93  131.99
   0   3  -3 2561.24  131.49
   3   0   3 2787.72  131.99
  -3   3   3 2813.22  130.79
   0  -3   3 2950.60  131.59
   3   0   3 2816.62  131.29
  -3   3  -3 2606.04  123.79
   3   0  -3 2438.56  124.29
  -3   3  -3 2552.44  124.59
  -3   0   3 2689.23  123.59
   3  -3   3 2525.55  124.59
   3  -3   3 2655.63  123.89
  -3   0   3 2630.74  124.39
   6  -3  -3 1448.56   69.89
  -3  -3  -3 1375.56   69.19
  -3   6  -3 1411.86   69.29
  -3   6  -3 1402.36   69.79
   6  -3  -3 1415.96   67.69
  -3  -3  -3 1455.75   70.69
   6  -3  -3 1354.46   68.89
  -3  -3  -3 1437.06   70.29
  -3   6  -3 1464.75   70.69
  -3  -3  -3 1434.46   70.09
  -6   3   3 1322.27   68.89
   3  -6   3 1315.97   70.09
   3   3   3 1472.05   70.19
   3  -6   3 1423.36   69.89
   3  -6   3 1331.07   68.99
  -6   3   3 1400.26   67.59
  -6   3   3 1457.45   70.09
   3   3   3 1366.66   69.19
  -4  -1  -3 1323.67   68.29
  -1   5  -3 1389.06   68.19
  -4  -1  -3 1349.27   67.49
   5  -4  -3 1401.56   67.89
  -1   5  -3 1380.26   68.79
   5  -4  -3 1315.27   68.19
  -1   5  -3 1339.27   67.89
   4   1   3 1425.86   67.69
  -5   4   3 1376.06   67.79
   1  -5   3 1443.56   68.19
  -5   4   3 1394.56   68.49
   1  -5   3 1374.46   68.79
   2  -4  -3  300.57   16.00
   2   2  -3  322.37   16.00
   2   2  -3  279.87   14.10
  -4   2  -3  305.57   15.30
   2  -4  -3  304.87   16.20
  -4   2  -3  290.27   14.40
   2   2  -3  281.07   15.30
   2  -4  -3  292.27   15.00
  -4   2  -3  297.37   14.60
   2  -4  -3  282.57   14.80
  -2  -2   3  254.07   15.10
   4  -2   3  252.77   14.30
  -2  -2   3  261.37   15.60
   4  -2   3  242.08   14.30
  -2   4   3  257.97   15.10
  -2   4   3  264.77   15.70
  -2  -2   3  235.38   14.00
   5  -1  -3  873.61   45.30
  -1  -4  -3  813.12   45.40
  -1  -4  -3  844.82   45.50
  -4   5  -3  884.71   44.10
   5  -1  -3  970.90   44.30
  -1  -4  -3  882.51   45.80
  -1  -4  -3  865.71   44.90
  -4   5  -3  948.51   45.70
  -5   1   3  927.51   44.40
  -5   1   3  910.81   45.30
  -5   1   3  953.80   44.20
   1   4   3  822.32   44.70
   4  -5   3  923.01   45.60
   4  -5   3  870.51   43.90
   4  -5   3  939.21   45.40
   1   4   3  896.31   45.60
   8  -4  -3 2024.70  105.69
  -4  -4  -3 2255.67  105.39
  -4  -4  -3 2094.99  106.49
   8  -4  -3 2097.89  104.99
  -4  -4  -3 2000.40  106.19
  -4  -4  -3 2119.99  106.99
  -4   8  -3 2007.30  105.29
  -4   8  -3 2197.28  107.29
  -4   8  -3 2083.69  105.89
  -8   4   3 2193.98  102.99
   4  -8   3 2115.99  106.79
   4  -8   3 2181.48  105.19
  -8   4   3 2327.97  106.59
   4   4   3 2121.69  105.29
   4   4   3 2260.17  106.79
  -8   4   3 2143.69  105.19
  -8   4   3 2130.29  103.29
   4  -8   3 2272.87  106.39
  -2   7  -3 1995.50   96.59
   7  -5  -3 1878.41   95.49
  -5  -2  -3 1973.10   96.09
  -5  -2  -3 1960.00   94.69
  -5  -2  -3 1987.40   95.59
  -5  -2  -3 1898.31   95.59
  -2   7  -3 1923.51   95.49
  -2   7  -3 1947.11   95.39
   7  -5  -3 1897.11   94.89
   5   2   3 1693.63   94.89
   2  -7   3 1876.81   96.19
  -7   5   3 1966.20   95.79
   2  -7   3 1979.70   95.29
   2  -7   3 2119.29   95.79
   5   2   3 1951.80   94.79
  -7   5   3 1858.71   94.89
   4  -5  -3 2560.74  127.19
  -5   1  -3 2635.54  128.29
   4  -5  -3 2695.53  128.89
   4  -5  -3 2649.63  127.29
  -5   1  -3 2744.73  127.89
  -5   1  -3 2646.54  127.69
   1   4  -3 2632.34  128.99
  -4   5   3 2599.84  128.59
  -1  -4   3 2680.63  129.49
   4   1  -3 1773.12   90.19
   1  -5  -3 1771.42   91.69
   1  -5  -3 1760.32   91.69
   1  -5  -3 1789.12   92.39
  -5   4  -3 1939.61   90.09
   1  -5  -3 1839.92   91.99
  -5   4  -3 1902.51   91.99
   4   1  -3 1819.52   91.69
   4   1  -3 1962.10   92.19
   5  -4   3 1959.70   90.19
  -1   5   3 1879.21   92.59
  -4  -1   3 1894.51   92.29
  -4  -1   3 1928.11   91.69
  -4  -1   3 1944.11   90.39
   5  -4   3 1958.20   91.99
  -5   7  -3  995.40   50.39
  -5   7  -3 1005.80   51.69
   7  -2  -3 1026.80   51.69
  -2  -5  -3 1012.60   52.29
  -5   7  -3 1102.99   52.59
  -2  -5  -3 1106.09   54.19
  -2  -5  -3  890.51   53.89
  -2  -5  -3 1046.80   51.29
   5  -7   3  977.20   49.99
  -7   2   3 1008.70   51.59
  -7   2   3 1030.10   50.49
   5  -7   3  992.90   52.09
   2   5   3  938.61   50.79
   5  -7   3 1042.30   51.89
   2   5   3  987.30   52.09
  10  -5  -3 1276.07   67.99
  -5  -5  -3 1207.18   68.59
  10  -5  -3 1222.98   67.09
  -5  10  -3 1361.46   67.99
  -5  10  -3 1325.17   69.79
  -5  -5  -3 1289.47   67.29
 -10   5   3 1197.58   64.39
   5   5   3 1359.36   69.29
   5 -10   3 1344.97   67.29
 -10   5   3 1415.56   67.79
   5 -10   3 1493.45   71.09
 -10   5   3 1478.95   69.19
   5 -10   3 1335.57   70.99
   5   5   3 1394.16   67.69
 -10   5   3 1344.87   64.79
  -6  -3  -3  613.54   32.00
  -3   9  -3  601.44   32.80
  -3   9  -3  612.34   33.00
   9  -6  -3  574.94   32.10
   9  -6  -3  590.84   32.80
  -3   9  -3  626.04   34.30
  -6  -3  -3  569.54   33.50
  -6  -3  -3  608.94   33.20
  -6  -3  -3  597.44   33.20
  -9   6   3  611.44   32.50
   6   3   3  608.84   33.10
   3  -9   3  649.93   33.40
   3  -9   3  589.84   32.40
   3  -9   3  559.84   33.50
   6   3   3  585.94   32.00
  -9   6   3  583.64   33.10
   0   6  -3 1542.35   73.99
   6  -6  -3 1469.15   71.79
  -6   0  -3 1475.75   73.69
   0   6  -3 1349.56   74.49
  -6   0  -3 1451.35   74.29
   6  -6  -3 1437.96   71.69
   0   6  -3 1477.45   75.39
  -6   0  -3 1417.86   73.39
  -6   0  -3 1511.65   74.09
  -6   0  -3 1515.65   73.89
   6  -6  -3 1463.95   74.39
   6  -6  -3 1501.65   75.09
  -6   0  -3 1443.16   73.79
  -6   6   3 1535.65   74.49
   0  -6   3 1602.24   74.19
   0  -6   3 1608.44   74.99
  -6   6   3 1578.54   75.29
   3  -6  -3 4278.07  217.88
  -6   3  -3 4257.87  218.18
   3   3  -3 4799.82  219.48
   3  -6  -3 4504.95  218.68
  -6   3  -3 4597.74  216.88
   3  -6  -3 4306.27  217.78
   3   3  -3 4495.55  218.88
  -3  -3   3 4453.35  219.28
  -3  -3   3 4522.65  217.08
  -3   6   3 4542.55  218.68
  -3  -3   3 4800.82  218.88
   6  -3   3 4610.24  217.08
   6  -3   3 4739.63  218.48
  -3   6   3 4538.15  219.58
   6   0  -3 3392.56  166.08
   0  -6  -3 3425.26  167.08
   0  -6  -3 3398.96  166.48
  -6   6  -3 3502.75  166.88
  -6   6  -3 3346.77  166.68
  -6   6  -3 3208.68  164.38
   0  -6  -3 3256.77  167.28
   0  -6  -3 3327.97  167.18
   0   6   3 3457.65  166.38
  -6   0   3 3639.74  167.28
   0   6   3 3409.26  167.48
   6  -6   3 3290.37  166.58
  -6   0   3 3480.45  166.68
   6  -6   3 3701.43  164.58
  -6   0   3 3595.74  166.18
   6  -6   3 3482.05  166.88
  -6   9  -3  614.74   34.30
  -3  -6  -3  567.94   32.40
  -3  -6  -3  580.14   34.20
   9  -3  -3  571.44   32.90
   9  -3  -3  581.74   31.90
  -3  -6  -3  562.64   33.60
  -6   9  -3  597.44   32.90
  -6   9  -3  552.24   33.00
  -3  -6  -3  591.74   33.90
   6  -9   3  685.43   34.10
  -9   3   3  640.64   32.30
   6  -9   3  599.94   31.40
  -9   3   3  664.03   31.30
   3   6   3  594.24   32.40
   6  -9   3  622.74   34.20
  -9   3   3  605.64   31.40
  -9   3   3  665.13   33.60
   3   6   3  616.14   34.10
  -6  -6  -3  467.45   28.60
  -6  12  -3  523.45   30.20
  12  -6  -3  484.75   27.20
  -6  12  -3  493.15   27.70
  -6  -6  -3  513.55   29.90
  -6  -6  -3  483.85   27.10
  -6  12  -3  502.75   28.50
  -6  -6  -3  478.25   28.90
   6 -12   3  442.96   26.50
 -12   6   3  449.56   27.00
   6   6   3  492.45   29.30
   6 -12   3  468.25   29.10
 -12   6   3  411.06   23.40
 -12   6   3  398.46   23.20
   6   6   3  502.65   27.40
   6 -12   3  497.75   28.70
  -4  11  -3  368.46   22.60
  11  -7  -3  363.76   21.90
  -7  -4  -3  354.86   21.40
  -4  11  -3  360.86   22.50
  -4  11  -3  391.96   24.40
  -7  -4  -3  365.36   23.00
  11  -7  -3  355.26   22.30
  -7  -4  -3  355.26   22.90
  -7  -4  -3  356.66   23.40
 -11   7   3  377.56   23.10
   7   4   3  388.66   23.30
   4 -11   3  399.86   23.20
   4 -11   3  360.86   22.00
 -11   7   3  382.86   22.30
   4 -11   3  345.57   23.40
  -7  -1  -3  518.75   28.10
  -7  -1  -3  525.75   29.40
  -7  -1  -3  532.25   29.00
  -1   8  -3  552.74   30.50
   8  -7  -3  528.15   29.00
   8  -7  -3  543.25   29.60
  -1   8  -3  529.85   29.60
  -7  -1  -3  516.95   28.90
  -1   8  -3  534.75   28.90
   1  -8   3  508.95   29.10
  -8   7   3  513.75   29.60
  -8   7   3  498.05   28.70
   1  -8   3  516.85   28.90
  -7   2  -3 2955.10  136.59
   5  -7  -3 2835.52  138.49
  -7   2  -3 2721.13  136.69
   2   5  -3 2622.24  135.89
   5  -7  -3 2877.71  137.69
  -7   2  -3 2893.91  136.39
   2   5  -3 2799.02  138.29
  -2  -5   3 2872.01  136.29
  -5   7   3 2819.82  137.49
  -2  -5   3 2837.92  137.69
  -5   7   3 2563.14  137.99
   7  -2   3 2814.02  136.19
   7  -2   3 2805.22  136.19
  -2  -5   3 2850.91  138.39
   7  -2   3 2902.71  136.99
   2  -7  -3  573.54   32.30
   5   2  -3  567.44   31.60
  -7   5  -3  581.04   29.00
   2  -7  -3  580.64   31.70
   2  -7  -3  581.64   31.40
  -7   5  -3  589.64   31.10
   5   2  -3  623.14   32.20
  -7   5  -3  591.74   31.60
   2  -7  -3  624.64   31.90
   7  -5   3  575.44   31.30
  -5  -2   3  599.64   31.60
  -2   7   3  592.64   32.70
   7  -5   3  573.84   29.20
  -2   7   3  598.84   31.70
  -5  -2   3  621.34   32.40
   7  -5   3  560.24   30.80
  -7   8  -3  728.83   39.30
  -7   8  -3  708.73   37.90
  -1  -7  -3  765.42   39.10
  -1  -7  -3  756.32   40.30
  -1  -7  -3  734.53   40.10
  -1  -7  -3  719.23   39.60
  -8   1   3  715.13   37.50
   7  -8   3  747.43   39.40
  -8   1   3  738.03   39.50
   1   7   3  713.43   39.90
  -8   1   3  766.02   38.20
  -8   1   3  746.63   37.50
   7  -8   3  743.33   39.80
   1   7   3  702.53   38.50
  11  -4  -3  423.36   24.80
  -7  11  -3  403.46   28.50
  11  -4  -3  403.16   23.60
  -7  11  -3  422.26   23.90
  -4  -7  -3  444.56   24.50
  -7  11  -3  415.86   25.10
  -4  -7  -3  441.26   26.70
  -4  -7  -3  441.36   25.90
 -11   4   3  410.36   22.20
   4   7   3  415.16   24.10
 -11   4   3  426.56   25.10
   7 -11   3  449.76   25.80
   7 -11   3  372.16   22.70
   7 -11   3  423.06   26.00
 -11   4   3  389.46   22.50
 -11   4   3  416.26   23.90
  -5  13  -3  317.07   22.10
  13  -8  -3  302.57   19.60
  -5  13  -3  316.57   20.50
  -8  -5  -3  310.27   20.80
  -8  -5  -3  299.17   18.90
  13  -8  -3  303.47   20.00
  -8  -5  -3  285.97   20.50
  -5  13  -3  305.57   20.20
  -8  -5  -3  315.97   21.60
   5 -13   3  295.47   19.40
   8   5   3  296.97   19.40
 -13   8   3  323.67   21.10
   5 -13   3  290.27   21.20
   8   5   3  292.07   20.60
   5 -13   3  313.57   20.70
 -13   8   3  296.67   19.70
  -8  -2  -3  739.43   41.00
  -2  10  -3  738.03   40.70
  10  -8  -3  731.13   40.50
  -2  10  -3  742.73   42.40
  -8  -2  -3  733.33   39.60
  10  -8  -3  735.83   41.10
  -8  -2  -3  756.52   41.60
   2 -10   3  788.52   41.10
   8   2   3  737.33   39.60
   2 -10   3  766.82   41.00
   2 -10   3  770.02   42.40
   8   2   3  756.12   40.60
 -10   8   3  774.42   41.80
 -10   8   3  781.42   40.90
  -8   1  -3  501.55   27.40
  -8   1  -3  492.95   26.80
  -8   1  -3  466.55   26.80
   1   7  -3  522.25   29.10
  -8   1  -3  501.15   27.00
  -8   1  -3  479.05   27.00
   7  -8  -3  537.25   29.00
  -8   1  -3  495.75   27.00
   1   7  -3  503.75   27.00
   7  -8  -3  536.05   28.30
   7  -8  -3  480.65   25.00
   7  -8  -3  476.15   25.30
   1   7  -3  491.75   28.40
  -7   8   3  491.45   28.70
  -7   8   3  489.15   27.70
  -1  -7   3  480.15   28.00
  -1  -7   3  496.15   28.90
  -1  -7   3  513.65   27.30
  -8   4  -3 1428.66   68.59
  -8   4  -3 1432.96   66.99
  -8   4  -3 1362.46   67.79
   4  -8  -3 1418.36   69.19
   4   4  -3 1348.67   69.09
   4   4  -3 1443.46   69.79
   4   4  -3 1361.66   66.99
   4  -8  -3 1378.56   69.89
   4  -8  -3 1347.97   67.69
   4  -8  -3 1368.66   68.09
   8  -4   3 1329.27   68.19
  -4  -4   3 1342.17   69.49
  -4   8   3 1386.06   69.99
  -4  -4   3 1281.67   66.79
   8  -4   3 1292.47   66.39
  -4  -4   3 1340.47   68.79
   8  -4   3 1230.58   67.19
   1  -8  -3 1434.66   69.39
   7   1  -3 1354.76   68.89
   1  -8  -3 1323.07   69.19
   1  -8  -3 1304.97   69.99
  -8   7  -3 1359.36   69.29
  -8   7  -3 1292.07   68.89
   1  -8  -3 1368.26   69.79
  -8   7  -3 1276.77   65.89
  -7  -1   3 1397.16   67.19
  -7  -1   3 1432.46   68.89
  -7  -1   3 1329.27   67.09
  -1   8   3 1415.06   69.09
   8  -7   3 1349.77   66.09
  -1   8   3 1377.96   70.39
  -7  -1   3 1401.76   69.29
   8  -7   3 1337.47   68.99
   8  -7   3 1385.96   69.09
  -7  -1   3 1387.86   69.79
  -2  -8  -3 1219.18   59.69
  -8  10  -3 1181.58   60.79
  -2  -8  -3 1156.28   60.49
  -2  -8  -3 1232.58   61.69
  -8  10  -3 1149.39   57.59
  -8  10  -3 1155.58   59.99
 -10   2   3 1176.78   58.19
 -10   2   3 1154.38   59.99
   8 -10   3 1150.88   60.69
   8 -10   3 1041.40   56.69
   2   8   3 1079.59   58.79
 -10   2   3 1108.99   58.39
 -10   2   3 1107.99   57.99
 -10   2   3 1142.69   57.89
 -10   2   3 1176.88   59.59
  -5  -8  -3  482.75   28.10
  -5  -8  -3  453.25   26.10
  -5  -8  -3  452.95   28.70
  13  -5  -3  412.96   25.30
  -8  13  -3  458.85   27.20
  -8  13  -3  465.75   28.70
  -8  13  -3  440.36   25.60
  -5  -8  -3  454.85   28.20
   8 -13   3  415.86   24.40
 -13   5   3  385.96   23.40
   8 -13   3  458.55   28.30
 -13   5   3  371.66   22.80
   8 -13   3  482.55   27.90
   5   8   3  463.85   26.20
 -13   5   3  477.95   27.40
   5   8   3  400.26   27.50
 -13   5   3  398.46   25.30
  -3  12  -3  564.94   33.80
  -9  -3  -3  531.55   32.40
  -9  -3  -3  554.44   32.10
  -9  -3  -3  526.75   30.10
  -3  12  -3  554.84   31.60
  -3  12  -3  555.74   32.20
  12  -9  -3  550.04   31.90
  12  -9  -3  499.05   30.90
 -12   9   3  566.94   31.70
 -12   9   3  547.85   32.50
   9   3   3  531.45   30.20
   3 -12   3  575.84   32.10
   3 -12   3  541.55   33.10
   3 -12   3  553.84   31.60
   9   3   3  493.15   31.10
  -9   0  -3  942.31   47.90
  -9   0  -3  892.61   47.60
   9  -9  -3  874.71   44.20
   9  -9  -3  968.20   49.90
   0   9  -3  936.81   48.10
   0   9  -3  900.41   49.99
  -9   0  -3  932.71   48.80
  -9   0  -3  891.01   48.20
   9  -9  -3  848.52   44.40
  -9   0  -3  894.61   47.40
  -9   0  -3  946.41   48.40
   0  -9   3  944.41   50.29
  -9   9   3  930.61   49.70
   0  -9   3  955.30   48.40
   6  -9  -3  436.46   25.20
  -9   3  -3  453.15   25.70
  -9   3  -3  451.35   26.00
   3   6  -3  459.75   27.30
   3   6  -3  439.26   27.50
   6  -9  -3  437.16   24.80
  -9   3  -3  443.96   25.20
  -9   3  -3  443.06   25.00
   6  -9  -3  475.05   27.90
   6  -9  -3  467.15   27.10
  -3  -6   3  509.55   25.80
  -3  -6   3  520.05   27.50
  -6   9   3  496.25   27.10
   9  -3   3  483.05   26.30
  -3  -6   3  495.25   28.10
  -6   9   3  503.45   28.20
   9  -3   3  489.55   25.70
   3  -9  -3  225.48   15.50
   3  -9  -3  237.28   14.90
   6   3  -3  232.78   13.00
   6   3  -3  236.58   15.30
  -9   6  -3  240.68   14.80
   3  -9  -3  239.98   15.00
   6   3  -3  230.78   14.90
  -9   6  -3  224.08   14.20
   3  -9  -3  228.98   14.40
  -9   6  -3  212.68   11.40
  -6  -3   3  209.88   14.40
   9  -6   3  191.28   13.40
   9  -6   3  204.98   14.10
  -3   9   3  221.48   15.70
  -3   9   3  214.08   14.50
  -6  -3   3  228.78   15.30
   9  -6   3  196.58   11.60
  -6  -3   3  198.28   12.60
   0  -9  -3  296.37   19.40
  -9   9  -3  296.67   18.70
  -9   9  -3  297.07   18.60
   0  -9  -3  298.67   18.30
  -9   0   3  264.77   16.10
   9  -9   3  283.07   18.50
  -9   0   3  316.07   21.10
   0   9   3  275.57   17.80
   9  -9   3  281.47   15.20
  -9   0   3  281.27   18.00
  -9   0   3  257.67   16.10
  -9   0   3  292.87   18.70
  -3  -9  -3  485.85   28.70
  -3  -9  -3  470.15   29.20
  -9  12  -3  449.95   25.60
  -3  -9  -3  490.85   29.70
  -9  12  -3  473.05   28.10
  -3  -9  -3  486.25   27.50
  -9  12  -3  472.75   28.90
   9 -12   3  481.45   29.00
   3   9   3  439.36   28.70
   9 -12   3  413.16   24.50
 -12   3   3  484.55   29.90
   3   9   3  457.05   26.90
 -12   3   3  434.36   25.80
 -12   3   3  411.16   25.70
   9 -12   3  495.25   28.50
 -12   3   3  462.85   25.50
 -10  -1  -3  394.16   25.90
 -10  -1  -3  430.16   25.30
  -1  11  -3  422.76   26.00
  -1  11  -3  439.76   28.10
 -10  -1  -3  418.26   25.60
 -10  -1  -3  411.96   24.90
  11 -10  -3  436.16   27.10
  -1  11  -3  444.26   27.30
  11 -10  -3  453.15   26.70
 -11  10   3  449.95   27.50
   1 -11   3  464.55   27.00
 -11  10   3  466.75   26.80
   1 -11   3  469.25   28.40
   1 -11   3  470.55   26.60
   2   8  -3 1399.26   69.89
   2   8  -3 1317.67   70.09
   8 -10  -3 1371.46   69.29
   8 -10  -3 1237.58   65.49
 -10   2  -3 1343.17   67.49
   8 -10  -3 1269.87   65.99
 -10   2  -3 1284.87   67.59
 -10   2  -3 1315.07   67.89
   2   8  -3 1343.57   67.49
 -10   2  -3 1376.66   67.89
 -10   2  -3 1355.36   67.99
 -10   2  -3 1279.07   67.39
  -2  -8   3 1425.86   70.59
  -8  10   3 1400.36   69.09
  -2  -8   3 1216.78   69.59
  -2  -8   3 1447.06   69.69
   5   5  -3  726.23   37.90
   5 -10  -3  700.03   38.90
   5 -10  -3  680.83   38.30
   5   5  -3  712.63   40.50
 -10   5  -3  679.63   39.00
 -10   5  -3  695.33   38.60
  -5  -5   3  765.82   41.00
  -5  -5   3  785.52   38.00
  10  -5   3  735.63   38.40
  10  -5   3  773.22   39.40
  -5  -5   3  769.52   40.10
 -10   8  -3 1074.69   54.99
 -10   8  -3 1143.69   59.59
   8   2  -3 1104.59   59.19
   2 -10  -3 1094.69   60.39
   2 -10  -3 1138.79   60.09
   2 -10  -3 1138.59   59.39
 -10   8  -3 1153.68   59.49
  -8  -2   3 1131.89   60.19
  -2  10   3 1208.18   61.29
  -8  -2   3 1249.97   59.59
  -8  -2   3 1094.49   56.89
  10  -8   3 1151.48   58.99
  -2  10   3 1143.79   61.49
  10  -8   3 1030.50   55.09
  -8  -2   3 1146.39   56.99
  -8  -2   3 1220.98   59.99
 -10  11  -3  259.07   19.00
  -1 -10  -3  270.27   19.70
 -10  11  -3  261.47   18.50
  -1 -10  -3  276.17   18.30
  -1 -10  -3  267.17   19.60
  10 -11   3  261.87   15.20
 -11   1   3  278.47   16.60
  10 -11   3  302.07   19.20
 -11   1   3  303.37   17.80
  10 -11   3  299.37   19.60
   1  10   3  285.87   18.20
 -11   1   3  275.87   17.90
 -11   1   3  274.67   16.70
 -11   1  -3  514.05   29.90
  10 -11  -3  483.65   26.80
  10 -11  -3  594.74   32.20
 -11   1  -3  552.04   30.20
 -11   1  -3  473.65   30.20
   1  10  -3  530.75   32.70
   1  10  -3  585.04   32.70
 -11   1  -3  490.35   29.80
 -11   1  -3  547.05   30.50
 -11   1  -3  545.85   31.00
  10 -11  -3  492.05   27.10
  10 -11  -3  584.14   32.80
  -1 -10   3  558.14   30.80
 -10  11   3  577.24   32.80
 -10  11   3  550.94   31.40
  -1 -10   3  549.95   31.80
  -1 -10   3  550.64   33.00
   4   7  -3  200.38   13.00
   7 -11  -3  220.48   15.80
 -11   4  -3  195.88   12.30
   7 -11  -3  227.88   15.30
 -11   4  -3  206.98   13.60
   7 -11  -3  194.28   13.00
   7 -11  -3  201.78   12.60
   4   7  -3  203.18   15.00
   4   7  -3  216.48   15.60
 -11   4  -3  206.68   12.60
 -11   4  -3  202.58   13.70
  -7  11   3  198.78   15.40
  11  -4   3  175.78   12.80
  11  -4   3  190.08   13.60
  -4  -7   3  183.28   12.80
  -4  -7   3  189.98   14.40
  -7  11   3  192.98   14.20
  -4  -7   3  195.18   15.20
   7   4  -3 1596.64   78.69
   4 -11  -3 1636.24   81.19
   4 -11  -3 1685.83   81.59
 -11   7  -3 1441.26   76.29
 -11   7  -3 1548.25   80.59
 -11   7  -3 1358.96   75.99
   4 -11  -3 1603.64   80.39
   7   4  -3 1664.53   81.59
 -11   7  -3 1570.44   80.29
  -4  11   3 1637.44   82.89
  11  -7   3 1515.85   79.59
  -4  11   3 1650.83   81.19
  -7  -4   3 1583.74   78.49
  -7  -4   3 1699.63   83.89
   1 -11  -3  247.78   18.30
   1 -11  -3  264.47   18.40
   1 -11  -3  252.87   17.40
 -11  10  -3  217.18   12.90
 -11  10  -3  253.67   17.40
 -11  10  -3  224.58   16.80
   1 -11  -3  257.77   17.30
  -1  11   3  261.47   17.10
 -10  -1   3  252.07   17.40
 -10  -1   3  240.48   14.90
  11 -10   3  224.38   12.90
 -10  -1   3  251.57   17.10
 -10  -1   3  277.57   18.30
 -10  -1   3  245.28   15.00
  -1  11   3  266.87   18.80
  11 -10   3  266.87   17.50
 -10  -1   3  268.57   17.00
 -12   3  -3  527.75   30.10
   9 -12  -3  559.64   31.90
 -12   3  -3  509.45   29.70
   3   9  -3  515.45   29.60
   3   9  -3  522.95   32.50
   9 -12  -3  567.84   33.00
   9 -12  -3  467.65   27.60
 -12   3  -3  529.05   29.40
   3   9  -3  568.64   32.60
 -12   3  -3  464.45   29.80
  -9  12   3  576.34   33.10
  -3  -9   3  538.45   30.10
  -9  12   3  562.84   31.70
  -3  -9   3  558.24   32.90
   6 -12  -3  420.26   25.60
 -12   6  -3  427.96   25.40
   6 -12  -3  465.05   27.10
   6   6  -3  456.65   24.70
   6 -12  -3  417.06   24.90
   6   6  -3  433.96   26.90
   6   6  -3  432.86   27.30
   6 -12  -3  432.76   27.50
 -12   6  -3  431.46   25.80
  -6  12   3  447.26   26.50
  -6  -6   3  418.66   24.20
  12  -6   3  409.16   25.50
  -6  -6   3  449.66   26.70
  12  -6   3  419.36   24.90
  -6  -6   3  423.76   27.30
  -6  12   3  453.45   28.10
   3 -12  -3  164.68   12.90
   3 -12  -3  156.28   13.50
 -12   9  -3  162.78   12.70
 -12   9  -3  147.09   12.10
   3 -12  -3  161.28   13.20
   3 -12  -3  152.98   12.30
  -9  -3   3  159.78   12.50
  12  -9   3  167.18   12.50
  -9  -3   3  164.88   13.40
  -9  -3   3  145.89   10.40
  -9  -3   3  137.79   10.30
  -3  12   3  162.58   12.60
  12  -9   3  156.88   12.10
  -3  12   3  169.78   14.20
 -13   5  -3  336.77   19.80
 -13   5  -3  375.56   22.20
 -13   5  -3  349.37   22.00
   5   8  -3  352.56   24.00
 -13   5  -3  298.77   19.60
   5   8  -3  379.96   21.50
   8 -13  -3  348.97   21.30
   8 -13  -3  399.06   26.00
   8 -13  -3  352.46   20.60
   8 -13  -3  391.66   24.70
   5   8  -3  368.46   23.80
  -5  -8   3  363.46   24.20
  -8  13   3  370.66   24.50
  -5  -8   3  373.16   23.40
  -8  13   3  368.26   23.00
  13  -5   3  341.37   21.90
  13  -5   3  313.47   21.00
  -5  -8   3  305.47   20.60
 -13   8  -3  366.86   20.10
   8   5  -3  411.06   23.50
 -13   8  -3  430.36   25.70
   5 -13  -3  419.56   27.10
   8   5  -3  439.26   26.90
   5 -13  -3  414.16   25.80
 -13   8  -3  402.76   25.10
   5 -13  -3  406.86   24.90
   5 -13  -3  427.16   26.20
  13  -8   3  386.76   24.20
  13  -8   3  403.06   25.10
  -5  13   3  419.36   25.80
  -8  -5   3  391.46   23.10
  -8  -5   3  432.56   26.10
  -5  13   3  435.16   27.80
  -8  -5   3  407.96   26.60
  -1   0  -4 4413.86  210.88
   1  -1  -4 4226.78  210.58
   0   1  -4 4844.72  210.58
   0   1  -4 4559.04  210.58
   1  -1  -4 4207.58  210.28
  -1   0  -4 4950.70  210.78
   1  -1  -4 3947.21  210.18
  -1   1   4 4176.78  210.58
   1   0   4 4596.84  210.68
   0  -1   4 5093.39  210.18
   0  -1   4 4237.38  210.58
  -1   1   4 4156.98  210.28
   1   0   4 3702.03  210.38
   0  -1   4 4597.54  210.48
  -1   3  -4  793.92   39.70
  -2  -1  -4  847.02   39.10
   3  -2  -4  807.42   39.00
  -1   3  -4  774.12   39.20
  -2  -1  -4  795.32   39.40
   3  -2  -4  782.22   38.30
   1  -3   4  783.92   39.20
  -3   2   4  817.82   38.40
   2   1   4  789.22   39.00
  -3   2   4  764.62   39.00
   2   1   4  792.62   39.80
   1  -3   4  775.12   39.20
  -2   2  -4 3217.58  144.19
  -2   2  -4 3173.28  143.09
   0  -2  -4 2986.90  143.69
   0  -2  -4 2798.92  143.29
   0  -2  -4 2907.31  143.59
   2   0  -4 2690.83  142.99
  -2   2  -4 3214.88  143.09
   2  -2   4 2944.21  143.49
   0   2   4 3100.59  143.79
   2  -2   4 3361.96  143.19
   2  -2   4 2712.93  142.89
  -2   0   4 2672.73  142.89
   0   2   4 3060.89  143.69
  -3  -2  -4  657.73   34.00
  -2   5  -4  661.73   34.00
  -3  -2  -4  612.74   33.30
   5  -3  -4  649.34   31.60
   5  -3  -4  647.24   33.70
  -2   5  -4  624.84   33.20
  -2   5  -4  652.83   33.40
  -3  -2  -4  670.73   33.20
   2  -5   4  634.74   33.00
   3   2   4  644.44   33.20
   2  -5   4  632.24   33.80
  -5   3   4  651.33   32.90
  -5   3   4  676.63   33.90
   2  -5   4  660.43   33.40
   3   2   4  638.04   33.90
  -5   3   4  688.23   31.50
  -3   1  -4 1133.69   54.09
  -3   1  -4 1088.29   54.79
   2  -3  -4  942.51   55.39
   1   2  -4 1176.38   54.29
   2  -3  -4 1091.99   54.69
  -1  -2   4 1140.39   54.29
   3  -1   4 1148.79   54.09
   3  -1   4 1136.99   54.89
   3  -1   4 1223.88   55.99
  -2   3   4 1152.88   54.79
   4  -1  -4  477.55   23.60
   4  -1  -4  528.35   23.40
  -1  -3  -4  461.65   24.20
   4  -1  -4  481.75   24.60
  -3   4  -4  446.16   23.50
  -3   4  -4  488.65   24.50
  -1  -3  -4  465.55   24.50
   1   3   4  416.96   23.90
  -4   1   4  473.45   24.60
   3  -4   4  446.46   23.50
  -4   1   4  487.85   23.50
   3  -4   4  461.75   24.30
  -4   1   4  452.95   23.20
   1   3   4  442.46   24.70
  -4  -3  -4   58.99    5.40
  -3   7  -4   56.59    5.20
  -3   7  -4   63.99    6.00
  -3   7  -4   56.29    5.10
  -4  -3  -4   58.79    5.80
  -4  -3  -4   62.09    5.10
   7  -4  -4   56.29    5.30
  -4  -3  -4   55.49    5.50
   7  -4  -4   61.69    4.90
  -7   4   4   58.69    5.60
   4   3   4   58.79    5.50
   3  -7   4   52.19    5.50
  -7   4   4   53.29    3.20
   3  -7   4   55.69    5.20
   3  -7   4   49.99    4.70
  -7   4   4   54.79    4.80
   4   3   4   54.19    4.90
   4  -4  -4 1380.96   74.59
   0   4  -4 1550.14   74.59
   4  -4  -4 1557.54   74.29
  -4   0  -4 1526.25   73.59
   4  -4  -4 1543.55   72.79
   0   4  -4 1536.55   75.09
  -4   0  -4 1610.64   74.59
  -4   0  -4 1504.15   73.99
   0  -4   4 1483.45   74.39
  -4   4   4 1490.65   72.79
   0  -4   4 1475.85   74.99
   4   0   4 1530.15   73.39
  -4   4   4 1495.55   74.89
  -4   4   4 1488.75   74.09
   1  -4  -4  414.26   23.00
  -4   3  -4  408.56   21.90
  -4   3  -4  418.06   21.40
   3   1  -4  427.96   22.80
   3   1  -4  403.86   21.00
   3   1  -4  397.46   22.30
   1  -4  -4  407.96   22.50
   1  -4  -4  393.76   22.50
  -4   3  -4  428.56   22.60
   4  -3   4  450.95   21.60
   4  -3   4  457.85   22.70
  -3  -1   4  432.76   21.00
  -3  -1   4  486.35   23.30
   4  -3   4  443.06   22.00
  -1   4   4  454.85   23.30
  -4   6  -4  361.36   21.00
  -2  -4  -4  367.16   20.30
  -4   6  -4  370.66   19.80
   6  -2  -4  358.56   20.70
  -4   6  -4  355.66   20.60
   6  -2  -4  342.67   19.20
  -2  -4  -4  361.86   21.10
  -2  -4  -4  366.16   21.40
  -2  -4  -4  366.76   21.00
   2   4   4  372.46   20.30
   4  -6   4  401.26   21.20
   4  -6   4  381.46   19.60
  -6   2   4  395.86   19.30
  -6   2   4  405.06   21.10
   4  -6   4  392.26   20.90
   2   4   4  361.56   20.90
  -5  -4  -4   12.60    3.40
  -4   9  -4   10.50    3.40
  -4   9  -4   10.10    2.70
  -5  -4  -4   11.40    3.30
  -5  -4  -4    9.30    2.30
  -5  -4  -4   10.30    3.00
  -4   9  -4   10.50    2.70
   9  -5  -4   12.80    3.30
   9  -5  -4   13.50    2.90
  -9   5   4    9.90    1.10
   4  -9   4    9.30    3.20
   4  -9   4    9.00    2.30
  -9   5   4    9.20    2.30
   5   4   4   13.50    3.60
  -9   5   4   11.10    3.10
   5   4   4   10.70    2.80
  -9   5   4    9.50    0.90
   4  -9   4   10.00    2.90
   6  -5  -4  275.97   16.00
  -5  -1  -4  270.37   15.80
  -5  -1  -4  277.47   15.70
  -1   6  -4  275.37   15.90
   6  -5  -4  274.97   16.50
  -1   6  -4  273.47   16.90
  -1   6  -4  268.87   16.30
  -5  -1  -4  287.27   16.60
   1  -6   4  274.07   16.20
   5   1   4  280.27   15.80
  -6   5   4  286.47   16.80
   5   1   4  291.67   15.80
  -6   5   4  280.37   16.00
   1  -6   4  272.87   16.90
   1  -6   4  275.37   16.00
   3  -5  -4  175.08   10.20
   3  -5  -4  192.38   11.20
  -5   2  -4  186.58   10.10
  -5   2  -4  197.28   11.00
  -5   2  -4  195.28   10.40
   2   3  -4  174.18   11.10
   2   3  -4  167.88    9.70
   2   3  -4  204.68   11.90
   5  -2   4  169.68    9.90
   5  -2   4  170.48   10.20
  -2  -3   4  165.48   10.90
  -3   5   4  171.68   11.50
  -2  -3   4  183.18   11.60
   5  -2   4  176.08   10.90
  -3   5   4  179.08   11.00
  -2  -3   4  164.18    9.80
  -5   5  -4 2344.07  114.89
   0  -5  -4 2308.07  115.29
  -5   5  -4 2517.55  114.89
   0  -5  -4 2340.37  115.09
   0  -5  -4 2343.17  115.29
   0  -5  -4 2292.17  114.59
   5   0  -4 2327.47  114.19
  -5   5  -4 2301.47  112.99
  -5   0   4 2441.06  114.19
   5  -5   4 2349.26  114.59
  -5   0   4 2233.58  112.89
  -5   0   4 2415.46  115.29
   0   5   4 2272.97  115.29
  -5   0   4 2341.17  114.79
   5  -5   4 2383.26  113.09
   0   5   4 2276.47  114.49
  -5   0   4 2471.95  113.09
  -5   8  -4  547.45   29.80
  -5   8  -4  541.75   28.80
  -3  -5  -4  560.04   30.90
  -3  -5  -4  534.45   29.20
   8  -3  -4  542.75   29.70
  -5   8  -4  555.84   30.60
   8  -3  -4  539.15   28.50
  -3  -5  -4  527.65   30.10
  -3  -5  -4  520.35   30.10
  -8   3   4  567.44   30.10
   5  -8   4  528.15   30.20
   3   5   4  526.35   29.00
   3   5   4  533.85   30.10
   5  -8   4  515.45   28.20
   5  -8   4  568.34   30.10
  -8   3   4  575.04   28.70
  -5  11  -4  478.05   28.30
  -5  11  -4  458.95   26.70
  11  -6  -4  447.66   26.40
  -5  11  -4  453.35   26.40
  -6  -5  -4  429.16   26.90
  -6  -5  -4  448.06   27.20
  -6  -5  -4  458.05   27.90
  11  -6  -4  419.16   25.40
 -11   6   4  415.76   26.90
   5 -11   4  474.05   27.10
 -11   6   4  476.55   27.40
   6   5   4  447.26   27.20
   5 -11   4  440.36   25.50
   5 -11   4  436.06   27.40
   6   5   4  489.15   26.20
  -2   8  -4    6.20    2.40
  -6  -2  -4    9.00    2.20
  -6  -2  -4    9.00    2.60
  -6  -2  -4    7.80    2.40
  -2   8  -4    7.20    2.20
  -6  -2  -4    6.10    2.10
   8  -6  -4    9.80    2.60
  -2   8  -4    7.60    2.40
   8  -6  -4    7.70    2.60
  -8   6   4    3.50    1.90
   2  -8   4    4.60    2.20
   2  -8   4    4.60    1.90
  -8   6   4    3.30    1.60
   6   2   4    3.40    1.60
   2  -8   4    5.00    2.00
   6   2   4    6.00    2.00
  -6   1  -4    6.00    1.80
  -6   1  -4    4.80    1.60
   5  -6  -4    5.40    2.10
   1   5  -4    4.20    1.30
  -6   1  -4    5.70    1.70
   5  -6  -4    5.30    1.20
   1   5  -4    3.80    1.50
   5  -6  -4    8.00    2.10
  -1  -5   4    5.80    1.90
  -5   6   4    6.10    2.00
  -5   6   4    5.70    1.90
  -1  -5   4    6.30    1.60
   6  -1   4    5.50    1.50
  -1  -5   4    5.50    2.00
  -6   4  -4  541.25   27.90
   4   2  -4  497.75   25.90
   4   2  -4  510.55   28.10
   2  -6  -4  515.15   27.70
  -6   4  -4  529.65   25.90
   2  -6  -4  505.35   27.40
   2  -6  -4  524.25   27.80
   2  -6  -4  525.75   28.60
   4   2  -4  507.65   27.70
  -4  -2   4  506.25   27.60
  -2   6   4  528.55   27.90
   6  -4   4  501.85   26.00
  -4  -2   4  505.45   25.90
   6  -4   4  529.75   27.70
   6  -4   4  497.15   26.70
  -2   6   4  537.95   28.80
  -4  -2   4  539.65   28.50
  -1  -6  -4   96.29    7.70
  -1  -6  -4   99.99    8.10
   7  -1  -4   90.29    6.50
  -1  -6  -4   96.99    7.20
  -6   7  -4   98.59    7.70
  -6   7  -4   89.89    5.90
  -1  -6  -4   99.49    8.00
  -6   7  -4   94.59    7.40
   1   6   4   82.29    7.40
  -7   1   4   82.39    7.00
  -7   1   4   78.09    6.20
  -7   1   4   75.39    5.80
   6  -7   4   80.79    7.20
   1   6   4   81.19    6.70
   6  -7   4   79.29    7.00
  -4  -6  -4  262.27   15.70
  10  -4  -4  234.98   14.80
  -4  -6  -4  251.67   16.80
  10  -4  -4  258.77   16.20
  -4  -6  -4  271.07   20.20
  -6  10  -4  261.97   17.30
  -6  10  -4  240.48   15.20
   4   6   4  236.28   15.30
   4   6   4  234.78   16.50
   6 -10   4  225.08   16.40
 -10   4   4  241.48   15.00
 -10   4   4  247.58   16.30
   6 -10   4  217.28   14.30
  -7  -6  -4  124.59   11.50
  -6  13  -4  137.09   12.40
  -7  -6  -4  133.49   11.60
  -6  13  -4  128.89   11.10
  -7  -6  -4  126.09   12.00
   7   6   4  102.09   11.70
 -13   7   4  117.89   10.20
 -13   7   4  134.29   11.60
   6 -13   4  118.29   11.60
   6 -13   4  139.09   11.60
  -7  -3  -4   10.10    2.70
  -3  10  -4    8.20    2.60
  -7  -3  -4   10.50    3.40
  -7  -3  -4   10.60    3.50
  -7  -3  -4   10.00    3.10
  -3  10  -4    7.80    2.70
  10  -7  -4   11.70    3.00
  10  -7  -4    9.00    2.90
 -10   7   4    6.90    2.40
   3 -10   4    6.50    2.80
   3 -10   4    6.50    2.30
   7   3   4    9.20    3.00
   7   3   4    6.60    2.30
   3 -10   4    7.60    2.70
 -10   7   4    8.20    3.10
   0   7  -4  635.24   35.00
  -7   0  -4  638.54   34.60
  -7   0  -4  615.44   33.40
   7  -7  -4  653.63   35.40
   7  -7  -4  621.84   31.40
  -7   0  -4  601.34   33.70
   0   7  -4  612.34   33.80
  -7   0  -4  621.34   34.10
   7  -7  -4  630.04   31.50
  -7   0  -4  629.44   33.80
   0   7  -4  629.74   35.60
  -7   0  -4  610.84   33.80
   7  -7  -4  666.83   34.70
   0  -7   4  657.43   35.70
  -7   7   4  686.23   35.60
   0  -7   4  733.73   34.50
  -7   7   4  660.63   34.50
   0  -7   4  696.23   35.10
  -7   3  -4  170.78   10.50
   4  -7  -4  168.38   11.50
   4  -7  -4  159.68    9.90
  -7   3  -4  167.08    9.70
   3   4  -4  145.49    9.00
   3   4  -4  156.48   11.20
   3   4  -4  162.78   10.90
   4  -7  -4  156.98    9.70
   7  -3   4  144.09    9.30
  -3  -4   4  154.08    9.80
  -4   7   4  156.08   11.30
  -3  -4   4  135.99   10.80
  -3  -4   4  141.69   10.40
   7  -3   4  147.89   10.20
  -4   7   4  145.79   10.40
  -7   6  -4  150.48    8.80
   1  -7  -4  154.38   11.60
   6   1  -4  157.58   10.80
   1  -7  -4  161.58   11.00
   1  -7  -4  160.38   11.40
  -7   6  -4  169.48   11.20
   1  -7  -4  153.18   11.00
  -7   6  -4  156.38   10.70
  -6  -1   4  166.38   10.80
   7  -6   4  157.58   10.60
  -1   7   4  166.98   11.90
  -1   7   4  159.08   10.90
  -6  -1   4  177.28   11.70
   7  -6   4  165.88   11.00
   7  -6   4  160.88    9.00
  -6  -1   4  159.48   11.10
  -2  -7  -4   38.50    5.10
  -2  -7  -4   40.00    4.60
  -7   9  -4   38.70    3.90
  -2  -7  -4   37.50    5.30
  -7   9  -4   40.70    5.20
  -2  -7  -4   38.30    5.30
   9  -2  -4   37.20    4.70
   9  -2  -4   36.80    3.90
  -9   2   4   36.70    3.90
   2   7   4   36.80    5.10
   7  -9   4   38.20    4.80
   2   7   4   34.40    4.20
   7  -9   4   40.50    5.20
   7  -9   4   35.10    3.40
  -9   2   4   42.40    4.00
  -9   2   4   40.70    4.90
  -7  12  -4   16.20    4.70
  -5  -7  -4   15.40    4.30
  -5  -7  -4   16.40    4.60
  -5  -7  -4   19.80    4.20
  -7  12  -4   17.00    4.10
  12  -5  -4   11.80    2.90
  -7  12  -4   17.70    3.90
  -5  -7  -4   18.70    4.60
   5   7   4   10.50    3.70
   7 -12   4   17.40    4.30
   7 -12   4   17.30    2.90
   7 -12   4   15.70    4.60
 -12   5   4   13.20    3.30
  -8  -4  -4   49.40    6.70
  12  -8  -4   45.80    6.00
  -4  12  -4   49.30    6.00
  -8  -4  -4   46.90    6.30
  -8  -4  -4   46.30    5.30
  -4  12  -4   47.70    6.20
  12  -8  -4   50.59    6.30
  -4  12  -4   53.29    7.30
 -12   8   4   54.69    7.00
   4 -12   4   49.90    5.90
   8   4   4   49.00    6.30
   8   4   4   53.29    5.80
 -12   8   4   46.00    5.80
   4 -12   4   49.10    6.90
   4 -12   4   54.59    6.50
   9  -8  -4  545.85   30.30
  -8  -1  -4  540.05   31.40
  -1   9  -4  536.65   29.30
   9  -8  -4  548.75   29.70
  -8  -1  -4  538.75   32.60
  -8  -1  -4  527.85   29.50
  -8  -1  -4  515.15   28.80
  -1   9  -4  536.95   30.20
  -8  -1  -4  513.45   28.50
  -8  -1  -4  528.55   30.00
   1  -9   4  495.65   29.40
   1  -9   4  500.75   29.10
  -9   8   4  482.95   29.10
  -9   8   4  516.65   30.30
  -8   2  -4  168.38   11.20
   6  -8  -4  181.78   12.30
   2   6  -4  159.38   10.60
  -8   2  -4  169.78   10.90
   6  -8  -4  168.28   10.40
   2   6  -4  174.78   12.40
  -8   2  -4  169.18   10.80
   2   6  -4  173.78   12.70
  -8   2  -4  172.88   11.40
   6  -8  -4  180.08   13.00
  -2  -6   4  185.58   11.10
  -2  -6   4  170.98   12.10
  -6   8   4  171.28   11.90
  -2  -6   4  172.48   12.80
  -6   8   4  174.48   12.70
   5   3  -4   64.89    6.50
   3  -8  -4   64.59    6.00
   3  -8  -4   64.59    6.20
  -8   5  -4   59.79    4.20
   3  -8  -4   63.79    6.60
  -8   5  -4   69.39    6.10
   5   3  -4   59.19    6.00
  -8   5  -4   63.99    5.60
   3  -8  -4   63.79    5.80
   5   3  -4   63.69    4.80
   8  -5   4   68.99    6.10
  -5  -3   4   68.59    6.20
   8  -5   4   62.59    4.50
  -5  -3   4   67.09    6.60
   8  -5   4   63.99    5.40
  -3   8   4   68.69    6.30
  -5  -3   4   53.09    4.90
   0  -8  -4   34.20    4.90
   0  -8  -4   33.50    4.60
   8   0  -4   36.50    4.30
  -8   8  -4   36.40    4.70
   0  -8  -4   32.40    4.90
   0  -8  -4   34.70    4.40
  -8   0   4   36.30    3.50
   0   8   4   36.40    5.10
  -8   0   4   40.00    4.40
   8  -8   4   38.20    4.80
   0   8   4   35.60    4.30
   8  -8   4   36.00    4.60
  -8   0   4   37.30    3.50
  -8   0   4   37.50    4.60
  -8   0   4   35.00    4.80
  -8  11  -4  177.78   12.90
  -3  -8  -4  179.18   12.40
  -8  11  -4  173.28   11.20
  -3  -8  -4  177.48   13.70
  11  -3  -4  165.18   12.40
  11  -3  -4  163.88   11.10
   8 -11   4  161.08   13.00
   8 -11   4  145.09   10.10
 -11   3   4  153.28   11.00
   3   8   4  160.28   13.10
 -11   3   4  157.38   12.30
 -11   3   4  145.59   10.70
   8 -11   4  173.88   12.90
 -11   3   4  161.98   10.60
  -9  -2  -4  337.77   20.10
  -9  -2  -4  369.16   24.70
  11  -9  -4  318.57   20.70
  -2  11  -4  328.47   22.60
  -9  -2  -4  300.87   20.70
  11  -9  -4  348.87   21.80
  -2  11  -4  332.87   20.90
  -2  11  -4  346.77   21.90
   2 -11   4  326.87   21.00
   2 -11   4  333.37   21.10
 -11   9   4  351.06   22.20
   2 -11   4  330.17   22.40
 -11   9   4  331.07   20.90
   8  -9  -4   95.39    8.30
  -9   1  -4   82.59    7.40
   8  -9  -4   77.49    5.40
   8  -9  -4   94.29    8.80
   1   8  -4   86.49    7.30
   8  -9  -4   81.19    5.70
  -9   1  -4   84.19    7.00
  -9   1  -4   86.89    7.40
  -9   1  -4   95.69    7.60
  -9   1  -4   86.89    7.40
  -9   1  -4   91.39    8.10
  -8   9   4  104.79    9.20
  -8   9   4   96.79    8.90
  -1  -8   4  105.59    7.90
  -9   4  -4  168.88   11.50
   5  -9  -4  188.68   12.80
   4   5  -4  169.58   12.60
  -9   4  -4  171.38   10.50
   5  -9  -4  173.08   11.60
   4   5  -4  162.48   10.60
   5  -9  -4  172.78   11.30
   5  -9  -4  184.98   13.40
  -9   4  -4  177.78   12.10
   4   5  -4  178.98   13.20
  -4  -5   4  176.78   10.90
  -4  -5   4  181.28   12.60
  -5   9   4  190.28   13.60
  -5   9   4  191.88   12.70
   9  -4   4  167.48   11.10
   9  -4   4  174.78   12.00
   9  -4   4  162.48   10.50
  -4  -5   4  176.58   13.20
  -9   7  -4  196.58   11.10
   2  -9  -4  208.38   15.10
  -9   7  -4  228.58   14.60
   2  -9  -4  214.78   14.70
  -9   7  -4  205.78   13.80
   2  -9  -4  212.18   14.30
   2  -9  -4  229.88   14.70
   7   2  -4  213.38   14.30
   9  -7   4  193.98   11.40
  -7  -2   4  220.28   14.20
  -2   9   4  223.38   15.60
   9  -7   4  194.88   13.50
   9  -7   4  212.28   14.10
  -2   9   4  217.58   14.30
  -7  -2   4  214.18   12.30
  -7  -2   4  224.28   15.10
  -1  -9  -4  379.66   24.50
  -1  -9  -4  367.76   24.20
  -1  -9  -4  379.16   23.80
  -9  10  -4  390.86   23.70
  -9  10  -4  365.76   20.70
  -9  10  -4  369.06   23.60
 -10   1   4  408.96   22.40
 -10   1   4  349.47   21.10
   9 -10   4  399.36   23.70
 -10   1   4  416.86   24.30
   9 -10   4  416.66   24.40
 -10   1   4  370.26   21.20
 -10   1   4  379.46   22.50
   9 -10   4  379.66   20.40
   1   9   4  393.16   24.60
 -10   1   4  385.66   23.20
  -4  -9  -4   39.30    5.30
  13  -4  -4   37.10    5.30
  -4  -9  -4   43.00    6.20
  -4  -9  -4   37.00    6.10
  13  -4  -4   32.00    4.40
  -9  13  -4   40.00    4.70
  -4  -9  -4   40.50    6.50
  -9  13  -4   39.40    6.20
  -9  13  -4   38.70    5.70
   9 -13   4   33.70    5.80
 -13   4   4   34.40    5.30
   9 -13   4   33.50    5.30
   4   9   4   31.70    4.70
 -13   4   4   30.40    4.30
   4   9   4   20.50    5.40
   9 -13   4   27.70    3.60
 -13   4   4   36.60    3.90
 -10   0  -4   63.59    6.90
 -10   0  -4   64.39    6.20
 -10   0  -4   61.29    6.10
  10 -10  -4   68.29    7.60
 -10   0  -4   66.69    6.70
   0  10  -4   62.69    6.40
  10 -10  -4   55.89    3.20
  10 -10  -4   66.29    7.00
   0  10  -4   65.69    7.30
 -10   0  -4   63.99    6.30
 -10   0  -4   59.89    6.40
  10 -10  -4   52.79    3.20
   0 -10   4   56.09    7.30
 -10  10   4   57.99    6.50
   0 -10   4   58.59    6.70
 -10  10   4   58.49    7.20
   0 -10   4   58.99    6.30
 -10   3  -4  399.36   22.40
   7 -10  -4  384.06   21.80
 -10   3  -4  390.96   22.00
 -10   3  -4  406.46   23.10
   7 -10  -4  398.06   21.50
 -10   3  -4  396.46   22.50
  -3  -7   4  392.76   22.30
  -3  -7   4  369.16   24.40
  -3  -7   4  401.76   24.00
  -7  10   4  400.46   23.70
   6   4  -4   98.79    9.10
 -10   6  -4   89.09    7.80
 -10   6  -4   82.19    5.80
 -10   6  -4   97.89    8.40
   4 -10  -4   93.19    8.40
   4 -10  -4   91.09    7.90
   6   4  -4   94.19    8.70
   6   4  -4   94.69    7.00
  -6  -4   4  114.39    9.10
  -6  -4   4  108.19    9.60
  -6  -4   4  108.69    7.20
  10  -6   4  102.59    6.40
  10  -6   4  102.69    7.90
  10  -6   4  107.39    8.70
   1 -10  -4  231.58   15.60
 -10   9  -4  227.18   15.30
   1 -10  -4  232.78   16.10
   1 -10  -4  238.68   15.40
 -10   9  -4  210.78   11.60
 -10   9  -4  221.48   15.00
   1 -10  -4  224.68   16.20
   9   1  -4  217.08   14.60
  10  -9   4  197.38   14.60
  10  -9   4  183.38   11.50
  -1  10   4  209.08   14.60
  -9  -1   4  205.28   14.30
  -9  -1   4  197.58   12.60
  10  -9   4  208.18   14.70
  -9  -1   4  208.08   14.90
  -1  10   4  208.48   15.90
  -2 -10  -4  213.78   15.00
 -10  12  -4  206.88   15.40
  -2 -10  -4  210.28   16.40
  -2 -10  -4  211.08   15.80
  -2 -10  -4  209.08   16.50
 -10  12  -4  227.28   18.00
 -10  12  -4  186.78   12.60
  10 -12   4  217.08   16.10
 -12   2   4  191.48   13.00
   2  10   4  204.18   14.50
 -12   2   4  183.58   13.00
 -12   2   4  210.08   15.70
  10 -12   4  184.18   12.00
 -12   2   4  200.48   13.50
   2  10   4  210.08   16.30
 -12   2   4  187.08   13.70
 -12   2   4  206.98   14.90
  10 -12   4  225.48   15.80
 -11  -1  -4  157.08   13.70
 -11  -1  -4  185.28   14.30
  -1  12  -4  179.18   15.70
  12 -11  -4  199.58   15.40
  -1  12  -4  203.78   15.50
  12 -11  -4  193.68   14.60
  -1  12  -4  197.38   14.30
 -11  -1  -4  179.28   14.70
 -11  -1  -4  184.78   13.70
 -12  11   4  214.08   16.00
   1 -12   4  209.88   16.40
   1 -12   4  200.28   14.50
   1 -12   4  180.88   14.40
 -12  11   4  209.08   14.90
 -11   2  -4    8.40    2.70
   9 -11  -4   10.00    2.20
   9 -11  -4    9.90    3.20
 -11   2  -4    8.10    2.60
   2   9  -4   14.00    4.10
 -11   2  -4    7.70    2.50
   2   9  -4    7.40    2.40
 -11   2  -4   11.50    2.90
   9 -11  -4    9.50    3.60
 -11   2  -4    8.30    2.70
   9 -11  -4    8.60    1.80
   2   9  -4    7.60    3.20
 -11   2  -4    9.60    2.80
  -2  -9   4   11.50    3.60
  -9  11   4   11.50    3.50
  -2  -9   4   12.00    3.10
  -2  -9   4   12.50    4.20
  -9  11   4   13.50    4.10
   5   6  -4   36.50    5.50
 -11   5  -4   33.70    4.40
   6 -11  -4   36.90    4.30
 -11   5  -4   32.60    3.30
   5   6  -4   34.80    5.10
 -11   5  -4   34.30    3.50
   6 -11  -4   36.80    5.70
   5   6  -4   37.00    4.00
   6 -11  -4   35.10    4.40
   6 -11  -4   37.40    5.10
  -5  -6   4   27.70    4.60
  -6  11   4   23.60    5.50
  -6  11   4   27.70    5.00
  -5  -6   4   26.20    4.70
  11  -5   4   26.80    3.70
  11  -5   4   27.50    4.30
  -5  -6   4   25.40    3.50
   3 -11  -4   72.29    8.10
 -11   8  -4   65.49    6.70
 -11   8  -4   72.79    7.30
   3 -11  -4   71.09    7.30
 -11   8  -4   61.29    3.90
  11  -8   4   60.89    6.70
  11  -8   4   62.99    6.40
  -8  -3   4   57.79    5.20
  -3  11   4   68.29    8.10
  -3  11   4   66.99    7.10
  11  -8   4   54.79    4.00
  -8  -3   4   58.89    7.20
   0 -11  -4    9.90    3.80
 -11  11  -4    9.20    3.50
   0 -11  -4    9.70    3.20
   0 -11  -4    9.70    3.90
 -11  11  -4   10.00    3.50
   0 -11  -4    8.20    3.20
 -11   0   4   12.40    3.30
 -11   0   4   10.70    2.50
  11 -11   4   13.70    3.80
   0  11   4   12.00    3.60
  11 -11   4   13.30    4.00
 -11   0   4   15.40    4.30
   0  11   4   14.50    4.60
 -11   0   4   11.40    3.40
 -11   0   4   11.50    3.70
  11 -12  -4    7.90    1.30
   1  11  -4   11.80    4.20
   1  11  -4   10.70    3.10
 -12   1  -4   11.40    3.50
  11 -12  -4    9.50    3.70
   1  11  -4   11.20    4.20
 -12   1  -4    8.10    2.70
 -12   1  -4    8.20    2.90
 -12   1  -4   13.40    3.70
  11 -12  -4   11.10    3.70
  11 -12  -4    8.70    1.20
 -12   1  -4   10.60    3.00
 -11  12   4   11.10    3.70
 -11  12   4   11.70    4.20
  -1 -11   4   11.50    4.20
  -1 -11   4   12.70    4.00
  -1 -11   4   11.10    3.20
   8 -12  -4   26.10    6.20
 -12   4  -4   20.50    3.10
   4   8  -4   17.80    5.10
   8 -12  -4   18.50    3.10
   4   8  -4   24.20    5.70
   8 -12  -4   22.20    3.10
   4   8  -4   20.80    3.40
 -12   4  -4   19.00    3.20
   8 -12  -4   22.70    5.10
 -12   4  -4   15.90    3.80
 -12   4  -4   20.60    3.60
  -8  12   4   30.90    4.80
  -4  -8   4   26.20    5.90
  -4  -8   4   29.00    3.90
  -4  -8   4   33.00    5.10
  -8  12   4   29.20    5.40
   7   5  -4  147.89   10.10
   5 -12  -4  148.39   12.90
   5 -12  -4  147.29   11.20
   7   5  -4  148.89   12.20
   5 -12  -4  151.28   11.90
 -12   7  -4  135.49    8.70
   5 -12  -4  163.88   12.50
   7   5  -4  157.98   12.80
 -12   7  -4  140.29   11.10
 -12   7  -4  151.88   11.80
 -12   7  -4  128.49    8.30
  -7  -5   4  140.59   11.80
  -5  12   4  155.68   13.30
  -7  -5   4  145.59   12.60
  12  -7   4  145.59   11.40
  12  -7   4  123.89   10.20
  -5  12   4  147.39   11.90
  -7  -5   4  129.19    9.60
   2 -12  -4   73.49    7.70
 -12  10  -4   63.09    3.70
   2 -12  -4   69.49    7.50
   2 -12  -4   70.39    8.10
   2 -12  -4   69.99    8.40
 -12  10  -4   73.69    7.70
 -10  -2   4   62.19    6.90
  -2  12   4   61.19    8.10
  12 -10   4   49.00    3.60
 -10  -2   4   61.29    7.30
 -10  -2   4   56.79    6.90
 -10  -2   4   49.90    5.10
  12 -10   4   62.59    7.10
  -2  12   4   60.79    6.90
 -10  -2   4   52.19    5.20
 -10  -2   4   54.89    7.40
   6   7  -4   55.19    7.40
 -13   6  -4   53.09    6.20
 -13   6  -4   47.90    4.50
   6   7  -4   53.39    5.70
   6   7  -4   55.79    7.30
   7 -13  -4   56.19    6.40
   7 -13  -4   51.39    5.80
   7 -13  -4   58.49    7.80
   7 -13  -4   60.99    7.40
  -6  -7   4   58.59    7.70
  -7  13   4   70.09    8.60
  13  -6   4   58.39    6.10
  13  -6   4   61.49    6.90
  -6  -7   4   61.19    7.30
  -7  13   4   67.89    7.40
  -6  -7   4   61.69    5.90
   4 -13  -4  142.59   12.10
   4 -13  -4  131.79   11.30
   4 -13  -4  130.59   12.50
 -13   9  -4  124.69   11.00
 -13   9  -4  135.59   11.70
   4 -13  -4  140.79   12.20
  13  -9   4  139.09   11.50
  -9  -4   4  152.18   12.10
  -9  -4   4  130.69    9.50
  -9  -4   4  123.29   12.00
  13  -9   4  119.79   11.50
  -4  13   4  150.88   12.10
   1   0  -5 1724.13   84.19
   1   0  -5 1725.03   85.09
   0  -1  -5 1765.02   84.79
   1   0  -5 1867.61   84.89
  -1   1  -5 1840.12   84.49
  -1   1  -5 1831.02   84.99
   0  -1  -5 1639.24   84.89
   0  -1  -5 1916.11   85.29
  -1   1  -5 1824.12   84.99
   1  -1   5 1864.91   84.59
   1  -1   5 1807.62   84.99
  -1   0   5 1590.24   84.99
  -1   0   5 1680.83   84.19
   1  -1   5 1884.91   84.99
   0   1   5 1753.42   85.19
  -1   0   5 1673.73   84.79
   0   1   5 1667.83   84.89
   0   1   5 1675.53   84.79
   2  -2  -5 4320.67  233.68
  -2   0  -5 4886.81  234.08
   0   2  -5 5092.49  234.58
  -2   0  -5 4612.74  232.98
   0   2  -5 4894.91  234.58
   0   2  -5 4958.90  233.58
  -2   0  -5 5509.15  234.48
   2  -2  -5 4327.57  233.48
   2   0   5 5631.14  234.58
  -2   2   5 4690.73  233.78
   2   0   5 5315.57  233.08
  -2   2   5 4470.75  233.58
   0  -2   5 4912.31  234.48
   3  -1  -5 4262.77  214.78
   3  -1  -5 4725.53  215.18
  -2   3  -5 4557.64  215.78
  -1  -2  -5 4513.05  217.38
  -1  -2  -5 4377.56  215.68
  -2   3  -5 4500.65  215.38
  -3   1   5 4793.52  215.08
   2  -3   5 5141.69  215.58
  -3   1   5 4288.17  214.78
   2  -3   5 4189.08  215.58
   1   2   5 4186.38  215.58
  -1   4  -5 1045.50   52.89
  -3  -1  -5 1027.80   52.99
  -3  -1  -5 1084.09   53.69
  -1   4  -5  972.60   52.99
   4  -3  -5 1020.40   53.49
   4  -3  -5 1135.29   51.69
  -3  -1  -5 1048.10   52.59
  -1   4  -5 1114.09   53.89
   3   1   5 1097.39   53.19
   3   1   5 1157.78   52.79
   1  -4   5 1099.59   53.79
   3   1   5 1047.00   53.59
  -4   3   5 1116.59   51.79
  -4   3   5 1073.99   53.79
   1  -4   5 1037.60   52.99
   1  -3  -5  569.24   29.90
  -3   2  -5  567.24   30.00
  -3   2  -5  571.94   28.30
  -3   2  -5  527.95   28.60
   3  -2   5  583.54   28.30
  -2  -1   5  639.24   30.90
   3  -2   5  574.94   28.80
  -1   3   5  590.14   29.40
  -3   5  -5  317.87   18.00
   5  -2  -5  293.17   16.40
   5  -2  -5  311.57   18.00
  -2  -3  -5  315.27   18.30
  -2  -3  -5  324.67   17.60
  -2  -3  -5  315.27   17.80
  -3   5  -5  300.87   17.10
   5  -2  -5  286.97   16.60
  -3   5  -5  300.17   17.60
   3  -5   5  344.97   17.90
   2   3   5  338.97   17.70
  -5   2   5  353.36   18.40
  -5   2   5  305.37   16.70
   2   3   5  353.56   18.00
  -5   2   5  349.37   16.40
   3  -5   5  326.47   17.10
   3  -5   5  318.67   17.90
  -2   6  -5  671.53   33.40
   6  -4  -5  605.44   31.70
  -2   6  -5  610.04   32.30
  -4  -2  -5  619.24   33.00
   6  -4  -5  602.24   32.60
  -4  -2  -5  628.94   32.20
  -2   6  -5  627.84   32.20
   6  -4  -5  594.94   29.90
  -4  -2  -5  633.64   32.10
   4   2   5  630.94   32.30
  -6   4   5  635.24   33.10
   2  -6   5  611.24   32.10
  -6   4   5  604.64   31.70
   2  -6   5  610.24   32.20
   4   2   5  602.54   32.80
  -6   4   5  615.04   29.90
   2  -6   5  591.94   32.90
   4   2   5  609.04   32.10
   1   3  -5  469.35   24.10
   1   3  -5  439.66   22.20
  -4   1  -5  465.15   22.00
   3  -4  -5  418.76   22.40
   3  -4  -5  430.66   23.20
   1   3  -5  396.56   23.10
  -4   1  -5  431.66   23.10
   3  -4  -5  440.76   23.80
  -4   1  -5  438.66   21.90
  -4   1  -5  429.96   23.00
  -3   4   5  457.45   22.60
  -1  -3   5  456.05   23.40
  -1  -3   5  435.36   22.20
  -3   4   5  450.05   23.90
  -3   4   5  452.05   23.30
   0  -4  -5  261.57   15.20
   0  -4  -5  266.67   15.20
  -4   4  -5  268.07   14.60
   4   0  -5  249.38   14.30
   0  -4  -5  254.97   14.70
  -4   4  -5  280.97   15.20
  -4   4  -5  263.07   13.80
   0   4   5  255.97   15.20
   4  -4   5  267.37   13.90
  -4   0   5  274.47   13.20
   0   4   5  268.17   15.20
  -4   0   5  252.67   13.10
  -4   0   5  250.97   14.90
   0   4   5  244.78   14.60
   4  -4   5  268.17   14.90
   7  -3  -5  949.21   48.30
  -3  -4  -5  942.91   48.90
   7  -3  -5  911.71   46.00
  -4   7  -5  893.11   47.80
  -3  -4  -5  944.11   48.60
  -4   7  -5 1000.90   48.90
  -4   7  -5  930.71   47.30
   7  -3  -5  946.91   46.80
  -3  -4  -5  927.81   47.60
  -3  -4  -5  927.01   48.20
  -7   3   5  982.90   48.60
  -7   3   5  918.11   45.70
  -7   3   5  848.82   46.60
   3   4   5  946.01   48.30
   4  -7   5  917.61   48.40
   3   4   5  935.91   47.60
   4  -7   5  928.61   46.90
   4  -7   5  978.90   48.20
  -5  -3  -5  881.31   46.60
  -3   8  -5  862.81   45.50
  -3   8  -5  937.01   47.10
   8  -5  -5  889.51   46.00
  -5  -3  -5  906.11   46.40
  -5  -3  -5  914.41   45.90
  -3   8  -5  889.91   45.70
  -5  -3  -5  914.41   45.30
   8  -5  -5  907.41   45.10
   3  -8   5  849.91   45.10
   3  -8   5  863.01   45.60
   5   3   5  845.12   45.20
  -8   5   5  852.41   44.90
   5   3   5  846.72   45.70
  -8   5   5  880.91   46.40
   3  -8   5  805.12   46.20
   0   5  -5 1347.77   66.99
   5  -5  -5 1319.37   68.19
   0   5  -5 1381.86   68.59
   5  -5  -5 1271.17   65.59
   5  -5  -5 1400.76   67.69
   0   5  -5 1308.87   67.79
  -5   0  -5 1351.36   67.29
  -5   0  -5 1406.76   67.89
  -5   5   5 1326.67   67.39
  -5   5   5 1360.06   68.39
  -5   5   5 1308.67   65.69
   0  -5   5 1312.57   68.39
   0  -5   5 1420.26   67.89
   5   0   5 1336.07   67.59
   0  -5   5 1532.55   67.29
  -5   3  -5  762.82   39.50
   3   2  -5  859.81   41.40
   2  -5  -5  805.12   40.70
  -5   3  -5  835.42   40.80
   3   2  -5  815.82   38.80
   2  -5  -5  814.02   41.50
   2  -5  -5  799.22   40.50
  -5   3  -5  784.32   39.30
   3   2  -5  791.62   40.60
  -3  -2   5  798.72   40.60
  -3  -2   5  836.52   41.40
   5  -3   5  817.82   40.70
   5  -3   5  742.33   39.30
   5  -3   5  773.12   39.50
  -2   5   5  786.32   41.40
  -2   5   5  756.82   40.50
  -3  -2   5  777.72   38.80
  -5   6  -5 1017.80   52.49
  -1  -5  -5 1029.00   52.89
  -5   6  -5  971.60   50.79
   6  -1  -5 1020.50   51.39
  -1  -5  -5 1052.69   53.19
  -5   6  -5  902.11   53.19
   6  -1  -5 1027.20   50.69
  -1  -5  -5 1002.40   52.09
  -1  -5  -5 1022.80   52.79
   6  -1  -5  995.40   52.49
   1   5   5  995.80   51.89
   1   5   5 1038.60   52.79
  -6   1   5 1084.19   52.69
   5  -6   5 1091.79   52.59
  -6   1   5 1120.19   50.79
   5  -6   5 1033.50   52.49
  -6   1   5 1127.69   51.39
   9  -4  -5  429.86   24.00
  -4  -5  -5  442.06   24.80
  -5   9  -5  419.36   24.40
  -5   9  -5  428.46   25.20
  -4  -5  -5  440.46   26.30
  -4  -5  -5  441.46   25.90
  -5   9  -5  446.86   26.30
   9  -4  -5  424.66   25.20
  -4  -5  -5  431.56   25.60
   5  -9   5  427.16   24.00
   5  -9   5  467.75   25.70
  -9   4   5  413.26   22.20
   4   5   5  454.95   24.80
  -9   4   5  498.45   26.20
   4   5   5  438.86   25.70
  -9   4   5  464.75   24.30
   5  -9   5  435.76   25.90
  -4  10  -5  351.16   21.70
  -6  -4  -5  331.77   21.80
  10  -6  -5  343.27   21.00
  10  -6  -5  345.67   21.80
  -6  -4  -5  344.47   22.40
  -6  -4  -5  351.56   21.10
   6   4   5  384.36   21.60
   4 -10   5  354.46   21.20
   4 -10   5  395.16   22.40
 -10   6   5  388.96   22.90
   6   4   5  404.06   22.80
 -10   6   5  381.46   21.40
   7  -6  -5  337.77   21.00
  -1   7  -5  372.66   20.50
   7  -6  -5  343.17   17.40
  -1   7  -5  345.47   21.60
   7  -6  -5  355.26   20.50
  -6  -1  -5  341.67   20.10
  -1   7  -5  351.66   20.90
  -6  -1  -5  353.26   21.10
  -6  -1  -5  353.36   20.10
   7  -6  -5  366.66   17.40
  -7   6   5  358.56   20.40
   1  -7   5  394.26   20.70
   1  -7   5  358.16   21.60
   6   1   5  368.76   20.30
   6   1   5  361.96   20.00
  -7   6   5  387.46   21.80
   1  -7   5  376.86   20.90
   4  -6  -5   29.00    3.50
  -6   2  -5   28.20    2.70
   4  -6  -5   27.90    3.90
  -6   2  -5   29.30    3.40
   2   4  -5   27.30    3.50
   2   4  -5   35.90    4.30
  -6   2  -5   29.30    3.10
   6  -2   5   29.10    2.70
   6  -2   5   32.60    3.60
  -4   6   5   32.10    3.60
  -4   6   5   30.60    4.00
   6  -2   5   30.80    3.20
  -2  -4   5   38.00    4.40
  -2  -4   5   32.20    3.60
   5   1  -5  937.01   47.50
  -6   5  -5  880.11   45.70
   1  -6  -5  889.31   48.30
  -6   5  -5  924.01   47.10
  -6   5  -5  976.30   48.00
   1  -6  -5  932.71   47.70
   1  -6  -5  906.41   48.00
   1  -6  -5  885.61   47.70
  -5  -1   5  909.61   45.50
  -5  -1   5  933.81   48.00
   6  -5   5  915.51   47.60
  -5  -1   5  961.60   45.60
   6  -5   5  956.90   46.00
  -5  -1   5  993.00   47.50
  -5  -1   5  960.90   48.40
  -1   6   5  947.01   48.60
   6  -5   5  967.60   47.20
  -1   6   5  914.01   47.60
   8  -2  -5  220.28   14.10
  -6   8  -5  212.58   14.00
  -2  -6  -5  216.18   14.40
   8  -2  -5  210.38   12.60
  -6   8  -5  234.08   14.70
  -2  -6  -5  219.58   14.90
  -2  -6  -5  223.18   14.60
  -6   8  -5  211.58   12.60
   8  -2  -5  212.78   12.50
  -2  -6  -5  213.08   13.60
  -8   2   5  216.68   12.50
  -8   2   5  211.48   13.90
   6  -8   5  204.08   12.20
   2   6   5  201.18   14.20
   6  -8   5  213.98   14.00
   6  -8   5  213.58   14.30
   2   6   5  198.98   13.30
  -8   2   5  211.18   12.40
  -6  11  -5  154.38   12.10
  -5  -6  -5  161.08   12.80
  -5  -6  -5  169.18   13.00
  -5  -6  -5  170.68   11.90
  -6  11  -5  165.18   11.80
  -6  11  -5  170.48   13.50
  11  -5  -5  157.28   11.20
  -5  -6  -5  164.28   13.40
 -11   5   5  166.78   11.40
   6 -11   5  172.28   12.70
   5   6   5  162.48   12.90
   6 -11   5  162.68   13.00
   5   6   5  164.98   11.80
 -11   5   5  156.38    9.00
 -11   5   5  155.78    9.50
   6 -11   5  148.89   10.80
 -11   5   5  171.18   12.80
  -5  12  -5  149.59   13.20
  12  -7  -5  129.69   10.90
  -7  -5  -5  151.98   13.10
  -7  -5  -5  152.28   12.70
  12  -7  -5  148.09   12.10
  -5  12  -5  151.98   12.20
  -7  -5  -5  151.78   11.40
   5 -12   5  170.58   12.80
   7   5   5  142.89   13.40
   5 -12   5  165.48   13.40
 -12   7   5  171.78   13.20
   5 -12   5  164.28   11.80
 -12   7   5  152.78   12.80
   7   5   5  175.68   12.20
  -7  -2  -5  119.19    9.50
   9  -7  -5  122.89   10.10
   9  -7  -5  126.99    9.50
  -7  -2  -5  125.09   10.30
  -7  -2  -5  119.99    9.80
  -2   9  -5  123.89   10.00
  -2   9  -5  124.39   10.70
  -2   9  -5  124.19    9.60
  -7  -2  -5  120.79    9.10
   2  -9   5  127.99    9.80
  -9   7   5  137.99   10.70
   7   2   5  123.49    9.20
   2  -9   5  131.29   10.80
   2  -9   5  128.89    9.80
   7   2   5  131.39    9.70
  -9   7   5  132.99    9.70
   1   6  -5  260.17   15.30
   6  -7  -5  265.87   17.00
  -7   1  -5  268.47   15.90
   1   6  -5  266.77   16.70
  -7   1  -5  266.47   16.10
   1   6  -5  290.37   17.70
  -7   1  -5  258.27   15.20
   6  -7  -5  257.17   14.40
   6  -7  -5  254.17   14.30
  -7   1  -5  251.07   14.90
   6  -7  -5  278.77   16.60
  -7   1  -5  253.77   15.80
  -1  -6   5  287.27   15.60
  -1  -6   5  284.77   17.50
   7  -1   5  259.97   15.80
  -6   7   5  265.97   16.30
  -1  -6   5  286.97   16.70
  -6   7   5  279.07   17.30
  -7   4  -5  353.86   19.70
   3  -7  -5  331.87   19.20
   3  -7  -5  336.67   20.50
   4   3  -5  341.87   19.80
   3  -7  -5  351.36   19.90
   4   3  -5  357.56   20.40
  -7   4  -5  330.47   18.50
   3  -7  -5  320.57   18.90
   4   3  -5  291.97   18.00
  -4  -3   5  357.66   17.80
   7  -4   5  362.26   19.70
   7  -4   5  326.37   18.00
  -3   7   5  332.57   20.80
   7  -4   5  325.07   18.20
  -4  -3   5  343.17   20.40
  -4  -3   5  362.36   19.80
   7   0  -5   93.59    7.20
  -7   7  -5   98.89    7.80
   0  -7  -5   97.99    8.00
   0  -7  -5   98.89    8.40
   0  -7  -5  101.39    7.70
  -7   7  -5  104.19    7.90
   0  -7  -5   94.49    8.20
   7  -7   5   87.79    7.50
   0   7   5   82.69    7.10
   0   7   5   86.99    8.00
  -7   0   5   87.49    6.90
  -7   0   5   74.49    7.50
  -7   0   5   80.99    7.30
   7  -7   5   85.09    7.40
  -7  10  -5  881.81   44.60
  -7  10  -5  765.62   43.10
  10  -3  -5  764.12   41.30
  -3  -7  -5  807.62   44.60
  -7  10  -5  787.52   41.60
  -3  -7  -5  793.32   42.70
  10  -3  -5  814.22   43.30
  -3  -7  -5  813.72   44.20
  -3  -7  -5  805.02   44.10
 -10   3   5  829.72   43.50
   3   7   5  746.93   43.60
   7 -10   5  835.22   43.60
   7 -10   5  764.62   40.90
 -10   3   5  781.32   41.20
 -10   3   5  800.52   40.70
 -10   3   5  832.82   41.70
   3   7   5  791.02   42.40
   7 -10   5  832.62   44.20
  13  -6  -5   21.50    3.60
  -7  13  -5   23.10    4.00
  -6  -7  -5   26.00    5.90
  13  -6  -5   23.10    4.20
  -6  -7  -5   25.30    4.10
  -6  -7  -5   25.60    5.80
  -7  13  -5   26.80    6.30
  -7  13  -5   22.00    4.90
  -6  -7  -5   26.40    5.90
   7 -13   5   19.30    4.90
 -13   6   5   17.60    2.10
 -13   6   5   18.30    4.10
   7 -13   5   19.10    3.90
   6   7   5   16.80    4.70
   6   7   5   19.40    4.40
 -13   6   5   19.70    4.90
 -13   6   5   15.70    1.80
  -8  -3  -5  277.27   19.10
  -8  -3  -5  257.67   18.00
  -3  11  -5  288.07   18.70
  11  -8  -5  283.57   18.60
  -8  -3  -5  278.17   17.40
  -3  11  -5  294.47   19.90
  -3  11  -5  286.07   18.20
  -8  -3  -5  281.17   18.70
  11  -8  -5  250.17   19.20
   8   3   5  264.57   18.00
   8   3   5  290.97   17.70
   3 -11   5  282.47   18.30
   3 -11   5  283.57   19.50
   8  -8  -5  275.47   15.00
   0   8  -5  296.77   17.80
   0   8  -5  308.27   19.10
  -8   0  -5  289.07   17.20
  -8   0  -5  282.87   17.60
   8  -8  -5  311.97   19.40
  -8   0  -5  303.17   17.80
   8  -8  -5  270.07   15.00
  -8   0  -5  293.77   18.50
   8  -8  -5  300.77   18.50
   0   8  -5  280.67   19.20
  -8   0  -5  273.87   17.60
  -8   0  -5  292.57   18.10
   0  -8   5  328.77   19.00
  -8   8   5  313.57   18.40
   0  -8   5  326.37   18.10
  -8   8   5  336.87   19.80
   3   5  -5  165.88   12.00
   3   5  -5  152.28   10.00
  -8   3  -5  164.58   10.50
   3   5  -5  171.38   12.60
   5  -8  -5  160.08   10.50
   5  -8  -5  166.18   10.80
  -8   3  -5  158.98   11.30
  -8   3  -5  163.28   10.60
   5  -8  -5  171.88   12.00
   5  -8  -5  174.58   12.70
  -5   8   5  180.68   12.00
  -3  -5   5  182.38   12.10
  -3  -5   5  184.88   10.60
   8  -3   5  163.88   10.60
   8  -3   5  180.58   11.70
  -5   8   5  185.88   12.90
   8  -3   5  169.68   10.50
  -3  -5   5  187.98   12.90
   2  -8  -5  621.64   34.60
  -8   6  -5  631.34   34.70
   2  -8  -5  614.24   34.80
  -8   6  -5  577.44   31.80
  -8   6  -5  618.74   33.90
   2  -8  -5  619.74   35.60
   6   2  -5  628.24   34.70
   2  -8  -5  633.24   34.70
  -6  -2   5  694.93   34.80
   8  -6   5  679.43   34.90
  -2   8   5  685.33   36.20
   8  -6   5  627.74   32.30
   8  -6   5  646.14   33.90
  -2   8   5  671.43   34.90
  -6  -2   5  695.73   35.90
  -1  -8  -5  106.79    9.50
  -8   9  -5  104.79    7.10
   9  -1  -5  101.99    8.00
  -1  -8  -5  105.69    8.70
  -8   9  -5  110.39    9.20
   1   8   5   96.49    9.20
  -9   1   5  108.09    9.30
   8  -9   5  101.09    8.90
  -9   1   5  103.49    7.20
   8  -9   5   98.39    6.80
  -9   1   5   90.99    6.90
  -9   1   5  109.09    8.00
  -9   1   5  104.09    8.80
   1   8   5   91.39    8.10
  -8  12  -5  129.99   11.00
  -4  -8  -5  139.89   11.70
  -8  12  -5  129.89    9.70
  -4  -8  -5  140.79   12.20
  -8  12  -5  141.89   12.00
  -4  -8  -5  133.79   11.70
  -4  -8  -5  131.29   12.00
  12  -4  -5  129.29   10.70
  12  -4  -5  120.99    9.30
 -12   4   5  117.39    9.30
 -12   4   5  112.89    8.60
   8 -12   5  127.19   11.50
   4   8   5  121.99   10.00
   8 -12   5  111.79    8.70
 -12   4   5  115.19    8.10
   4   8   5  117.79   11.20
 -12   4   5  126.59   10.90
   8 -12   5  129.19   11.00
  -9  -4  -5  123.79   11.00
  -4  13  -5  110.09   11.40
  -4  13  -5  124.99   10.50
  -4  13  -5  120.59   10.70
  13  -9  -5  113.39   10.70
  -9  -4  -5  100.99   10.00
  13  -9  -5  113.79   10.40
  -9  -4  -5  113.39   11.10
   4 -13   5   99.19   10.70
 -13   9   5   94.79    9.30
   4 -13   5  102.39    9.90
   9   4   5  107.49    9.40
   4 -13   5  104.59    9.60
  -9  -1  -5  726.43   38.60
  -9  -1  -5  707.03   39.00
  -9  -1  -5  626.64   37.50
  -1  10  -5  712.53   40.20
  -9  -1  -5  602.34   37.30
  -1  10  -5  714.03   38.10
  10  -9  -5  691.03   39.10
  -9  -1  -5  687.13   37.30
  -1  10  -5  750.22   39.50
   1 -10   5  744.53   38.90
 -10   9   5  689.93   38.20
   1 -10   5  700.73   38.00
   1 -10   5  708.23   40.00
  -9   2  -5  394.36   22.30
   7  -9  -5  390.06   21.60
  -9   2  -5  418.06   23.30
   7  -9  -5  387.96   21.40
  -9   2  -5  375.16   22.90
  -9   2  -5  405.86   23.10
   7  -9  -5  415.36   25.00
   2   7  -5  376.26   22.20
   2   7  -5  408.96   24.90
  -9   2  -5  384.26   22.40
   7  -9  -5  435.36   24.30
  -7   9   5  412.36   23.80
  -2  -7   5  416.16   26.50
  -7   9   5  422.36   25.00
  -2  -7   5  431.36   22.80
   4  -9  -5  285.27   17.40
   5   4  -5  294.07   18.50
   4  -9  -5  265.37   17.50
   5   4  -5  304.07   19.00
  -9   5  -5  295.97   18.10
   4  -9  -5  289.07   19.10
   4  -9  -5  296.17   18.40
  -9   5  -5  264.97   16.90
   5   4  -5  307.27   16.90
  -5  -4   5  291.17   16.10
  -4   9   5  300.97   18.50
   9  -5   5  301.27   18.00
   9  -5   5  270.07   16.50
  -5  -4   5  301.17   19.10
  -5  -4   5  305.97   18.40
   8   1  -5  567.54   31.70
   1  -9  -5  576.84   32.50
   1  -9  -5  565.94   32.10
  -9   8  -5  554.74   31.70
   1  -9  -5  590.44   33.10
  -8  -1   5  494.45   29.30
   9  -8   5  587.54   31.20
  -8  -1   5  605.84   31.80
   9  -8   5  554.84   31.60
  -1   9   5  603.34   33.50
  -8  -1   5  559.24   29.60
  -8  -1   5  609.44   33.20
  -8  -1   5  615.74   32.70
  -2  -9  -5  119.89   11.20
  -2  -9  -5  119.19   11.00
  -2  -9  -5  120.29   10.80
  -9  11  -5  109.79    8.40
  -9  11  -5  117.49   10.30
  -2  -9  -5  123.79   10.20
   9 -11   5  129.09   10.70
   9 -11   5  117.09    8.10
   2   9   5  116.09   10.90
 -11   2   5  132.99    9.20
   2   9   5  123.69    9.90
 -11   2   5  118.39    9.20
 -11   2   5  127.29    8.70
 -11   2   5  112.29    8.60
 -11   2   5  118.29   10.70
  -2  12  -5   67.79    8.50
  12 -10  -5   65.39    7.20
 -10  -2  -5   64.09    6.90
  -2  12  -5   64.79    7.70
 -10  -2  -5   63.29    7.40
  12 -10  -5   62.39    7.60
 -10  -2  -5   65.19    7.80
 -10  -2  -5   63.49    7.20
  -2  12  -5   68.19    7.30
   2 -12   5   64.89    8.30
   2 -12   5   67.19    7.30
 -12  10   5   62.39    7.80
   2 -12   5   64.89    7.20
 -12  10   5   66.89    7.30
   1   9  -5  124.59    9.50
   9 -10  -5  136.89   11.40
   9 -10  -5  114.09    7.40
 -10   1  -5  128.09    9.80
   1   9  -5  127.49   10.90
 -10   1  -5  126.59   10.10
 -10   1  -5  128.49    9.80
 -10   1  -5  120.19    9.50
 -10   1  -5  114.19    8.90
   1   9  -5  125.99   11.30
 -10   1  -5  124.29    9.70
   9 -10  -5  116.49    7.20
   9 -10  -5  139.99   10.80
  -1  -9   5  120.19    9.50
  -9  10   5  121.89   11.00
  -1  -9   5  125.59   11.30
  -9  10   5  118.89   10.00
  -1  -9   5  113.69   10.10
 -10   4  -5  417.76   24.60
   6 -10  -5  436.26   25.40
 -10   4  -5  482.65   25.60
 -10   4  -5  447.06   26.20
   6 -10  -5  462.55   25.30
   6 -10  -5  483.05   28.30
   4   6  -5  456.25   24.90
   4   6  -5  491.95   27.90
  10  -4   5  434.46   24.70
  10  -4   5  462.05   26.40
  -6  10   5  486.35   27.10
  10  -4   5  453.95   25.10
  -4  -6   5  473.15   25.00
   7   3  -5  153.28   11.70
   7   3  -5  159.68   12.10
   3 -10  -5  154.48   11.50
 -10   7  -5  155.68   11.00
 -10   7  -5  140.79    8.50
   3 -10  -5  147.99   12.30
   7   3  -5  143.59    9.30
   3 -10  -5  158.28   12.00
  10  -7   5  141.99    8.90
  -7  -3   5  151.68    9.50
  -7  -3   5  165.28   11.80
  -3  10   5  162.98   13.00
  10  -7   5  158.88   12.00
  -3  10   5  159.48   11.80
   0 -10  -5    1.70    2.00
 -10  10  -5    1.80    1.00
 -10  10  -5    2.00    1.80
 -10  10  -5    1.80    1.80
   0 -10  -5    2.40    2.10
   0 -10  -5    1.40    1.80
   0 -10  -5    1.90    1.70
  10 -10   5    2.50    1.30
  10 -10   5    2.40    2.10
   0  10   5    3.50    2.50
 -10   0   5    2.20    1.10
 -10   0   5    2.20    1.20
 -10   0   5    3.20    1.80
 -10   0   5    2.50    2.10
  10 -10   5    2.90    2.00
   0  10   5    2.00    1.70
  11 -11  -5   54.89    6.80
 -11   0  -5   48.90    5.70
  11 -11  -5   56.59    7.30
 -11   0  -5   45.90    6.00
   0  11  -5   54.79    7.10
   0  11  -5   52.39    6.10
   0 -11   5   60.39    7.70
 -11  11   5   59.79    7.60
   0 -11   5   64.59    7.20
   0 -11   5   58.89    6.40
 -11  11   5   61.29    6.80
   8 -11  -5   45.20    6.50
   8 -11  -5   40.90    4.10
   8 -11  -5   47.30    6.00
 -11   3  -5   41.20    4.70
   3   8  -5   44.60    6.10
 -11   3  -5   43.10    5.20
   8 -11  -5   39.70    4.30
 -11   3  -5   40.60    4.80
 -11   3  -5   37.90    4.80
 -11   3  -5   37.70    5.00
   3   8  -5   42.00    4.70
 -11   3  -5   38.10    4.70
   3   8  -5   41.30    6.20
  -3  -8   5   53.69    6.20
  -8  11   5   53.19    6.10
  -3  -8   5   52.39    5.20
  -8  11   5   54.99    7.00
  -3  -8   5   55.09    7.00
 -11   6  -5   68.39    5.20
   5 -11  -5   83.79    8.80
   5 -11  -5   87.29    8.30
 -11   6  -5   74.09    7.50
   6   5  -5   70.39    8.00
   6   5  -5   83.99    6.40
 -11   6  -5   78.39    7.10
   6   5  -5   87.29    8.30
  11  -6   5   73.19    6.60
  -6  -5   5   79.49    7.90
  -5  11   5   80.99    8.90
  -6  -5   5   76.79    6.10
  -6  -5   5   65.59    7.90
  -5  11   5   83.09    7.90
   2 -11  -5  866.41   46.90
 -11   9  -5  868.41   46.20
   2 -11  -5  908.51   46.40
   2 -11  -5  866.51   46.10
   2 -11  -5  835.62   47.10
 -11   9  -5  775.22   41.30
 -11   9  -5  842.52   45.30
  11  -9   5  868.71   45.30
  -2  11   5  898.61   47.90
  -2  11   5  891.71   46.00
  -9  -2   5  819.52   46.70
  -9  -2   5  902.61   46.60
  -9  -2   5  827.52   42.80
  11  -9   5  713.93   41.40
  -9  -2   5  703.93   42.30
  11  -9   5  899.31   46.00
  -1 -11  -5  120.69   10.80
 -11  12  -5  124.29   11.20
  -1 -11  -5  120.99   11.30
 -11  12  -5  118.49   11.10
  -1 -11  -5  126.09   12.10
  -1 -11  -5  113.19   11.60
 -12   1   5  130.49   11.10
 -12   1   5  114.99    8.70
  11 -12   5  139.49   11.60
 -12   1   5  141.29   10.40
   1  11   5  127.09   10.70
 -12   1   5  108.09    8.80
   1  11   5  123.79   12.00
 -12   1   5  121.79   10.30
 -12   1   5  116.59   11.20
  11 -12   5  134.49   11.80
  11 -12   5  119.39    8.20
   2  10  -5   19.70    5.10
 -12   2  -5   15.00    3.70
  10 -12  -5   18.60    4.80
 -12   2  -5   14.70    3.40
  10 -12  -5   17.20    5.00
   2  10  -5   17.10    3.90
   2  10  -5   12.50    4.20
 -12   2  -5   16.30    4.00
 -12   2  -5   16.40    3.90
  10 -12  -5   14.90    2.20
 -12   2  -5   16.30    3.80
  10 -12  -5   15.00    2.00
 -12   2  -5   14.20    3.40
  -2 -10   5   13.20    4.10
 -10  12   5   16.70    4.80
  -2 -10   5   13.20    3.40
 -10  12   5   11.60    3.60
  -2 -10   5   12.30    4.30
 -12   5  -5  176.48   11.90
   7 -12  -5  179.18   12.70
 -12   5  -5  192.78   13.40
   7 -12  -5  195.98   15.60
 -12   5  -5  179.78   12.00
 -12   5  -5  182.78   13.80
   5   7  -5  209.08   15.80
   7 -12  -5  187.48   13.30
   5   7  -5  194.98   12.70
   5   7  -5  196.48   15.00
  -5  -7   5  205.58   12.80
  12  -5   5  181.98   12.80
  -5  -7   5  214.98   15.00
  -5  -7   5  199.88   15.60
  -7  12   5  210.28   16.10
  -7  12   5  214.28   14.80
  12  -5   5  201.88   14.20
   4 -12  -5    1.40    1.70
   8   4  -5    1.10    1.00
   8   4  -5    1.40    1.80
   8   4  -5    0.90    1.50
 -12   8  -5    1.30    1.60
 -12   8  -5    1.10    1.60
   4 -12  -5    1.30    1.50
 -12   8  -5    1.20    0.60
   4 -12  -5    0.50    1.80
  -8  -4   5    2.10    2.10
  -4  12   5    2.10    2.50
  -8  -4   5    2.00    1.20
  12  -8   5    1.20    1.60
  12  -8   5    1.70    0.80
  -8  -4   5    2.10    1.70
  12  -8   5    1.70    1.60
  -4  12   5    1.80    1.60
   1 -12  -5   18.70    4.70
   1 -12  -5   21.60    5.00
   1 -12  -5   18.90    5.20
 -12  11  -5   22.60    5.50
 -12  11  -5   16.90    4.40
   1 -12  -5   20.10    5.20
 -11  -1   5   17.30    2.70
  12 -11   5   23.00    5.20
  12 -11   5   19.10    4.70
 -11  -1   5   17.60    4.20
 -11  -1   5   18.90    4.50
  -1  12   5   16.90    4.30
 -11  -1   5   17.50    2.80
 -11  -1   5   18.50    6.20
  12 -11   5   17.10    2.10
  -1  12   5   25.60    6.30
 -13   4  -5  124.69   10.90
   4   9  -5  138.39   10.60
 -13   4  -5  146.29   11.50
 -13   4  -5  131.59   10.30
 -13   4  -5  132.29   10.10
   9 -13  -5  121.59    9.70
   4   9  -5  145.49   12.70
   9 -13  -5  127.79    9.40
   4   9  -5  126.89   12.50
 -13   4  -5  140.49   10.90
 -13   4  -5  116.49   10.30
   9 -13  -5  146.69   12.40
   9 -13  -5  144.69   13.20
  -4  -9   5  146.99   10.70
  -9  13   5  157.08   13.60
  -4  -9   5  167.78   12.90
  -9  13   5  155.48   12.30
  -4  -9   5  150.08   13.20
   7   6  -5  217.38   16.50
 -13   7  -5  196.78   14.80
   7   6  -5  211.08   16.80
   6 -13  -5  224.28   17.20
   6 -13  -5  210.88   14.90
   7   6  -5  222.88   14.10
 -13   7  -5  209.38   15.60
   6 -13  -5  227.28   16.50
  -7  -6   5  209.78   16.90
  -6  13   5  233.38   16.40
  -6  13   5  234.48   17.90
  13  -7   5  217.18   15.60
  -7  -6   5  235.78   16.50
  13  -7   5  206.58   14.40
  -7  -6   5  220.88   13.80
   0   0  -6  117.89    7.30
   0   0  -6  119.29    7.30
   0   0   6  159.48    7.90
   0   0   6  151.18    7.60
   0   0   6  138.69    7.50
  -1   2  -6 3094.19  143.89
  -1   2  -6 3172.58  143.79
  -1  -1  -6 2860.51  143.89
  -1  -1  -6 3171.98  143.49
  -1   2  -6 3070.39  143.79
   2  -1  -6 2782.72  143.09
   2  -1  -6 3191.08  143.49
  -2   1   6 2763.42  144.09
   1  -2   6 3084.69  143.69
   1  -2   6 2838.72  143.69
  -2   1   6 2704.43  142.99
   1  -2   6 3052.69  143.69
   1   1   6 3076.99  144.29
   1   1   6 3054.59  143.39
  -2   1   6 2989.50  143.49
   1   1  -6 2139.39   88.49
   1   1  -6 2024.20   90.09
   1  -2  -6 1792.92   89.59
   1  -2  -6 2012.20   89.59
   1   1  -6 1838.72   89.69
   1  -2  -6 1691.43   89.19
  -2   1  -6 1943.21   89.39
  -1   2   6 1731.13   89.39
   2  -1   6 1958.30   89.49
  -1  -1   6 1659.43   89.19
  -1  -1   6 1860.11   88.39
  -1   2   6 1665.93   89.19
  -1  -1   6 1774.72   89.79
  -1   2   6 1799.82   89.69
  -2  -2  -6 2998.60  143.19
  -2   4  -6 2941.91  142.69
  -2   4  -6 3004.10  142.99
  -2  -2  -6 3083.69  143.89
  -2  -2  -6 2775.22  142.69
   4  -2  -6 2976.80  142.19
   4  -2  -6 2777.62  143.39
   4  -2  -6 2797.32  141.79
  -4   2   6 3033.50  143.69
   2  -4   6 3172.88  143.09
   2   2   6 3076.19  143.19
   2  -4   6 2887.81  142.59
  -4   2   6 2962.20  142.19
   2  -4   6 2776.72  143.09
   2   2   6 3008.60  143.79
   2   2   6 2810.82  142.59
  -4   2   6 3288.07  141.99
   3  -3  -6 1826.92  102.59
  -3   0  -6 2275.97  101.29
   0   3  -6 2242.88  101.89
  -3   0  -6 2023.30  102.39
   0   3  -6 2167.18  103.19
   3  -3  -6 2023.20  101.59
  -3   0  -6 2243.58  102.99
  -3   3   6 2159.28  101.79
   0  -3   6 2106.89  101.79
   0  -3   6 2141.59  102.49
   3   0   6 2056.29  102.39
  -3   3   6 1855.11  102.69
   3   0   6 2290.67  101.29
   0  -3   6 2165.38  103.19
  -3   3  -6 1185.08   58.19
   0  -3  -6 1147.99   58.39
  -3   3  -6 1130.79   57.29
   0  -3  -6 1084.09   57.79
   3   0  -6 1172.28   56.19
  -3   3  -6 1109.19   57.29
  -3   0   6 1193.58   56.19
   3  -3   6 1259.07   57.59
   3  -3   6 1247.98   58.29
  -3   0   6 1130.29   57.49
   3  -3   6 1237.78   57.39
  -3   0   6 1179.08   58.29
   0   3   6 1210.68   58.49
   6  -3  -6 1315.27   65.29
  -3  -3  -6 1343.17   65.89
  -3   6  -6 1303.07   64.79
  -3  -3  -6 1378.66   64.89
   6  -3  -6 1290.67   62.99
  -3   6  -6 1401.56   65.69
  -3  -3  -6 1279.17   64.79
  -3   6  -6 1283.87   64.39
   6  -3  -6 1288.67   63.79
  -6   3   6 1192.38   62.79
   3  -6   6 1278.67   64.19
  -6   3   6 1324.97   65.59
   3   3   6 1368.06   64.99
  -6   3   6 1231.58   63.69
   3   3   6 1264.87   65.49
   3   3   6 1277.07   64.69
   3  -6   6 1225.98   65.09
   3  -6   6 1347.67   64.99
  -4  -1  -6 1069.19   51.29
   5  -4  -6 1075.79   51.19
  -1   5  -6 1029.10   51.49
   5  -4  -6  999.40   51.79
   5  -4  -6 1093.69   49.50
  -1   5  -6 1061.09   52.29
  -4  -1  -6 1107.49   52.19
  -1   5  -6 1071.89   51.09
  -4  -1  -6 1030.10   50.69
  -5   4   6  970.10   51.89
  -5   4   6  984.70   49.60
   4   1   6 1100.39   50.79
   4   1   6  991.70   51.19
   4   1   6 1006.70   51.79
   1  -5   6  986.50   50.89
  -5   4   6  961.00   50.79
   1  -5   6  938.31   50.99
   1  -5   6  918.11   51.79
   2  -4  -6 2904.01  142.99
  -4   2  -6 2983.70  142.39
   2   2  -6 2845.22  142.19
   2   2  -6 3080.59  142.99
   2   2  -6 2842.02  140.59
  -4   2  -6 2973.60  140.79
   2  -4  -6 2868.11  142.19
   4  -2   6 2923.51  141.79
   4  -2   6 2886.41  140.69
  -2  -2   6 3114.29  142.29
  -2  -2   6 3133.99  140.59
   4  -2   6 3031.40  142.49
  -2  -2   6 2825.02  142.79
  -2   4   6 2799.62  142.19
  -1  -4  -6 1626.34   79.09
  -1  -4  -6 1581.54   78.59
  -1  -4  -6 1596.84   78.19
  -4   5  -6 1553.84   77.19
  -4   5  -6 1655.53   78.29
  -4   5  -6 1507.55   78.19
   5  -1  -6 1582.44   78.69
   5  -1  -6 1570.64   76.59
   4  -5   6 1709.83   78.59
   1   4   6 1508.85   77.99
  -5   1   6 1544.95   78.49
   4  -5   6 1480.15   77.89
   1   4   6 1560.94   78.49
  -5   1   6 1636.74   76.59
   1   4   6 1677.93   79.09
   8  -4  -6  503.35   26.90
  -4   8  -6  522.45   27.70
   8  -4  -6  515.65   28.40
  -4   8  -6  510.95   28.00
  -4  -4  -6  533.45   28.90
   8  -4  -6  513.35   25.60
  -4   8  -6  534.45   29.10
  -4  -4  -6  537.05   29.30
  -4  -4  -6  552.04   28.00
  -4  -4  -6  555.54   28.60
   4   4   6  477.95   27.50
   4  -8   6  503.35   28.10
   4  -8   6  475.25   27.00
  -8   4   6  476.45   26.80
  -8   4   6  515.85   28.70
   4   4   6  528.95   28.40
   4  -8   6  441.76   28.10
  -8   4   6  466.35   25.20
  -2   7  -6  708.23   36.30
  -5  -2  -6  664.03   34.60
  -5  -2  -6  663.33   35.80
   7  -5  -6  644.04   34.40
   7  -5  -6  649.54   31.90
  -5  -2  -6  695.73   34.80
   7  -5  -6  651.93   35.40
  -2   7  -6  638.54   34.60
  -2   7  -6  618.84   34.80
  -7   5   6  705.63   32.10
   2  -7   6  654.23   34.70
  -7   5   6  695.53   36.00
   5   2   6  736.63   35.00
   2  -7   6  623.54   35.60
   2  -7   6  658.53   34.70
   5   2   6  662.63   34.80
   5   2   6  583.94   35.10
  -7   5   6  628.44   34.30
  -5   1  -6   75.89    4.80
   4  -5  -6   81.69    6.10
   1   4  -6   73.29    6.00
   1   4  -6   87.79    6.90
  -5   1  -6   78.79    4.90
   4  -5  -6   79.49    5.20
  -5   1  -6   86.09    6.10
  -5   1  -6   79.09    6.00
  -5   1  -6   76.39    5.80
   5  -1   6   69.29    5.70
  -4   5   6   68.99    6.30
  -1  -4   6   70.39    7.00
  -1  -4   6   68.19    5.90
  -4   5   6   72.49    5.10
  -4   5   6   72.29    5.80
   1  -5  -6  431.56   22.80
   4   1  -6  429.36   21.80
   1  -5  -6  435.56   22.10
   1  -5  -6  434.66   22.30
  -5   4  -6  468.75   22.50
  -5   4  -6  466.85   21.40
   5  -4   6  381.96   21.90
  -4  -1   6  382.96   21.40
  -1   5   6  375.26   21.90
  -1   5   6  368.16   21.60
  -4  -1   6  383.76   22.30
  -4  -1   6  367.86   19.60
  -4  -1   6  371.36   21.90
   5  -4   6  368.66   20.60
  -1   5   6  373.96   22.30
  -4  -1   6  377.66   19.60
  -5   7  -6 1615.84   80.49
  -2  -5  -6 1709.83   82.39
  -2  -5  -6 1572.44   81.39
  -5   7  -6 1645.44   81.89
   7  -2  -6 1628.04   80.29
   7  -2  -6 1727.53   82.29
  -5   7  -6 1789.92   82.49
   2   5   6 1569.74   81.19
   5  -7   6 1650.73   81.99
  -7   2   6 1697.43   82.19
  -7   2   6 1500.95   80.29
   5  -7   6 1738.63   82.09
  -7   2   6 1616.64   79.99
   2   5   6 1584.64   81.99
   5  -7   6 1574.74   80.19
  -5  10  -6  709.03   37.70
  -5  10  -6  659.03   35.60
  -5  -5  -6  657.33   36.50
  10  -5  -6  631.04   34.70
  10  -5  -6  671.13   36.30
  -5  -5  -6  668.43   35.60
   5   5   6  725.23   37.10
 -10   5   6  665.33   35.00
 -10   5   6  643.54   32.70
   5 -10   6  604.34   34.70
   5 -10   6  630.94   36.80
 -10   5   6  575.04   32.20
   5   5   6  663.83   35.60
 -10   5   6  715.83   37.20
  -6  -3  -6  897.21   49.90
  -6  -3  -6  894.11   48.80
  -6  -3  -6  922.51   48.40
   9  -6  -6  856.11   48.00
   9  -6  -6  907.91   49.30
  -3   9  -6  854.11   48.60
  -3   9  -6  916.61   50.29
  -3   9  -6  906.01   49.00
  -6  -3  -6  932.01   49.70
  -9   6   6  939.51   48.40
  -9   6   6 1025.40   50.39
   6   3   6  992.10   49.30
   3  -9   6  955.10   50.29
   3  -9   6  998.20   49.20
   6   3   6 1005.70   49.00
   3  -9   6  991.50   48.90
  -6   0  -6 1287.27   64.29
   6  -6  -6 1300.17   65.39
  -6   0  -6 1251.47   64.09
  -6   0  -6 1316.87   63.49
   0   6  -6 1287.77   63.79
   6  -6  -6 1326.87   64.59
   6  -6  -6 1228.38   61.99
   0   6  -6 1271.37   64.79
  -6   0  -6 1300.97   64.79
   0   6  -6 1341.97   65.79
  -6   6   6 1284.57   64.29
  -6   6   6 1196.88   65.09
   6   0   6 1261.87   64.49
   0  -6   6 1279.47   63.69
   0  -6   6 1259.97   65.49
   0  -6   6 1303.47   64.69
   3  -6  -6 1409.16   69.99
  -6   3  -6 1342.97   67.29
   3  -6  -6 1341.77   68.39
   3   3  -6 1449.15   69.89
   3  -6  -6 1365.36   68.99
  -6   3  -6 1438.16   68.99
   3   3  -6 1367.46   68.99
   3   3  -6 1316.17   66.79
  -3  -3   6 1461.75   70.09
  -3   6   6 1357.36   69.79
  -3  -3   6 1378.86   68.99
  -3   6   6 1384.96   69.09
   6  -3   6 1446.06   69.09
  -3  -3   6 1348.86   66.89
   6  -3   6 1310.77   67.19
  -6   6  -6  674.83   34.70
   6   0  -6  640.04   34.20
   0  -6  -6  649.54   34.70
   0  -6  -6  622.64   35.00
  -6   6  -6  686.73   35.20
   0  -6  -6  647.34   35.50
   0  -6  -6  661.83   35.50
  -6   6  -6  610.44   32.90
  -6   0   6  679.23   34.20
   6  -6   6  674.73   34.70
  -6   0   6  655.93   35.00
   0   6   6  612.94   34.40
  -6   0   6  635.54   32.50
   6  -6   6  638.14   36.30
  -6   0   6  727.33   35.90
  -6   0   6  722.43   32.80
   0   6   6  641.14   35.40
   9  -3  -6  414.56   24.40
  -3  -6  -6  429.56   23.90
  -3  -6  -6  407.56   24.70
  -3  -6  -6  415.76   25.30
  -6   9  -6  414.66   24.20
  -6   9  -6  403.16   23.00
  -6   9  -6  454.45   25.30
   9  -3  -6  404.66   22.20
  -3  -6  -6  417.46   24.90
   9  -3  -6  433.76   22.70
   3   6   6  420.66   24.70
   6  -9   6  380.86   22.30
  -9   3   6  422.86   22.70
   6  -9   6  399.96   24.50
   6  -9   6  423.56   24.40
  -9   3   6  438.56   24.70
  -9   3   6  407.76   21.80
   3   6   6  402.76   23.50
  -6  12  -6  709.93   38.40
  -6  -6  -6  738.53   40.10
  -6  12  -6  704.63   38.90
  -6  -6  -6  734.23   40.60
  12  -6  -6  700.03   38.90
  -6  12  -6  738.73   40.70
  12  -6  -6  646.24   37.10
   6 -12   6  681.73   39.80
 -12   6   6  722.83   39.70
   6 -12   6  718.63   39.30
 -12   6   6  666.73   37.40
   6 -12   6  672.13   37.20
 -12   6   6  609.54   34.10
  11  -7  -6  484.45   28.30
  -4  11  -6  494.45   29.80
  11  -7  -6  458.45   27.10
  -7  -4  -6  481.75   28.30
  -7  -4  -6  492.95   27.40
  -4  11  -6  471.95   28.00
  -4  11  -6  463.35   28.10
  -7  -4  -6  501.55   29.50
  -7  -4  -6  498.35   28.90
   4 -11   6  462.35   27.30
   4 -11   6  485.75   28.20
   4 -11   6  452.75   28.90
   7   4   6  501.25   27.80
  -7  -1  -6  225.08   13.60
  -1   8  -6  222.38   14.50
  -7  -1  -6  217.68   14.50
   8  -7  -6  203.08   10.40
  -1   8  -6  219.08   13.70
  -1   8  -6  233.88   15.40
  -7  -1  -6  214.98   13.50
   8  -7  -6  225.98   14.00
   8  -7  -6  220.38   14.70
   8  -7  -6  227.08   10.40
   1  -8   6  206.68   13.90
   7   1   6  186.18   12.80
  -8   7   6  211.58   14.80
   7   1   6  192.98   13.20
  -8   7   6  203.48   13.60
   1  -8   6  202.28   13.50
   1  -8   6  202.68   14.80
   5  -7  -6 1517.35   86.39
   2   5  -6 1654.23   85.69
   5  -7  -6 1637.04   85.99
   5  -7  -6 1723.13   88.59
  -7   2  -6 1823.32   86.89
   5  -7  -6 1746.53   87.69
   2   5  -6 1903.71   91.49
  -7   2  -6 1655.33   86.99
  -2  -5   6 1886.21   86.09
   7  -2   6 1764.82   86.79
  -5   7   6 1812.02   87.59
  -2  -5   6 1854.81   87.89
  -2  -5   6 1827.52   88.89
  -5   7   6 1843.92   88.89
   5   2  -6 1773.42   92.49
   5   2  -6 1948.71   93.39
   2  -7  -6 1930.51   92.89
   5   2  -6 1761.32   89.99
   2  -7  -6 1840.02   92.59
   2  -7  -6 1866.41   93.79
   2  -7  -6 1904.61   92.99
  -7   5  -6 1939.01   92.99
  -7   5  -6 1809.22   91.59
  -2   7   6 1899.41   93.99
   7  -5   6 1771.72   91.39
  -5  -2   6 1995.30   92.79
  -5  -2   6 1911.61   93.69
  -2   7   6 1890.71   92.79
   7  -5   6 1924.71   92.89
  -5  -2   6 1759.62   90.09
  -7   8  -6  126.49    9.10
   8  -1  -6  129.09    9.80
  -7   8  -6  130.99   10.70
  -1  -7  -6  135.19   10.50
  -1  -7  -6  131.69   11.10
  -1  -7  -6  138.79   11.10
  -1  -7  -6  134.09   11.30
  -7   8  -6  134.19   10.80
  -8   1   6  161.68    9.20
  -8   1   6  176.98   10.30
  -8   1   6  175.78   11.90
  -8   1   6  151.38    9.20
   1   7   6  156.78   10.70
   7  -8   6  177.78   11.60
   7  -8   6  175.98   11.60
   1   7   6  163.38   11.70
   7  -8   6  160.28    9.40
  -8   1   6  174.88   11.50
  -4  -7  -6  139.99   11.70
  11  -4  -6  129.69    9.50
  -7  11  -6  135.79   10.10
  -4  -7  -6  139.99   10.70
  -7  11  -6  136.49   11.10
  -4  -7  -6  142.99   12.20
 -11   4   6  133.19    9.00
 -11   4   6  128.79    9.60
   7 -11   6  148.59   11.40
   7 -11   6  142.79   11.90
   7 -11   6  134.49    9.40
 -11   4   6  138.29    8.50
  13  -8  -6  105.29    9.90
  -8  -5  -6  108.49   10.40
  13  -8  -6   97.09    8.90
  -5  13  -6  106.59   11.10
  -8  -5  -6  105.59   10.80
  -5  13  -6   99.69    9.60
  -8  -5  -6   98.09    8.90
  -5  13  -6  104.49    9.90
  -8  -5  -6   91.49    9.60
   5 -13   6  104.79    9.20
 -13   8   6  113.29   10.70
 -13   8   6  110.99    9.50
   5 -13   6  110.59   11.00
   5 -13   6  116.79   10.40
   8   5   6  114.09    9.70
  -8  -2  -6  439.96   26.80
  -8  -2  -6  461.95   26.50
  -2  10  -6  465.45   26.00
  -8  -2  -6  455.65   25.40
  -2  10  -6  473.55   27.90
  10  -8  -6  485.45   26.10
  -8  -2  -6  473.75   26.10
 -10   8   6  399.46   25.30
   2 -10   6  413.66   27.00
   8   2   6  417.66   25.20
   8   2   6  408.66   25.10
   2 -10   6  438.86   25.80
  -8   1  -6 1516.05   73.59
   7  -8  -6 1414.76   71.19
  -8   1  -6 1512.45   73.89
   7  -8  -6 1529.85   74.39
   1   7  -6 1432.16   75.19
  -8   1  -6 1383.36   72.39
   1   7  -6 1467.05   72.79
  -8   1  -6 1431.36   72.19
   7  -8  -6 1470.95   75.09
  -8   1  -6 1399.46   73.39
   1   7  -6 1456.65   74.49
   8  -1   6 1429.86   73.39
  -1  -7   6 1497.95   74.29
  -7   8   6 1555.24   75.39
  -1  -7   6 1432.96   72.79
  -7   8   6 1487.95   73.99
  -1  -7   6 1429.26   75.19
   4   4  -6 1599.94   81.49
   4  -8  -6 1678.33   82.69
  -8   4  -6 1689.93   81.29
  -8   4  -6 1586.64   79.19
   4   4  -6 1731.83   82.49
   4  -8  -6 1640.94   80.69
   4  -8  -6 1610.54   80.39
  -8   4  -6 1593.04   79.59
   4   4  -6 1557.04   78.99
   8  -4   6 1525.25   79.29
  -4  -4   6 1673.23   81.49
   8  -4   6 1670.53   81.29
   8  -4   6 1489.45   79.39
  -4   8   6 1657.83   81.49
  -4  -4   6 1582.84   82.19
  -4   8   6 1637.24   82.59
   1  -8  -6  671.43   37.60
   1  -8  -6  653.13   38.20
   1  -8  -6  668.83   37.30
  -8   7  -6  698.93   37.70
  -8   7  -6  631.24   36.60
   1  -8  -6  677.53   38.00
   7   1  -6  648.04   36.90
   8  -7   6  738.03   37.70
  -1   8   6  727.53   38.80
   8  -7   6  714.53   37.00
  -1   8   6  697.63   37.30
  -7  -1   6  731.93   38.00
  -7  -1   6  739.03   37.20
  -7  -1   6  737.33   38.50
  -2  -8  -6  692.83   38.10
  -8  10  -6  707.13   37.40
  10  -2  -6  638.74   34.80
  -2  -8  -6  664.83   37.30
  -2  -8  -6  683.73   36.40
  -8  10  -6  650.13   34.40
  -8  10  -6  675.63   37.10
 -10   2   6  661.53   36.50
 -10   2   6  665.73   34.60
   8 -10   6  680.73   36.80
 -10   2   6  584.54   34.00
   8 -10   6  619.34   33.80
   8 -10   6  641.54   36.80
  -5  -8  -6   56.59    6.60
  -5  -8  -6   53.59    7.20
  13  -5  -6   55.69    6.90
  -8  13  -6   55.99    6.90
  -8  13  -6   47.10    7.10
  -8  13  -6   52.79    6.20
  13  -5  -6   48.20    5.60
  -5  -8  -6   56.89    7.70
   5   8   6   67.79    7.00
 -13   5   6   65.19    4.70
 -13   5   6   64.79    6.30
   8 -13   6   62.79    5.90
   8 -13   6   72.89    7.80
 -13   5   6   70.09    7.80
   8 -13   6   72.59    8.30
  12  -9  -6  106.49    9.20
  -3  12  -6  105.19    9.80
  -9  -3  -6   98.19    9.60
  -9  -3  -6  100.49   10.00
  -9  -3  -6   98.59    9.20
  12  -9  -6  105.49    9.80
  -3  12  -6  109.99   10.80
  -3  12  -6  103.79    9.20
 -12   9   6   87.09    8.70
   3 -12   6   94.49    9.00
   9   3   6   93.09    8.90
   3 -12   6   90.89    8.80
 -12   9   6   96.99    9.90
   3 -12   6   88.29    9.80
   0   9  -6  410.46   25.00
  -9   0  -6  370.46   22.40
  -9   0  -6  376.06   21.80
  -9   0  -6  403.96   22.80
   9  -9  -6  357.46   19.20
   0   9  -6  405.36   22.80
  -9   0  -6  401.56   23.30
   9  -9  -6  383.16   26.20
   9  -9  -6  352.06   19.30
  -9   0  -6  407.26   23.80
   0   9  -6  406.86   24.20
  -9   0  -6  390.96   22.90
   0  -9   6  394.76   22.70
   0  -9   6  407.26   23.80
  -9   3  -6  419.26   20.80
   6  -9  -6  414.96   22.60
  -9   3  -6  388.36   20.90
   3   6  -6  410.76   22.90
  -9   3  -6  401.76   21.90
   3   6  -6  401.56   23.40
   3   6  -6  383.46   20.20
  -6   9   6  351.96   22.80
  -3  -6   6  335.37   20.10
   9  -3   6  317.67   19.80
   9  -3   6  325.67   20.40
   9  -3   6  331.27   21.20
  -6   9   6  353.06   21.80
  -3  -6   6  334.07   22.60
  -3  -6   6  353.56   21.90
   6   3  -6 1407.66   72.99
  -9   6  -6 1370.56   71.49
   6   3  -6 1457.65   73.69
   3  -9  -6 1404.16   72.59
   3  -9  -6 1466.45   74.29
  -9   6  -6 1467.45   73.09
   6   3  -6 1389.36   69.99
   3  -9  -6 1509.05   73.29
   3  -9  -6 1412.26   72.89
  -3   9   6 1431.06   72.99
  -3   9   6 1482.95   74.59
  -6  -3   6 1442.56   72.79
  -6  -3   6 1465.65   74.19
   9  -6   6 1345.57   71.19
   9  -6   6 1441.96   72.89
  -9   9  -6  672.53   35.40
  -9   9  -6  604.24   31.90
   0  -9  -6  648.04   36.10
   0  -9  -6  673.83   36.30
  -9   9  -6  684.63   37.00
   9   0  -6  619.64   34.00
   9  -9   6  621.64   34.90
  -9   0   6  547.35   31.90
  -9   0   6  596.14   34.70
  -9   0   6  651.53   34.00
   9  -9   6  615.74   34.80
  -9   0   6  642.84   35.80
   9  -9   6  623.74   32.00
  -9   0   6  565.44   31.80
  -9  12  -6  337.57   21.30
  -9  12  -6  309.47   18.80
  -3  -9  -6  333.27   22.10
  -3  -9  -6  338.27   21.90
  -3  -9  -6  331.37   22.40
  -3  -9  -6  339.47   20.80
  -9  12  -6  331.87   21.70
   3   9   6  310.87   21.60
   3   9   6  307.97   20.00
   9 -12   6  322.57   21.50
   9 -12   6  287.97   17.90
 -12   3   6  288.07   18.00
   9 -12   6  337.67   21.30
 -12   3   6  276.77   18.50
 -12   3   6  322.17   20.90
  11 -10  -6  391.36   24.30
  11 -10  -6  388.46   23.40
 -10  -1  -6  332.37   23.00
 -10  -1  -6  375.36   23.80
 -10  -1  -6  343.77   21.80
  -1  11  -6  383.26   25.00
  -1  11  -6  379.66   24.10
 -10  -1  -6  351.36   22.50
  -1  11  -6  374.16   22.80
   1 -11   6  373.26   24.80
   1 -11   6  385.46   23.60
 -11  10   6  384.06   24.50
 -11  10   6  377.86   23.10
 -10   2  -6 1083.59   53.69
 -10   2  -6 1005.40   52.89
 -10   2  -6 1078.19   53.69
   2   8  -6  959.40   52.29
   8 -10  -6  980.00   50.99
   8 -10  -6 1072.39   55.69
   2   8  -6 1046.30   55.69
 -10   2  -6  982.00   53.29
   8 -10  -6 1009.40   51.39
   2   8  -6 1029.00   54.89
   8 -10  -6 1084.49   54.69
 -10   2  -6  962.10   52.09
 -10   2  -6  968.00   52.39
  -2  -8   6 1070.09   54.59
  -8  10   6 1008.00   53.99
  -2  -8   6 1012.50   52.59
  -2  -8   6 1053.79   55.69
  -8  10   6 1062.99   55.69
   5 -10  -6   48.50    5.40
 -10   5  -6   49.80    5.10
   5 -10  -6   51.99    5.40
   5   5  -6   52.49    4.60
 -10   5  -6   43.70    4.10
 -10   5  -6   45.90    5.50
  10  -5   6   58.59    4.80
  10  -5   6   70.89    6.60
   2 -10  -6  156.28   11.50
   8   2  -6  144.79   11.00
   2 -10  -6  164.88   11.60
 -10   8  -6  136.99   10.40
   2 -10  -6  154.48   12.30
 -10   8  -6  163.68   11.70
  -8  -2   6  113.99    8.20
  10  -8   6  126.89   10.60
  -8  -2   6  118.09    8.30
  -2  10   6  132.99   10.70
  -2  10   6  142.29   12.10
  -8  -2   6  131.79   10.40
  10  -8   6  120.09    9.90
 -10  11  -6  517.35   29.30
  -1 -10  -6  472.85   28.40
 -10  11  -6  456.95   25.60
  -1 -10  -6  486.65   30.00
  -1 -10  -6  510.45   30.40
  -1 -10  -6  495.25   29.50
 -11   1   6  463.55   29.30
  10 -11   6  488.45   28.90
   1  10   6  470.85   29.70
   1  10   6  467.15   28.00
 -11   1   6  530.25   27.60
 -11   1   6  437.56   25.60
 -11   1   6  489.15   28.70
  10 -11   6  445.26   25.30
 -11   1  -6  195.48   14.00
  10 -11  -6  172.38   10.70
  10 -11  -6  214.58   16.10
   1  10  -6  206.48   13.90
 -11   1  -6  175.38   13.40
  10 -11  -6  212.88   15.20
   1  10  -6  192.98   15.80
 -11   1  -6  182.88   13.00
  10 -11  -6  165.58   11.10
 -11   1  -6  193.88   14.50
   1  10  -6  204.68   15.40
  -1 -10   6  233.38   16.80
  -1 -10   6  242.88   15.80
 -10  11   6  232.68   16.50
 -10  11   6  236.18   15.40
  -1 -10   6  214.48   14.10
   7 -11  -6  364.86   21.30
   7 -11  -6  403.46   25.00
   4   7  -6  376.56   23.90
   7 -11  -6  369.26   21.70
 -11   4  -6  372.56   21.50
   4   7  -6  391.96   24.70
 -11   4  -6  385.16   21.80
   7 -11  -6  407.56   23.90
   4   7  -6  366.06   21.20
  -7  11   6  388.96   24.80
  -7  11   6  386.76   23.40
  11  -4   6  336.97   21.10
  -4  -7   6  379.96   23.50
  -4  -7   6  386.96   24.60
  -4  -7   6  364.56   21.30
   7   4  -6  405.36   25.00
   4 -11  -6  402.76   24.80
   4 -11  -6  423.26   25.10
   7   4  -6  383.76   21.90
   4 -11  -6  401.96   26.00
   7   4  -6  414.76   25.70
   4 -11  -6  406.56   24.30
 -11   7  -6  434.16   25.00
 -11   7  -6  390.76   23.50
  11  -7   6  421.56   24.70
  -4  11   6  423.76   26.50
  -7  -4   6  435.36   25.00
  -7  -4   6  411.76   25.90
  -7  -4   6  393.16   21.90
  11  -7   6  392.26   23.20
  -4  11   6  413.36   24.90
 -11  10  -6  259.77   18.20
   1 -11  -6  288.57   19.30
 -11  10  -6  237.58   15.20
   1 -11  -6  289.97   20.00
 -11  10  -6  300.37   19.30
   1 -11  -6  289.37   19.00
   1 -11  -6  288.37   20.20
 -10  -1   6  301.17   18.50
 -10  -1   6  288.37   19.90
 -10  -1   6  298.37   19.30
 -10  -1   6  267.97   15.90
 -10  -1   6  257.57   15.90
  -1  11   6  285.27   20.20
  11 -10   6  293.27   18.90
  11 -10   6  289.57   19.00
  -1  11   6  292.87   18.90
 -12   3  -6  109.99    9.00
   9 -12  -6   92.59    7.50
 -12   3  -6  107.59    9.20
   3   9  -6  117.29   11.10
   9 -12  -6  113.09   10.80
 -12   3  -6  101.19    8.40
   3   9  -6  106.29   10.20
 -12   3  -6  101.79    8.50
   9 -12  -6   92.89    7.10
   9 -12  -6  121.79   10.40
 -12   3  -6   92.19    8.20
   3   9  -6   99.09    8.30
 -12   3  -6  107.09    9.20
  -9  12   6  102.79   10.50
  -3  -9   6  101.29   10.50
  -3  -9   6   92.29   10.50
  -9  12   6   97.49    9.40
  -3  -9   6   91.89    8.10
   6   6  -6  519.85   30.30
   6   6  -6  506.15   27.20
   6 -12  -6  509.05   31.00
 -12   6  -6  479.15   28.00
   6 -12  -6  531.15   30.10
 -12   6  -6  424.16   25.70
   6 -12  -6  490.85   28.20
   6 -12  -6  482.85   28.70
   6   6  -6  483.75   30.40
 -12   6  -6  514.75   29.40
  12  -6   6  489.55   27.50
  -6  -6   6  518.45   31.10
  12  -6   6  432.96   26.20
  -6  12   6  545.55   31.80
  -6  -6   6  491.35   26.90
  12  -6   6  530.35   29.50
  -6  -6   6  546.85   30.10
 -12   9  -6  161.18   12.60
   3 -12  -6  180.08   13.60
   3 -12  -6  187.38   13.90
   3 -12  -6  179.98   14.80
   9   3  -6  176.48   13.60
 -12   9  -6  176.98   13.70
   3 -12  -6  176.78   14.10
  12  -9   6  158.28   12.30
  -9  -3   6  158.78   10.70
  -9  -3   6  173.88   14.00
  -3  12   6  177.98   13.60
  -9  -3   6  174.48   13.30
  12  -9   6  175.48   13.40
  -3  12   6  182.28   15.10
  -9  -3   6  172.08   14.40
   8 -13  -6  593.34   35.50
   8 -13  -6  548.45   31.20
   8 -13  -6  643.74   34.80
   5   8  -6  608.94   31.80
   5   8  -6  522.85   34.40
 -13   5  -6  599.84   32.40
   5   8  -6  584.44   34.60
 -13   5  -6  484.25   30.40
   8 -13  -6  551.14   31.80
  -5  -8   6  586.84   35.30
  -5  -8   6  621.34   34.40
  -8  13   6  615.34   34.10
  -8  13   6  616.44   35.80
  13  -5   6  561.64   33.00
  13  -5   6  522.45   31.20
  -5  -8   6  540.15   31.20
   8   5  -6  244.18   17.60
   5 -13  -6  244.48   18.50
 -13   8  -6  217.78   15.80
   5 -13  -6  233.88   17.10
   5 -13  -6  254.17   17.70
   8   5  -6  225.08   14.40
 -13   8  -6  253.17   17.40
   8   5  -6  249.68   18.20
  13  -8   6  221.38   15.40
  13  -8   6  249.38   17.10
  -8  -5   6  243.58   17.20
  -5  13   6  267.07   19.50
  -5  13   6  245.48   17.30
  -8  -5   6  222.58   14.30
   1  -1  -7  637.34   33.10
   0   1  -7  679.63   33.10
  -1   0  -7  641.24   33.50
  -1   0  -7  681.13   32.80
   1  -1  -7  672.83   33.70
   1  -1  -7  683.83   33.50
   0  -1   7  724.23   33.70
  -1   1   7  678.23   33.60
  -1   1   7  636.84   33.20
   1   0   7  664.13   32.80
   0  -1   7  737.13   33.70
  -1   1   7  675.73   33.70
   1   0   7  665.23   33.60
  -2  -1  -7 6708.53  316.67
  -1   3  -7 7028.50  316.57
  -2  -1  -7 6688.83  315.77
   3  -2  -7 5832.82  315.77
   3  -2  -7 5894.31  316.67
   3  -2  -7 6517.65  315.77
  -2  -1  -7 7572.84  317.47
  -3   2   7 6431.36  315.77
   1  -3   7 6936.21  316.27
   1  -3   7 7084.49  316.47
   2   1   7 6977.90  316.77
   2   1   7 6115.29  315.57
  -3   2   7 6249.77  315.87
   0  -2  -7 1699.63   84.19
  -2   2  -7 1800.12   83.49
   2   0  -7 1590.24   82.69
   0   2   7 1654.73   84.09
  -2   0   7 1719.63   82.79
  -2   0   7 1816.42   83.89
   2  -2   7 1849.11   83.49
   2  -2   7 1728.83   83.99
  -2   5  -7 1614.84   74.59
  -2   5  -7 1426.06   73.39
  -2   5  -7 1442.26   73.49
   5  -3  -7 1593.04   72.19
   5  -3  -7 1422.16   74.09
  -3  -2  -7 1485.15   73.69
  -3  -2  -7 1534.55   74.69
   3   2   7 1522.95   74.59
   3   2   7 1493.65   73.79
  -5   3   7 1375.56   72.79
  -5   3   7 1518.15   72.19
   2  -5   7 1496.85   74.19
   2  -5   7 1481.65   73.49
   2  -5   7 1473.45   73.29
  -5   3   7 1520.05   74.49
  -3   1  -7  215.58   12.00
  -3   1  -7  221.98   12.10
   1   2  -7  226.78   12.40
   1   2  -7  214.58   11.90
   2  -3  -7  222.58   12.40
   1   2  -7  222.68   10.80
   2  -3  -7  215.88   11.70
  -2   3   7  201.68   11.70
  -1  -2   7  187.98   11.60
  -1  -2   7  193.58   10.70
  -1  -2   7  195.88   12.20
  -2   3   7  190.88   12.20
  -1  -3  -7  853.91   44.40
   4  -1  -7  873.91   44.90
  -3   4  -7  877.71   44.50
  -1  -3  -7  936.61   45.40
  -1  -3  -7  882.71   44.50
  -3   4  -7  863.81   43.80
   4  -1  -7  911.21   42.90
   1   3   7  833.32   44.30
   3  -4   7  915.41   44.60
  -4   1   7  847.12   42.90
  -4   1   7  910.81   45.00
  -4   1   7  783.42   43.40
   3  -4   7  984.40   44.90
   1   3   7  911.31   45.20
  -4  -3  -7  792.72   39.70
  -4  -3  -7  772.72   39.60
  -3   7  -7  782.52   40.70
   7  -4  -7  792.92   38.90
  -3   7  -7  775.62   39.60
  -3   7  -7  726.13   39.50
   7  -4  -7  750.02   37.30
   7  -4  -7  768.12   40.20
  -4  -3  -7  797.52   40.90
   4   3   7  768.22   39.70
  -7   4   7  700.53   38.60
  -7   4   7  789.42   40.60
   4   3   7  740.03   40.50
  -7   4   7  806.42   37.40
   3  -7   7  703.03   39.00
   3  -7   7  718.83   40.20
   3  -7   7  769.42   39.70
   4   3   7  751.42   39.60
  -4   0  -7  346.37   18.80
  -4   0  -7  331.27   17.10
  -4   0  -7  335.37   18.40
   4  -4  -7  356.26   18.40
   0   4  -7  322.57   18.40
   0   4  -7  379.76   19.50
   4  -4  -7  334.87   17.20
  -4   4   7  336.27   18.20
   4   0   7  313.37   18.20
  -4   4   7  316.57   18.90
  -4   4   7  343.77   17.50
   4   0   7  327.07   18.60
   4   0   7  320.67   17.00
   0  -4   7  339.67   19.20
   0  -4   7  313.47   18.20
  -4   3  -7  230.38   13.10
   3   1  -7  217.98   13.80
   1  -4  -7  242.18   14.70
   1  -4  -7  242.28   14.50
  -4   3  -7  259.47   14.50
   4  -3   7  255.97   13.30
  -1   4   7  261.37   14.60
  -3  -1   7  264.57   15.00
  -3  -1   7  242.08   13.90
  -1   4   7  271.47   15.00
  -1   4   7  247.58   14.20
   4  -3   7  275.57   14.70
  -3  -1   7  251.47   14.60
   6  -2  -7  679.53   34.90
   6  -2  -7  671.63   32.80
  -4   6  -7  661.73   34.50
  -2  -4  -7  684.73   34.70
  -2  -4  -7  645.84   35.20
  -4   6  -7  729.53   34.90
  -2  -4  -7  677.33   34.40
  -4   6  -7  650.33   33.50
   2   4   7  633.94   34.10
  -6   2   7  666.73   34.90
   4  -6   7  658.33   34.40
   2   4   7  615.24   34.20
   2   4   7  653.73   35.20
   4  -6   7  603.34   33.20
   4  -6   7  603.04   34.20
  -4   9  -7  364.96   21.20
   9  -5  -7  356.56   18.30
  -4   9  -7  372.76   21.40
  -5  -4  -7  371.06   22.20
  -5  -4  -7  382.46   22.70
   9  -5  -7  369.86   20.50
   9  -5  -7  377.86   21.90
  -4   9  -7  383.96   22.70
  -5  -4  -7  385.66   21.20
  -5  -4  -7  369.16   21.60
  -9   5   7  379.16   22.30
   4  -9   7  335.77   21.90
  -9   5   7  343.07   20.30
   4  -9   7  337.77   20.50
  -9   5   7  320.07   18.00
   5   4   7  354.86   21.00
   5   4   7  353.26   21.50
   4  -9   7  350.56   21.30
  -5  -1  -7 1426.46   69.29
  -1   6  -7 1360.66   69.39
   6  -5  -7 1314.67   68.99
   6  -5  -7 1350.06   68.09
  -5  -1  -7 1400.26   68.29
   6  -5  -7 1429.46   66.09
  -1   6  -7 1371.26   68.59
  -1   6  -7 1333.67   67.89
   5   1   7 1387.56   68.29
  -6   5   7 1377.76   66.29
   5   1   7 1439.96   69.19
   1  -6   7 1313.57   68.19
  -6   5   7 1349.96   69.19
   1  -6   7 1378.66   69.39
   1  -6   7 1358.56   67.89
  -6   5   7 1309.17   67.89
   2   3  -7  658.43   32.90
   3  -5  -7  639.84   32.00
   3  -5  -7  635.44   31.50
   2   3  -7  618.64   30.20
   2   3  -7  615.54   32.00
  -5   2  -7  654.53   32.10
  -5   2  -7  622.14   30.00
  -5   2  -7  615.34   31.30
   3  -5  -7  661.83   33.10
  -3   5   7  566.54   32.50
  -3   5   7  593.94   31.90
  -2  -3   7  611.14   31.90
   5  -2   7  579.64   31.80
  -2  -3   7  581.74   30.10
   5  -2   7  561.64   29.90
   5  -2   7  569.34   31.30
  -5   5  -7 1179.78   58.49
   0  -5  -7 1179.78   59.69
   0  -5  -7 1194.48   60.39
   0  -5  -7 1170.68   60.39
  -5   5  -7 1230.18   59.39
  -5   0   7 1277.37   59.19
   0   5   7 1192.08   60.39
   5  -5   7 1189.88   59.39
   0   5   7 1259.37   60.59
  -5   0   7 1040.40   59.69
   5  -5   7 1257.07   60.09
  -5   0   7 1272.47   60.79
  -5   0   7 1164.18   57.39
  -5   0   7 1170.78   57.39
   0   5   7 1109.09   59.49
  -3  -5  -7  469.45   25.70
  -5   8  -7  483.85   26.60
  -3  -5  -7  480.55   26.70
  -5   8  -7  453.15   24.90
   8  -3  -7  458.45   24.20
   8  -3  -7  451.45   23.90
  -3  -5  -7  475.65   26.30
  -5   8  -7  453.05   25.80
  -3  -5  -7  476.05   27.00
   8  -3  -7  470.25   26.20
   5  -8   7  460.85   25.90
  -8   3   7  434.36   24.10
   3   5   7  447.06   25.40
   5  -8   7  436.46   26.00
   5  -8   7  430.46   24.40
   3   5   7  454.35   26.00
  -8   3   7  477.55   26.40
  -6  -5  -7  111.09    9.80
  -6  -5  -7  102.79    9.80
  11  -6  -7  106.39    9.20
  -5  11  -7  108.59   10.10
  -6  -5  -7  107.89    9.40
  -6  -5  -7  105.59    8.70
  -5  11  -7  118.49   10.30
  -5  11  -7   99.19    8.80
  11  -6  -7   95.39    7.90
   5 -11   7   94.29    8.10
   5 -11   7  102.19    9.10
 -11   6   7   96.89    8.10
 -11   6   7   92.19    5.60
 -11   6   7   86.49    5.30
   6   5   7  106.19    9.50
   5 -11   7   94.19    9.40
   6   5   7  100.89    8.60
   8  -6  -7  340.67   17.00
  -2   8  -7  351.06   20.20
  -6  -2  -7  370.46   20.30
  -2   8  -7  345.27   21.60
   8  -6  -7  357.16   21.10
  -6  -2  -7  359.16   21.40
   8  -6  -7  345.67   20.00
  -2   8  -7  359.56   20.80
  -6  -2  -7  349.37   20.10
  -8   6   7  353.86   21.30
  -8   6   7  332.67   19.80
   2  -8   7  350.06   20.30
   2  -8   7  319.67   21.10
   6   2   7  340.37   19.90
  -8   6   7  343.77   17.10
   6   2   7  359.96   20.40
   2  -8   7  346.67   20.20
   1   5  -7  510.45   25.80
   1   5  -7  487.75   27.80
  -6   1  -7  480.85   25.00
   1   5  -7  473.05   27.00
   5  -6  -7  516.25   27.10
  -6   1  -7  492.15   26.80
  -6   1  -7  498.45   26.70
  -6   1  -7  490.15   26.70
   5  -6  -7  504.65   27.70
  -6   1  -7  465.65   25.10
  -1  -5   7  493.05   27.90
  -5   6   7  502.65   25.50
  -5   6   7  501.45   27.70
  -1  -5   7  500.55   25.70
   6  -1   7  494.95   26.70
  -5   6   7  488.65   26.70
   4   2  -7 1077.49   56.09
   4   2  -7 1083.59   53.69
   2  -6  -7 1100.99   56.29
  -6   4  -7 1123.29   54.79
   2  -6  -7 1126.99   57.29
  -6   4  -7 1197.78   56.69
   2  -6  -7 1059.79   56.09
  -6   4  -7 1084.69   54.89
   4   2  -7 1158.88   56.99
  -2   6   7 1086.79   57.19
  -2   6   7 1109.29   56.29
  -4  -2   7 1092.69   55.99
  -4  -2   7 1123.39   57.09
   6  -4   7 1178.58   56.59
  -4  -2   7 1089.99   53.69
  -6   7  -7 1061.09   55.49
   7  -1  -7 1087.39   56.19
   7  -1  -7 1170.58   57.89
  -1  -6  -7 1166.28   57.29
  -6   7  -7 1158.18   57.49
  -1  -6  -7 1152.08   58.09
  -1  -6  -7 1135.99   58.29
   7  -1  -7 1105.69   54.99
  -1  -6  -7 1164.78   58.09
  -6   7  -7 1132.19   57.59
   6  -7   7 1128.19   57.39
   1   6   7 1084.29   56.89
   6  -7   7 1090.99   57.19
  -7   1   7 1136.89   57.69
  -7   1   7 1131.59   55.99
   6  -7   7 1075.29   55.59
   1   6   7 1106.39   57.79
  10  -4  -7  414.16   24.40
  -4  -6  -7  425.76   24.00
  10  -4  -7  403.86   22.60
  10  -4  -7  374.96   21.50
  -4  -6  -7  407.36   24.90
  -6  10  -7  445.96   25.50
  -4  -6  -7  400.06   24.60
  -4  -6  -7  416.66   25.40
  -6  10  -7  412.16   23.30
  -6  10  -7  408.26   24.20
 -10   4   7  369.66   22.30
   4   6   7  417.66   23.80
 -10   4   7  439.66   25.00
   6 -10   7  395.16   22.60
   4   6   7  392.26   24.50
   6 -10   7  408.56   24.80
  -7  -6  -7   70.69    7.30
  -6  13  -7   68.79    7.70
  -7  -6  -7   76.49    8.60
  13  -7  -7   72.19    7.90
  -6  13  -7   69.89    8.70
  -7  -6  -7   68.99    8.00
  -7  -6  -7   73.89    8.70
   6 -13   7   62.99    6.70
 -13   7   7   70.39    8.30
   7   6   7   71.89    7.50
   7   6   7   64.29    7.90
   6 -13   7   62.69    8.00
   6 -13   7   66.59    7.60
  -7  -3  -7  389.36   23.70
  -7  -3  -7  421.06   23.60
  -3  10  -7  418.46   24.30
  -3  10  -7  411.46   23.90
  10  -7  -7  415.76   23.50
 -10   7   7  380.56   23.20
   3 -10   7  395.46   23.80
   3 -10   7  404.56   23.60
   3 -10   7  388.16   25.00
   7   3   7  416.16   23.80
   7  -7  -7   36.40    2.80
   7  -7  -7   41.30    5.10
   0   7  -7   42.20    4.90
  -7   0  -7   40.90    4.00
   7  -7  -7   40.80    4.60
  -7   0  -7   41.60    4.40
  -7   0  -7   40.00    3.70
   0   7  -7   40.70    5.20
  -7   0  -7   39.00    4.40
  -7   0  -7   42.40    4.90
   0   7  -7   41.90    4.20
   0  -7   7   29.10    3.70
   7   0   7   28.60    4.10
  -7   7   7   30.60    4.00
  -7   7   7   31.30    4.50
   0  -7   7   28.60    4.40
   0  -7   7   30.50    4.20
  -7   3  -7 2180.18  106.59
  -7   3  -7 2120.19  104.59
   3   4  -7 2096.29  106.79
   4  -7  -7 2152.08  105.89
   3   4  -7 2116.99  107.49
  -7   3  -7 2108.59  105.29
   4  -7  -7 2150.28  106.69
   4  -7  -7 2279.17  108.19
   7  -3   7 2175.78  105.69
  -3  -4   7 2142.59  107.69
  -3  -4   7 2043.20  104.39
  -4   7   7 2270.37  106.99
  -3  -4   7 2186.28  106.79
   7  -3   7 2248.18  106.79
   1  -7  -7  855.41   44.30
  -7   6  -7  858.41   43.50
   1  -7  -7  838.32   45.10
   6   1  -7  841.32   43.90
  -7   6  -7  899.81   44.70
   1  -7  -7  818.92   44.40
  -7   6  -7  813.62   42.00
   1  -7  -7  855.41   44.80
   7  -6   7  836.32   44.30
   7  -6   7  862.81   43.60
  -6  -1   7  803.22   41.40
  -6  -1   7  851.51   44.60
  -1   7   7  839.92   44.10
  -6  -1   7  835.52   41.40
   7  -6   7  833.52   42.50
  -6  -1   7  866.51   45.20
  -1   7   7  839.62   45.20
  -6  -1   7  894.81   43.90
  -7   9  -7  306.27   19.50
  -2  -7  -7  309.67   19.00
   9  -2  -7  296.57   19.40
   9  -2  -7  292.17   17.70
   9  -2  -7  297.07   17.10
  -2  -7  -7  345.77   21.70
  -2  -7  -7  301.37   19.80
  -7   9  -7  291.07   17.50
   7  -9   7  308.97   17.50
   2   7   7  298.67   18.70
  -9   2   7  321.97   19.50
   7  -9   7  314.07   19.60
  -9   2   7  318.47   17.30
   2   7   7  303.77   19.70
   7  -9   7  340.07   22.10
  -9   2   7  337.27   17.60
  -5  -7  -7  199.98   15.20
  12  -5  -7  191.38   13.90
  -7  12  -7  181.68   12.80
  -7  12  -7  188.18   14.70
  -5  -7  -7  201.68   14.80
  12  -5  -7  173.48   12.00
  -5  -7  -7  189.08   13.30
  -7  12  -7  185.08   13.70
 -12   5   7  163.38   12.00
   5   7   7  158.78   13.60
   7 -12   7  178.88   13.70
 -12   5   7  191.18   14.20
   5   7   7  180.08   13.00
   7 -12   7  157.28   11.60
 -12   5   7  153.48   10.50
   7 -12   7  175.18   14.20
  -4  12  -7   64.69    7.10
  -8  -4  -7   64.69    7.30
  -4  12  -7   64.29    7.30
  -8  -4  -7   63.29    7.60
  -8  -4  -7   65.69    8.00
  -4  12  -7   70.49    8.50
  12  -8  -7   63.49    7.40
   4 -12   7   70.69    8.20
   4 -12   7   73.19    7.60
 -12   8   7   71.29    8.20
   4 -12   7   66.79    6.90
   8   4   7   72.19    7.60
  -8  -1  -7  162.38   11.30
  -8  -1  -7  165.88   12.30
   9  -8  -7  172.68   11.90
  -1   9  -7  167.78   11.50
  -8  -1  -7  160.48   11.80
  -8  -1  -7  154.58   11.00
  -9   8   7  152.58   12.40
  -9   8   7  145.09   11.10
   1  -9   7  155.88   11.70
   1  -9   7  145.79   12.40
   1  -9   7  155.08   11.20
  -8   2  -7  165.38   10.10
   2   6  -7  162.08   10.20
  -8   2  -7  166.18   11.30
   6  -8  -7  162.78   10.10
   6  -8  -7  170.18   12.60
  -8   2  -7  166.68   11.20
   6  -8  -7  169.28   11.80
  -8   2  -7  150.18   10.00
   2   6  -7  167.38   12.00
  -8   2  -7  177.88   11.60
   6  -8  -7  161.38   10.20
  -6   8   7  161.58   11.50
  -2  -6   7  157.78   12.40
   8  -2   7  162.58   11.00
  -6   8   7  168.48   12.60
  -2  -6   7  158.48   10.20
  -2  -6   7  174.98   11.90
   3  -8  -7  272.07   16.50
   5   3  -7  280.17   16.80
   3  -8  -7  289.97   17.90
   5   3  -7  243.98   14.40
   3  -8  -7  272.97   16.30
   3  -8  -7  286.37   16.90
  -8   5  -7  275.47   15.30
  -8   5  -7  287.07   16.90
  -8   5  -7  259.27   14.50
   5   3  -7  290.97   17.60
   8  -5   7  251.77   16.40
  -5  -3   7  259.17   17.30
  -3   8   7  264.27   17.60
  -5  -3   7  261.57   16.40
  -5  -3   7  254.37   14.00
   8  -5   7  234.68   14.80
   8  -5   7  237.58   14.70
   0  -8  -7  238.08   16.10
   0  -8  -7  240.88   16.20
   0  -8  -7  252.77   15.50
  -8   8  -7  245.88   15.20
  -8   8  -7  220.98   13.00
   0  -8  -7  249.88   16.00
   8   0  -7  242.88   14.80
   0   8   7  221.38   14.90
   8  -8   7  216.48   15.10
   0   8   7  220.18   15.90
   8  -8   7  214.98   13.20
   8  -8   7  232.38   15.20
  -8   0   7  233.18   15.50
  -8   0   7  218.08   15.80
  -8   0   7  229.08   14.40
  -3  -8  -7  276.77   19.10
  -8  11  -7  257.87   16.00
  -3  -8  -7  270.97   18.60
  -3  -8  -7  285.67   18.80
  11  -3  -7  236.38   15.40
  -3  -8  -7  293.37   17.80
  -8  11  -7  282.17   18.10
  11  -3  -7  287.87   18.20
 -11   3   7  260.97   17.80
   3   8   7  249.38   16.80
 -11   3   7  260.17   15.20
   8 -11   7  235.48   15.20
   3   8   7  246.68   18.10
 -11   3   7  241.08   15.50
   8 -11   7  266.37   17.80
  -2  11  -7  133.39   11.20
  -9  -2  -7  123.49   10.30
  11  -9  -7  130.29   10.60
  -2  11  -7  132.09   12.00
  -9  -2  -7  132.39   11.00
  -9  -2  -7  124.29   11.20
  -9  -2  -7  133.59   11.00
  -2  11  -7  134.79   10.60
  11  -9  -7  128.59   11.20
   2 -11   7  129.39   10.60
   2 -11   7  125.49   11.60
 -11   9   7  126.49   11.60
 -11   9   7  121.99   10.20
  -9   1  -7  636.64   33.70
   1   8  -7  617.94   34.70
  -9   1  -7  609.94   33.90
   1   8  -7  593.44   32.70
  -9   1  -7  613.54   33.60
  -9   1  -7  609.54   32.60
   8  -9  -7  648.44   34.50
  -9   1  -7  585.34   32.00
   9  -1   7  582.34   33.40
  -1  -8   7  619.84   35.40
  -1  -8   7  622.64   32.90
  -9   4  -7   18.70    2.70
   5  -9  -7   21.40    3.20
  -9   4  -7   21.00    3.40
   4   5  -7   21.30    3.60
   5  -9  -7   22.60    3.70
   4   5  -7   23.30    4.10
   4   5  -7   20.20    2.50
   5  -9  -7   21.50    3.10
  -9   4  -7   19.20    2.70
  -4  -5   7   17.30    2.40
   9  -4   7   18.80    3.90
   9  -4   7   15.90    2.40
  -4  -5   7   17.60    3.90
  -5   9   7   18.40    3.90
  -5   9   7   19.80    4.90
  -4  -5   7   16.00    3.90
   2  -9  -7   68.99    6.80
  -9   7  -7   62.49    4.70
  -9   7  -7   63.69    6.00
   2  -9  -7   67.79    6.80
   2  -9  -7   68.49    7.00
   7   2  -7   66.99    6.60
  -7  -2   7   67.99    7.30
   9  -7   7   66.09    6.60
   9  -7   7   65.39    6.00
   9  -7   7   65.19    5.10
  -2   9   7   75.09    7.70
  -7  -2   7   67.99    6.50
  -7  -2   7   69.99    7.10
  -9  10  -7  165.68   12.40
  -1  -9  -7  159.98   12.60
  -1  -9  -7  160.28   12.90
  -1  -9  -7  162.18   12.00
  -1  -9  -7  168.58   13.20
  10  -1  -7  158.58   11.10
  -9  10  -7  152.08    9.90
  -9  10  -7  156.68   12.10
   1   9   7  147.09   11.40
   1   9   7  148.29   12.60
   9 -10   7  155.38   12.20
 -10   1   7  140.09    9.50
 -10   1   7  148.69   10.70
 -10   1   7  157.58   12.70
   9 -10   7  141.39    9.70
 -10   1   7  145.59    9.70
 -10   0  -7  227.88   15.80
 -10   0  -7  199.98   13.70
  10 -10  -7  199.68   11.10
  10 -10  -7  238.78   16.70
 -10   0  -7  222.58   15.30
 -10   0  -7  232.18   16.10
 -10   0  -7  201.48   14.30
  10 -10  -7  194.28   11.00
   0  10  -7  213.48   16.60
   0  10  -7  233.38   16.30
   0  10  -7  225.38   14.80
   0 -10   7  240.78   16.00
 -10  10   7  225.38   15.40
   0 -10   7  221.28   14.70
 -10  10   7  240.88   16.90
   0 -10   7  224.48   16.80
   7 -10  -7  284.97   19.20
 -10   3  -7  274.47   17.40
   7 -10  -7  263.67   15.80
   7 -10  -7  258.57   16.00
 -10   3  -7  291.47   17.60
   7 -10  -7  282.17   18.10
 -10   3  -7  267.47   16.60
 -10   3  -7  266.57   16.00
   3   7  -7  268.67   18.20
 -10   3  -7  274.67   16.10
   3   7  -7  275.57   18.90
   3   7  -7  261.97   15.90
  -7  10   7  285.67   17.90
  10  -3   7  263.77   16.50
  -3  -7   7  265.77   18.80
  -7  10   7  278.27   19.00
  -3  -7   7  283.67   18.10
  -3  -7   7  256.37   15.90
 -10   6  -7  509.65   28.30
   6   4  -7  519.05   27.00
   4 -10  -7  536.85   30.10
   4 -10  -7  534.95   29.70
 -10   6  -7  472.25   26.70
   4 -10  -7  533.45   29.40
   4 -10  -7  537.25   31.30
  -4  10   7  532.25   30.00
  -6  -4   7  560.34   30.10
  10  -6   7  476.85   27.20
  -6  -4   7  522.65   27.00
  -4  10   7  558.74   31.70
  10  -6   7  493.95   27.90
   9   1  -7  179.88   12.80
 -10   9  -7  196.38   13.70
   1 -10  -7  192.18   13.80
 -10   9  -7  179.78   12.80
   1 -10  -7  190.78   14.10
 -10   9  -7  160.98   10.20
   1 -10  -7  186.38   13.30
  -9  -1   7  179.48   13.40
  -9  -1   7  185.08   12.80
  -9  -1   7  182.88   14.10
  -9  -1   7  150.88   10.20
  10  -9   7  174.18   12.60
  10  -9   7  165.48   10.50
  10  -9   7  175.68   13.10
  -9  -1   7  161.08   10.30
  -1  10   7  176.68   14.20
  -1  10   7  175.58   12.90
 -10  12  -7   37.10    5.70
 -10  12  -7   38.20    5.80
  -2 -10  -7   39.30    5.60
  -2 -10  -7   37.40    6.20
 -10  12  -7   33.20    4.10
  -2 -10  -7   39.70    6.10
  -2 -10  -7   40.00    6.30
 -12   2   7   39.00    4.20
  10 -12   7   40.20    4.20
  10 -12   7   45.70    6.20
   2  10   7   41.10    5.50
 -12   2   7   42.00    5.80
   2  10   7   40.60    6.30
 -12   2   7   44.40    6.40
 -12   2   7   32.80    4.10
  10 -12   7   44.50    6.30
 -12   2   7   44.20    4.80
   9 -11  -7 1107.69   55.69
   2   9  -7 1004.60   51.99
   9 -11  -7  876.91   49.99
   9 -11  -7 1085.69   54.39
 -11   2  -7 1025.40   52.59
   9 -11  -7  955.40   49.99
 -11   2  -7  913.31   52.49
   2   9  -7 1077.99   54.99
 -11   2  -7  903.21   51.49
 -11   2  -7  978.20   51.49
 -11   2  -7 1016.80   53.09
   2   9  -7  971.90   55.09
  -2  -9   7  973.60   51.89
  -9  11   7 1063.49   55.49
  -2  -9   7  997.40   55.19
  -9  11   7 1056.69   53.79
  -2  -9   7 1076.29   54.29
   6 -11  -7  108.39    8.60
   6 -11  -7  104.69    8.80
   6 -11  -7  116.79   10.00
 -11   5  -7  113.29    9.50
   6 -11  -7  111.79   10.60
 -11   5  -7  107.19    8.30
 -11   5  -7   99.79    7.60
   5   6  -7  110.09    7.90
   5   6  -7  111.59   10.00
   5   6  -7  110.29   10.40
  11  -5   7  115.79    9.70
  11  -5   7   97.69    7.80
  -5  -6   7  105.59    7.70
  -5  -6   7  112.19    9.70
  11  -5   7  101.99    7.90
  -6  11   7  114.89   10.80
  -6  11   7  115.29    9.80
  -5  -6   7  114.59   10.70
   3 -11  -7  197.58   15.50
 -11   8  -7  201.68   14.50
 -11   8  -7  184.68   13.20
 -11   8  -7  165.68   10.80
   3 -11  -7  200.88   14.50
   8   3  -7  192.38   14.30
  -8  -3   7  214.78   15.10
  -3  11   7  219.28   16.20
  -3  11   7  220.98   14.80
  -8  -3   7  197.98   15.30
  -8  -3   7  189.08   11.50
  -8  -3   7  175.68   11.30
  11  -8   7  210.78   14.50
  11  -8   7  203.48   13.30
   0 -11  -7  362.46   23.50
   0 -11  -7  352.36   23.40
  11   0  -7  333.27   21.00
 -11  11  -7  301.67   18.40
   0 -11  -7  366.16   22.90
 -11  11  -7  365.96   22.70
   0 -11  -7  371.36   22.30
 -11   0   7  303.97   18.50
   0  11   7  357.06   21.90
 -11   0   7  298.17   18.60
 -11   0   7  333.07   22.80
 -11   0   7  348.87   21.00
   0  11   7  346.67   23.30
  11 -11   7  307.57   18.50
  11 -11   7  339.27   22.00
 -11   0   7  346.87   22.20
 -12   4  -7   37.60    5.10
   4   8  -7   39.70    5.80
 -12   4  -7   26.70    3.90
   8 -12  -7   38.50    5.50
   4   8  -7   31.00    5.60
   8 -12  -7   41.40    6.40
   4   8  -7   37.30    4.30
 -12   4  -7   37.10    4.50
 -12   4  -7   32.80    4.30
   8 -12  -7   37.20    4.20
   8 -12  -7   32.80    4.20
  -8  12   7   30.40    5.60
  -4  -8   7   30.90    5.10
  -4  -8   7   27.70    6.40
  -8  12   7   31.40    4.90
  -4  -8   7   29.60    3.90
   5 -12  -7  835.92   45.30
   5 -12  -7  801.72   43.30
   7   5  -7  831.42   44.20
   5 -12  -7  807.72   42.80
 -12   7  -7  752.52   41.60
 -12   7  -7  808.02   43.40
   7   5  -7  761.52   44.30
   5 -12  -7  828.12   43.90
   7   5  -7  777.32   40.30
  -7  -5   7  702.73   39.80
  -7  -5   7  822.02   43.60
  -7  -5   7  721.03   44.20
  12  -7   7  733.13   41.10
  -5  12   7  821.82   43.70
  12  -7   7  764.52   43.00
 -12  10  -7   72.39    8.10
   2 -12  -7   69.79    8.00
   2 -12  -7   68.29    8.60
   2 -12  -7   74.49    8.60
   2 -12  -7   75.99    8.20
  10   2  -7   68.29    7.60
 -12  10  -7   67.09    7.30
  12 -10   7   70.49    7.40
  -2  12   7   77.19    9.20
  12 -10   7   72.79    7.90
 -10  -2   7   73.99    7.70
 -10  -2   7   74.49    8.80
  -2  12   7   75.49    8.00
 -10  -2   7   75.79    8.40
 -13   6  -7  125.79   10.00
   6   7  -7  131.09   11.70
 -13   6  -7  125.79   10.90
 -13   6  -7  108.29    8.30
   7 -13  -7  123.49   10.30
   6   7  -7  123.29   11.80
   7 -13  -7  124.09    9.90
   6   7  -7  131.29    9.50
  -6  -7   7  126.49   12.20
  -7  13   7  135.09   12.70
  -6  -7   7  137.29   11.50
  13  -6   7  118.99    9.30
  13  -6   7  129.89   11.00
  -7  13   7  137.29   11.50
   0  -1  -8   41.80    3.40
   1   0  -8   57.39    4.40
   0  -1  -8   42.60    3.60
   1   0  -8   49.10    3.20
  -1   1  -8   43.40    3.60
  -1   1  -8   43.10    3.50
   1  -1   8   52.29    3.30
  -1   0   8   58.79    4.00
  -1   0   8   60.19    4.10
   0   1   8   48.60    3.60
  -1   0   8   53.99    3.30
   1  -1   8   58.59    3.50
   2  -2  -8  151.48    9.20
   0   2  -8  163.18    8.40
  -2   0  -8  154.48    9.20
  -2   0  -8  152.08    7.70
   2  -2  -8  150.48    8.50
   0   2  -8  158.48    9.00
   2  -2  -8  167.38    8.80
   2   0   8  145.49    7.70
   2   0   8  133.29    8.80
  -2   2   8  134.39    8.40
   0  -2   8  149.79    9.30
   0  -2   8  142.69    8.30
  -2   2   8  144.09    8.60
  -1  -2  -8 2069.99   98.79
  -2   3  -8 2127.39   98.89
  -2   3  -8 2009.30   98.79
   3  -1  -8 2067.49   97.79
   3  -1  -8 2011.60   99.39
  -2   3  -8 2179.28   99.09
  -1  -2  -8 2025.40   99.09
   2  -3   8 2007.80   98.69
   1   2   8 2041.00   98.79
   2  -3   8 2041.50   98.99
  -3   1   8 1913.81   97.59
   1   2   8 1936.61   98.99
  -3   1   8 2166.68   98.49
   2  -3   8 1864.21   98.59
   1   2   8 2090.09   99.69
   4  -3  -8 3285.97  147.29
  -3  -1  -8 3048.40  147.19
  -1   4  -8 3232.58  149.09
  -1   4  -8 2972.00  147.69
   4  -3  -8 2747.23  148.59
  -3  -1  -8 3146.49  149.09
  -3  -1  -8 2984.80  148.29
  -1   4  -8 3040.90  148.19
   3   1   8 3161.98  147.29
   1  -4   8 2942.01  147.99
   1  -4   8 3162.28  147.89
  -4   3   8 3213.88  147.29
   1  -4   8 3236.88  149.09
  -4   3   8 2719.93  148.09
  -4   3   8 2990.10  148.89
   3   1   8 3157.38  148.59
   3   1   8 3086.29  148.99
   2   1  -8  673.23   33.80
   1  -3  -8  671.33   34.30
   1  -3  -8  660.23   33.80
   2   1  -8  647.94   32.10
  -3   2  -8  692.03   33.70
   2   1  -8  664.83   32.10
   1  -3  -8  722.13   34.30
  -3   2  -8  756.82   32.60
  -3   2  -8  686.03   34.20
   3  -2   8  686.33   34.20
  -1   3   8  688.33   34.30
   3  -2   8  622.94   32.40
  -1   3   8  625.44   34.20
  -2  -1   8  619.24   33.50
  -2  -1   8  625.04   34.10
  -1   3   8  628.84   33.70
  -2  -1   8  691.73   34.50
   5  -2  -8 1688.43   83.89
  -3   5  -8 1688.13   82.79
  -2  -3  -8 1772.52   84.39
  -2  -3  -8 1806.02   83.59
   5  -2  -8 1727.93   81.89
  -3   5  -8 1731.93   83.59
  -3   5  -8 1703.43   83.29
  -2  -3  -8 1667.43   83.19
   3  -5   8 1729.43   83.29
   2   3   8 1562.24   82.89
   3  -5   8 1636.34   82.69
  -5   2   8 1614.84   81.89
   2   3   8 1619.04   83.29
   3  -5   8 1575.94   83.19
  -5   2   8 1687.23   83.99
  -5   2   8 1728.43   82.09
   2   3   8 1844.62   85.89
   6  -4  -8   52.79    3.70
  -4  -2  -8   52.19    4.90
  -2   6  -8   49.70    4.90
   6  -4  -8   51.79    5.30
  -4  -2  -8   56.89    5.70
  -2   6  -8   53.79    4.80
  -4  -2  -8   51.69    4.60
   6  -4  -8   57.19    4.70
  -2   6  -8   59.39    5.70
   2  -6   8   58.59    5.00
  -6   4   8   56.69    4.70
   4   2   8   68.69    5.60
   4   2   8   54.29    5.50
   2  -6   8   54.19    4.90
  -6   4   8   61.19    5.70
   2  -6   8   60.09    5.60
   4   2   8   54.89    5.00
  -6   4   8   61.99    3.90
  -4   1  -8  137.29    8.80
   3  -4  -8  124.39    8.30
  -4   1  -8  145.89    8.70
   1   3  -8  129.89    7.40
   3  -4  -8  137.09    9.20
  -4   1  -8  137.09    6.60
  -4   1  -8  138.89    6.60
  -4   1  -8  138.29    8.70
   1   3  -8  139.79    9.20
  -3   4   8  127.09    8.40
   4  -1   8  119.79    8.40
  -3   4   8  118.19    8.90
  -1  -3   8  127.39    7.40
  -1  -3   8  121.69    9.00
  -1  -3   8  120.79    8.30
   0  -4  -8  261.47   15.80
   4   0  -8  275.47   13.80
  -4   4  -8  276.27   16.10
   0  -4  -8  272.97   16.50
  -4   4  -8  258.97   15.10
   4   0  -8  260.97   15.40
   0  -4  -8  268.67   16.30
  -4   4  -8  286.57   15.40
  -4   0   8  292.47   15.40
   4  -4   8  310.57   15.60
   4  -4   8  300.47   16.30
   4  -4   8  275.47   15.30
  -4   0   8  291.97   13.80
   0   4   8  307.87   16.60
  -4   0   8  281.47   16.40
   0   4   8  291.67   16.70
   7  -3  -8  605.34   31.60
  -3  -4  -8  615.44   31.00
  -3  -4  -8  608.74   32.10
  -4   7  -8  597.84   31.00
  -3  -4  -8  585.04   30.90
   7  -3  -8  532.55   29.20
  -4   7  -8  578.34   30.30
  -4   7  -8  618.64   31.60
  -7   3   8  606.84   31.80
   4  -7   8  558.34   30.70
   3   4   8  550.34   31.60
   3   4   8  556.14   30.70
   3   4   8  559.44   30.70
   4  -7   8  535.25   29.80
  -7   3   8  519.25   29.20
   4  -7   8  547.95   31.00
  -3   8  -8  182.78   12.30
  -3   8  -8  192.38   13.50
   8  -5  -8  186.98   13.00
   8  -5  -8  199.58   12.00
   8  -5  -8  184.98   10.00
  -5  -3  -8  194.08   12.50
  -3   8  -8  182.98   12.40
  -5  -3  -8  194.98   13.60
  -5  -3  -8  186.18   12.30
   5   3   8  189.98   13.30
   3  -8   8  191.88   12.50
   5   3   8  193.68   12.50
  -8   5   8  202.88   13.70
   3  -8   8  191.88   13.30
  -8   5   8  167.28   11.50
   3  -8   8  179.58   12.00
  -8   5   8  175.98    9.90
   5   3   8  187.68   12.40
  -5   0  -8   19.90    2.70
   0   5  -8   18.90    2.30
   5  -5  -8   15.50    1.80
   5  -5  -8   17.70    2.60
  -5   0  -8   19.80    2.10
   0   5  -8   17.10    3.00
  -5   0  -8   19.00    2.90
   0   5  -8   16.60    2.50
   5  -5  -8   16.90    2.90
   0  -5   8   12.40    2.50
   0  -5   8   14.20    3.30
   5   0   8   17.00    2.60
  -5   5   8   15.70    3.50
  -5   5   8   12.40    2.20
   5   0   8   12.60    1.60
   0  -5   8   12.50    1.90
  -5   5   8   12.10    1.80
   2  -5  -8  187.58   11.80
   2  -5  -8  171.78   10.90
   3   2  -8  166.98    8.80
  -5   3  -8  182.98   10.30
   3   2  -8  159.88   10.70
  -5   3  -8  180.38    9.50
   2  -5  -8  181.08   11.10
  -5   3  -8  184.18   11.20
   3   2  -8  187.48   11.60
  -3  -2   8  163.88   10.60
   5  -3   8  187.58   11.30
  -2   5   8  170.58   10.90
   5  -3   8  174.98   10.40
   5  -3   8  163.88    9.30
  -2   5   8  174.18   11.00
  -2   5   8  172.78   11.60
  -3  -2   8  163.88   11.40
  -3  -2   8  169.18    8.70
  -1  -5  -8  122.79    9.00
  -1  -5  -8  111.19    8.40
  -5   6  -8  133.69    8.80
  -1  -5  -8  124.89    9.40
   6  -1  -8  127.89    7.00
   6  -1  -8  122.79    9.10
  -5   6  -8  125.39    8.90
   6  -1  -8  116.49    7.90
  -5   6  -8  117.49    7.70
  -6   1   8  121.89    7.70
   1   5   8  113.79    8.80
  -6   1   8  119.39    9.00
   1   5   8  119.39    9.20
   5  -6   8  113.49    8.30
   5  -6   8  117.89    7.70
   1   5   8  110.69    8.40
   5  -6   8  122.59    8.80
  -4  -5  -8  803.52   44.40
  -4  -5  -8  779.82   43.70
  -5   9  -8  789.62   43.50
   9  -4  -8  775.32   41.90
  -5   9  -8  835.22   44.60
  -4  -5  -8  847.72   43.60
  -4  -5  -8  811.62   44.90
   9  -4  -8  843.52   44.20
  -5   9  -8  796.12   42.90
   4   5   8  820.62   43.90
   5  -9   8  817.02   44.30
  -9   4   8  817.42   42.10
  -9   4   8  890.31   44.90
   5  -9   8  834.22   42.50
   4   5   8  822.32   43.40
   5  -9   8  887.21   44.10
  10  -6  -8  143.39    9.90
  -6  -4  -8  149.39   11.80
  -6  -4  -8  152.58   10.60
  -6  -4  -8  146.59   10.80
  -4  10  -8  150.38   10.70
  10  -6  -8  133.29    7.20
 -10   6   8  122.49    9.50
   4 -10   8  128.69    9.80
   4 -10   8  106.59    9.80
   6   4   8  133.69   10.30
   6   4   8  138.99   10.70
 -10   6   8  118.09    7.00
   7  -6  -8  319.57   18.90
  -6  -1  -8  328.37   17.30
  -6  -1  -8  312.37   18.80
   7  -6  -8  312.37   15.50
  -1   7  -8  329.07   19.40
   7  -6  -8  317.17   18.00
  -1   7  -8  295.57   18.20
  -1   7  -8  320.77   17.70
  -6  -1  -8  306.47   17.90
   1  -7   8  290.97   18.80
  -7   6   8  301.77   18.90
  -7   6   8  289.47   15.70
   6   1   8  287.77   17.70
   1  -7   8  298.47   17.40
   6   1   8  287.57   18.30
   6   1   8  283.47   16.80
   1  -7   8  282.57   17.80
  -7   6   8  281.07   17.50
   4  -6  -8  899.51   45.20
   4  -6  -8  924.61   46.30
   2   4  -8  898.31   46.10
  -6   2  -8  850.71   44.90
  -6   2  -8  902.11   44.60
   2   4  -8  851.21   45.10
   4  -6  -8  851.01   44.20
   2   4  -8  814.42   43.20
  -6   2  -8  879.01   42.80
  -4   6   8  864.31   44.30
  -4   6   8  896.11   45.20
  -2  -4   8  914.61   45.20
  -2  -4   8  870.71   43.20
   6  -2   8  842.22   44.50
   1  -6  -8  150.18   10.90
  -6   5  -8  163.48   11.30
   5   1  -8  154.28   10.70
   1  -6  -8  148.69   11.20
   1  -6  -8  153.48   11.60
  -6   5  -8  151.98    9.70
  -5  -1   8  180.38   12.10
   6  -5   8  176.38   10.50
  -5  -1   8  178.28   10.80
  -5  -1   8  182.18   11.70
  -1   6   8  171.78   11.60
   6  -5   8  175.78   10.30
  -1   6   8  179.78   12.10
  -5  -1   8  179.88    8.60
  -1   6   8  164.18   11.10
  -5  -1   8  184.88    8.60
  -2  -6  -8   37.40    4.50
  -2  -6  -8   41.70    5.10
   8  -2  -8   37.30    3.80
   8  -2  -8   38.20    3.80
  -2  -6  -8   38.40    5.20
  -2  -6  -8   39.40    5.00
  -6   8  -8   35.60    3.80
  -6   8  -8   36.70    4.60
   8  -2  -8   39.20    4.90
  -6   8  -8   36.70    4.70
   6  -8   8   44.70    5.00
  -8   2   8   48.00    5.30
  -8   2   8   44.10    3.60
   2   6   8   45.90    4.80
   6  -8   8   42.40    4.00
   6  -8   8   45.60    5.00
   2   6   8   44.50    5.20
  11  -5  -8   94.99    7.50
  11  -5  -8   96.69    8.90
  -5  -6  -8  103.59    9.90
  -6  11  -8  100.39    8.80
  -6  11  -8   93.89    8.10
  -5  -6  -8   98.19    9.30
  -6  11  -8   99.39   11.10
 -11   5   8   97.59    9.30
   6 -11   8   90.69    9.10
   6 -11   8   92.99    8.70
 -11   5   8   90.59    7.50
   5   6   8   90.99    8.90
   6 -11   8   84.49    7.40
  -5  12  -8  246.38   16.40
  -5  12  -8  241.78   16.40
  -7  -5  -8  254.27   18.40
  12  -7  -8  250.07   16.90
  -5  12  -8  232.68   17.60
  -7  -5  -8  250.17   17.40
  12  -7  -8  206.88   14.90
  -7  -5  -8  228.48   16.50
  -7  -5  -8  244.88   17.80
 -12   7   8  215.88   15.10
   7   5   8  200.48   16.00
   7   5   8  241.68   16.10
   5 -12   8  221.38   16.10
   5 -12   8  213.88   16.90
 -12   7   8  248.88   17.60
  -2   9  -8  384.46   23.00
   9  -7  -8  352.36   19.20
  -2   9  -8  400.06   23.70
  -7  -2  -8  403.36   24.30
   9  -7  -8  383.26   22.90
  -7  -2  -8  389.76   22.80
  -2   9  -8  390.46   24.60
  -7  -2  -8  402.46   23.10
   9  -7  -8  399.66   24.10
   2  -9   8  412.76   23.40
  -9   7   8  398.16   22.90
   7   2   8  422.56   23.40
   2  -9   8  417.96   23.20
  -9   7   8  430.66   24.90
   7   2   8  405.16   24.10
   1   6  -8  272.67   17.40
  -7   1  -8  294.77   17.30
  -7   1  -8  291.07   17.30
   6  -7  -8  284.37   18.10
  -7   1  -8  284.27   17.10
   1   6  -8  284.17   16.10
   1   6  -8  303.77   18.60
   6  -7  -8  296.87   17.40
  -1  -6   8  277.67   15.90
  -6   7   8  275.67   18.00
  -1  -6   8  275.47   17.20
   7  -1   8  264.87   16.80
  -6   7   8  273.07   17.00
  -1  -6   8  280.57   18.20
  -7   4  -8  312.97   17.70
   4   3  -8  329.67   19.50
   4   3  -8  375.16   20.70
  -7   4  -8  327.27   18.00
  -7   4  -8  347.07   19.60
   4   3  -8  339.97   17.00
   3  -7  -8  354.06   20.70
   3  -7  -8  321.77   19.40
   3  -7  -8  325.37   19.20
  -4  -3   8  328.97   19.30
   7  -4   8  329.87   19.60
  -3   7   8  326.17   19.40
  -4  -3   8  311.67   16.90
  -4  -3   8  352.26   20.60
   7  -4   8  321.87   18.30
  -3   7   8  328.97   19.20
  -3   7   8  328.37   20.40
   0  -7  -8  622.04   34.20
   0  -7  -8  607.54   34.10
  -7   7  -8  585.24   31.30
   0  -7  -8  610.84   33.90
  -7   7  -8  622.84   33.00
   0  -7  -8  634.94   33.50
  -7   7  -8  637.94   33.80
   7   0  -8  614.24   32.70
  -7   0   8  608.24   32.40
  -7   0   8  629.74   34.40
  -7   0   8  582.54   30.40
   7  -7   8  629.44   33.60
  -7   0   8  554.54   30.40
   0   7   8  626.34   34.30
   0   7   8  589.54   33.00
   7  -7   8  636.74   31.80
  -7   0   8  612.94   33.70
   7  -7   8  659.13   33.20
  -7  10  -8   46.40    4.90
  -7  10  -8   51.59    6.30
  -3  -7  -8   43.10    5.90
  10  -3  -8   47.50    4.50
  -3  -7  -8   49.30    5.70
  10  -3  -8   46.80    4.60
  -7  10  -8   47.30    5.70
 -10   3   8   52.19    4.70
 -10   3   8   58.29    4.60
   7 -10   8   54.49    6.30
   3   7   8   53.99    6.40
   7 -10   8   51.59    4.80
   7 -10   8   61.89    6.40
  -6  -7  -8   90.39    9.90
  -7  13  -8   93.29    9.90
  -6  -7  -8   90.39    9.60
  -6  -7  -8   88.99    8.50
  -7  13  -8   84.89    8.70
  -6  -7  -8   82.89    9.10
  13  -6  -8   90.69    9.00
  13  -6  -8   78.99    7.40
   7 -13   8   94.19    9.80
   6   7   8   78.79    9.00
   6   7   8   87.99    8.70
 -13   6   8   96.39    9.60
 -13   6   8   73.89    5.20
 -13   6   8   83.99    7.60
   7 -13   8   90.59    9.00
  -3  11  -8   16.90    3.90
  -3  11  -8   20.40    5.10
  11  -8  -8   15.90    4.20
  -8  -3  -8   20.10    3.80
  -3  11  -8   17.20    4.10
  -8  -3  -8   19.60    4.60
  11  -8  -8   20.60    4.30
  -8  -3  -8   19.20    4.80
   3 -11   8   14.70    3.80
   3 -11   8   14.90    3.80
   3 -11   8   15.60    4.70
   8   3   8   15.60    3.60
 -11   8   8   15.80    4.40
  -8   0  -8  167.38   11.20
   8  -8  -8  153.18    8.70
   0   8  -8  158.28   10.60
   8  -8  -8  161.78   12.20
  -8   0  -8  138.69   10.00
  -8   0  -8  165.68   11.80
  -8   0  -8  146.29    9.70
   0   8  -8  145.59   12.10
  -8   0  -8  155.98   11.20
   0   8  -8  161.78   11.80
   8  -8  -8  142.09    8.50
   8  -8  -8  164.48   11.40
  -8   8   8  144.99   11.90
   0  -8   8  151.38   11.30
   0  -8   8  146.69   10.40
  -8   8   8  146.99   10.90
   8   0   8  145.89   11.10
   3   5  -8   17.80    2.20
  -8   3  -8   20.90    2.90
   5  -8  -8   17.70    2.70
   3   5  -8   19.90    3.80
   5  -8  -8   18.20    2.60
  -8   3  -8   22.00    3.40
   5  -8  -8   18.10    3.10
   5  -8  -8   20.80    4.70
   3   5  -8   18.10    3.10
  -3  -5   8   18.80    3.90
  -3  -5   8   15.50    4.00
   8  -3   8   15.30    2.60
  -3  -5   8   15.50    2.10
  -5   8   8   14.30    3.70
  -5   8   8   14.20    3.30
   8  -3   8   19.50    4.00
  -8   6  -8    4.20    1.40
  -8   6  -8    4.00    1.80
   6   2  -8    4.40    1.90
   2  -8  -8    3.40    1.90
   2  -8  -8    2.40    2.00
   2  -8  -8    2.80    1.70
  -8   6  -8    3.80    2.10
   2  -8  -8    3.00    1.60
   8  -6   8    7.70    1.90
  -6  -2   8    7.60    2.40
  -6  -2   8    6.90    1.10
  -2   8   8    4.70    2.40
   8  -6   8    7.10    2.40
  -6  -2   8    8.30    2.90
  -6  -2   8    7.00    1.10
  -6  -2   8    5.50    2.20
   8  -6   8    6.10    1.90
  -2   8   8    7.20    2.40
  -1  -8  -8  211.28   14.60
  -1  -8  -8  197.38   14.50
  -8   9  -8  188.68   11.60
   9  -1  -8  200.48   13.70
  -8   9  -8  204.48   13.70
  -9   1   8  207.98   15.80
  -9   1   8  183.98   13.50
   8  -9   8  180.48   11.50
  -9   1   8  189.98   12.10
  -9   1   8  182.28   11.00
   1   8   8  186.58   14.00
  -9   1   8  168.08   10.80
   8  -9   8  187.28   13.50
   8  -9   8  182.08   13.30
  -4  -8  -8  101.69   10.10
  12  -4  -8   89.79    7.70
  -4  -8  -8  113.49    9.60
  12  -4  -8  111.79   10.00
  -8  12  -8  107.99   10.40
  -8  12  -8  100.29    8.50
  -8  12  -8  107.09    9.80
  -4  -8  -8  109.09   10.30
  -4  -8  -8  110.29   10.80
   8 -12   8  114.99   10.50
   4   8   8  101.79   10.10
 -12   4   8  114.39   10.20
   8 -12   8  113.19   10.00
   4   8   8  106.29    9.20
 -12   4   8   91.59    7.00
 -12   4   8   91.69    7.80
   8 -12   8  101.89    8.00
  -9  -1  -8  191.48   13.60
  -1  10  -8  203.98   14.70
  -1  10  -8  206.98   13.90
  10  -9  -8  204.98   15.10
  -1  10  -8  184.48   15.20
  -9  -1  -8  171.18   13.00
  -9  -1  -8  192.38   14.20
  -9  -1  -8  180.48   12.70
   1 -10   8  220.78   14.70
 -10   9   8  204.68   14.10
 -10   9   8  223.08   15.80
   1 -10   8  218.18   15.90
  -9   2  -8  160.68   11.50
   7  -9  -8  151.58    9.80
  -9   2  -8  154.18    9.90
  -9   2  -8  155.38   11.30
   7  -9  -8  169.58   12.00
  -9   2  -8  137.09    9.80
   7  -9  -8  148.49    9.90
   2   7  -8  155.48   10.30
  -2  -7   8  165.68   10.40
  -7   9   8  177.28   12.10
   9  -2   8  164.98   11.30
   5   4  -8   35.50    4.70
  -9   5  -8   33.20    3.40
  -9   5  -8   35.80    4.70
  -9   5  -8   34.30    3.70
   5   4  -8   34.20    5.00
   4  -9  -8   36.30    4.40
   4  -9  -8   36.40    4.50
   4  -9  -8   38.50    5.50
  -5  -4   8   32.20    5.00
  -4   9   8   37.10    5.50
   9  -5   8   34.00    3.50
   9  -5   8   33.20    4.50
  -5  -4   8   38.70    4.80
   9  -5   8   35.30    3.80
  -4   9   8   36.30    4.80
   8   1  -8  491.95   27.90
  -9   8  -8  521.85   28.80
  -9   8  -8  503.55   27.70
  -9   8  -8  444.46   25.30
   1  -9  -8  498.05   28.70
   1  -9  -8  462.85   29.80
  -8  -1   8  446.26   26.60
  -8  -1   8  507.95   28.80
  -8  -1   8  528.05   27.90
   9  -8   8  505.65   30.00
   9  -8   8  483.25   25.90
  -1   9   8  459.85   29.40
   9  -8   8  535.75   29.40
  -9  11  -8  238.28   16.30
  11  -2  -8  224.48   14.40
  -2  -9  -8  248.68   16.00
  -9  11  -8  214.68   13.70
  -9  11  -8  233.18   16.20
  -2  -9  -8  253.67   17.10
  -2  -9  -8  238.68   17.20
  -2  -9  -8  235.78   16.90
 -11   2   8  204.38   16.00
   2   9   8  220.18   15.30
   9 -11   8  196.38   13.20
 -11   2   8  222.38   15.80
 -11   2   8  217.38   13.80
   9 -11   8  221.68   15.90
 -11   2   8  199.98   13.00
 -11   2   8  207.78   13.20
   2   9   8  208.58   16.20
  -2  12  -8   23.50    5.90
  -2  12  -8   21.10    5.20
  12 -10  -8   25.80    4.40
 -10  -2  -8   25.30    4.10
  -2  12  -8   38.80    9.30
 -10  -2  -8   25.90    4.40
  12 -10  -8   23.70    5.50
 -10  -2  -8   25.10    4.00
 -10  -2  -8   25.10    4.30
 -12  10   8   21.50    5.50
 -12  10   8   20.60    5.30
   2 -12   8   19.20    5.30
   2 -12   8   21.60    4.80
   2 -12   8   23.60    4.90
 -10   1  -8  127.79   10.00
 -10   1  -8  141.09    9.80
   1   9  -8  154.18   12.20
   1   9  -8  149.59   10.60
 -10   1  -8  144.89   11.40
   9 -10  -8  153.58   11.80
   9 -10  -8  159.38   12.80
   1   9  -8  144.09   12.50
  -1  -9   8  131.19   10.20
  -1  -9   8  147.39   11.60
  -9  10   8  144.49   11.30
  -9  10   8  144.19   12.40
 -10   4  -8   59.39    5.40
 -10   4  -8   64.89    5.70
   6 -10  -8   60.79    6.00
   4   6  -8   63.39    7.00
   4   6  -8   60.29    5.10
   6 -10  -8   67.99    7.00
   6 -10  -8   60.99    5.80
   6 -10  -8   65.19    7.60
   4   6  -8   77.09    8.00
  -6  10   8   64.69    7.60
  -4  -6   8   62.89    5.20
  -4  -6   8   77.99    8.00
  -4  -6   8   70.59    7.00
  10  -4   8   70.69    6.90
  10  -4   8   64.39    5.80
  -6  10   8   66.19    6.90
  10  -4   8   58.49    5.10
   3 -10  -8  177.18   13.40
 -10   7  -8  177.78   12.50
 -10   7  -8  157.18   10.90
 -10   7  -8  150.58    9.30
   3 -10  -8  169.78   12.40
   7   3  -8  142.89   12.50
   3 -10  -8  167.28   12.10
   3 -10  -8  166.78   12.30
  -3  10   8  160.48   13.10
  10  -7   8  142.99   10.40
  10  -7   8  156.38   11.90
  -3  10   8  151.98   11.90
  -7  -3   8  162.88   11.90
  10  -7   8  136.09    9.60
  -7  -3   8  152.88   12.70
   0 -10  -8   45.20    6.10
   0 -10  -8   43.60    6.30
 -10  10  -8   42.90    5.80
   0 -10  -8   43.10    5.70
 -10  10  -8   37.40    3.90
   0 -10  -8   43.60    6.40
 -10  10  -8   43.00    5.60
  10   0  -8   41.50    5.20
  10 -10   8   45.90    4.40
   0  10   8   49.99    5.90
 -10   0   8   44.60    4.10
  10 -10   8   48.50    6.00
   0  10   8   48.20    6.60
 -10   0   8   43.80    3.90
 -10   0   8   54.69    5.60
 -10   0   8   48.50    6.60
  10 -10   8   52.89    6.30
 -10   0   8   51.99    6.30
 -11   0  -8   76.89    7.90
 -11   0  -8   69.19    7.20
   0  11  -8   83.49    9.50
 -11   0  -8   82.89    8.00
 -11   0  -8   70.99    6.70
 -11   0  -8   78.79    7.70
  11 -11  -8   85.99    8.60
  11 -11  -8   77.49    4.00
 -11   0  -8   83.29    8.60
   0  11  -8   80.59    8.70
  11 -11  -8   80.29    9.00
 -11  11   8   73.89    8.90
   0 -11   8   72.79    8.00
 -11  11   8   72.59    7.80
   0 -11   8   74.19    9.00
   8 -11  -8  135.19    9.80
   8 -11  -8  152.88   12.10
   8 -11  -8  153.48   13.00
 -11   3  -8  153.58   11.60
 -11   3  -8  152.28   11.10
 -11   3  -8  143.89   10.10
 -11   3  -8  141.19   10.10
   3   8  -8  142.99   10.20
   8 -11  -8  132.79    9.60
   3   8  -8  147.69   12.80
 -11   3  -8  144.29   11.30
  -3  -8   8  157.88   12.20
  11  -3   8  141.29   10.70
  -8  11   8  150.28   11.80
  -8  11   8  156.78   13.00
  -3  -8   8  147.79   10.20
  -3  -8   8  152.88   13.00
   5 -11  -8  212.38   14.30
   5 -11  -8  208.68   14.50
   5 -11  -8  221.38   16.20
   6   5  -8  205.48   12.30
 -11   6  -8  211.88   14.80
   6   5  -8  208.18   15.70
   5 -11  -8  213.38   15.10
   6   5  -8  212.48   15.30
 -11   6  -8  183.28   12.00
 -11   6  -8  200.68   13.20
  -5  11   8  231.98   15.30
  -5  11   8  226.68   18.70
  -6  -5   8  229.18   15.30
  11  -6   8  211.68   14.80
  -6  -5   8  202.78   12.10
  -6  -5   8  199.38   15.70
  11  -6   8  183.88   12.50
  11  -6   8  195.98   12.80
 -11   9  -8   25.90    5.50
   2 -11  -8   24.20    5.10
   2 -11  -8   21.90    5.40
   2 -11  -8   24.60    5.40
 -11   9  -8   22.40    3.90
   2 -11  -8   19.80    4.80
   9   2  -8   24.60    5.80
 -11   9  -8   19.50    2.40
  -9  -2   8   27.60    4.80
  -9  -2   8   27.40    2.80
  11  -9   8   30.50    4.80
  -2  11   8   32.20    5.60
  11  -9   8   24.10    2.90
  -9  -2   8   26.90    2.80
  11  -9   8   27.80    4.20
  -2  11   8   30.50    4.60
  -9  -2   8   29.70    5.30
 -12   2  -8   32.00    4.80
  10 -12  -8   25.30    3.00
 -12   2  -8   28.60    3.90
  10 -12  -8   31.90    5.80
  10 -12  -8   25.80    2.90
 -12   2  -8   32.20    4.80
 -12   2  -8   30.20    4.40
 -12   2  -8   34.20    4.90
 -12   2  -8   27.90    4.10
  10 -12  -8   32.00    5.20
   2  10  -8   30.40    5.50
   2  10  -8   30.00    4.20
   2  10  -8   31.00    5.30
  -2 -10   8   26.00    5.50
 -10  12   8   21.90    5.00
  -2 -10   8   20.40    5.60
  -2 -10   8   21.40    3.60
 -10  12   8   25.00    6.00
   7 -12  -8   76.09    7.20
   7 -12  -8   81.29    9.20
   7 -12  -8   86.49    8.50
   5   7  -8   80.79    8.80
 -12   5  -8   75.19    6.40
   5   7  -8   83.29    6.60
 -12   5  -8   79.79    6.80
   7 -12  -8   77.79    7.00
 -12   5  -8   83.69    8.10
   5   7  -8   82.69    8.60
  -5  -7   8   72.19    8.70
  12  -5   8   65.49    6.10
  -5  -7   8   67.09    6.00
  -7  12   8   77.09    8.10
  -7  12   8   76.29    9.00
  12  -5   8   66.69    6.30
  -5  -7   8   79.19    8.10
  12  -5   8   69.89    7.60
 -12   8  -8   22.50    4.90
   8   4  -8   21.10    4.90
 -12   8  -8   17.20    2.20
 -12   8  -8   21.00    3.60
   4 -12  -8   23.20    5.10
   4 -12  -8   19.50    4.60
   4 -12  -8   19.10    5.20
   4 -12  -8   20.40    5.10
  -8  -4   8   22.00    5.30
  -8  -4   8   21.20    4.70
  12  -8   8   21.60    5.00
  -4  12   8   20.10    5.50
  -8  -4   8   17.20    2.40
  -4  12   8   20.50    4.80
  12  -8   8   18.30    3.20
   6 -13  -8   21.40    5.20
 -13   7  -8   17.80    3.40
 -13   7  -8   19.20    4.60
   6 -13  -8   19.30    5.30
 -13   7  -8   15.40    2.40
   7   6  -8   21.20    3.00
   6 -13  -8   16.70    4.40
   7   6  -8   19.90    5.40
  -7  -6   8   19.50    5.30
  13  -7   8   18.60    3.20
  13  -7   8   18.00    2.80
  13  -7   8   20.90    4.90
  -7  -6   8   22.40    5.00
  -6  13   8   25.40    6.40
  -7  -6   8   21.50    2.90
   0   0  -9 5697.53  294.47
   0   0  -9 6499.55  294.67
   0   0   9 6662.33  294.77
   0   0   9 5810.52  294.57
   2  -1  -9 2986.80  149.39
  -1   2  -9 3518.05  149.49
  -1  -1  -9 2982.70  148.49
  -1   2  -9 3181.88  148.99
  -1  -1  -9 3152.48  149.29
   2  -1  -9 2651.43  148.09
   1   1   9 3000.20  149.19
   1  -2   9 3087.19  148.99
   1   1   9 3038.20  148.59
  -2   1   9 2852.11  148.29
   1   1   9 3178.18  149.69
  -2   1   9 2974.00  149.49
   1  -2   9 3451.35  149.39
   1  -2   9 3298.57  149.69
   1   1  -9 2334.17  108.99
   1  -2  -9 2274.87  110.09
  -2   1  -9 2308.87  110.09
   1   1  -9 2425.36  110.09
  -2   1  -9 2144.49  109.89
  -2   1  -9 2260.07  110.09
  -1  -1   9 2460.35  110.09
  -1  -1   9 2286.47  110.29
   2  -1   9 2358.06  110.29
  -1   2   9 2067.39  109.69
   2  -1   9 2381.16  108.69
   2  -1   9 1964.50  108.59
  -2   4  -9 4097.79  180.78
  -2   4  -9 3736.13  180.08
   4  -2  -9 3550.04  180.78
   4  -2  -9 3882.21  179.28
  -2   4  -9 3959.20  180.28
  -2  -2  -9 3787.92  180.48
  -2  -2  -9 3922.61  181.28
  -2  -2  -9 3816.42  179.78
   2  -4   9 3946.21  180.28
  -4   2   9 3656.13  179.08
   2   2   9 3521.95  179.58
   2  -4   9 3558.74  179.88
   2  -4   9 3443.36  180.18
   2   2   9 3641.64  180.38
  -4   2   9 3557.74  180.88
   0   3  -9 1448.56   67.99
   3  -3  -9 1233.98   66.69
   0   3  -9 1293.07   66.29
   3  -3  -9 1246.28   67.49
   0   3  -9 1349.07   67.29
  -3   0  -9 1252.87   67.19
  -3   0  -9 1348.37   67.69
  -3   0  -9 1306.37   65.49
  -3   3   9 1324.07   67.79
   3   0   9 1373.06   67.69
  -3   3   9 1386.76   66.89
   0  -3   9 1463.45   68.39
   0  -3   9 1520.35   68.19
   3   0   9 1450.35   65.49
   0  -3   9 1472.45   66.59
  -3   3  -9 1139.19   55.59
  -3   3  -9 1192.78   55.19
   0  -3  -9 1117.19   56.09
   0  -3  -9 1032.10   55.79
   3   0  -9 1058.39   56.29
  -3   3  -9 1156.68   56.19
   3   0  -9 1084.69   53.99
   0  -3  -9 1110.29   56.49
   3   0  -9 1014.00   55.29
   3  -3   9 1205.28   56.29
  -3   0   9 1161.28   55.49
   3  -3   9 1224.48   55.89
   3  -3   9 1141.19   54.99
   0   3   9 1152.58   56.19
  -3   0   9 1128.79   53.99
  -3   0   9 1060.39   56.19
   0   3   9 1079.89   55.89
   0   3   9 1202.98   56.79
  -3  -3  -9 2590.94  127.39
  -3  -3  -9 2581.64  125.99
   6  -3  -9 2755.82  125.79
  -3   6  -9 2821.02  127.19
  -3   6  -9 2493.95  125.79
   6  -3  -9 2496.95  126.89
  -3  -3  -9 2677.03  126.59
  -3   6  -9 2509.55  126.09
   3   3   9 2649.93  127.49
   3  -6   9 2504.85  126.59
   3  -6   9 2627.44  125.79
  -6   3   9 2538.85  127.19
   3  -6   9 2715.63  126.39
   3   3   9 2499.35  126.29
  -6   3   9 2552.54  124.99
   3   3   9 2379.46  125.69
  -1   5  -9 4046.80  187.98
   5  -4  -9 3818.32  186.48
  -4  -1  -9 4030.30  185.68
  -1   5  -9 3614.24  186.08
  -1   5  -9 4015.00  187.08
   5  -4  -9 4064.69  185.38
  -4  -1  -9 3741.63  186.88
  -4  -1  -9 4012.90  187.88
   1  -5   9 4026.60  186.38
  -5   4   9 3815.02  187.78
   4   1   9 3690.73  185.58
   4   1   9 3932.41  187.18
  -5   4   9 3906.71  186.38
   1  -5   9 3746.03  187.58
   4   1   9 3814.72  187.58
   1  -5   9 3955.30  186.78
  -5   4   9 3518.25  185.38
   2  -4  -9 3666.13  198.48
   2   2  -9 4195.38  199.58
   2  -4  -9 4288.17  198.98
  -4   2  -9 4643.94  196.68
  -4   2  -9 4152.88  199.08
  -4   2  -9 4470.45  198.68
   2  -4  -9 3943.21  199.38
   2   2  -9 3471.95  198.38
   2   2  -9 4251.37  196.88
   4  -2   9 4324.07  199.28
   4  -2   9 4269.57  196.58
  -2  -2   9 4010.70  199.48
   4  -2   9 4177.28  198.78
  -2  -2   9 4038.90  198.58
  -2   4   9 4138.39  198.98
  -2  -2   9 4397.16  196.98
  -2   4   9 3984.20  199.38
  -2   4   9 3867.81  198.68
   5  -1  -9  770.42   40.40
   5  -1  -9  742.93   37.60
  -1  -4  -9  784.72   40.10
  -4   5  -9  768.32   39.40
  -1  -4  -9  811.62   40.00
  -4   5  -9  814.82   39.20
  -4   5  -9  780.42   40.00
  -1  -4  -9  792.82   40.70
   5  -1  -9  684.63   38.60
   1   4   9  777.12   40.00
   4  -5   9  802.42   39.20
   4  -5   9  791.82   39.90
   1   4   9  833.62   40.90
   1   4   9  746.73   39.60
  -5   1   9  701.83   37.60
   4  -5   9  742.53   39.20
  -5   1   9  791.92   38.80
  -5   1   9  772.62   40.30
  -4   8  -9  797.02   41.30
  -4   8  -9  755.42   39.80
  -4  -4  -9  808.22   41.80
  -4  -4  -9  789.92   40.30
   8  -4  -9  783.52   41.00
   8  -4  -9  755.12   38.90
  -4   8  -9  738.83   40.10
  -4  -4  -9  801.82   40.40
   4   4   9  769.32   40.30
  -8   4   9  741.83   39.70
   4  -8   9  714.93   39.30
  -8   4   9  645.84   38.50
   4  -8   9  768.12   40.30
   4  -8   9  735.03   40.80
  -8   4   9  789.32   41.40
   4   4   9  794.52   41.50
   4   4   9  761.52   40.20
   7  -5  -9  916.11   47.60
  -2   7  -9  922.41   47.00
   7  -5  -9 1014.60   44.50
  -5  -2  -9  978.80   46.30
  -5  -2  -9  953.50   47.00
  -2   7  -9  947.81   46.60
  -2   7  -9 1012.10   48.50
  -5  -2  -9  963.90   48.20
   7  -5  -9  950.60   46.40
   2  -7   9  839.82   47.50
   5   2   9  878.51   46.90
  -7   5   9  788.62   45.80
  -7   5   9  805.22   44.40
   2  -7   9  842.42   46.20
   5   2   9  970.20   46.40
  -7   5   9  838.02   47.60
   2  -7   9  847.72   46.40
   5   2   9  852.11   47.50
   4  -5  -9 1311.87   65.59
  -5   1  -9 1343.37   62.39
   1   4  -9 1247.58   64.79
  -5   1  -9 1298.87   62.29
   4  -5  -9 1272.97   64.59
  -5   1  -9 1339.47   64.99
   1   4  -9 1452.65   66.19
   4  -5  -9 1297.17   63.79
  -5   1  -9 1299.57   64.79
  -5   1  -9 1310.17   64.79
  -1  -4   9 1305.67   64.69
  -4   5   9 1289.17   64.59
  -4   5   9 1180.48   65.29
   5  -1   9 1247.78   64.69
  -1  -4   9 1330.07   65.79
  -1  -4   9 1202.98   63.09
   1  -5  -9 3793.52  177.28
   4   1  -9 3418.76  176.08
   1  -5  -9 3706.33  177.38
  -5   4  -9 3475.65  175.18
  -5   4  -9 3855.01  175.68
   5  -4   9 3757.72  176.98
  -4  -1   9 3518.75  176.98
   5  -4   9 3651.13  175.28
  -1   5   9 3533.85  177.28
  -1   5   9 3693.33  177.18
  -4  -1   9 3590.84  177.48
   5  -4   9 3774.82  175.98
  -1   5   9 3467.35  176.38
  -4  -1   9 3837.22  176.18
  -2  -5  -9  740.43   39.00
  -5   7  -9  743.73   38.10
   7  -2  -9  740.63   38.50
  -2  -5  -9  726.53   38.10
  -5   7  -9  695.23   36.70
  -5   7  -9  754.32   38.10
   7  -2  -9  683.13   36.30
  -2  -5  -9  742.03   37.90
  -7   2   9  657.23   35.90
  -7   2   9  722.13   38.40
   2   5   9  649.24   37.30
   2   5   9  741.13   38.90
   5  -7   9  733.63   36.70
   5  -7   9  726.43   37.90
   5  -7   9  684.53   37.60
   2   5   9  688.33   37.80
  10  -5  -9  781.62   40.90
  -5  -5  -9  808.22   44.70
  -5  10  -9  844.82   44.10
  -5  10  -9  800.52   42.10
  -5  -5  -9  822.32   44.20
  -5  -5  -9  869.61   42.70
  -5  -5  -9  830.92   43.80
 -10   5   9  728.83   40.70
   5   5   9  755.82   42.60
   5   5   9  797.92   42.30
 -10   5   9  698.53   38.80
   5 -10   9  774.42   43.30
   5 -10   9  760.12   41.30
  -6  -3  -9  761.62   40.20
   9  -6  -9  747.03   38.10
  -6  -3  -9  742.53   38.60
   9  -6  -9  724.03   39.40
  -3   9  -9  703.23   38.40
  -3   9  -9  735.53   38.80
   9  -6  -9  664.63   35.10
  -3   9  -9  776.12   40.50
  -6  -3  -9  745.13   38.40
   3  -9   9  704.53   38.20
   6   3   9  704.03   39.50
  -9   6   9  674.93   37.60
   6   3   9  727.93   38.50
  -9   6   9  685.03   35.20
   6   3   9  718.23   38.70
   3  -9   9  677.53   39.50
   3  -9   9  727.13   38.50
   0   6  -9 1850.91   87.69
   6  -6  -9 1773.42   86.09
  -6   0  -9 1758.72   86.09
  -6   0  -9 1781.32   86.69
  -6   0  -9 1712.83   84.39
   0   6  -9 1720.43   85.09
   6  -6  -9 1726.93   86.99
   0   6  -9 1745.53   86.39
   6   0   9 1709.23   86.39
   0  -6   9 1711.63   87.29
  -6   6   9 1667.63   85.69
   0  -6   9 1664.33   85.99
  -6   6   9 1725.13   84.39
  -6   6   9 1715.13   87.29
   0  -6   9 1711.33   84.99
  -6   3  -9 1531.15   76.49
   3  -6  -9 1494.95   76.19
   3   3  -9 1491.45   73.69
   3  -6  -9 1684.93   76.39
   3  -6  -9 1691.03   77.89
   3   3  -9 1658.63   77.49
   3   3  -9 1439.16   76.19
  -6   3  -9 1697.03   75.59
  -6   3  -9 1512.65   73.99
  -3  -3   9 1372.96   73.59
   6  -3   9 1417.86   73.79
  -3  -3   9 1531.15   77.29
  -3   6   9 1521.15   76.09
  -3   6   9 1512.75   76.29
  -3   6   9 1432.26   77.09
  -3  -3   9 1595.94   76.29
   6  -3   9 1463.55   75.49
  -6   6  -9 1306.27   62.29
   0  -6  -9 1250.37   62.79
   0  -6  -9 1265.67   63.59
  -6   6  -9 1228.38   61.29
   0  -6  -9 1237.58   63.59
   6   0  -9 1249.88   62.19
  -6   6  -9 1288.17   63.29
   0   6   9 1176.68   63.29
   6  -6   9 1233.78   62.19
  -6   0   9 1214.98   63.19
  -6   0   9 1192.38   59.69
   0   6   9 1167.48   62.49
  -6   0   9 1156.38   59.69
   6  -6   9 1300.47   63.19
  -6   0   9 1278.57   61.99
   0   6   9 1244.18   63.59
  -6   0   9 1302.77   63.99
   6  -6   9 1241.98   61.59
  -3  -6  -9 2705.33  125.39
   9  -3  -9 2611.64  125.99
  -6   9  -9 2420.56  123.79
   9  -3  -9 2458.85  122.99
  -6   9  -9 2516.65  126.79
   9  -3  -9 2382.86  122.79
  -6   9  -9 2606.74  125.89
  -3  -6  -9 2534.35  125.69
   3   6   9 2487.45  124.79
   6  -9   9 2491.15  125.49
   3   6   9 2492.45  125.49
  -9   3   9 2722.23  126.29
   6  -9   9 2302.57  123.29
  -9   3   9 2596.94  122.69
   6  -9   9 2654.43  125.59
  -6  -6  -9  304.17   20.80
  -6  -6  -9  311.87   21.40
  12  -6  -9  315.77   20.40
  -6  12  -9  322.87   21.50
  -6  -6  -9  302.87   19.50
  -6  12  -9  299.97   19.80
  12  -6  -9  282.17   18.20
   6 -12   9  323.07   21.20
   6 -12   9  290.07   18.60
   6 -12   9  329.07   20.40
 -12   6   9  321.57   21.00
   6   6   9  302.77   20.50
 -12   6   9  259.87   15.90
   6   6   9  314.57   19.70
  11  -7  -9  449.16   27.10
  -4  11  -9  505.45   30.10
  -7  -4  -9  466.85   28.10
  -4  11  -9  486.15   28.20
  -7  -4  -9  495.65   29.40
  -7  -4  -9  494.95   29.80
  11  -7  -9  480.55   28.80
 -11   7   9  453.95   27.10
   7   4   9  492.75   28.50
   4 -11   9  493.35   29.70
   4 -11   9  483.45   28.20
 -11   7   9  522.35   30.00
   8  -7  -9  836.62   45.40
  -7  -1  -9  836.82   44.20
  -1   8  -9  805.32   43.70
  -7  -1  -9  817.92   43.20
  -7  -1  -9  860.61   45.40
   8  -7  -9  865.11   44.40
  -1   8  -9  840.42   45.90
   8  -7  -9  839.52   41.20
  -1   8  -9  826.22   44.80
   7   1   9  858.11   44.30
  -8   7   9  848.52   41.50
   7   1   9  796.12   42.80
  -8   7   9  907.21   46.20
   1  -8   9  839.02   45.80
  -8   7   9  861.61   44.20
   1  -8   9  831.72   43.70
   1  -8   9  846.42   44.40
   7   1   9  844.62   45.10
   2   5  -9  442.46   23.50
  -7   2  -9  465.65   25.40
   2   5  -9  444.46   25.50
  -7   2  -9  442.56   25.20
  -7   2  -9  460.75   23.10
   5  -7  -9  458.25   26.40
   2   5  -9  491.05   26.80
   5  -7  -9  446.46   24.20
  -7   2  -9  460.45   23.10
   5  -7  -9  447.56   25.30
  -7   2  -9  442.86   24.90
   7  -2   9  437.86   24.90
  -5   7   9  446.36   24.40
  -5   7   9  444.86   26.30
  -2  -5   9  488.55   26.90
  -2  -5   9  426.96   25.20
  -5   7   9  446.06   25.30
  -7   5  -9 2162.08  101.59
   2  -7  -9 1929.21  101.19
   2  -7  -9 2076.59  102.29
   2  -7  -9 2024.70  101.09
   5   2  -9 2075.09  100.99
  -7   5  -9 1999.30   99.29
   7  -5   9 2041.10   99.69
  -5  -2   9 2191.78  102.49
  -2   7   9 2017.50  101.29
  -5  -2   9 2112.79  100.79
  -5  -2   9 2125.99   97.69
  -2   7   9 2065.09  102.29
  -5  -2   9 1951.10   97.59
  -2   7   9 2017.40  101.09
   7  -5   9 2054.99  101.29
   7  -5   9 1815.82   99.99
  -7   8  -9  364.06   20.80
  -1  -7  -9  382.26   20.70
  -1  -7  -9  369.56   21.30
  -1  -7  -9  371.86   21.30
   8  -1  -9  346.87   19.30
  -7   8  -9  358.96   20.30
  -1  -7  -9  371.06   21.60
  -7   8  -9  339.27   18.60
   7  -8   9  310.87   19.80
   7  -8   9  289.27   18.30
   1   7   9  310.17   19.70
   7  -8   9  304.77   20.00
   1   7   9  300.97   20.30
  -8   1   9  314.97   20.30
  -8   1   9  304.67   18.60
  -4  -7  -9  964.90   48.10
  -7  11  -9  903.21   46.80
  11  -4  -9  968.00   48.90
  -4  -7  -9  950.50   49.99
  -4  -7  -9  974.30   49.60
  11  -4  -9  835.12   45.10
  11  -4  -9  888.11   45.80
  -7  11  -9  932.91   48.40
 -11   4   9  909.51   48.80
 -11   4   9  810.72   44.50
   7 -11   9  931.41   48.40
   7 -11   9  827.52   45.90
   4   7   9  883.81   47.50
   4   7   9  851.61   48.40
 -11   4   9  768.82   45.30
  10  -8  -9 1031.50   54.19
  -8  -2  -9  951.50   52.19
  -2  10  -9 1011.80   52.69
  -2  10  -9  988.70   54.79
  -8  -2  -9 1043.90   52.89
  -2  10  -9 1047.90   53.79
  10  -8  -9 1060.79   53.09
   2 -10   9  996.70   52.59
   2 -10   9  986.50   52.89
 -10   8   9 1004.10   52.59
   8   2   9  913.81   51.79
   2 -10   9 1012.90   54.79
 -10   8   9 1043.60   54.89
   7  -8  -9 1561.74   77.69
   1   7  -9 1518.45   77.89
  -8   1  -9 1525.05   77.39
   1   7  -9 1474.75   75.89
   7  -8  -9 1557.64   78.89
  -8   1  -9 1536.35   77.29
  -8   1  -9 1608.54   77.79
   7  -8  -9 1395.56   74.79
   1   7  -9 1601.24   79.29
  -8   1  -9 1510.55   75.39
  -1  -7   9 1537.25   77.59
   8  -1   9 1522.35   77.29
  -1  -7   9 1561.24   78.99
  -7   8   9 1492.55   78.59
  -7   8   9 1572.54   77.39
   4  -8  -9  826.42   43.70
   4  -8  -9  757.62   41.50
  -8   4  -9  750.12   40.40
   4  -8  -9  818.12   42.40
   4   4  -9  768.42   42.20
   4   4  -9  759.22   39.30
   4   4  -9  823.52   43.30
  -8   4  -9  790.72   42.10
  -4  -4   9  708.23   39.10
  -4   8   9  818.92   43.50
   8  -4   9  786.82   42.20
  -4  -4   9  892.11   42.60
  -4  -4   9  814.62   43.40
  -4   8   9  842.72   42.50
   8  -4   9  779.92   40.90
   1  -8  -9  955.20   52.09
  -8   7  -9  962.70   50.69
   7   1  -9  959.50   51.29
   1  -8  -9  994.30   51.89
  -8   7  -9  879.71   49.20
   1  -8  -9  994.70   52.59
   1  -8  -9  962.40   52.79
  -8   7  -9 1025.10   52.29
  -7  -1   9  934.71   48.20
   8  -7   9 1025.40   51.09
  -7  -1   9 1081.19   51.39
  -1   8   9  965.00   51.69
   8  -7   9  969.00   50.89
  -7  -1   9 1019.00   48.30
  -7  -1   9 1013.30   52.39
   8  -7   9 1019.40   52.09
  -7  -1   9 1089.19   53.49
  -1   8   9 1025.10   53.19
  -2  -8  -9  496.55   29.40
  -2  -8  -9  488.35   29.70
  10  -2  -9  470.45   26.80
  -8  10  -9  445.46   26.30
  -8  10  -9  501.25   28.90
  -2  -8  -9  494.65   28.40
  10  -2  -9  435.96   25.50
 -10   2   9  501.25   26.50
   2   8   9  496.35   28.20
   8 -10   9  487.55   26.40
   8 -10   9  525.55   29.00
   8 -10   9  526.15   29.10
 -10   2   9  459.15   25.60
 -10   2   9  529.65   29.20
  -3  12  -9  296.97   21.30
  12  -9  -9  317.37   20.60
  -9  -3  -9  286.17   19.10
  -3  12  -9  310.97   20.30
  -3  12  -9  311.67   19.50
  -9  -3  -9  297.87   19.00
  -9  -3  -9  314.97   20.50
  12  -9  -9  314.17   19.50
  -9  -3  -9  311.67   21.00
 -12   9   9  295.87   21.00
   3 -12   9  278.77   20.70
   9   3   9  284.47   19.10
   3 -12   9  263.37   20.50
 -12   9   9  262.67   18.50
   3 -12   9  283.57   19.10
   9  -9  -9  445.86   23.20
   0   9  -9  483.25   28.70
  -9   0  -9  458.65   25.50
   9  -9  -9  426.36   23.30
   9  -9  -9  481.85   28.30
  -9   0  -9  519.25   29.20
  -9   0  -9  491.25   27.70
   0   9  -9  480.65   27.70
   0   9  -9  470.45   26.30
  -9   0  -9  432.36   24.80
  -9   0  -9  467.45   26.60
   0  -9   9  454.35   28.30
   0  -9   9  452.75   27.00
   0  -9   9  428.76   25.60
  -9   9   9  471.35   28.30
   9   0   9  425.66   26.70
   6  -9  -9 1505.15   86.79
  -9   3  -9 1994.90   89.39
  -9   3  -9 1772.62   87.79
   3   6  -9 1737.93   86.39
   6  -9  -9 1850.31   89.29
   6  -9  -9 1871.01   87.69
  -9   3  -9 1671.73   86.19
  -9   3  -9 1719.43   88.59
  -3  -6   9 1827.72   86.49
   9  -3   9 1710.53   87.79
  -9   6  -9 1071.09   54.79
   3  -9  -9 1123.49   56.69
   6   3  -9 1151.68   57.59
  -9   6  -9 1067.29   53.99
   3  -9  -9 1104.49   56.79
   6   3  -9  974.20   52.79
   6   3  -9 1107.19   56.69
   9  -6   9 1007.70   54.39
  -6  -3   9 1079.49   52.99
  -6  -3   9 1153.08   56.59
  -3   9   9 1128.19   58.29
   9  -6   9 1139.79   56.89
   9  -6   9 1048.30   54.49
   0  -9  -9  847.22   46.20
   0  -9  -9  837.92   45.10
   0  -9  -9  860.51   45.80
  -9   9  -9  888.61   45.80
  -9   9  -9  841.12   44.60
   0  -9  -9  850.71   46.30
   9   0  -9  796.12   44.10
  -9   9  -9  758.52   42.10
  -9   0   9  834.02   45.70
   0   9   9  806.42   44.60
   9  -9   9  841.52   44.80
   9  -9   9  824.12   42.70
  -9   0   9  864.91   43.90
  -9   0   9  832.82   46.30
  -9  12  -9  178.78   12.50
  -3  -9  -9  208.48   14.50
  -3  -9  -9  212.78   15.60
  -3  -9  -9  212.88   16.10
  -9  12  -9  206.88   14.90
  -3  -9  -9  200.68   15.40
  12  -3  -9  163.78   12.00
  -9  12  -9  198.38   14.90
  12  -3  -9  167.58   11.60
   9 -12   9  186.28   14.40
   9 -12   9  165.88   11.80
   9 -12   9  184.38   14.60
 -12   3   9  190.08   14.60
   3   9   9  180.68   14.80
   3   9   9  183.18   13.60
 -12   3   9  163.18   11.50
 -10  -1  -9  510.45   29.80
  11 -10  -9  525.65   30.90
 -10  -1  -9  485.55   30.10
 -10  -1  -9  465.25   27.50
 -10  -1  -9  494.55   29.30
  11 -10  -9  493.85   29.40
  -1  11  -9  461.05   30.70
  -1  11  -9  523.55   30.40
 -10  -1  -9  494.95   28.90
   1 -11   9  497.25   31.10
 -11  10   9  486.85   29.00
   1 -11   9  514.05   29.60
 -11  10   9  509.45   31.00
   2   8  -9  770.52   41.90
 -10   2  -9  703.53   37.80
   2   8  -9  748.33   40.80
   8 -10  -9  820.22   40.90
   2   8  -9  733.13   38.20
   8 -10  -9  810.72   42.00
   8 -10  -9  714.03   37.30
   8 -10  -9  705.83   37.30
 -10   2  -9  749.33   39.70
 -10   2  -9  716.63   37.60
  -2  -8   9  624.34   37.60
  -2  -8   9  754.32   40.70
  -8  10   9  734.43   41.50
  10  -2   9  664.33   39.00
  -2  -8   9  693.43   41.20
  -8  10   9  716.53   39.80
 -10   5  -9  429.16   24.20
   5   5  -9  452.95   26.80
   5 -10  -9  469.95   28.10
   5   5  -9  460.45   27.60
   5   5  -9  442.56   23.60
   5 -10  -9  454.85   25.70
   5 -10  -9  449.86   25.90
   5 -10  -9  454.65   26.60
 -10   5  -9  421.76   24.10
  10  -5   9  419.26   23.90
  -5  10   9  475.05   28.10
  -5  10   9  488.95   26.90
  -5  -5   9  450.35   27.70
  -5  -5   9  447.86   23.50
  10  -5   9  435.46   24.70
 -10   8  -9 1382.76   68.69
 -10   8  -9 1257.77   66.69
   2 -10  -9 1385.26   69.99
 -10   8  -9 1161.68   64.59
   8   2  -9 1387.36   68.29
   2 -10  -9 1431.16   68.69
  10  -8   9 1179.48   65.19
  10  -8   9 1300.47   68.19
  10  -8   9 1211.98   66.49
  -2  10   9 1394.16   70.19
  -8  -2   9 1343.77   69.69
  -8  -2   9 1357.46   68.99
  -8  -2   9 1233.28   63.99
  -8  -2   9 1382.06   67.79
  -2  10   9 1360.96   68.39
 -10  11  -9  292.37   18.50
 -10  11  -9  346.37   22.00
 -10  11  -9  323.67   21.20
  -1 -10  -9  341.47   22.80
  -1 -10  -9  347.67   22.40
  -1 -10  -9  320.57   22.30
  11  -1  -9  307.87   19.90
  -1 -10  -9  333.67   21.40
 -11   1   9  360.36   23.00
 -11   1   9  358.56   20.10
  10 -11   9  348.27   21.80
   1  10   9  315.77   22.20
  10 -11   9  332.47   19.00
 -11   1   9  297.87   17.90
   1  10   9  325.47   20.90
 -11   1   9  335.77   21.70
 -11   1  -9  301.97   22.70
 -11   1  -9  325.77   19.50
 -11   1  -9  323.37   21.10
  10 -11  -9  382.96   23.80
   1  10  -9  353.16   20.70
 -11   1  -9  330.47   21.10
  10 -11  -9  379.66   22.50
 -11   1  -9  353.26   21.50
   1  10  -9  343.07   23.30
   1  10  -9  356.16   22.70
 -10  11   9  322.97   21.30
  -1 -10   9  310.77   24.40
  -1 -10   9  310.47   20.10
  -1 -10   9  334.77   21.80
 -10  11   9  336.87   23.10
   7 -11  -9  814.72   42.90
   7 -11  -9  747.83   40.50
   7 -11  -9  696.33   40.40
 -11   4  -9  751.72   40.50
   4   7  -9  784.82   43.10
   7 -11  -9  828.22   44.50
 -11   4  -9  750.72   39.90
   4   7  -9  756.22   39.70
   4   7  -9  783.02   43.80
 -11   4  -9  731.83   41.80
  -7  11   9  832.32   44.40
  -4  -7   9  762.12   43.80
  -7  11   9  801.02   42.60
  -4  -7   9  825.32   42.90
  -4  -7   9  702.93   39.40
   7   4  -9   53.29    4.20
 -11   7  -9   67.89    7.10
 -11   7  -9   59.89    4.70
   7   4  -9   69.99    7.60
 -11   7  -9   53.09    5.50
   4 -11  -9   66.79    7.90
   7   4  -9   61.59    6.90
   4 -11  -9   69.59    7.20
   4 -11  -9   63.39    6.70
   4 -11  -9   63.79    6.90
  -4  11   9   57.49    6.70
  11  -7   9   49.10    5.10
  -7  -4   9   53.89    6.30
  11  -7   9   49.99    4.90
  -4  11   9   62.49    7.70
  11  -7   9   40.50    5.70
  -7  -4   9   60.89    7.50
 -11  10  -9  575.04   32.00
   1 -11  -9  540.65   31.80
 -11  10  -9  499.95   30.10
 -11  10  -9  473.05   27.40
   1 -11  -9  563.04   31.50
   1 -11  -9  551.74   32.80
   1 -11  -9  569.24   32.60
 -10  -1   9  468.55   27.10
  -1  11   9  532.75   31.10
  11 -10   9  487.95   27.90
  11 -10   9  551.54   31.40
 -10  -1   9  493.55   27.10
 -10  -1   9  548.55   32.70
  -1  11   9  544.45   32.80
  11 -10   9  532.95   30.50
 -10  -1   9  559.54   31.90
   9 -12  -9  122.69    9.20
 -12   3  -9  143.59   11.50
   9 -12  -9  142.89   12.80
   3   9  -9  138.19   12.10
   9 -12  -9  127.69    9.10
   3   9  -9  140.39   12.70
   3   9  -9  134.99   10.00
 -12   3  -9  136.39   11.20
 -12   3  -9  138.89   10.90
 -12   3  -9  134.19    9.80
   9 -12  -9  147.89   12.10
 -12   3  -9  124.59    9.60
  -9  12   9  141.29   11.60
  -3  -9   9  120.29    9.60
  -3  -9   9  142.99   12.80
  -9  12   9  151.98   13.10
   6 -12  -9  442.76   27.30
   6 -12  -9  420.66   24.80
   6   6  -9  431.76   26.80
   6   6  -9  418.46   22.50
 -12   6  -9  410.46   23.20
   6 -12  -9  452.75   26.10
 -12   6  -9  435.36   25.40
   6   6  -9  424.06   26.00
   6 -12  -9  429.66   24.50
 -12   6  -9  370.26   22.10
  12  -6   9  404.66   25.10
  -6  -6   9  417.36   25.40
  12  -6   9  343.57   22.30
  12  -6   9  342.07   22.40
  -6  12   9  433.86   27.40
  -6  -6   9  413.46   26.70
  -6  12   9  428.46   25.60
  -6  -6   9  375.66   21.90
 -12   9  -9  392.66   23.90
   3 -12  -9  420.36   26.20
   9   3  -9  402.86   25.40
   3 -12  -9  415.26   27.00
   3 -12  -9  443.66   26.10
   3 -12  -9  433.96   25.90
 -12   9  -9  353.46   21.20
 -12   9  -9  440.86   26.10
  -9  -3   9  386.46   21.40
  -9  -3   9  417.06   27.00
  -3  12   9  419.76   25.60
  12  -9   9  397.36   23.80
  -9  -3   9  349.47   21.10
  -3  12   9  437.86   27.60
  12  -9   9  427.46   25.70
  -9  -3   9  470.05   27.00
  -9  -3   9  454.95   25.60
  12  -9   9  343.97   21.80
  -1   0 -10  553.84   27.20
   0   1 -10  523.25   27.30
  -1   0 -10  536.35   27.80
  -1   0 -10  520.35   28.00
   0   1 -10  544.15   27.40
   1  -1 -10  555.64   27.60
   1  -1 -10  547.65   27.90
   1   0  10  543.25   27.10
  -1   1  10  597.14   28.20
   1   0  10  524.55   27.80
   0  -1  10  541.55   27.70
   0  -1  10  557.34   28.10
   3  -2 -10 1209.98   63.39
  -2  -1 -10 1341.17   65.09
  -1   3 -10 1308.67   64.39
   3  -2 -10 1210.98   64.59
  -1   3 -10 1314.77   63.99
  -2  -1 -10 1302.37   63.29
   3  -2 -10 1229.48   63.69
  -1   3 -10 1366.26   64.59
   1  -3  10 1277.47   64.19
   2   1  10 1361.86   63.39
   2   1  10 1362.86   64.69
   1  -3  10 1338.87   64.69
   2   1  10 1327.57   65.09
  -3   2  10 1285.57   64.89
  -2   2 -10 2227.88  109.79
   0  -2 -10 2175.88  110.69
   2   0 -10 2271.37  110.59
   0  -2 -10 2310.57  111.19
  -2   2 -10 2349.96  110.79
   2   0 -10 2089.79  109.39
  -2   2 -10 2292.37  110.79
   2   0 -10 2212.88  111.09
   2  -2  10 2386.56  110.89
   2  -2  10 2333.27  109.99
  -2   0  10 2252.07  111.09
   0   2  10 2192.58  110.69
   0   2  10 2391.66  111.39
  -2   0  10 2456.65  110.69
  -2   0  10 2172.38  109.39
   2  -2  10 2415.46  110.99
  -2   5 -10 1664.93   80.49
  -2   5 -10 1571.44   79.49
  -2   5 -10 1575.84   79.69
  -3  -2 -10 1660.13   80.09
  -3  -2 -10 1744.93   81.19
   2  -5  10 1525.65   79.39
  -5   3  10 1592.44   78.89
   2  -5  10 1675.83   79.69
  -5   3  10 1615.24   80.79
   2  -5  10 1581.14   80.29
   3   2  10 1609.74   80.79
   3   2  10 1580.64   79.99
   2  -3 -10 2002.50  102.39
  -3   1 -10 2345.57  102.49
   1   2 -10 2110.39  102.19
  -3   1 -10 2098.69  102.29
  -3   1 -10 2095.69  102.39
   1   2 -10 2183.08  100.89
   2  -3 -10 1989.60  101.69
   2  -3 -10 1960.90  101.79
   1   2 -10 2207.38  102.69
  -1  -2  10 2060.39  102.59
  -2   3  10 1996.30  102.49
  -2   3  10 1931.31  101.69
  -2   3  10 2058.89  102.09
  -1  -2  10 2236.58  102.19
   3  -1  10 2117.99  102.49
  -1  -2  10 2160.28  100.89
  -3   4 -10 4547.04  208.78
  -1  -3 -10 4181.08  208.88
   4  -1 -10 4511.65  208.38
   4  -1 -10 4009.50  209.38
  -3   4 -10 4355.16  209.08
   4  -1 -10 4259.87  207.18
  -1  -3 -10 4487.35  209.98
  -1  -3 -10 4024.80  208.88
   1   3  10 4227.88  208.98
   1   3  10 4521.35  210.08
   3  -4  10 4290.37  208.58
  -4   1  10 4586.34  208.28
   3  -4  10 4660.13  209.28
   1   3  10 4224.88  208.88
  -4   1  10 4185.78  207.08
  -4  -3 -10 1108.39   57.99
  -3   7 -10 1051.49   56.39
   7  -4 -10 1089.39   57.39
  -4  -3 -10 1173.28   57.09
  -4  -3 -10 1145.19   56.39
  -3   7 -10 1117.99   56.59
   7  -4 -10 1166.78   55.79
  -3   7 -10 1062.39   57.49
   4   3  10 1146.29   57.09
   3  -7  10 1095.49   57.39
  -7   4  10 1183.88   58.19
   3  -7  10 1059.79   56.19
   4   3  10 1072.09   56.19
   3  -7  10 1145.29   56.69
   4   3  10 1132.69   57.99
  -7   4  10 1098.09   55.59
   4  -4 -10  627.34   30.00
  -4   0 -10  583.54   31.20
  -4   0 -10  581.74   28.80
  -4   0 -10  564.84   30.80
   4  -4 -10  560.64   30.30
   0   4 -10  611.14   30.90
   0   4 -10  545.85   29.70
   0   4 -10  628.64   31.80
   4  -4 -10  562.84   31.30
   4   0  10  575.34   30.80
  -4   4  10  583.04   31.50
   4   0  10  608.14   31.40
   4   0  10  612.24   28.80
   0  -4  10  601.54   31.70
  -4   4  10  579.14   30.40
   0  -4  10  559.34   30.50
   3   1 -10 1052.49   51.89
  -4   3 -10 1030.90   52.29
  -4   3 -10 1049.09   51.69
   1  -4 -10 1045.80   52.59
  -4   3 -10 1052.09   50.59
   1  -4 -10  998.00   51.99
   1  -4 -10 1034.10   52.69
  -3  -1  10 1068.99   52.99
   4  -3  10 1089.69   52.59
  -1   4  10  962.30   51.89
   4  -3  10 1074.99   51.99
  -1   4  10 1054.59   52.69
   4  -3  10 1004.30   50.49
  -1   4  10 1029.80   52.69
  -3  -1  10  994.20   52.39
  -3  -1  10 1053.39   51.79
   6  -2 -10  438.66   24.10
  -4   6 -10  503.85   26.30
   6  -2 -10  480.35   24.80
  -4   6 -10  494.55   26.30
  -2  -4 -10  495.85   26.30
   6  -2 -10  505.25   26.90
  -2  -4 -10  499.95   26.20
  -4   6 -10  469.85   25.40
  -6   2  10  489.25   24.30
   2   4  10  463.25   25.90
  -6   2  10  435.46   24.50
   2   4  10  492.45   27.20
   4  -6  10  466.35   26.00
  -6   2  10  518.05   27.10
   4  -6  10  467.15   25.90
   4  -6  10  441.56   25.20
   2   4  10  462.55   26.00
  -4   9 -10  371.76   22.70
  -5  -4 -10  382.66   22.80
   9  -5 -10  383.26   23.60
  -4   9 -10  370.66   22.80
  -5  -4 -10  414.16   23.30
   9  -5 -10  380.96   21.80
  -4   9 -10  432.16   24.60
   5   4  10  391.46   23.10
   4  -9  10  393.86   23.90
  -9   5  10  396.66   20.30
   4  -9  10  410.46   23.20
  -9   5  10  427.56   24.60
  -9   5  10  366.66   21.60
   4  -9  10  385.16   22.30
   5   4  10  403.76   23.20
   5   4  10  393.66   24.10
   6  -5 -10  221.48   14.50
  -1   6 -10  214.18   13.20
  -1   6 -10  227.28   14.10
  -5  -1 -10  226.58   14.00
  -1   6 -10  252.57   15.20
  -5  -1 -10  237.28   14.80
   6  -5 -10  238.68   13.80
  -6   5  10  231.28   14.90
   5   1  10  211.98   13.80
   1  -6  10  221.98   14.80
   1  -6  10  220.08   13.80
   5   1  10  203.28   14.30
  -6   5  10  222.18   12.50
   5   1  10  222.68   12.70
  -6   5  10  217.08   13.40
   1  -6  10  230.58   13.40
   3  -5 -10 1286.77   65.19
   3  -5 -10 1332.77   66.39
  -5   2 -10 1333.37   65.89
   2   3 -10 1441.06   63.69
  -5   2 -10 1290.87   65.19
   2   3 -10 1295.37   65.59
   3  -5 -10 1221.78   65.29
   2   3 -10 1379.46   66.59
  -3   5  10 1314.67   65.49
  -2  -3  10 1312.57   65.49
   5  -2  10 1259.07   65.39
  -2  -3  10 1307.87   66.49
  -2  -3  10 1324.97   63.59
  -3   5  10 1353.86   65.59
  -3   5  10 1242.68   66.19
   0  -5 -10   71.29    6.30
   0  -5 -10   69.99    6.70
   5   0 -10   66.89    5.80
   0  -5 -10   68.29    6.70
  -5   5 -10   71.59    5.70
  -5   5 -10   74.69    6.60
   0   5  10   87.99    7.30
   5  -5  10   88.49    6.90
   5  -5  10   90.69    6.10
   0   5  10   90.09    7.20
   5  -5  10   95.99    6.40
  -5   0  10   85.39    4.20
  -5   0  10   87.89    7.00
  -5   0  10   83.49    6.00
   8  -3 -10  174.18   10.80
   8  -3 -10  171.78   10.90
  -5   8 -10  182.48   12.90
   8  -3 -10  193.58   13.20
  -3  -5 -10  183.48   12.70
  -5   8 -10  177.88   12.50
  -3  -5 -10  190.48   13.60
  -5   8 -10  183.68   11.90
  -3  -5 -10  193.68   12.70
   3   5  10  183.88   12.60
   3   5  10  183.58   12.40
  -8   3  10  199.68   13.50
  -8   3  10  196.88   10.80
   5  -8  10  191.78   12.70
  -8   3  10  178.78   10.80
   5  -8  10  179.08   11.60
   5  -8  10  177.08   12.60
  11  -6 -10  435.56   23.50
  11  -6 -10  496.85   28.20
  -6  -5 -10  430.06   28.30
  -6  -5 -10  478.25   27.60
  -6  -5 -10  483.85   27.20
  -5  11 -10  485.85   27.50
  -5  11 -10  470.45   28.70
  11  -6 -10  462.15   25.90
  -6  -5 -10  501.25   28.80
   5 -11  10  466.15   27.30
 -11   6  10  427.56   23.30
   6   5  10  484.75   27.40
   5 -11  10  451.75   26.30
   6   5  10  435.36   27.40
 -11   6  10  421.96   25.60
   5 -11  10  462.35   28.40
 -11   6  10  511.75   29.10
   8  -6 -10  827.52   43.40
  -2   8 -10  832.42   44.10
  -2   8 -10  842.72   45.30
   8  -6 -10  833.52   44.80
  -6  -2 -10  837.42   43.00
   8  -6 -10  755.62   40.90
  -6  -2 -10  825.02   45.00
  -2   8 -10  799.82   43.30
  -6  -2 -10  838.72   43.90
  -8   6  10  886.31   45.50
  -8   6  10  776.72   41.20
   2  -8  10  880.61   44.00
   6   2  10  891.11   44.30
   6   2  10  834.82   43.10
   2  -8  10  846.62   45.30
   6   2  10  865.31   45.10
   2  -8  10  833.92   43.50
  -8   6  10  824.82   43.20
   5  -6 -10  867.51   44.50
  -6   1 -10  858.31   43.20
   5  -6 -10  872.41   45.70
  -6   1 -10  887.61   45.90
  -6   1 -10  858.21   45.90
   1   5 -10  896.91   44.40
  -6   1 -10  899.01   46.00
  -6   1 -10  917.31   43.50
   1   5 -10  856.01   45.90
   1   5 -10  920.91   47.20
   5  -6 -10  866.11   46.80
  -5   6  10  931.01   45.90
  -1  -5  10  866.01   44.20
  -5   6  10  917.51   44.90
   6  -1  10  890.31   46.00
   2  -6 -10  243.58   15.20
   2  -6 -10  267.67   15.70
  -6   4 -10  229.68   13.50
  -6   4 -10  259.07   15.60
  -6   4 -10  242.28   14.30
   2  -6 -10  254.77   16.20
   4   2 -10  231.48   14.90
  -4  -2  10  251.37   15.00
   6  -4  10  250.97   14.60
   6  -4  10  241.08   13.40
  -4  -2  10  278.57   16.50
  -2   6  10  268.47   16.40
  -2   6  10  259.47   15.40
  -2   6  10  266.67   15.70
  -1  -6 -10  623.84   32.80
  -6   7 -10  580.74   31.20
  -6   7 -10  588.94   32.20
  -1  -6 -10  616.64   33.70
  -6   7 -10  625.34   33.10
  -1  -6 -10  628.04   33.40
   7  -1 -10  590.24   31.50
   7  -1 -10  584.94   29.80
   7  -1 -10  635.64   33.60
  -7   1  10  625.94   33.30
   6  -7  10  597.74   32.20
   1   6  10  603.54   33.60
  -7   1  10  560.84   31.10
   6  -7  10  578.54   31.30
   1   6  10  596.44   32.50
   1   6  10  595.84   33.10
   6  -7  10  605.64   32.80
  -7   1  10  579.84   29.70
  -6  10 -10  165.88   11.60
  10  -4 -10  178.68   13.00
  -4  -6 -10  180.08   13.00
  -4  -6 -10  179.78   13.80
  10  -4 -10  168.08   10.80
  -6  10 -10  184.58   12.80
  10  -4 -10  160.58   10.30
  -6  10 -10  180.38   13.30
  -4  -6 -10  176.28   13.40
   4   6  10  136.59   12.00
 -10   4  10  175.28   10.00
   6 -10  10  163.28   12.70
   6 -10  10  156.08   11.10
   6 -10  10  175.88   12.60
 -10   4  10  156.48   10.60
  -7  -3 -10  305.47   19.80
  -7  -3 -10  322.27   19.70
  -7  -3 -10  284.77   17.90
  -3  10 -10  301.37   20.00
  10  -7 -10  279.27   17.70
  10  -7 -10  297.77   19.30
  -3  10 -10  298.47   18.30
  10  -7 -10  260.07   14.50
 -10   7  10  312.37   19.90
 -10   7  10  279.07   14.60
 -10   7  10  272.77   17.50
   7   3  10  284.47   18.00
   3 -10  10  273.37   19.30
   3 -10  10  291.47   18.20
  -7   0 -10  952.60   50.29
   7  -7 -10  976.60   50.89
  -7   0 -10  942.71   49.60
   0   7 -10  919.01   49.99
   0   7 -10  946.61   51.09
  -7   0 -10  943.41   49.90
   0   7 -10  965.00   48.80
   7  -7 -10 1000.80   49.90
   0  -7  10  926.01   49.70
  -7   7  10  977.80   49.60
   7   0  10  928.21   49.99
   0  -7  10  945.91   51.09
  -7   7  10 1031.70   51.49
   0  -7  10  932.81   48.50
   3   4 -10  838.72   43.10
  -7   3 -10  809.92   43.00
   3   4 -10  849.41   45.80
   3   4 -10  954.50   47.20
  -7   3 -10  868.71   44.80
   4  -7 -10  875.61   45.80
  -7   3 -10  870.41   45.90
   4  -7 -10  895.81   47.10
   4  -7 -10  868.91   45.20
  -3  -4  10  841.92   43.10
   7  -3  10  929.01   46.20
   7  -3  10  849.12   43.00
  -3  -4  10  834.82   48.80
  -3  -4  10  963.20   46.00
  -4   7  10  896.81   45.50
   7  -3  10  881.81   45.20
  -4   7  10  907.71   46.00
  -4   7  10  904.01   47.10
  -7   6 -10 1234.18   61.99
   1  -7 -10 1272.47   64.89
   1  -7 -10 1188.48   63.59
   1  -7 -10 1293.77   64.59
  -7   6 -10 1261.17   62.49
   6   1 -10 1218.58   63.19
  -7   6 -10 1293.47   64.19
   7  -6  10 1238.28   62.59
  -6  -1  10 1228.08   62.99
   7  -6  10 1238.28   62.39
  -6  -1  10 1319.47   65.19
  -6  -1  10 1232.58   59.79
  -6  -1  10 1275.27   64.39
   7  -6  10 1251.57   63.99
  -1   7  10 1256.17   64.39
  -1   7  10 1228.48   63.59
  -7   9 -10  579.64   32.50
  -2  -7 -10  598.14   33.10
   9  -2 -10  556.24   29.50
   9  -2 -10  559.94   30.70
  -2  -7 -10  594.74   33.70
  -7   9 -10  544.85   30.60
  -7   9 -10  604.74   32.60
   7  -9  10  584.54   32.40
   2   7  10  604.74   33.00
  -9   2  10  488.25   29.20
  -9   2  10  621.44   34.60
  -9   2  10  604.74   30.40
  -5  -7 -10  371.66   22.20
  -7  12 -10  333.57   22.90
  -5  -7 -10  342.57   22.70
  -5  -7 -10  364.56   24.00
  -7  12 -10  351.36   21.40
  -5  -7 -10  372.36   23.50
  12  -5 -10  371.56   22.90
  -7  12 -10  353.66   22.40
  12  -5 -10  305.87   19.80
   7 -12  10  361.06   23.20
   7 -12  10  370.86   22.60
   5   7  10  370.86   22.10
 -12   5  10  290.77   19.70
 -12   5  10  391.76   23.60
   7 -12  10  324.97   20.30
 -12   5  10  319.27   18.40
  -4  12 -10  161.58   14.20
  -4  12 -10  139.09   12.20
  -8  -4 -10  168.68   12.70
  -8  -4 -10  155.98   12.60
  12  -8 -10  167.78   13.50
  -4  12 -10  170.28   13.20
  -8  -4 -10  170.38   14.20
  -8  -4 -10  178.68   14.00
 -12   8  10  183.98   14.50
   4 -12  10  168.68   12.90
   4 -12  10  172.88   12.70
   4 -12  10  173.88   14.30
   8   4  10  189.48   13.40
   8   4  10  150.78   12.50
  -8  -1 -10  114.49   10.00
   9  -8 -10  115.29    6.50
   9  -8 -10  120.19    9.40
  -1   9 -10  119.59    9.80
  -1   9 -10  118.69    9.00
  -1   9 -10  112.69   10.40
  -8  -1 -10  117.09    9.30
   9  -8 -10  121.29   10.30
  -8  -1 -10  111.49    8.40
  -9   8  10  104.19    8.80
  -9   8  10  111.89   10.30
   1  -9  10   96.69    8.30
   8   1  10  101.19    9.40
   1  -9  10  101.79   10.00
  -8   2 -10  266.27   14.90
  -8   2 -10  250.77   16.60
   6  -8 -10  252.07   19.90
   6  -8 -10  281.47   17.40
   2   6 -10  278.57   16.40
  -8   2 -10  279.67   17.20
  -8   2 -10  298.07   17.50
  -8   2 -10  276.37   14.90
   6  -8 -10  267.07   15.80
   2   6 -10  284.57   18.50
  -2  -6  10  284.07   17.40
  -2  -6  10  282.67   15.40
  -6   8  10  266.37   16.00
  -6   8  10  279.87   17.30
  -6   8  10  279.67   18.30
   8  -2  10  279.37   17.00
  -2  -6  10  263.37   18.20
   3  -8 -10 2741.53  135.19
   3  -8 -10 2792.62  135.29
   5   3 -10 2740.73  135.99
  -8   5 -10 2756.42  135.39
   3  -8 -10 2947.61  136.89
  -8   5 -10 2648.94  133.89
   5   3 -10 2664.93  131.49
   5   3 -10 2777.32  135.29
   8  -5  10 2608.14  133.59
  -5  -3  10 2524.55  131.39
   8  -5  10 2762.42  135.49
  -3   8  10 2784.62  135.29
  -3   8  10 2774.52  136.59
  -5  -3  10 2799.02  136.59
  -5  -3  10 2782.12  134.89
  -3   8  10 2865.21  135.49
   0  -8 -10  413.36   25.70
  -8   8 -10  410.36   24.20
   8   0 -10  415.56   24.20
   0  -8 -10  425.66   25.50
  -8   8 -10  398.96   22.80
   0   8  10  444.66   26.10
  -8   0  10  455.45   24.10
  -8   0  10  419.26   21.50
  -8   0  10  393.66   21.40
   8  -8  10  452.55   23.50
   8  -8  10  456.05   24.90
  -8   0  10  443.46   25.60
  -8  11 -10  308.97   18.70
  11  -3 -10  294.87   18.10
  -3  -8 -10  328.97   21.80
  -3  -8 -10  337.47   21.40
  -8  11 -10  299.27   20.60
  -8  11 -10  324.47   20.60
  11  -3 -10  328.07   20.90
  11  -3 -10  280.47   17.40
  -3  -8 -10  314.77   21.00
  -3  -8 -10  326.37   20.20
   8 -11  10  305.37   18.20
 -11   3  10  349.47   21.20
   8 -11  10  331.77   20.60
   3   8  10  334.87   20.10
 -11   3  10  262.77   17.30
 -11   3  10  290.27   17.50
  -9  -2 -10    5.00    2.30
  -2  11 -10    8.50    3.60
  -9  -2 -10    6.20    2.90
  -2  11 -10    4.60    2.50
  11  -9 -10    5.80    2.90
  -9  -2 -10    7.20    2.60
  11  -9 -10    7.00    2.70
  -2  11 -10    5.10    2.40
  -9  -2 -10    5.60    2.70
   2 -11  10    9.70    3.90
   9   2  10   10.50    2.80
 -11   9  10    7.50    3.30
   2 -11  10    8.80    3.00
 -11   9  10    8.20    3.60
   1   8 -10  984.70   54.49
  -9   1 -10  991.50   50.39
   8  -9 -10  938.51   49.90
  -9   1 -10 1077.29   53.19
  -9   1 -10  879.41   50.49
   1   8 -10 1077.49   51.79
   8  -9 -10  977.10   50.19
   1   8 -10 1070.69   53.89
   8  -9 -10 1085.69   54.89
  -9   1 -10 1052.59   53.39
  -8   9  10 1004.90   54.39
   9  -1  10  993.90   52.89
  -1  -8  10 1005.70   54.59
  -1  -8  10  953.40   51.09
  -1  -8  10 1012.50   53.09
  -9   4 -10    5.90    2.30
   4   5 -10    4.60    1.50
   5  -9 -10    4.70    1.90
   5  -9 -10    4.90    2.00
   5  -9 -10    4.50    2.10
  -9   4 -10    3.70    1.60
   9  -4  10   10.20    3.00
  -4  -5  10    9.90    3.00
   9  -4  10    8.10    2.30
   7   2 -10  150.48   11.40
   2  -9 -10  157.38   12.10
  -9   7 -10  155.78   11.90
  -9   7 -10  138.59    9.50
   2  -9 -10  157.68   11.90
  -9   7 -10  158.28   10.60
   9  -7  10  159.78   10.60
  -7  -2  10  170.78   11.50
   9  -7  10  149.49   10.10
  -7  -2  10  155.48    8.30
  -7  -2  10  154.28    8.30
  -2   9  10  166.28   11.90
  10  -1 -10  694.83   38.00
  -1  -9 -10  721.23   40.70
  -1  -9 -10  759.62   39.60
  -1  -9 -10  746.33   40.70
  -1  -9 -10  760.72   40.50
  -9  10 -10  660.63   36.60
  -9  10 -10  736.83   39.80
  -9  10 -10  707.73   39.00
 -10   1  10  740.83   39.90
   1   9  10  690.83   40.10
 -10   1  10  745.53   37.70
 -10   1  10  593.24   35.30
   9 -10  10  704.23   37.00
   9 -10  10  709.23   39.40
   9 -10  10  722.03   39.30
   1   9  10  701.83   38.90
 -10   1  10  646.84   35.50
 -10   1  10  703.53   40.40
   0  10 -10  264.57   18.00
 -10   0 -10  232.58   15.00
  10 -10 -10  222.98   13.30
   0  10 -10  264.67   16.60
 -10   0 -10  261.57   17.00
  10 -10 -10  225.18   13.30
  10 -10 -10  269.27   18.60
 -10   0 -10  237.58   15.70
 -10   0 -10  242.98   17.00
  10 -10 -10  256.17   17.30
   0  10 -10  252.27   18.60
 -10  10  10  284.37   19.20
   0 -10  10  275.37   19.10
   0 -10  10  266.47   16.30
   0 -10  10  254.27   17.30
 -10  10  10  280.07   17.40
 -10   3 -10  115.09    9.00
 -10   3 -10   97.69    7.40
   7 -10 -10  110.79    8.30
   7 -10 -10  107.99    8.10
 -10   3 -10  105.49    7.50
   7 -10 -10  115.09   10.60
   7 -10 -10  120.59    9.90
   3   7 -10  110.99    9.90
 -10   3 -10  115.69    9.50
   3   7 -10  108.59    7.80
  10  -3  10  100.19    8.60
  -3  -7  10  117.89   10.70
  -7  10  10  111.49    9.50
  -3  -7  10  122.89    9.90
  -7  10  10  114.79   10.50
  -3  -7  10  107.59    7.70
 -10   6 -10  174.18   11.40
   4 -10 -10  196.68   14.70
   4 -10 -10  189.38   13.20
 -10   6 -10  178.98   13.30
   6   4 -10  187.28   13.60
 -10   6 -10  167.68   11.00
   6   4 -10  181.28   14.00
   4 -10 -10  187.68   13.30
  10  -6  10  179.38   11.30
  -6  -4  10  162.78   10.00
  10  -6  10  197.28   13.70
  -6  -4  10  185.78   14.50
  -4  10  10  198.88   14.90
  -4  10  10  205.88   13.90
  10  -6  10  172.48   11.60
   1 -10 -10   94.29    8.90
   1 -10 -10   91.49    8.50
 -10   9 -10   89.99    7.80
 -10   9 -10   79.29    6.10
   1 -10 -10   92.19    9.30
 -10   9 -10   96.19    8.80
   9   1 -10   88.59    8.00
   1 -10 -10   94.59    9.20
  -9  -1  10   75.39    5.30
  -9  -1  10   91.19    9.30
  10  -9  10   84.59    8.20
  -1  10  10   85.99    8.10
  10  -9  10   79.09    7.50
  -9  -1  10   83.49    7.60
  10  -9  10   75.79    6.50
  -9  -1  10   72.09    5.20
  -9  -1  10   82.39    8.50
  -1  10  10   85.09    9.00
 -10  12 -10  104.69    9.90
  -2 -10 -10  119.39   11.00
  -2 -10 -10  111.49   11.10
  12  -2 -10  101.69    8.50
  -2 -10 -10  106.29   10.70
 -10  12 -10   97.79    7.90
 -12   2  10  100.09    9.70
  10 -12  10   83.59    7.50
   2  10  10   86.69    9.80
  10 -12  10   98.69    9.80
 -12   2  10   95.69   10.20
 -12   2  10   99.29    8.10
 -11   2 -10  453.85   28.30
   2   9 -10  508.45   29.80
   9 -11 -10  435.56   25.60
 -11   2 -10  457.15   28.20
 -11   2 -10  461.75   26.20
   9 -11 -10  520.15   30.80
   9 -11 -10  502.85   29.30
   2   9 -10  454.85   30.00
 -11   2 -10  519.75   29.00
   2   9 -10  475.55   27.10
  -2  -9  10  476.55   30.60
  -2  -9  10  483.55   26.90
  -9  11  10  502.85   30.60
  11  -2  10  464.15   28.00
  -9  11  10  512.55   29.00
  -2  -9  10  562.24   29.80
   5   6 -10  588.64   34.00
   6 -11 -10  583.34   31.60
   6 -11 -10  609.04   33.20
   5   6 -10  582.94   33.20
   6 -11 -10  575.34   31.80
   6 -11 -10  626.84   34.80
   5   6 -10  540.85   29.50
 -11   5 -10  530.65   29.90
 -11   5 -10  530.45   30.10
  11  -5  10  523.55   29.50
  -6  11  10  628.44   33.20
  11  -5  10  524.85   30.60
  -5  -6  10  571.64   34.10
  -5  -6  10  504.35   29.10
  11  -5  10  574.84   32.60
  -5  -6  10  605.74   33.00
 -11   8 -10   80.39    6.40
   3 -11 -10   97.39    9.20
   3 -11 -10   95.09    9.10
   3 -11 -10  100.19    9.50
 -11   8 -10  100.69    9.40
 -11   8 -10   86.99    7.70
   3 -11 -10   97.79   10.00
   8   3 -10   96.69    9.00
  -8  -3  10  106.49   10.00
  11  -8  10   94.39    7.80
  11  -8  10   93.39    7.20
  -8  -3  10  104.69    9.00
  -8  -3  10  114.49   10.70
  -3  11  10  105.59   10.50
  -8  -3  10   87.09    5.90
  -8  -3  10   96.69    6.00
  -3  11  10  108.79    9.50
  11  -8  10  112.09    9.60
 -11  11 -10  209.48   15.60
 -11  11 -10  183.98   12.30
   0 -11 -10  216.48   16.60
   0 -11 -10  210.98   16.50
   0 -11 -10  213.78   16.10
   0 -11 -10  209.08   15.40
 -11  11 -10  193.78   14.60
  11 -11  10  218.58   15.40
  11 -11  10  184.38   12.70
  11 -11  10  204.78   15.40
 -11   0  10  191.18   16.00
 -11   0  10  184.28   11.50
   0  11  10  205.68   16.40
   0  11  10  208.08   15.10
 -11   0  10  219.48   16.10
 -11   0  10  217.28   15.90
 -12   4 -10  198.28   13.90
 -12   4 -10  167.88   11.40
   8 -12 -10  193.18   14.20
   4   8 -10  170.88   11.40
 -12   4 -10  171.78   13.20
 -12   4 -10  158.58   12.00
   8 -12 -10  199.78   15.40
   4   8 -10  168.18   14.40
   8 -12 -10  163.38   11.80
   8 -12 -10  176.98   11.90
   4   8 -10  183.18   14.30
  -8  12  10  190.58   13.90
  -4  -8  10  179.28   13.80
  12  -4  10  156.18   12.00
  -8  12  10  181.28   14.90
  -4  -8  10  161.78   14.40
  -4  -8  10  136.19   10.70
 -12   7 -10  280.77   17.60
 -12   7 -10  305.77   18.90
   7   5 -10  305.77   17.40
   5 -12 -10  327.87   20.80
   5 -12 -10  352.46   22.90
   7   5 -10  315.67   21.90
   7   5 -10  336.77   21.60
 -12   7 -10  328.37   21.20
   5 -12 -10  336.57   21.40
  -5  12  10  361.36   21.70
  -7  -5  10  283.27   17.20
  12  -7  10  327.17   21.10
  -5  12  10  361.76   23.30
  -7  -5  10  367.56   21.70
  12  -7  10  293.67   18.40
  -7  -5  10  315.77   22.30
  12  -7  10  311.87   18.60
   2 -12 -10  175.48   14.90
   2 -12 -10  182.08   14.20
 -12  10 -10  151.48   12.20
   2 -12 -10  169.98   14.30
  12 -10  10  139.19   10.60
  12 -10  10  165.78   12.60
 -10  -2  10  168.98   14.70
  -2  12  10  190.28   15.50
 -10  -2  10  202.18   13.80
 -10  -2  10  187.58   14.60
  -1   1 -11 1303.17   63.49
   1   0 -11 1315.17   62.89
   1   0 -11 1342.97   63.79
   1   0 -11 1277.67   63.59
  -1   1 -11 1301.07   63.69
  -1   1 -11 1225.88   63.19
   0  -1 -11 1371.66   63.89
   0  -1 -11 1255.67   63.39
   0   1  11 1230.78   63.39
   0   1  11 1240.68   63.19
   0   1  11 1371.26   64.09
   1  -1  11 1256.07   62.79
  -1   0  11 1278.67   63.59
  -1   0  11 1283.37   63.69
   1  -1  11 1296.57   62.89
  -1   0  11 1182.78   62.69
   1  -1  11 1421.76   64.19
  -2   0 -11 1174.48   57.29
   0   2 -11 1201.68   58.89
   2  -2 -11 1236.78   58.59
   0   2 -11 1200.28   58.89
  -2   0 -11 1217.08   59.19
   2  -2 -11 1196.78   59.09
  -2   0 -11 1159.58   58.79
   2   0  11 1154.48   57.39
  -2   2  11 1133.89   58.99
   0  -2  11 1156.88   57.99
   0  -2  11 1181.58   58.89
   0  -2  11 1226.08   58.89
   2   0  11 1126.79   59.09
  -2   2  11 1129.69   58.19
  -2   2  11 1293.37   58.89
  -2   3 -11 1312.07   66.69
  -1  -2 -11 1272.57   68.29
   3  -1 -11 1334.27   66.39
   3  -1 -11 1320.27   67.29
  -2   3 -11 1406.16   66.89
   3  -1 -11 1202.28   65.29
  -1  -2 -11 1296.47   66.89
   1   2  11 1367.56   67.59
  -3   1  11 1384.46   67.39
   2  -3  11 1451.65   66.99
  -3   1  11 1328.47   65.49
   1   2  11 1341.17   66.99
   2  -3  11 1451.35   66.99
  -3   1  11 1447.46   66.59
   1   2  11 1359.16   66.59
   4  -3 -11  436.96   23.60
  -3  -1 -11  443.26   24.40
  -1   4 -11  449.26   23.70
  -3  -1 -11  483.65   25.20
  -3  -1 -11  415.66   22.90
   4  -3 -11  426.46   23.40
   4  -3 -11  448.46   24.90
  -1   4 -11  506.25   25.20
  -1   4 -11  452.95   24.40
  -4   3  11  443.16   25.00
  -4   3  11  451.75   23.70
  -4   3  11  439.06   23.50
   1  -4  11  474.55   24.30
   3   1  11  458.05   25.10
   1  -4  11  483.25   25.00
   1  -4  11  481.65   24.00
   3   1  11  421.46   22.90
   2   1 -11 1162.78   54.09
   2   1 -11 1159.28   55.79
  -3   2 -11 1096.79   55.59
  -3   2 -11 1149.39   56.09
   1  -3 -11 1070.59   55.59
   1  -3 -11 1072.99   55.89
   2   1 -11 1076.29   53.99
   1  -3 -11 1155.88   56.19
   3  -2  11 1077.39   55.79
  -1   3  11 1216.38   56.39
  -2  -1  11 1147.49   56.49
  -1   3  11 1063.19   55.59
  -2  -1  11 1085.39   55.99
   3  -2  11 1110.99   54.19
  -2  -1  11 1185.98   55.69
  -1   3  11 1072.29   55.99
  -3   5 -11 2105.69   96.09
  -3   5 -11 1893.81   95.29
  -2  -3 -11 2003.70   96.09
   5  -2 -11 1881.41   96.39
  -2  -3 -11 1937.81   95.39
  -3   5 -11 2082.09   95.89
   5  -2 -11 1911.41   94.09
   5  -2 -11 1949.01   94.69
   3  -5  11 1882.41   95.19
  -5   2  11 1842.52   93.99
  -5   2  11 2060.39   94.69
   2   3  11 1982.40   96.89
   3  -5  11 2021.20   95.79
  -5   2  11 1988.60   96.69
   3  -5  11 1807.52   95.39
   2   3  11 1795.02   95.09
   6  -4 -11    4.90    1.60
  -2   6 -11    3.50    1.80
   6  -4 -11    3.50    1.60
  -2   6 -11    3.80    1.60
  -2   6 -11    3.10    1.40
  -4  -2 -11    2.30    1.70
   6  -4 -11    4.70    1.30
  -4  -2 -11    5.00    1.90
  -4  -2 -11    4.80    2.00
   2  -6  11    2.40    1.50
  -6   4  11    2.50    1.70
   4   2  11    1.20    1.10
   4   2  11    0.50    1.10
   2  -6  11    1.60    1.10
  -6   4  11    2.50    1.20
   2  -6  11    3.90    1.50
  -4   1 -11 2194.48  101.89
   3  -4 -11 1958.00  101.19
  -4   1 -11 2106.29  101.89
   3  -4 -11 1980.10  102.09
   3  -4 -11 2106.29  101.19
   1   3 -11 1900.81  102.29
   1   3 -11 2134.69  102.49
   1   3 -11 1990.60  100.09
  -4   1 -11 2058.59  101.99
  -3   4  11 2093.99  101.39
  -3   4  11 2120.49  101.49
  -1  -3  11 2267.67  100.29
  -1  -3  11 2093.39  102.49
  -3   4  11 1997.10  102.29
   4  -1  11 2126.99  102.09
  -1  -3  11 2092.99  101.59
   0  -4 -11  286.47   16.00
  -4   4 -11  280.37   15.80
   0  -4 -11  273.37   15.60
  -4   4 -11  275.97   15.10
   4   0 -11  261.37   13.00
   0  -4 -11  290.37   16.40
   4   0 -11  275.67   15.10
  -4   4 -11  266.47   14.60
   4  -4  11  260.37   15.60
  -4   0  11  244.58   13.00
   4  -4  11  267.97   15.20
  -4   0  11  234.18   14.70
   0   4  11  252.57   15.60
   0   4  11  262.67   16.10
   0   4  11  249.68   15.30
  -4   7 -11  656.93   35.10
  -4   7 -11  669.83   34.10
   7  -3 -11  621.64   32.80
   7  -3 -11  681.83   35.50
  -3  -4 -11  654.23   34.40
   7  -3 -11  602.04   32.70
  -3  -4 -11  691.23   34.90
  -4   7 -11  660.03   34.60
  -3  -4 -11  681.93   36.00
   3   4  11  640.54   35.90
   3   4  11  624.24   34.10
   3   4  11  634.54   34.60
   4  -7  11  652.03   34.50
   4  -7  11  622.74   34.60
  -7   3  11  629.54   32.80
  -7   3  11  664.63   35.60
   4  -7  11  617.74   33.70
  -7   3  11  630.04   32.70
  -3   8 -11  723.73   39.40
   8  -5 -11  713.33   40.10
  -3   8 -11  718.43   39.10
   8  -5 -11  736.03   38.50
  -5  -3 -11  741.53   40.80
  -5  -3 -11  727.63   38.80
  -5  -3 -11  749.82   39.60
  -3   8 -11  792.42   40.90
   3  -8  11  763.62   40.60
   3  -8  11  716.53   38.90
   5   3  11  725.33   40.60
  -8   5  11  784.62   41.00
   3  -8  11  744.53   39.20
  -8   5  11  696.13   38.20
   5   3  11  784.82   39.20
   5   3  11  756.62   39.80
   0   5 -11  544.65   28.80
   5  -5 -11  529.95   27.40
  -5   0 -11  557.44   28.40
   0   5 -11  494.65   26.40
  -5   0 -11  528.25   27.80
   5  -5 -11  517.45   26.30
  -5   0 -11  505.45   25.30
   0   5 -11  534.65   27.90
  -5   5  11  508.75   27.20
   5   0  11  470.65   27.40
   0  -5  11  478.95   28.30
   0  -5  11  473.05   27.20
   5   0  11  499.65   25.30
   5   0  11  495.55   28.00
   0  -5  11  496.95   26.40
  -5   5  11  504.85   26.60
   2  -5 -11  629.44   33.20
   3   2 -11  647.74   30.20
   2  -5 -11  606.04   32.80
  -5   3 -11  610.54   32.30
   2  -5 -11  656.63   34.00
  -5   3 -11  628.74   30.70
  -2   5  11  617.44   33.20
  -3  -2  11  608.14   33.70
   5  -3  11  625.84   30.60
   5  -3  11  665.83   33.60
  -2   5  11  601.54   32.80
  -2   5  11  622.74   33.70
  -3  -2  11  651.13   32.80
   5  -3  11  591.84   32.60
  -1  -5 -11  920.11   46.80
   6  -1 -11  845.92   44.60
   6  -1 -11  823.52   42.80
  -5   6 -11  939.91   46.10
  -5   6 -11  894.21   44.70
  -5   6 -11  900.21   45.30
   6  -1 -11  915.71   46.60
  -1  -5 -11  866.41   46.00
  -1  -5 -11  895.61   45.80
   5  -6  11  885.21   44.80
  -6   1  11  917.81   46.40
   1   5  11  871.81   45.90
   1   5  11  883.21   46.70
   5  -6  11  915.61   45.90
  -6   1  11  872.11   43.90
  -6   1  11  890.41   44.50
   1   5  11  849.91   45.50
   5  -6  11  783.52   44.70
   9  -4 -11  109.89    7.50
  -5   9 -11  117.69    8.90
  -5   9 -11  126.39   10.20
  -4  -5 -11  123.79    9.50
   9  -4 -11  122.29    8.10
  -5   9 -11  116.09    9.30
  -4  -5 -11  121.59    9.50
  -9   4  11  109.49    7.20
   4   5  11  117.79    9.40
   5  -9  11  115.29    9.30
   5  -9  11  114.29    9.70
   4   5  11  111.39    9.10
  -9   4  11  116.89   10.10
  -9   4  11   98.89    7.60
   5  -9  11  112.79    8.50
  10  -6 -11  259.37   16.30
  10  -6 -11  287.47   18.30
  -6  -4 -11  290.87   19.00
  -6  -4 -11  270.37   17.20
  10  -6 -11  242.08   14.10
  -4  10 -11  265.67   17.30
 -10   6  11  259.97   16.20
   6   4  11  291.77   17.70
 -10   6  11  237.38   14.10
   6   4  11  272.77   18.40
   4 -10  11  273.07   18.40
   4 -10  11  265.67   16.70
 -10   6  11  287.77   18.90
  -1   7 -11   57.39    5.10
   7  -6 -11   56.29    6.10
   7  -6 -11   64.09    5.60
  -1   7 -11   58.19    5.70
  -6  -1 -11   61.19    6.30
  -1   7 -11   63.59    6.50
   6   1  11   46.90    5.20
   1  -7  11   45.00    5.00
   1  -7  11   46.40    5.80
   1  -7  11   44.80    4.60
   6   1  11   45.90    5.40
  -7   6  11   44.20    4.70
  -7   6  11   46.50    5.80
  -6   2 -11    3.40    1.60
   2   4 -11    3.10    1.00
   4  -6 -11    3.50    1.50
   4  -6 -11    4.60    1.70
  -6   2 -11    3.00    1.50
   2   4 -11    3.50    1.90
   4  -6 -11    3.70    1.80
  -6   2 -11    2.30    1.30
   2   4 -11    3.30    1.60
  -4   6  11    7.00    2.60
  -4   6  11    7.50    2.20
  -2  -4  11    6.40    2.10
  -4   6  11    7.10    2.10
  -2  -4  11    6.70    2.50
   6  -2  11    5.50    1.90
  -2  -4  11    6.60    1.30
   1  -6 -11  298.67   17.90
   1  -6 -11  298.57   18.10
  -6   5 -11  291.67   17.50
  -6   5 -11  269.87   16.00
   5   1 -11  276.17   16.70
   6  -5  11  284.97   17.40
  -5  -1  11  286.07   17.70
  -5  -1  11  284.97   16.60
  -1   6  11  287.07   17.80
  -1   6  11  276.87   17.00
  -5  -1  11  297.17   18.30
   6  -5  11  292.47   16.50
  -2  -6 -11  201.08   13.50
   8  -2 -11  197.68   14.00
  -2  -6 -11  203.28   13.80
   8  -2 -11  196.28   12.10
  -6   8 -11  213.98   13.60
  -6   8 -11  188.28   12.20
  -2  -6 -11  201.78   14.40
  -6   8 -11  212.48   13.80
   2   6  11  191.38   14.10
   6  -8  11  183.68   12.10
  -8   2  11  183.48   11.60
   6  -8  11  202.48   13.50
   2   6  11  187.78   13.40
   2   6  11  185.58   13.00
  -8   2  11  205.38   14.00
   6  -8  11  191.78   13.20
  -5  -6 -11  152.48   12.30
  -6  11 -11  148.89   12.50
  11  -5 -11  148.99   11.80
  -5  -6 -11  138.89   11.30
  -6  11 -11  144.99   11.30
  11  -5 -11  122.29    9.30
  -5  -6 -11  155.68   12.70
  -6  11 -11  139.09   10.60
  11  -5 -11  126.59    8.50
  -5  -6 -11  144.39   11.10
   5   6  11  140.09   11.00
   5   6  11  126.49   11.00
 -11   5  11  151.98   12.30
 -11   5  11  115.59    8.10
   6 -11  11  135.99   11.70
 -11   5  11  131.59    9.50
   6 -11  11  122.99   10.70
  12  -7 -11  335.57   18.50
  -5  12 -11  379.16   23.10
  -7  -5 -11  371.46   24.60
  -5  12 -11  369.76   22.90
  12  -7 -11  364.26   21.80
  -5  12 -11  375.96   24.70
  -7  -5 -11  403.56   24.70
  -7  -5 -11  393.26   23.10
  12  -7 -11  404.16   24.20
  -7  -5 -11  356.26   22.90
 -12   7  11  411.86   25.10
   5 -12  11  374.46   24.40
 -12   7  11  308.47   18.30
   5 -12  11  367.66   22.20
   7   5  11  334.67   22.90
   5 -12  11  376.86   23.10
   7   5  11  373.26   23.10
 -12   7  11  345.87   21.50
   9  -7 -11  198.48   14.60
  -7  -2 -11  196.98   13.00
   9  -7 -11  202.88   11.00
   9  -7 -11  215.18   13.80
  -7  -2 -11  199.88   13.80
  -2   9 -11  202.08   13.50
  -9   7  11  202.78   11.30
  -9   7  11  195.48   13.30
   2  -9  11  200.38   13.40
   7   2  11  204.18   14.70
   7   2  11  213.98   13.20
   2  -9  11  212.98   15.00
   7   2  11  208.38   14.20
  -7   1 -11 2543.05  122.69
   6  -7 -11 2634.74  125.49
  -7   1 -11 2564.34  125.69
   6  -7 -11 2320.37  123.29
   6  -7 -11 2550.64  126.69
   1   6 -11 2579.94  123.89
   1   6 -11 2560.14  125.79
  -7   1 -11 2668.03  125.69
   1   6 -11 2604.44  126.89
  -7   1 -11 2489.05  125.49
  -7   1 -11 2554.44  122.49
   7  -1  11 2484.85  125.49
  -1  -6  11 2509.35  126.79
  -6   7  11 2572.74  125.29
  -1  -6  11 2624.54  123.69
  -6   7  11 2507.95  126.59
  -6   7  11 2605.34  124.09
  -1  -6  11 2465.05  125.29
  -7   4 -11   42.50    4.80
   3  -7 -11   44.00    5.50
  -7   4 -11   37.50    3.90
   4   3 -11   47.50    5.40
   3  -7 -11   44.20    4.80
   4   3 -11   43.50    2.70
   3  -7 -11   44.60    4.80
   4   3 -11   39.20    4.60
  -7   4 -11   39.70    3.20
   7  -4  11   33.80    2.90
  -3   7  11   39.00    5.10
   7  -4  11   36.70    4.10
  -4  -3  11   36.20    4.20
  -3   7  11   39.70    4.50
   7  -4  11   37.10    4.70
  -4  -3  11   42.80    5.20
  -4  -3  11   37.60    2.50
  -3   7  11   41.60    4.70
   7   0 -11  299.87   18.50
   0  -7 -11  314.07   19.30
   0  -7 -11  319.77   20.10
  -7   7 -11  297.57   17.70
  -7   7 -11  296.97   18.40
  -7   7 -11  313.87   19.60
   0  -7 -11  312.57   20.10
  -7   0  11  321.07   18.40
  -7   0  11  273.77   15.70
   7  -7  11  341.97   19.80
  -7   0  11  319.87   15.80
   0   7  11  332.87   20.30
   7  -7  11  322.27   18.70
  -7   0  11  337.17   20.00
   7  -7  11  336.17   18.40
  -7   0  11  357.26   20.90
   0   7  11  343.87   20.40
   0   7  11  324.47   19.30
  -7  10 -11  191.38   13.60
  -3  -7 -11  183.38   13.60
  -7  10 -11  184.68   12.10
  10  -3 -11  204.98   14.10
  -7  10 -11  187.18   13.30
  10  -3 -11  176.18   11.30
  -3  -7 -11  199.58   13.30
  -3  -7 -11  196.48   14.70
  10  -3 -11  162.58   10.60
   3   7  11  175.48   12.70
   7 -10  11  171.98   12.90
   3   7  11  154.38   12.80
   7 -10  11  172.08   13.10
 -10   3  11  144.09   10.30
   7 -10  11  157.18   11.30
 -10   3  11  169.48   10.80
 -10   3  11  186.68   13.70
  -8  -3 -11  121.19   10.90
  -3  11 -11  116.69    9.60
  11  -8 -11  101.59    5.60
  -3  11 -11  115.19   11.00
  -8  -3 -11  121.49    9.70
  -8  -3 -11  110.69    9.20
  11  -8 -11  120.09   10.60
  -3  11 -11  114.49   10.00
  11  -8 -11  117.09    9.40
   8   3  11  111.29    9.60
   3 -11  11  106.09   10.50
   3 -11  11  104.19    9.30
   3 -11  11  102.39    9.30
 -11   8  11   99.79    8.80
   8   3  11   93.19    8.70
 -11   8  11  110.09   10.60
  -8   0 -11  288.47   17.50
  -8   0 -11  252.17   15.10
   0   8 -11  265.97   16.40
  -8   0 -11  265.67   15.60
  -8   0 -11  277.67   18.00
  -8   0 -11  271.37   17.60
   8  -8 -11  291.87   17.70
   0   8 -11  287.77   19.80
   8  -8 -11  282.37   18.50
   8   0  11  273.77   17.80
   0  -8  11  256.97   16.10
  -8   8  11  270.07   17.10
  -8   3 -11  511.65   26.60
  -8   3 -11  496.85   27.50
   3   5 -11  520.05   28.70
   5  -8 -11  467.45   27.20
   5  -8 -11  495.65   28.60
  -8   3 -11  459.05   24.20
   3   5 -11  455.65   27.20
   5  -8 -11  506.95   26.60
  -8   3 -11  441.56   24.20
  -5   8  11  483.25   27.30
  -5   8  11  480.05   28.50
  -3  -5  11  497.15   27.30
   8  -3  11  446.46   26.40
  -5   8  11  474.05   26.50
  -8   6 -11  621.04   33.20
   2  -8 -11  675.23   36.50
  -8   6 -11  684.43   35.70
   6   2 -11  637.44   34.90
   2  -8 -11  663.63   35.30
  -8   6 -11  636.94   33.40
   2  -8 -11  657.63   35.70
   8  -6  11  624.64   33.70
   8  -6  11  642.74   35.40
  -6  -2  11  633.84   36.30
  -2   8  11  656.23   36.50
  -6  -2  11  657.63   35.90
  -2   8  11  661.33   35.70
  -6  -2  11  611.64   34.40
  -2   8  11  636.14   35.10
   8  -6  11  598.54   33.10
   9  -1 -11  117.09    9.20
  -1  -8 -11  128.49   11.20
  -8   9 -11  130.59   10.60
  -1  -8 -11  132.39   10.40
  -1  -8 -11  120.79   10.80
  -1  -8 -11  122.69   10.70
  -8   9 -11  115.29    8.60
  -8   9 -11  126.49   10.10
  -9   1  11  118.09    7.40
  -9   1  11  122.89    9.00
   1   8  11  133.49   11.00
  -9   1  11  134.79   10.80
  -9   1  11  144.39   11.60
   8  -9  11  134.09   10.50
   8  -9  11  137.29    9.20
   8  -9  11  128.69   10.20
   1   8  11  128.69   10.20
  -8  12 -11  114.29    9.50
  -4  -8 -11  124.19   10.60
  12  -4 -11  101.99    8.30
  -4  -8 -11  123.39   11.30
  12  -4 -11  109.89    8.50
  -8  12 -11  125.79   11.30
  -8  12 -11  121.59   10.70
  -4  -8 -11  124.69   11.90
  12  -4 -11  124.99   11.10
   4   8  11  124.99   11.30
 -12   4  11  119.89    8.60
   8 -12  11  119.59    9.20
 -12   4  11  140.89   11.80
 -12   4  11  109.09    8.00
   8 -12  11  137.59   11.30
   4   8  11  132.29   10.70
  -9  -1 -11  270.87   17.60
  10  -9 -11  240.48   13.50
  10  -9 -11  280.77   18.60
  -9  -1 -11  254.77   16.00
  -1  10 -11  259.57   18.80
  -9  -1 -11  265.97   18.20
  -9  -1 -11  246.78   15.30
  -1  10 -11  261.47   16.60
  -9  -1 -11  265.67   17.10
  -1  10 -11  263.57   17.80
  10  -9 -11  266.97   13.50
   1 -10  11  228.88   16.00
 -10   9  11  268.67   18.80
 -10   9  11  245.18   16.60
   1 -10  11  257.67   17.20
   1 -10  11  244.18   18.40
  -9   2 -11   77.19    7.20
   2   7 -11   74.99    8.10
   2   7 -11   76.69    7.50
   2   7 -11   75.99    6.00
   7  -9 -11   81.29    8.40
   7  -9 -11   71.99    5.90
  -7   9  11   67.19    7.70
  -2  -7  11   71.89    7.10
  -2  -7  11   65.89    7.70
  -2  -7  11   61.19    5.40
   9  -2  11   63.99    6.60
   5   4 -11  400.86   23.50
   5   4 -11  400.16   19.80
  -9   5 -11  363.76   21.20
   4  -9 -11  384.56   22.90
   9  -5  11  384.96   21.90
  -5  -4  11  339.37   19.50
  -5  -4  11  453.25   23.60
   1  -9 -11  305.57   20.30
   8   1 -11  290.57   18.30
  -9   8 -11  308.37   17.90
  -9   8 -11  322.47   19.50
   1  -9 -11  310.67   19.10
  -9   8 -11  277.07   16.50
  -8  -1  11  301.77   19.40
  -8  -1  11  252.67   14.60
  -1   9  11  297.87   18.80
   9  -8  11  303.67   18.00
  -8  -1  11  285.67   17.90
  -8  -1  11  274.67   14.70
   9  -8  11  304.87   17.30
  -2  -9 -11  315.37   20.40
  -2  -9 -11  317.67   19.50
  -2  -9 -11  297.27   20.50
  -9  11 -11  276.97   17.10
  11  -2 -11  279.27   17.50
  -9  11 -11  300.97   19.60
  -9  11 -11  286.77   19.10
  -2  -9 -11  302.67   20.20
   9 -11  11  296.77   19.40
 -11   2  11  296.67   17.10
 -11   2  11  250.07   15.50
 -11   2  11  260.77   15.70
   2   9  11  285.57   18.70
   2   9  11  256.27   19.30
 -11   2  11  293.37   19.50
   9 -11  11  252.77   16.70
 -11   2  11  275.37   19.80
   9 -11  11  293.57   19.30
   9 -10 -11   38.60    5.30
 -10   1 -11   27.70    3.70
   9 -10 -11   30.90    3.30
   9 -10 -11   41.60    6.00
 -10   1 -11   36.60    5.10
 -10   1 -11   35.50    3.80
   1   9 -11   39.10    5.60
 -10   1 -11   37.00    5.30
   1   9 -11   39.80    4.70
   1   9 -11   33.70    5.80
 -10   1 -11   35.70    5.10
   9 -10 -11   36.00    3.60
  -1  -9  11   48.60    5.70
  -1  -9  11   42.20    4.60
  -9  10  11   47.60    6.60
  -1  -9  11   42.50    6.30
  -9  10  11   47.60    5.60
 -10   4 -11   21.50    3.40
   4   6 -11   19.60    4.80
   6 -10 -11   23.40    3.90
 -10   4 -11   22.40    3.90
   6 -10 -11   25.10    5.80
   6 -10 -11   20.80    3.40
   6 -10 -11   22.20    3.40
   4   6 -11   24.80    4.10
   4   6 -11   21.80    2.60
  -4  -6  11   22.10    4.50
  -6  10  11   23.70    3.90
  -4  -6  11   18.70    2.40
  -4  -6  11   22.60    5.20
  10  -4  11   20.00    3.40
  -6  10  11   23.90    6.40
   3 -10 -11  589.24   32.30
 -10   7 -11  520.55   28.90
   3 -10 -11  600.44   32.20
 -10   7 -11  540.25   29.60
 -10   7 -11  593.54   32.30
   3 -10 -11  609.64   33.60
   3 -10 -11  576.64   32.00
  10  -7  11  567.44   31.90
  -7  -3  11  535.05   27.20
  -7  -3  11  592.34   32.90
  -7  -3  11  566.44   33.20
  -3  10  11  578.24   33.40
  -7  -3  11  472.65   27.10
  10  -7  11  526.55   29.40
  10  -7  11  483.75   29.30
   0 -10 -11  226.38   16.20
  10   0 -11  210.88   14.60
   0 -10 -11  211.28   16.20
   0 -10 -11  224.08   16.50
 -10  10 -11  215.78   15.70
   0 -10 -11  226.58   15.60
 -10  10 -11  201.18   14.50
 -10  10 -11  179.78   12.50
   0  10  11  208.18   15.00
  10 -10  11  198.38   13.20
  10 -10  11  220.48   15.20
 -10   0  11  215.68   14.20
   0  10  11  206.58   16.10
 -10   0  11  222.08   15.90
  10 -10  11  207.78   15.20
 -10   0  11  191.48   15.90
 -11   0 -11  165.68   13.50
  11 -11 -11  184.08   14.60
  11 -11 -11  143.69    8.70
   0  11 -11  173.08   13.80
  11 -11 -11  157.88    8.90
 -11   0 -11  153.38   10.80
 -11   0 -11  139.39   11.20
   0  11 -11  160.18   14.30
 -11  11  11  177.98   14.70
   0 -11  11  175.68   13.30
   0 -11  11  162.88   14.30
   3   8 -11  160.28   12.70
   8 -11 -11  151.58   12.20
 -11   3 -11  144.29    9.60
   8 -11 -11  166.78   13.50
   3   8 -11  153.48   13.30
 -11   3 -11  135.09    9.60
 -11   3 -11  145.59   11.30
   3   8 -11  152.98   10.30
 -11   3 -11  163.58   12.30
   8 -11 -11  133.49   10.00
   8 -11 -11  140.19   10.10
 -11   3 -11  143.19   11.70
  -8  11  11  155.58   13.20
  -3  -8  11  141.99    9.90
  11  -3  11  135.59   11.00
  -3  -8  11  161.58   12.30
  -3  -8  11  158.38   13.40
  -8  11  11  154.38   12.00
 -11   6 -11    9.90    2.40
   5 -11 -11   11.60    3.60
   5 -11 -11   12.00    3.50
 -11   6 -11    8.20    2.10
   5 -11 -11   11.50    3.40
   6   5 -11   14.60    4.40
 -11   6 -11   13.50    3.70
   5 -11 -11   11.50    4.10
   6   5 -11   12.30    3.60
  -6  -5  11   16.80    4.10
  -5  11  11   14.30    4.50
  -5  11  11   15.20    3.90
  11  -6  11   13.70    3.90
  11  -6  11   11.80    2.10
  11  -6  11   11.40    2.70
  -6  -5  11   15.00    4.60
   2 -11 -11   43.70    6.00
 -11   9 -11   41.50    5.80
   2 -11 -11   46.90    6.10
   9   2 -11   46.40    5.70
 -11   9 -11   36.10    4.70
   2 -11 -11   47.10    6.00
 -11   9 -11   36.20    3.70
   2 -11 -11   47.40    6.60
  11  -9  11   35.90    4.70
  11  -9  11   33.70    5.30
  -2  11  11   39.60    5.40
  -9  -2  11   30.60    5.70
  -2  11  11   37.50    6.20
  -9  -2  11   39.30    5.90
  -9  -2  11   29.40    2.60
  -9  -2  11   41.10    5.20
  -9  -2  11   32.60    2.70
  11  -9  11   32.20    4.00
   5   7 -11  378.96   26.20
   7 -12 -11  460.85   27.80
 -12   5 -11  401.56   22.60
   7 -12 -11  442.66   26.10
 -12   5 -11  413.06   25.30
   7 -12 -11  385.66   23.90
 -12   5 -11  346.97   22.80
   5   7 -11  436.96   26.30
   5   7 -11  431.36   22.70
   7 -12 -11  401.66   24.20
  -7  12  11  442.46   25.90
  -5  -7  11  453.45   26.00
  12  -5  11  374.36   23.40
  -7  12  11  414.46   27.00
  -5  -7  11  379.36   22.00
 -12   8 -11  107.29   10.10
 -12   8 -11   90.29    7.20
   4 -12 -11  111.89   10.30
   8   4 -11  109.29   10.20
   4 -12 -11  108.29   10.90
   4 -12 -11  108.59   10.10
   4 -12 -11  108.19    9.90
 -12   8 -11  101.49    8.30
  -8  -4  11  117.49   11.00
  -4  12  11  116.69   10.30
  -8  -4  11  124.59   10.30
  12  -8  11   97.19    7.90
  -8  -4  11  113.49   11.30
  12  -8  11  113.69   10.20
  12  -8  11  101.09    8.10
  -4  12  11  118.69   11.60
   0   0 -12 2182.18  106.89
   0   0  12 2005.90  106.29
   0   0  12 2407.76  107.39
  -1   2 -12 2062.99   98.89
   2  -1 -12 2037.70   99.59
   2  -1 -12 1814.52   98.09
   2  -1 -12 1953.30   98.89
  -1  -1 -12 2060.79   99.29
  -1  -1 -12 2013.20   98.39
   1  -2  12 2146.49   99.49
  -2   1  12 2153.38   99.29
   1   1  12 2066.79   99.39
  -2   1  12 2071.69   99.69
   1   1  12 2060.19   99.89
   1   1  12 1971.40   98.39
  -2   1 -12 2985.60  145.39
   1   1 -12 3079.19  144.29
   1  -2 -12 2887.01  144.99
  -2   1 -12 2873.21  145.19
   1   1 -12 3314.97  145.59
  -2   1 -12 3038.30  145.49
   1   1 -12 2795.72  143.99
   1  -2 -12 2931.11  145.29
   2  -1  12 3156.88  143.99
  -1   2  12 2784.02  145.19
  -1  -1  12 3034.60  145.59
  -1  -1  12 2928.41  145.29
  -1   2  12 2880.61  144.99
  -1   2  12 3052.79  145.69
   2  -1  12 3105.79  145.79
   2  -1  12 3056.79  143.89
  -1  -1  12 3159.08  145.39
   4  -2 -12 5071.99  220.38
   4  -2 -12 4387.66  219.58
  -2   4 -12 4885.71  221.08
  -2   4 -12 4682.33  220.68
  -2  -2 -12 4601.64  221.78
   4  -2 -12 4211.98  221.28
  -2   4 -12 4510.15  220.78
   2  -4  12 4371.96  220.88
  -4   2  12 4266.57  220.08
   2  -4  12 4609.14  220.68
   2   2  12 5119.89  221.28
   2  -4  12 4624.54  220.78
   2   2  12 4240.48  220.88
   3  -3 -12 1602.94   84.49
   3  -3 -12 1607.54   84.39
   0   3 -12 1827.22   85.79
   0   3 -12 1683.03   85.19
  -3   0 -12 1737.03   85.59
  -3   0 -12 1671.13   85.19
  -3   0 -12 1700.53   83.09
   3  -3 -12 1643.34   85.59
  -3   3  12 1824.32   85.09
   0  -3  12 1812.62   85.89
  -3   3  12 1751.12   85.99
   3   0  12 1789.02   85.49
   3   0  12 1813.82   85.99
  -3   3  12 1651.43   84.49
   3   0  12 1870.61   83.29
   3   0 -12 3177.08  158.68
  -3   3 -12 3300.07  158.28
  -3   3 -12 3404.76  158.08
   3   0 -12 3246.58  157.78
   0  -3 -12 3315.77  158.78
   0  -3 -12 3198.78  158.18
   3   0 -12 3079.19  156.08
   0  -3 -12 3120.19  157.88
  -3   3 -12 3291.67  156.98
   3  -3  12 3158.98  156.98
   3  -3  12 3450.65  158.48
  -3   0  12 3231.98  158.58
  -3   0  12 3296.37  157.78
   0   3  12 3189.78  158.08
   3  -3  12 3441.36  158.28
  -3   0  12 3202.28  156.08
   0   3  12 3438.26  159.08
   0   3  12 3253.27  158.18
  -3   6 -12 1008.80   48.20
  -3  -3 -12  934.91   46.80
   6  -3 -12  923.71   46.00
  -3   6 -12  946.51   47.20
  -3  -3 -12  962.50   47.80
  -3  -3 -12 1016.20   49.00
  -3   6 -12  908.91   47.20
   6  -3 -12  980.40   46.10
   3   3  12  856.01   48.20
  -6   3  12  920.71   48.40
  -6   3  12  892.81   45.80
   3   3  12  857.01   46.40
   3  -6  12  896.71   46.90
   3  -6  12  856.31   47.40
  -6   3  12  915.11   46.00
   3  -6  12  912.71   47.20
   3   3  12  862.71   47.40
  -4  -1 -12 2938.91  149.09
  -4  -1 -12 3153.28  149.99
   5  -4 -12 2920.71  148.29
  -4  -1 -12 2960.60  147.19
  -1   5 -12 2703.23  147.89
  -1   5 -12 3046.30  148.99
   5  -4 -12 3242.28  147.89
  -1   5 -12 3127.29  149.99
   1  -5  12 3228.78  150.08
  -5   4  12 3117.29  148.29
  -5   4  12 2984.10  149.99
   1  -5  12 3152.78  148.39
   1  -5  12 3190.78  148.99
   4   1  12 3006.00  149.88
  -5   4  12 3201.38  148.09
   4   1  12 3011.80  149.29
   4   1  12 3085.59  147.29
   2  -4 -12 1790.12   89.89
  -4   2 -12 1949.70   89.49
  -4   2 -12 1770.62   89.59
   2  -4 -12 1731.33   89.09
   2  -4 -12 1872.91   89.59
   2   2 -12 1766.52   89.39
   2   2 -12 1797.02   87.29
  -2   4  12 1851.01   89.69
   4  -2  12 1898.61   86.79
   4  -2  12 1752.42   86.69
  -2  -2  12 1892.01   90.29
  -2  -2  12 1722.03   89.09
  -2   4  12 1778.92   89.19
  -2   4  12 1836.22   90.09
   4  -2  12 1850.11   89.59
   5  -1 -12 1554.44   79.19
  -1  -4 -12 1602.24   81.69
   5  -1 -12 1602.64   80.89
  -4   5 -12 1684.03   81.29
  -4   5 -12 1628.04   81.19
  -1  -4 -12 1634.24   82.69
  -1  -4 -12 1644.44   81.89
   5  -1 -12 1674.53   82.59
  -4   5 -12 1717.23   82.09
  -5   1  12 1632.44   80.69
   1   4  12 1608.44   81.69
   4  -5  12 1795.42   82.29
  -5   1  12 1585.84   79.19
   1   4  12 1647.24   81.79
   4  -5  12 1728.13   81.39
   4  -5  12 1616.64   80.99
  -5   1  12 1682.13   82.59
   1   4  12 1602.24   82.69
  -4   8 -12 2767.42  137.19
  -4   8 -12 2762.72  136.19
   8  -4 -12 2839.92  137.39
   8  -4 -12 2538.35  133.89
   8  -4 -12 2931.51  134.79
  -4   8 -12 2745.23  135.99
  -4  -4 -12 2695.43  136.19
  -4  -4 -12 2857.71  137.99
  -4  -4 -12 2940.11  136.79
   4  -8  12 2686.33  136.79
   4  -8  12 2835.72  136.29
   4   4  12 2872.01  137.99
  -8   4  12 2953.30  137.99
   4  -8  12 2633.54  135.49
  -8   4  12 2562.74  134.39
  -8   4  12 2746.93  134.09
   4   4  12 2743.13  136.39
   4   4  12 2839.32  136.09
   7  -5 -12 1709.33   82.79
  -5  -2 -12 1708.93   86.19
  -2   7 -12 1805.72   86.39
  -2   7 -12 1638.44   84.89
  -5  -2 -12 1754.12   85.19
  -5  -2 -12 1629.34   83.49
   7  -5 -12 1691.53   84.19
   7  -5 -12 1644.64   85.69
  -2   7 -12 1535.45   83.99
  -7   5  12 1692.63   83.99
  -7   5  12 1795.72   86.59
   2  -7  12 1681.63   85.89
   2  -7  12 1670.83   84.59
   5   2  12 1736.73   83.79
   2  -7  12 1722.83   84.39
   5   2  12 1763.92   85.39
   5   2  12 1718.73   86.09
   4  -5 -12 2002.40   97.99
   1   4 -12 2139.99   99.99
  -5   1 -12 2014.20   98.99
  -5   1 -12 1994.00   99.09
   4  -5 -12 1966.40   99.59
   4  -5 -12 1950.40   98.49
  -5   1 -12 2025.80   99.29
  -4   5  12 2071.89   98.49
  -1  -4  12 1988.50   99.89
  -4   5  12 1917.51   99.69
  -4   5  12 1942.71   98.49
  -1  -4  12 2084.89   98.89
   5  -1  12 1981.50   99.19
  -5   4 -12 2583.64  126.89
   1  -5 -12 2520.15  128.19
  -5   4 -12 2642.44  127.99
   1  -5 -12 2518.35  128.29
   1  -5 -12 2483.05  127.49
   4   1 -12 2280.17  126.99
  -5   4 -12 2737.03  125.99
  -1   5  12 2831.32  128.79
  -4  -1  12 2552.94  128.19
   5  -4  12 2619.94  125.89
  -4  -1  12 2552.64  127.09
  -4  -1  12 2686.43  128.89
   5  -4  12 2748.63  127.49
   5  -4  12 2808.52  128.39
  -1   5  12 2538.45  127.59
  -1   5  12 2693.23  128.49
  -5   7 -12   18.40    3.10
   7  -2 -12   14.50    2.30
  -2  -5 -12   16.40    3.90
  -5   7 -12   15.00    2.50
   7  -2 -12   15.70    2.00
  -2  -5 -12   13.20    3.10
  -2  -5 -12   13.90    3.10
  -5   7 -12   15.60    3.40
   7  -2 -12   13.60    3.40
  -5  -5 -12  736.53   40.00
  -5  10 -12  728.13   39.60
  10  -5 -12  768.32   41.20
  -5  -5 -12  761.52   41.90
  10  -5 -12  660.03   37.00
  10  -5 -12  700.13   38.20
  -5  -5 -12  759.52   40.20
  -5  10 -12  821.62   41.90
  -5  10 -12  734.43   40.10
 -10   5  12  806.72   41.90
   5   5  12  691.43   39.90
   5   5  12  766.12   41.70
   5   5  12  747.73   40.20
 -10   5  12  662.03   38.00
 -10   5  12  761.32   37.10
   5 -10  12  684.53   38.90
  -3   9 -12 1200.08   61.09
  -3   9 -12 1128.29   58.99
  -6  -3 -12 1175.08   59.49
   9  -6 -12 1178.28   58.59
   9  -6 -12 1187.18   60.49
  -6  -3 -12 1118.99   58.49
  -3   9 -12 1159.38   59.49
   3  -9  12 1133.19   58.89
  -9   6  12 1083.19   58.09
   3  -9  12 1096.99   60.39
   6   3  12 1171.98   58.89
   3  -9  12 1141.99   58.99
   0   6 -12  884.11   47.60
   0   6 -12 1025.00   49.30
  -6   0 -12  891.51   45.00
  -6   0 -12  894.51   47.50
   6  -6 -12  885.01   47.10
  -6   0 -12  974.30   48.40
   6  -6 -12  911.61   48.40
   6  -6 -12  920.31   45.70
   0   6 -12  848.72   46.10
   6   0  12  890.71   48.00
  -6   6  12  893.21   46.10
   0  -6  12  983.30   49.10
  -6   6  12  897.71   48.60
  -6   6  12  903.31   47.10
   0  -6  12  920.91   47.50
   0  -6  12  917.31   46.20
  -6   3 -12 1640.74   78.59
   3  -6 -12 1618.54   79.19
   3   3 -12 1586.04   79.29
  -6   3 -12 1641.84   79.59
   3  -6 -12 1577.24   79.09
   3   3 -12 1627.04   76.29
  -6   3 -12 1626.14   75.99
   3   3 -12 1636.14   80.19
   3  -6 -12 1623.04   80.29
  -3   6  12 1608.44   79.39
   6  -3  12 1476.35   78.69
  -3   6  12 1519.95   79.99
  -3  -3  12 1553.44   80.29
  -3  -3  12 1568.44   78.89
   6  -3  12 1503.05   75.89
  -3   6  12 1570.74   79.19
  -6   6 -12 2805.52  136.99
   6   0 -12 2634.34  135.69
   0  -6 -12 2760.02  137.29
   0  -6 -12 2775.72  136.69
  -6   6 -12 2874.31  135.59
  -6   6 -12 2851.81  135.49
   0  -6 -12 2877.71  137.79
   6  -6  12 2867.71  137.09
  -6   0  12 2836.72  137.89
  -6   0  12 2822.52  137.29
  -6   0  12 2737.73  135.49
   0   6  12 2811.72  137.69
   6  -6  12 2573.04  135.29
   0   6  12 2762.72  137.29
   6  -6  12 2797.42  135.79
   9  -3 -12 1550.64   80.09
  -6   9 -12 1726.43   82.99
   9  -3 -12 1680.83   85.49
  -6   9 -12 1589.14   80.99
  -3  -6 -12 1661.73   82.59
   6  -9  12 1640.64   82.49
   3   6  12 1726.33   83.89
   6  -9  12 1609.34   80.79
   3   6  12 1583.64   82.29
  -9   3  12 1487.15   79.29
  -9   3  12 1611.74   79.69
  -6  -6 -12  349.37   23.00
  -6  12 -12  314.97   20.50
  -6  -6 -12  330.17   21.40
  -6  -6 -12  343.57   21.10
  -6  12 -12  328.57   22.40
  12  -6 -12  323.27   19.40
  12  -6 -12  336.27   21.80
  -6  12 -12  330.67   21.20
  12  -6 -12  271.67   17.30
  -6  -6 -12  347.27   22.60
   6 -12  12  330.67   22.20
 -12   6  12  284.77   18.80
 -12   6  12  353.96   22.60
   6 -12  12  310.57   19.80
   6   6  12  318.47   21.40
   6   6  12  352.96   21.40
   6 -12  12  338.37   21.30
  -4  11 -12  121.69   10.30
  -7  -4 -12  122.69   10.00
  -4  11 -12  124.49   10.20
  11  -7 -12  129.19   11.00
  -7  -4 -12  129.69   11.50
  11  -7 -12  128.09    9.70
  -7  -4 -12  131.69   10.50
  -4  11 -12  141.39   12.00
   4 -11  12  111.99    9.60
   4 -11  12  118.89   11.10
 -11   7  12  107.09    7.00
   7   4  12  118.39   10.30
 -11   7  12  114.19    9.20
 -11   7  12  126.19   11.40
   7   4  12  115.79   10.00
   4 -11  12  121.39   10.10
   8  -7 -12  513.15   29.50
  -1   8 -12  502.95   28.80
  -7  -1 -12  555.94   31.00
  -7  -1 -12  515.45   28.10
  -1   8 -12  561.44   31.60
  -7  -1 -12  546.15   30.00
   7   1  12  551.24   30.10
   1  -8  12  560.64   30.00
   1  -8  12  529.25   28.90
   1  -8  12  540.35   31.30
   7   1  12  520.95   27.90
  -8   7  12  511.35   29.20
   7   1  12  536.25   30.70
  -7   2 -12 2114.89  105.39
   2   5 -12 2208.28  106.89
   5  -7 -12 2273.67  110.49
   2   5 -12 2216.98  109.39
   5  -7 -12 2065.99  107.79
   2   5 -12 2317.87  110.59
  -7   2 -12 2105.79  108.59
  -7   2 -12 2350.56  109.59
  -7   2 -12 2287.37  105.59
  -7   2 -12 2227.48  109.39
   5  -7 -12 2323.07  109.29
  -5   7  12 2202.58  108.99
  -5   7  12 2126.59  110.09
  -5   7  12 2211.58  108.39
  -2  -5  12 2299.17  109.19
  -2  -5  12 2043.90  110.09
   7  -2  12 2096.89  108.89
  -7   5 -12  833.02   42.20
   5   2 -12  793.32   43.90
  -7   5 -12  827.22   42.90
  -7   5 -12  877.81   44.80
   2  -7 -12  854.61   45.50
   2  -7 -12  850.21   44.80
   2  -7 -12  798.12   44.20
   7  -5  12  824.32   43.40
  -5  -2  12  833.72   45.00
  -2   7  12  860.51   44.90
  -5  -2  12  929.61   46.00
  -2   7  12  832.52   45.30
  -2   7  12  804.32   44.20
  -5  -2  12  823.32   43.80
   7  -5  12  909.61   45.00
   8  -1 -12 1213.58   64.29
  -7   8 -12 1283.37   65.09
  -1  -7 -12 1301.87   66.49
  -7   8 -12 1167.48   63.79
  -8   1  12 1381.66   65.39
   7  -8  12 1261.47   65.09
  -8   1  12 1141.09   61.79
   7  -8  12 1302.67   64.29
   1   7  12 1270.57   66.29
   1   7  12 1486.95   69.39
  -4  -7 -12  709.93   39.50
  -4  -7 -12  679.73   38.50
  11  -4 -12  673.33   38.70
  -7  11 -12  733.33   38.70
  -4  -7 -12  710.63   38.20
  11  -4 -12  652.23   35.30
  -4  -7 -12  722.73   40.00
  11  -4 -12  636.14   35.20
  -7  11 -12  661.13   36.80
 -11   4  12  604.84   34.60
   4   7  12  708.53   38.00
   7 -11  12  730.63   38.50
 -11   4  12  619.64   35.10
   7 -11  12  667.73   36.30
 -11   4  12  729.53   39.40
   4   7  12  660.23   38.40
  -2  10 -12  685.23   37.60
  10  -8 -12  669.43   37.70
  -2  10 -12  693.83   38.70
  -2  10 -12  661.93   39.70
  -8  -2 -12  704.43   38.20
  10  -8 -12  665.23   34.10
  -8  -2 -12  707.33   39.60
  10  -8 -12  708.23   39.40
  -8  -2 -12  665.13   36.80
 -10   8  12  668.73   37.30
   2 -10  12  686.13   38.00
   8   2  12  746.63   38.60
   2 -10  12  740.83   40.30
   8   2  12  714.43   39.40
   8   2  12  626.04   36.40
 -10   8  12  782.82   40.70
 -10   8  12  654.43   34.40
   2 -10  12  690.23   37.50
  -8   1 -12 1004.20   52.59
  -8   1 -12 1005.30   49.50
  -8   1 -12 1043.90   52.59
  -8   1 -12  946.61   49.10
   7  -8 -12  972.80   49.99
  -8   1 -12  987.70   52.49
   7  -8 -12 1037.20   52.49
   1   7 -12 1003.60   50.69
  -7   8  12 1051.69   50.79
  -1  -7  12  979.00   50.39
  -7   8  12 1016.70   52.19
   8  -1  12  938.11   52.19
   4   4 -12  956.90   50.09
   4  -8 -12  965.80   50.49
  -8   4 -12  876.11   47.40
   4   4 -12  896.51   45.40
   4  -8 -12  899.01   48.80
  -8   4 -12  832.72   45.70
   4  -8 -12  928.91   48.60
  -8   4 -12  924.61   49.10
   4   4 -12  837.42   48.60
  -4   8  12  996.70   50.59
  -4  -4  12  910.81   45.40
   8  -4  12  899.51   45.60
   8  -4  12  994.00   49.50
  -4   8  12  975.10   49.20
  -4  -4  12  997.00   49.00
  -4  -4  12  988.20   50.69
   8  -4  12  939.31   48.20
  -4   8  12  986.60   49.00
  -8   7 -12 1426.46   72.49
   1  -8 -12 1465.45   74.89
   1  -8 -12 1462.05   75.19
   7   1 -12 1375.26   73.29
  -8   7 -12 1315.87   71.69
  -1   8  12 1483.25   74.89
   8  -7  12 1488.15   72.69
  -7  -1  12 1604.84   73.49
  -1   8  12 1454.75   75.19
  -8  10 -12  350.56   21.30
  10  -2 -12  319.27   17.60
  -2  -8 -12  346.57   21.90
  -8  10 -12  336.37   20.90
  10  -2 -12  328.87   19.30
  -2  -8 -12  351.56   22.40
  -8  10 -12  312.87   19.00
  -2  -8 -12  332.07   20.80
   8 -10  12  338.17   21.00
 -10   2  12  314.37   18.70
   8 -10  12  326.37   20.80
   8 -10  12  318.57   19.00
 -10   2  12  300.17   17.40
   2   8  12  316.47   20.40
 -10   2  12  334.67   21.40
  12  -9 -12  565.54   33.20
  -9  -3 -12  558.74   33.00
  -9  -3 -12  486.35   30.60
  -3  12 -12  555.14   31.70
  -3  12 -12  544.85   32.40
  12  -9 -12  580.64   31.80
  -9  -3 -12  558.74   33.60
  -9  -3 -12  556.64   31.80
  -3  12 -12  526.35   33.70
 -12   9  12  620.04   34.80
   3 -12  12  554.84   33.90
   3 -12  12  540.85   31.70
   9   3  12  582.94   32.30
   3 -12  12  514.75   31.20
   9   3  12  483.05   30.50
 -12   9  12  520.95   30.90
  -9   0 -12  595.24   33.60
  -9   0 -12  657.53   35.90
  -9   0 -12  586.84   33.00
   9  -9 -12  592.24   32.50
   9  -9 -12  679.63   37.50
  -9   0 -12  672.93   36.50
   0   9 -12  657.03   37.80
   0   9 -12  663.63   36.70
   0   9 -12  660.43   34.90
   0  -9  12  631.74   34.40
   9   0  12  635.84   36.30
   0  -9  12  686.13   36.30
   0  -9  12  641.94   37.50
  -9   9  12  675.83   37.90
  -9   3 -12  963.70   51.89
   3   6 -12 1013.30   54.29
   3   6 -12 1011.30   53.29
   3   6 -12 1001.70   50.19
  -9   3 -12  914.61   49.30
  -9   3 -12  873.01   49.30
   6  -9 -12 1029.80   51.69
   6  -9 -12 1089.49   54.79
   9  -3  12  988.20   52.29
  -6   9  12 1097.79   54.99
  -3  -6  12 1032.40   54.59
  -3  -6  12 1058.99   53.09
  -6   9  12 1062.79   52.09
  -3  -6  12  972.70   49.99
  -9   6 -12  301.47   18.30
   3  -9 -12  344.17   21.00
  -9   6 -12  315.97   18.60
  -9   6 -12  357.96   21.20
   3  -9 -12  334.17   20.70
   6   3 -12  328.77   20.50
   9  -6  12  279.67   17.90
   9  -6  12  359.16   21.40
  -6  -3  12  358.56   20.60
  -6  -3  12  361.06   22.30
   9  -6  12  325.97   19.40
  -3   9  12  365.96   21.20
  -6  -3  12  350.56   21.80
   0  -9 -12  901.41   49.30
  -9   9 -12  895.51   48.50
   0  -9 -12  924.01   48.30
   0  -9 -12  897.81   48.90
  -9   9 -12  843.42   46.90
   9   0 -12  870.61   47.10
  -9   9 -12  794.12   45.30
   0  -9 -12  904.31   49.30
   9  -9  12  962.30   47.80
  -9   0  12  765.02   43.30
  -9   0  12  965.30   49.20
  -9   0  12  835.72   43.50
   9  -9  12  880.91   46.20
   9  -9  12  930.91   48.50
   0   9  12  935.61   49.60
  -9   0  12  935.21   46.90
   0   9  12  891.61   47.90
  -9   0  12  985.30   50.29
  -9  12 -12  252.17   17.60
  -3  -9 -12  249.28   18.60
  -9  12 -12  243.08   17.40
  -3  -9 -12  267.17   18.50
  -3  -9 -12  247.78   18.00
  -9  12 -12  222.18   15.20
  -3  -9 -12  263.37   17.50
  12  -3 -12  224.18   15.00
  12  -3 -12  197.68   13.60
   3   9  12  259.97   17.10
 -12   3  12  216.88   14.30
 -12   3  12  208.08   13.80
 -12   3  12  269.57   18.20
   9 -12  12  255.37   17.80
   3   9  12  240.38   18.70
   9 -12  12  226.78   15.00
   9 -12  12  260.67   17.60
 -10  -1 -12  407.56   24.70
  11 -10 -12  443.16   26.50
 -10  -1 -12  451.05   26.90
 -10  -1 -12  451.95   27.60
  11 -10 -12  369.76   21.60
  11 -10 -12  465.15   28.10
  -1  11 -12  433.36   28.30
  -1  11 -12  437.36   27.10
 -10  -1 -12  381.26   23.80
  11 -10 -12  400.06   21.60
 -11  10  12  453.05   26.30
 -11  10  12  493.55   29.10
   1 -11  12  459.75   28.60
   1 -11  12  487.85   27.10
   2   8 -12  707.73   36.90
 -10   2 -12  764.92   39.40
   8 -10 -12  747.23   39.40
 -10   2 -12  701.13   38.70
 -10   2 -12  708.73   38.90
   8 -10 -12  628.64   36.10
 -10   2 -12  662.43   35.90
   2   8 -12  695.73   40.40
   8 -10 -12  765.62   41.10
   2   8 -12  727.73   39.70
  10  -2  12  686.03   38.50
  -2  -8  12  708.93   40.60
  -8  10  12  742.53   40.90
  -2  -8  12  626.74   36.20
  -8  10  12  663.63   38.50
   5 -10 -12  998.40   52.99
   5 -10 -12 1089.99   55.19
 -10   5 -12  976.00   52.79
   5   5 -12  973.70   52.99
   5 -10 -12  978.90   52.49
 -10   5 -12  897.61   50.49
   5   5 -12 1012.20   54.19
  -5  10  12 1063.49   53.29
  -5  -5  12 1025.70   52.79
  -5  10  12 1022.50   54.59
  -5  -5  12 1077.49   54.99
  10  -5  12  891.61   49.30
  10  -5  12  970.30   51.39
  -5  -5  12  944.51   48.80
  10  -5  12 1041.30   53.29
 -10   8 -12  509.05   29.20
   2 -10 -12  590.34   33.80
   2 -10 -12  565.24   32.90
   2 -10 -12  588.14   32.50
 -10   8 -12  595.24   32.80
 -10   8 -12  510.65   30.10
   2 -10 -12  576.94   32.70
  10  -8  12  504.95   29.90
  -2  10  12  573.24   32.30
  -8  -2  12  578.44   33.90
  10  -8  12  525.85   30.20
  -2  10  12  571.64   33.70
  10  -8  12  567.44   32.40
  -8  -2  12  589.74   33.20
 -10  11 -12  222.28   16.00
 -10  11 -12  202.68   14.90
  -1 -10 -12  223.58   16.90
  11  -1 -12  201.08   14.20
  -1 -10 -12  219.78   16.40
 -10  11 -12  193.28   13.10
  -1 -10 -12  218.68   16.60
  -1 -10 -12  234.28   16.00
   1  10  12  205.88   15.20
 -11   1  12  214.18   16.70
  10 -11  12  207.18   15.30
 -11   1  12  204.58   15.70
  10 -11  12  202.38   15.40
 -11   1  12  192.88   13.60
   1  10  12  204.08   16.20
  10 -11  12  187.28   13.30
 -11   1 -12  457.15   26.00
  10 -11 -12  428.56   25.10
 -11   1 -12  441.16   28.80
  10 -11 -12  540.15   31.20
  10 -11 -12  453.05   25.40
   1  10 -12  525.45   28.00
  10 -11 -12  538.35   29.80
   1  10 -12  539.05   30.40
 -11   1 -12  483.95   29.10
 -11   1 -12  536.55   29.50
   1  10 -12  480.25   30.70
  -1 -10  12  485.15   29.10
  11  -1  12  490.45   30.60
 -10  11  12  505.35   29.00
  -1 -10  12  472.25   30.60
  -1 -10  12  404.26   26.60
 -10  11  12  514.15   31.10
   7 -11 -12  707.83   38.70
 -11   4 -12  649.34   36.40
   7 -11 -12  624.84   34.90
   4   7 -12  643.14   33.50
   7 -11 -12  694.43   37.10
   4   7 -12  767.92   42.40
 -11   4 -12  640.14   35.00
   7 -11 -12  587.64   34.70
   4   7 -12  661.13   37.10
 -11   4 -12  586.04   33.00
 -11   4 -12  720.13   37.10
 -11   4 -12  548.55   32.80
  -4  -7  12  674.13   38.40
  -7  11  12  686.03   36.80
  11  -4  12  602.54   35.10
  -7  11  12  652.03   40.20
  -4  -7  12  678.73   36.70
  -4  -7  12  551.24   32.90
   4 -11 -12  842.02   43.90
 -11   7 -12  799.12   42.10
 -11   7 -12  697.93   38.30
   7   4 -12  790.42   41.90
 -11   7 -12  708.33   38.70
  -7  -4  12  635.44   36.50
  -7  -4  12  864.91   41.90
  -4  11  12  854.21   42.30
  -7  -4  12  641.84   36.40
  -7  -4  12  747.73   43.20
  11  -7  12  665.93   39.00
  11  -7  12  684.33   38.40
  11  -7  12  777.82   41.80
  -4  11  12  843.22   44.00
  10   1 -12  394.56   24.10
   1 -11 -12  385.26   25.90
 -11  10 -12  347.87   24.30
   1 -11 -12  394.86   25.20
   1 -11 -12  401.26   25.80
   1 -11 -12  406.06   24.90
 -11  10 -12  327.17   21.10
  -1  11  12  440.46   26.80
  -1  11  12  428.06   24.90
 -10  -1  12  409.76   23.80
  11 -10  12  391.86   22.40
  11 -10  12  424.46   25.20
 -10  -1  12  339.37   19.50
  11 -10  12  410.46   23.80
 -10  -1  12  359.16   19.60
 -10  -1  12  434.66   25.80
   9 -12 -12  446.96   25.20
   3   9 -12  436.46   29.00
 -12   3 -12  494.65   28.20
 -12   3 -12  441.36   26.90
   9 -12 -12  489.05   29.90
 -12   3 -12  423.36   24.50
 -12   3 -12  460.35   27.70
   9 -12 -12  493.85   28.50
   3   9 -12  449.36   25.50
 -12   3 -12  381.46   24.40
  -3  -9  12  448.16   29.30
  -9  12  12  498.55   30.00
  12  -3  12  420.46   26.60
  -9  12  12  458.15   27.70
  -3  -9  12  487.05   28.20
   6 -12 -12  598.34   32.90
   6 -12 -12  627.54   34.20
   6   6 -12  571.04   34.90
   6   6 -12  623.24   34.50
   6 -12 -12  627.54   36.00
 -12   6 -12  486.45   30.10
   6   6 -12  611.24   30.00
 -12   6 -12  512.75   30.60
 -12   6 -12  584.34   33.70
   6 -12 -12  579.14   33.00
  12  -6  12  517.35   31.30
  -6  -6  12  649.64   34.20
  12  -6  12  515.65   29.90
  -6  12  12  658.43   34.50
  -6  -6  12  495.35   29.20
  -6  12  12  617.84   35.80
  12  -6  12  602.44   33.90
  -6  -6  12  560.84   35.10
   3 -12 -12  574.84   34.30
 -12   9 -12  462.15   28.50
   3 -12 -12  580.34   33.00
   3 -12 -12  577.24   33.10
   9   3 -12  575.04   32.70
 -12   9 -12  570.34   33.00
 -12   9 -12  494.35   30.10
   3 -12 -12  563.54   33.30
  -3  12  12  599.24   33.10
  -9  -3  12  568.04   33.70
  12  -9  12  486.05   29.50
  -3  12  12  620.54   35.10
  -9  -3  12  648.74   34.50
  -9  -3  12  577.04   34.60
  12  -9  12  573.74   32.80
  12  -9  12  523.85   30.20
  -9  -3  12  503.85   27.00
  -9  -3  12  479.65   27.00
   1  -1 -13  416.96   22.30
   1  -1 -13  435.36   22.00
  -1   0 -13  435.56   21.60
  -1   0 -13  425.86   22.20
   1  -1 -13  438.96   22.50
  -1   0 -13  431.46   22.60
   0   1 -13  419.66   21.80
   0  -1  13  408.06   22.00
   0  -1  13  393.86   22.00
   1   0  13  402.26   22.10
  -1   1  13  416.56   22.40
  -1   1  13  404.36   21.80
   1   0  13  359.46   22.40
   1   0  13  412.46   21.50
   0  -1  13  427.36   22.60
  -1   1  13  435.16   22.70
  -2  -1 -13  360.26   20.60
  -2  -1 -13  313.87   18.60
  -2  -1 -13  325.47   19.90
  -1   3 -13  343.97   19.50
   3  -2 -13  356.36   20.50
  -1   3 -13  369.66   20.10
  -1   3 -13  352.46   20.10
   3  -2 -13  369.76   19.70
   1  -3  13  379.36   20.20
  -3   2  13  377.26   20.80
   2   1  13  351.06   20.20
   2   1  13  369.76   19.10
  -3   2  13  350.26   19.10
   1  -3  13  406.06   20.50
   2   1  13  355.26   20.70
  -3   2  13  419.46   20.20
   1  -3  13  388.76   19.80
  -2   2 -13  311.67   17.90
   2   0 -13  317.77   17.90
  -2   2 -13  315.07   17.90
   0  -2 -13  306.97   17.90
   0  -2 -13  316.97   18.30
   0  -2 -13  293.07   17.50
  -2   2 -13  287.17   17.50
   2   0 -13  300.77   16.70
   2   0 -13  297.17   18.10
   2  -2  13  355.36   17.30
  -2   0  13  380.16   18.30
   0   2  13  311.87   17.70
  -2   0  13  332.77   16.80
   2  -2  13  354.76   18.50
   0   2  13  334.97   18.10
   2  -2  13  326.47   17.00
   0   2  13  353.06   18.70
  -2   0  13  327.57   18.30
   5  -3 -13  211.68   11.40
  -3  -2 -13  185.28   12.10
  -2   5 -13  176.18   11.80
   5  -3 -13  196.68   11.10
  -3  -2 -13  190.98   12.80
  -2   5 -13  196.58   12.50
   5  -3 -13  193.28   12.70
  -2   5 -13  180.48   11.50
  -5   3  13  199.88   11.30
   2  -5  13  178.78   11.60
  -5   3  13  198.98   13.00
   2  -5  13  174.38   12.10
  -5   3  13  179.38   10.80
   2  -5  13  162.48   11.40
   3   2  13  177.78   12.60
  -3   1 -13 1841.32   88.39
   1   2 -13 1688.43   86.39
   2  -3 -13 1686.43   87.69
  -3   1 -13 1742.93   87.99
   2  -3 -13 1657.13   87.39
   1   2 -13 1937.11   86.79
  -3   1 -13 1745.13   88.09
   2  -3 -13 1800.02   88.29
   1   2 -13 1856.31   88.19
  -2   3  13 1808.32   87.69
  -2   3  13 1817.32   88.39
  -1  -2  13 1800.92   87.89
  -2   3  13 1870.21   88.29
   3  -1  13 1840.82   88.59
   3  -1  13 1799.72   85.89
   3  -1  13 1783.12   85.89
  -1  -2  13 1778.92   88.49
  -1  -2  13 1761.02   88.19
   4  -1 -13  645.74   31.00
  -3   4 -13  566.34   31.00
  -3   4 -13  574.34   31.20
  -1  -3 -13  538.65   31.20
  -1  -3 -13  540.75   30.80
  -3   4 -13  595.94   31.00
  -1  -3 -13  571.54   32.00
   4  -1 -13  580.84   31.90
   4  -1 -13  519.05   29.30
   3  -4  13  626.34   31.40
   1   3  13  593.34   31.10
  -4   1  13  583.34   31.90
  -4   1  13  672.43   31.00
   3  -4  13  651.23   31.10
   1   3  13  611.44   32.30
   1   3  13  579.44   31.40
  -4   1  13  587.94   29.40
   3  -4  13  641.24   31.70
   7  -4 -13  490.25   23.90
   7  -4 -13  484.95   24.40
   7  -4 -13  453.65   26.20
  -3   7 -13  477.65   26.40
  -3   7 -13  432.86   25.10
  -4  -3 -13  469.55   26.80
  -3   7 -13  451.75   25.10
  -4  -3 -13  468.45   25.70
  -7   4  13  419.96   23.60
   4   3  13  449.36   26.50
   3  -7  13  445.86   25.10
  -7   4  13  417.66   23.90
  -7   4  13  473.85   26.70
   3  -7  13  412.16   24.70
   4   3  13  424.76   24.40
   3  -7  13  449.86   25.90
   4   3  13  446.86   25.60
   0   4 -13  248.58   15.20
   4  -4 -13  232.18   13.80
   0   4 -13  226.18   13.40
  -4   0 -13  228.88   14.50
   0   4 -13  235.78   14.60
   4  -4 -13  234.78   15.00
  -4   0 -13  213.08   12.20
   4  -4 -13  226.28   13.90
  -4   4  13  240.78   15.30
   0  -4  13  250.47   14.60
   0  -4  13  252.77   13.70
   0  -4  13  265.57   15.50
  -4   4  13  252.17   14.30
   4   0  13  241.98   15.10
  -4   4  13  245.88   14.10
   4   0  13  272.27   12.40
   4   0  13  245.98   14.80
   3   1 -13 1269.47   64.59
   1  -4 -13 1269.47   65.09
  -4   3 -13 1278.37   64.49
   3   1 -13 1319.07   62.39
   1  -4 -13 1308.97   65.39
   1  -4 -13 1252.07   64.79
  -4   3 -13 1321.97   62.99
  -4   3 -13 1324.07   65.19
   3   1 -13 1334.47   62.39
  -1   4  13 1228.58   65.09
  -3  -1  13 1294.97   65.39
   4  -3  13 1240.28   62.89
  -1   4  13 1271.07   64.79
  -3  -1  13 1328.17   64.59
   4  -3  13 1279.87   64.89
   4  -3  13 1348.07   65.29
  -3  -1  13 1344.07   65.89
  -1   4  13 1326.17   65.59
  -4   6 -13  957.40   48.70
   6  -2 -13  887.51   47.30
  -4   6 -13  923.71   48.00
  -2  -4 -13  927.51   48.40
  -2  -4 -13  952.50   48.80
   6  -2 -13  792.22   50.29
   6  -2 -13  862.21   46.30
  -4   6 -13  945.11   48.60
   4  -6  13  891.71   48.20
   4  -6  13 1032.90   49.00
   2   4  13  971.10   48.40
   2   4  13 1000.10   50.09
  -6   2  13 1039.70   49.99
   2   4  13  955.10   48.80
   4  -6  13  931.11   48.00
  -6   2  13 1003.50   47.50
  -5  -4 -13   71.89    7.60
   9  -5 -13   64.79    7.00
  -4   9 -13   62.99    6.40
  -4   9 -13   65.49    6.50
  -5  -4 -13   63.29    6.30
   9  -5 -13   68.99    5.80
   9  -5 -13   60.49    4.90
  -4   9 -13   68.29    7.30
   5   4  13   69.99    8.70
   4  -9  13   68.29    6.50
   4  -9  13   69.89    7.30
  -9   5  13   63.29    5.00
   4  -9  13   67.79    6.30
   5   4  13   74.39    6.70
  -9   5  13   60.49    5.50
  -9   5  13   70.19    8.80
   6  -5 -13  712.23   38.30
  -1   6 -13  703.83   38.40
  -5  -1 -13  704.83   37.60
  -5  -1 -13  702.83   38.30
   6  -5 -13  731.23   37.00
  -5  -1 -13  688.53   35.40
   6  -5 -13  683.33   35.80
  -1   6 -13  710.13   37.60
  -1   6 -13  671.33   36.30
   1  -6  13  710.93   37.30
  -6   5  13  694.73   36.60
   5   1  13  744.33   35.60
   5   1  13  709.93   38.30
   5   1  13  717.33   37.70
   1  -6  13  705.03   38.40
   1  -6  13  698.83   36.50
  -5   2 -13  178.58   13.30
   3  -5 -13  184.28   12.40
   3  -5 -13  175.48   11.50
   2   3 -13  180.18    9.80
   2   3 -13  210.48   12.80
   2   3 -13  169.48   11.60
   3  -5 -13  186.38   11.60
  -5   2 -13  194.68   11.80
  -2  -3  13  199.38   12.80
  -3   5  13  182.28   11.80
  -2  -3  13  172.58   11.50
  -3   5  13  169.18   12.20
  -3   5  13  162.78   11.30
  -2  -3  13  183.58    9.90
   5  -2  13  177.08   11.80
   0  -5 -13  418.56   24.00
  -5   5 -13  430.36   22.60
   0  -5 -13  410.16   23.30
   0  -5 -13  430.16   23.70
   5   0 -13  398.46   22.50
  -5   5 -13  427.86   23.60
  -5   0  13  420.36   22.50
   5  -5  13  403.86   22.70
   0   5  13  417.66   23.70
   5  -5  13  384.26   21.80
   0   5  13  399.76   23.90
   0   5  13  388.16   23.00
   5  -5  13  422.46   23.50
  -5   8 -13  492.35   29.00
  -3  -5 -13  493.15   29.60
   8  -3 -13  502.95   28.30
  -5   8 -13  526.05   30.00
  -3  -5 -13  545.45   30.20
   8  -3 -13  625.44   33.00
   8  -3 -13  502.95   27.60
  -5   8 -13  538.85   30.40
   5  -8  13  560.84   29.30
  -8   3  13  591.94   31.50
   3   5  13  538.25   30.10
  -8   3  13  532.65   28.10
  -8   3  13  510.25   27.60
   3   5  13  587.74   31.80
   5  -8  13  564.34   30.20
   3   5  13  544.85   29.90
   5  -8  13  525.25   30.10
  -6  -5 -13  310.37   20.20
  -5  11 -13  317.27   20.40
  -5  11 -13  302.77   21.50
  -5  11 -13  326.17   20.40
  11  -6 -13  341.67   21.60
  -6  -5 -13  333.17   22.20
  11  -6 -13  329.67   19.20
  11  -6 -13  285.87   17.20
  -6  -5 -13  330.77   20.60
   5 -11  13  310.07   19.60
 -11   6  13  307.87   18.80
   5 -11  13  312.87   20.40
   5 -11  13  332.97   21.80
 -11   6  13  364.46   22.50
   6   5  13  318.07   20.60
   6   5  13  356.86   21.10
  -6  -2 -13   33.40    3.80
   8  -6 -13   28.90    3.10
  -2   8 -13   30.80    4.00
  -2   8 -13   34.90    4.60
  -6  -2 -13   33.90    5.10
   8  -6 -13   34.20    4.20
  -2   8 -13   32.00    5.00
  -6  -2 -13   35.60    4.60
   2  -8  13   41.10    4.60
  -8   6  13   39.30    4.30
   2  -8  13   37.10    5.20
  -8   6  13   36.10    3.50
   6   2  13   44.10    5.10
   6   2  13   42.30    5.40
   6   2  13   38.90    4.10
   2  -8  13   38.60    4.40
   5  -6 -13    6.30    1.90
   1   5 -13    5.80    1.60
  -6   1 -13    5.40    2.00
   1   5 -13    5.20    2.00
   1   5 -13    6.80    2.50
  -6   1 -13    4.90    2.10
  -6   1 -13    5.00    2.00
   5  -6 -13    7.60    2.80
   5  -6 -13    5.70    2.00
  -5   6  13    9.90    2.30
  -1  -5  13    7.50    2.20
  -5   6  13    8.40    2.80
  -1  -5  13   10.30    3.10
   6  -1  13    7.20    2.30
  -1  -5  13    9.30    1.70
  -5   6  13   10.50    2.50
   2  -6 -13  382.36   22.20
   4   2 -13  373.66   21.10
  -6   4 -13  374.86   21.70
   2  -6 -13  383.06   21.60
   2  -6 -13  352.36   21.00
  -6   4 -13  340.77   18.80
  -6   4 -13  366.86   20.40
   6  -4  13  365.66   18.80
  -2   6  13  366.76   21.60
  -4  -2  13  383.76   22.00
  -4  -2  13  364.76   22.10
   6  -4  13  388.26   21.80
  -4  -2  13  354.46   20.70
   6  -4  13  349.07   20.70
  -2   6  13  376.86   22.10
  -2   6  13  360.76   21.10
  -6   7 -13  262.67   17.10
   7  -1 -13  274.47   17.80
  -1  -6 -13  273.27   17.10
   7  -1 -13  232.58   13.80
   7  -1 -13  250.47   15.90
  -6   7 -13  254.77   15.90
  -1  -6 -13  265.47   17.40
  -1  -6 -13  265.37   17.90
  -7   1  13  305.27   18.10
   1   6  13  296.07   18.40
   1   6  13  283.97   17.10
   1   6  13  281.97   17.50
   6  -7  13  289.57   16.40
   6  -7  13  290.67   17.40
   6  -7  13  274.17   16.50
  -7   1  13  289.07   16.00
  -7   1  13  265.17   13.90
  -4  -6 -13  346.97   20.80
  -6  10 -13  325.77   21.20
  -6  10 -13  331.77   20.70
  -6  10 -13  331.27   19.90
  -4  -6 -13  342.87   20.90
  10  -4 -13  327.57   18.40
  10  -4 -13  296.17   18.10
  10  -4 -13  352.36   21.60
  -4  -6 -13  342.87   22.10
   6 -10  13  332.57   20.60
 -10   4  13  294.07   18.00
   6 -10  13  308.47   19.30
   4   6  13  302.47   20.30
 -10   4  13  299.17   17.80
   4   6  13  347.47   22.00
   4   6  13  347.67   20.70
   6 -10  13  326.07   21.00
 -10   4  13  364.66   22.10
  -3  10 -13  113.39   10.00
  -3  10 -13  120.49   11.10
  -7  -3 -13  116.59    9.90
  -7  -3 -13  115.39    9.30
  10  -7 -13  123.49    9.60
  10  -7 -13  117.99   10.60
  -3  10 -13  105.79   10.10
  -7  -3 -13  123.19   11.10
   3 -10  13  126.49    9.90
   7   3  13  140.99   10.00
   7   3  13  134.09   10.60
   3 -10  13  122.79    9.90
 -10   7  13  113.99    9.10
 -10   7  13  135.89   11.70
   3 -10  13  134.99   11.40
   7   3  13  132.09   11.30
   7  -7 -13 1345.47   69.09
  -7   0 -13 1316.17   68.59
   0   7 -13 1467.15   73.49
  -7   0 -13 1435.36   71.99
   7  -7 -13 1468.55   71.49
  -7   0 -13 1461.85   71.69
   0   7 -13 1439.66   73.09
  -7   0 -13 1306.07   68.29
  -7   0 -13 1474.65   72.39
   0   7 -13 1307.17   69.89
   0  -7  13 1365.46   69.89
   7   0  13 1423.36   72.19
  -7   7  13 1378.66   70.99
   0  -7  13 1454.45   71.59
  -7   7  13 1404.56   69.79
  -7   7  13 1422.16   73.09
   0  -7  13 1456.15   73.09
   4  -7 -13  443.36   27.10
  -7   3 -13  486.25   27.70
  -7   3 -13  457.35   26.70
   3   4 -13  501.35   28.60
   4  -7 -13  477.85   28.40
  -7   3 -13  482.25   27.70
   3   4 -13  467.55   24.70
   3   4 -13  466.95   27.50
   4  -7 -13  480.55   27.10
  -3  -4  13  541.85   24.90
  -4   7  13  495.25   28.70
   7  -3  13  492.35   27.30
  -3  -4  13  530.35   27.70
  -4   7  13  513.55   27.60
  -4   7  13  503.15   27.60
  -3  -4  13  539.05   29.20
  -7   6 -13  187.28   12.90
  -7   6 -13  176.88   11.10
   1  -7 -13  188.38   13.40
  -7   6 -13  169.48   11.20
   1  -7 -13  183.08   13.10
   6   1 -13  172.08   12.00
  -6  -1  13  188.28   12.00
  -6  -1  13  173.78   12.90
  -1   7  13  186.18   13.20
   7  -6  13  184.68   12.80
   7  -6  13  173.98   11.10
  -1   7  13  177.58   12.40
   7  -6  13  185.08   11.90
  -6  -1  13  183.48   13.60
  -1   7  13  185.28   13.30
  -7   9 -13  275.17   17.60
   9  -2 -13  269.27   18.10
  -7   9 -13  274.87   17.30
  -2  -7 -13  266.57   17.70
  -7   9 -13  251.37   15.80
  -2  -7 -13  280.57   17.40
   9  -2 -13  263.17   15.90
  -2  -7 -13  273.97   18.50
   7  -9  13  237.08   15.60
   2   7  13  236.18   17.10
   2   7  13  248.38   16.80
  -9   2  13  271.87   17.90
  -9   2  13  269.37   15.50
   2   7  13  263.47   18.20
   7  -9  13  256.87   17.20
  12  -5 -13    9.00    2.40
  -7  12 -13   11.20    3.60
  12  -5 -13   10.40    2.30
  -5  -7 -13   14.40    4.60
  12  -5 -13   11.50    3.80
  -5  -7 -13   16.00    4.60
  -7  12 -13   12.10    3.30
  -7  12 -13   10.00    3.70
  -5  -7 -13   11.20    3.30
 -12   5  13   14.10    2.20
   5   7  13   18.20    4.40
   7 -12  13   18.20    4.80
 -12   5  13   15.40    2.60
   7 -12  13   15.70    4.10
 -12   5  13   21.70    5.40
  -4  12 -13    8.60    3.20
  -4  12 -13    8.90    3.00
  -4  12 -13    6.80    3.30
  12  -8 -13    4.50    2.60
  -8  -4 -13   10.90    4.10
  12  -8 -13    7.00    1.00
  -8  -4 -13    7.10    2.70
  -8  -4 -13    8.00    3.00
  12  -8 -13    9.40    3.60
   8   4  13    9.10    3.10
   8   4  13   14.00    3.90
   4 -12  13   10.10    3.10
   4 -12  13   10.90    4.00
   4 -12  13    9.80    3.20
 -12   8  13   11.10    4.10
 -12   8  13   10.00    1.20
  -1   9 -13  196.08   14.30
  -8  -1 -13  179.18   12.10
   9  -8 -13  203.68   15.00
  -8  -1 -13  199.48   14.00
  -1   9 -13  197.08   15.30
   9  -8 -13  196.08   11.30
   9  -8 -13  212.78   14.10
  -1   9 -13  184.98   13.00
   1  -9  13  190.78   12.90
  -9   8  13  208.78   13.70
   1  -9  13  212.68   15.50
   1  -9  13  204.88   14.10
   8   1  13  182.28   11.80
  -9   8  13  224.08   15.90
  -8   2 -13  198.28   13.60
  -8   2 -13  178.58   10.50
   2   6 -13  223.98   16.80
  -8   2 -13  206.38   14.10
   2   6 -13  206.08   12.10
  -8   2 -13  197.78   10.70
   6  -8 -13  213.08   14.00
   6  -8 -13  200.18   12.60
   8  -2  13  204.38   13.90
  -2  -6  13  192.38   11.80
  -6   8  13  219.68   13.30
  -6   8  13  219.18   14.00
   3  -8 -13  508.05   29.00
  -8   5 -13  459.45   24.80
  -8   5 -13  466.05   26.00
   5   3 -13  494.45   27.60
   3  -8 -13  479.05   27.50
   3  -8 -13  481.95   27.70
  -5  -3  13  548.05   27.70
   8  -5  13  466.55   26.60
   8  -5  13  520.45   28.20
   8  -5  13  467.45   24.60
  -3   8  13  517.45   29.00
  -3   8  13  400.66   27.10
  -8   8 -13  205.38   13.60
   0  -8 -13  221.38   16.10
  -8   8 -13  226.88   15.60
   0  -8 -13  217.68   16.00
   0  -8 -13  213.78   15.20
  -8   8 -13  218.48   14.40
   8   0 -13  204.28   14.40
  -8   0  13  268.67   17.40
   8  -8  13  240.28   15.80
   0   8  13  236.58   16.40
  -8   0  13  232.28   16.00
   8  -8  13  244.18   14.50
   0   8  13  215.98   15.10
  -8   0  13  241.88   14.50
   8  -8  13  225.08   14.60
  -8  11 -13   53.99    5.70
  11  -3 -13   61.49    7.30
  -8  11 -13   58.59    6.90
  -3  -8 -13   58.19    7.20
  -3  -8 -13   57.39    6.60
  -8  11 -13   52.89    6.60
  -3  -8 -13   58.79    7.60
  11  -3 -13   43.20    4.30
  11  -3 -13   52.99    5.30
   8 -11  13   57.69    5.70
   8 -11  13   58.19    6.80
 -11   3  13   48.90    4.80
   3   8  13   60.99    6.70
 -11   3  13   46.70    4.30
 -11   3  13   62.09    7.20
  11  -9 -13  128.69   11.40
  11  -9 -13  122.89   10.30
  11  -9 -13  108.49    6.70
  -9  -2 -13  118.39   11.20
  -9  -2 -13  113.29    9.20
  -2  11 -13  111.59   11.40
  -2  11 -13  117.19   10.00
  -9  -2 -13  128.99   10.50
  -2  11 -13  125.49   10.90
   9   2  13  114.49   10.80
   2 -11  13  120.59   11.60
 -11   9  13  114.89    9.70
 -11   9  13  134.89   12.30
   2 -11  13  126.69   10.50
   9   2  13  128.49   10.60
   8  -9 -13  159.48   12.90
   8  -9 -13  149.09    9.70
  -9   1 -13  157.38   12.10
  -9   1 -13  157.18   12.10
   1   8 -13  155.08   12.20
   1   8 -13  147.69   10.50
   1   8 -13  162.68   13.20
  -9   1 -13  165.08   12.10
   9  -1  13  152.68   11.90
  -8   9  13  149.88   10.20
  -1  -8  13  149.09   10.30
  -1  -8  13  154.38   11.80
  -1  -8  13  152.48   12.90
  -8   9  13  161.68   13.10
  -9   4 -13  520.65   27.70
   5  -9 -13  518.55   30.50
   4   5 -13  580.74   31.80
  -9   4 -13  583.84   31.70
   5  -9 -13  608.84   33.30
   4   5 -13  544.05   32.40
  -9   4 -13  534.55   30.00
  -4  -5  13  516.35   27.80
   9  -4  13  516.85   30.40
  -5   9  13  588.84   31.70
  -5   9  13  578.24   32.90
  -5   9  13  582.44   31.20
   2  -9 -13  436.26   26.70
   7   2 -13  422.86   25.10
  -9   7 -13  385.06   23.10
  -9   7 -13  386.76   23.20
  -9   7 -13  435.16   25.80
   2  -9 -13  419.46   25.40
  -7  -2  13  458.45   26.50
  -2   9  13  450.75   26.20
   9  -7  13  399.16   23.20
  -2   9  13  453.35   25.70
  -7  -2  13  459.95   27.20
   9  -7  13  437.96   24.20
  -7  -2  13  441.56   24.90
  -1  -9 -13  547.05   32.20
  10  -1 -13  506.75   29.70
  -1  -9 -13  533.05   32.40
  -9  10 -13  514.75   30.40
  -9  10 -13  546.05   31.70
  -1  -9 -13  555.54   32.40
  -9  10 -13  468.15   28.50
  -1  -9 -13  557.34   31.40
   9 -10  13  535.55   30.80
 -10   1  13  534.95   29.30
   1   9  13  556.14   32.30
 -10   1  13  553.54   32.00
   9 -10  13  514.25   29.30
   9 -10  13  554.54   31.40
 -10   1  13  488.45   26.70
 -10   1  13  559.14   32.80
   1   9  13  573.24   31.30
   0  10 -13    3.10    2.50
   0  10 -13    2.90    1.80
  10 -10 -13    3.40    2.10
 -10   0 -13    3.80    2.20
 -10   0 -13    3.80    2.30
  10 -10 -13    2.50    1.10
   0  10 -13    3.50    2.20
 -10   0 -13    3.00    1.60
  10 -10 -13    2.20    2.20
 -10   0 -13    2.90    2.20
 -10   0 -13    2.70    1.30
   0 -10  13    7.50    3.50
   0 -10  13    8.20    3.00
  10   0  13    5.80    2.70
 -10  10  13    5.90    2.40
   0 -10  13    6.00    2.10
 -10  10  13    7.40    3.30
   3   7 -13  103.29   10.10
   7 -10 -13  113.79    9.50
 -10   3 -13   86.79    6.30
 -10   3 -13  103.49    8.60
   7 -10 -13  102.89    8.00
 -10   3 -13  101.49    9.10
 -10   3 -13   93.99    6.30
   3   7 -13  105.29    7.30
   7 -10 -13  118.89   10.70
 -10   3 -13  117.09    9.60
   3   7 -13  105.39    9.50
  10  -3  13   85.29    8.20
  -3  -7  13  102.69    9.10
  -3  -7  13   90.39    9.70
  -7  10  13   99.39    8.90
  -3  -7  13   83.59    6.70
 -10   6 -13  153.28   10.90
 -10   6 -13  162.38   12.90
   4 -10 -13  176.18   14.20
   4 -10 -13  168.08   12.90
   6   4 -13  163.98   12.80
   4 -10 -13  160.78   12.70
 -10   6 -13  156.08   10.40
  10  -6  13  168.68   10.30
  -6  -4  13  197.08   13.20
  10  -6  13  170.38   11.80
  -4  10  13  198.48   13.50
  -4  10  13  194.28   14.60
  -6  -4  13  169.48    8.80
  10  -6  13  193.88   13.60
  -6  -4  13  171.68   14.10
   1 -10 -13  134.19   11.80
 -10   9 -13  109.29    8.30
   1 -10 -13  133.69   11.20
 -10   9 -13  102.69    9.00
   1 -10 -13  130.09   10.80
 -10   9 -13  132.19   11.00
   1 -10 -13  128.19   11.30
  -1  10  13  122.29   11.40
  10  -9  13  120.49    9.60
  -9  -1  13  123.49   11.00
  -1  10  13  121.19   10.30
  10  -9  13  105.89    8.80
  -9  -1  13  118.69   11.40
  10  -9  13  120.39   10.60
 -11   2 -13   26.70    3.30
   2   9 -13   30.80    5.00
   2   9 -13   31.60    5.60
   2   9 -13   31.00    4.00
 -11   2 -13   30.20    4.90
   9 -11 -13   24.80    3.30
   9 -11 -13   26.30    3.50
 -11   2 -13   27.00    3.20
   9 -11 -13   31.40    5.70
 -11   2 -13   31.30    5.00
   9 -11 -13   31.00    5.00
  11  -2  13   34.70    5.10
  -9  11  13   37.60    5.20
  -2  -9  13   35.10    4.00
  -9  11  13   36.30    5.90
  -2  -9  13   38.40    6.20
  -2  -9  13   39.00    5.50
   5   6 -13  134.29   12.40
   6 -11 -13  137.99   11.00
   6 -11 -13  155.38   13.30
   5   6 -13  144.09    8.90
   6 -11 -13  146.09   11.80
   6 -11 -13  140.89   11.00
 -11   5 -13  136.29   11.50
   5   6 -13  150.18   12.10
 -11   5 -13  125.39    9.90
  -5  -6  13  145.49   12.90
  11  -5  13  128.99   10.40
  -6  11  13  153.08   12.00
  -5  -6  13  159.98   12.00
  -6  11  13  152.18   13.00
   3 -11 -13  128.19   10.90
 -11   8 -13  104.49    8.00
   3 -11 -13  130.49   11.80
   8   3 -13  121.49   10.40
   3 -11 -13  122.49   10.80
 -11   8 -13  125.89   10.70
 -11   8 -13  111.49    8.60
   3 -11 -13  128.59   10.70
  -3  11  13  119.09   11.50
  -3  11  13  119.59   11.50
  11  -8  13  101.69    8.60
  -8  -3  13  124.89   11.20
  -8  -3  13  109.79   11.20
  -8  -3  13  115.49    9.90
  11  -8  13  114.69   10.30
  11  -8  13  102.79    8.30
   8 -12 -13  323.57   20.90
 -12   4 -13  263.77   16.80
   4   8 -13  300.27   17.70
   8 -12 -13  301.57   18.70
   8 -12 -13  324.17   22.50
   8 -12 -13  284.77   18.50
 -12   4 -13  292.17   20.10
 -12   4 -13  337.47   20.90
   4   8 -13  321.37   21.20
 -12   4 -13  273.97   18.80
  -4  -8  13  255.07   16.90
  12  -4  13  285.07   19.10
  -4  -8  13  321.67   22.30
  -8  12  13  351.76   21.10
  -8  12  13  358.86   22.80
  -4  -8  13  345.27   21.00
   7   5 -13   17.00    4.30
   7   5 -13   13.90    1.70
   5 -12 -13   16.00    4.20
   5 -12 -13   15.50    4.30
   5 -12 -13   15.90    4.90
 -12   7 -13   13.90    2.90
  12  -7  13   20.10    2.80
  -7  -5  13   17.80    1.80
  -5  12  13   25.90    4.50
  -7  -5  13   16.70    5.00
  -5  12  13   19.30    5.30
  12  -7  13   22.30    5.20
  -7  -5  13   27.10    4.60
  12  -7  13   19.50    3.30
  -1   1 -14  713.23   37.90
   0  -1 -14  741.93   37.90
   1   0 -14  805.62   38.60
   1   0 -14  780.72   38.60
   0  -1 -14  769.02   38.30
  -1   1 -14  795.02   38.70
   0  -1 -14  730.13   38.50
  -1   0  14  750.72   38.40
  -1   0  14  775.62   38.70
   0   1  14  747.63   38.20
   0   1  14  701.93   37.90
   0   1  14  728.93   38.80
  -1   0  14  712.33   37.50
  -2   0 -14 1223.68   64.89
  -2   0 -14 1387.46   65.49
   2  -2 -14 1309.57   64.89
   0   2 -14 1265.87   64.09
   0   2 -14 1202.08   63.89
   2  -2 -14 1282.97   64.39
   0   2 -14 1435.46   65.59
  -2   0 -14 1328.27   63.59
   2  -2 -14 1310.07   65.29
   2   0  14 1289.87   65.09
   2   0  14 1270.77   65.59
  -2   2  14 1333.47   65.19
   0  -2  14 1310.87   65.09
  -2   2  14 1291.77   65.29
   2   0  14 1246.08   63.49
   0  -2  14 1282.17   64.79
  -2   2  14 1340.97   64.49
   0  -2  14 1410.56   65.29
  -2   3 -14  356.76   21.30
   3  -1 -14  356.96   19.60
  -1  -2 -14  373.56   21.10
   3  -1 -14  394.56   21.70
  -1  -2 -14  361.66   20.30
  -2   3 -14  411.46   21.30
  -2   3 -14  407.96   21.10
   3  -1 -14  434.86   21.10
  -1  -2 -14  365.46   21.50
   2  -3  14  367.66   21.10
   1   2  14  361.56   21.60
   2  -3  14  384.06   20.70
   2  -3  14  363.66   20.80
  -3   1  14  414.26   21.10
   1   2  14  366.46   21.10
  -3   1  14  378.06   21.50
   4  -3 -14  594.44   32.40
   4  -3 -14  604.04   31.20
  -1   4 -14  622.24   32.00
  -3  -1 -14  627.74   32.70
  -1   4 -14  661.43   32.50
  -3  -1 -14  579.64   30.10
  -1   4 -14  641.14   31.40
   4  -3 -14  598.44   30.90
  -3  -1 -14  619.34   32.30
   1  -4  14  603.44   31.20
   3   1  14  585.44   30.30
   3   1  14  565.84   32.50
   1  -4  14  556.84   31.50
   3   1  14  590.14   32.10
  -4   3  14  603.14   30.90
  -4   3  14  590.94   31.40
   1  -4  14  589.64   32.20
  -4   3  14  594.44   32.60
   1  -3 -14  887.51   48.60
   1  -3 -14  926.91   48.90
  -3   2 -14  919.81   48.70
  -3   2 -14  942.71   48.90
   2   1 -14  938.81   47.00
   2   1 -14  930.41   47.00
  -3   2 -14  953.90   48.70
   2   1 -14 1062.39   49.00
   1  -3 -14  907.51   48.50
  -2  -1  14 1032.70   48.80
  -2  -1  14  946.41   49.00
  -2  -1  14 1003.00   49.50
   3  -2  14  928.71   46.90
   3  -2  14 1029.80   47.30
  -1   3  14  975.20   48.70
  -1   3  14  969.90   49.30
  -1   3  14  911.41   48.80
   3  -2  14 1041.50   49.40
  -2  -3 -14  177.58   12.60
  -3   5 -14  171.18   11.50
  -2  -3 -14  179.58   13.00
  -3   5 -14  163.58   11.40
   5  -2 -14  165.48   12.10
  -2  -3 -14  167.98   11.10
   5  -2 -14  180.68   11.00
   2   3  14  181.38   12.60
   3  -5  14  188.98   11.80
   2   3  14  179.48   11.90
   2   3  14  187.08   11.40
   3  -5  14  180.48   11.50
  -5   2  14  190.78   11.20
  -5   2  14  187.08   12.50
   6  -4 -14  547.95   31.50
  -4  -2 -14  575.24   32.00
   6  -4 -14  562.24   29.50
  -4  -2 -14  572.84   31.10
   6  -4 -14  532.55   29.80
  -2   6 -14  543.05   31.40
  -2   6 -14  542.85   30.70
  -2   6 -14  538.95   30.20
   4   2  14  579.64   32.00
   2  -6  14  612.54   31.90
   4   2  14  605.64   31.50
   2  -6  14  581.84   30.70
   2  -6  14  605.34   30.60
  -6   4  14  592.64   29.80
  -6   4  14  553.14   29.60
  -4   1 -14 1413.36   72.29
   3  -4 -14 1401.36   72.39
  -4   1 -14 1413.36   72.09
   3  -4 -14 1354.36   71.39
   1   3 -14 1510.85   72.69
   3  -4 -14 1336.47   71.39
   1   3 -14 1415.26   71.99
  -4   1 -14 1510.25   72.29
   4  -1  14 1529.85   72.69
  -3   4  14 1445.76   71.59
  -3   4  14 1534.45   72.09
  -1  -3  14 1506.85   72.89
  -3   4  14 1399.06   72.49
  -1  -3  14 1436.26   71.79
  -4   4 -14  660.73   34.90
   4   0 -14  629.74   32.10
   0  -4 -14  652.63   34.80
   0  -4 -14  715.83   35.80
   4   0 -14  647.94   34.30
  -4   4 -14  680.73   34.50
   0  -4 -14  636.44   34.70
   4   0 -14  648.74   35.40
  -4   4 -14  627.84   34.10
   4  -4  14  664.03   34.70
   0   4  14  652.23   34.90
   0   4  14  645.74   34.70
  -4   0  14  629.64   32.10
  -4   0  14  685.23   34.30
   0   4  14  670.43   35.60
  -4   0  14  658.93   35.30
   4  -4  14  686.73   35.10
  -3  -4 -14  255.77   16.20
  -4   7 -14  276.57   16.80
  -3  -4 -14  278.37   17.00
  -3  -4 -14  275.97   17.90
   7  -3 -14  281.97   15.80
  -4   7 -14  264.97   16.30
   7  -3 -14  273.97   15.50
   7  -3 -14  273.57   17.70
  -4   7 -14  298.47   17.40
  -7   3  14  277.37   17.80
   3   4  14  248.68   16.60
   4  -7  14  252.07   16.00
   4  -7  14  258.77   16.70
   4  -7  14  275.67   16.70
  -7   3  14  251.07   14.70
   3   4  14  253.77   16.10
  -7   3  14  287.57   15.50
  -3   8 -14   96.49    8.10
  -5  -3 -14   96.49    8.50
  -5  -3 -14   92.89    7.60
   8  -5 -14   91.29    6.80
   8  -5 -14  105.79    7.80
  -3   8 -14   96.89    8.30
  -3   8 -14  116.39    9.70
  -8   5  14   97.99    7.50
   3  -8  14  110.79    8.50
   5   3  14  106.79    9.40
   3  -8  14  107.09    8.40
  -8   5  14  105.89    7.20
   3  -8  14  112.69    9.50
   5   3  14  123.19    8.30
   0   5 -14 2317.07  114.39
  -5   0 -14 2186.78  112.79
   5  -5 -14 2310.77  116.69
   5  -5 -14 2329.27  115.39
   0   5 -14 2497.35  117.09
  -5   0 -14 2398.46  116.19
  -5   0 -14 2427.66  116.69
   5  -5 -14 2588.64  114.99
   0   5 -14 2432.16  116.19
   0  -5  14 2413.56  115.89
  -5   5  14 2349.76  115.29
   0  -5  14 2336.27  116.99
  -5   5  14 2289.97  116.89
   5   0  14 2277.47  115.99
  -5   5  14 2249.27  114.99
   0  -5  14 2438.76  114.69
   5   0  14 2208.08  112.89
   5   0  14 2377.46  116.69
   3   2 -14  136.39    7.40
   2  -5 -14  137.49   10.20
   2  -5 -14  153.38   10.30
  -5   3 -14  143.49   10.10
  -5   3 -14  144.09    9.60
   3   2 -14  136.19    9.70
   3   2 -14  129.59    7.40
   2  -5 -14  129.39    9.60
  -2   5  14  141.19    9.80
  -2   5  14  143.89   10.40
  -3  -2  14  144.59   10.70
  -2   5  14  147.19   10.30
  -3  -2  14  145.19    9.70
   5  -3  14  145.99   10.00
  -3  -2  14  145.89   10.40
   5  -3  14  149.79    7.60
   6  -1 -14  726.93   41.50
   6  -1 -14  888.11   45.90
  -5   6 -14  871.91   44.10
  -5   6 -14  855.01   45.00
  -1  -5 -14  853.71   44.90
  -1  -5 -14  859.51   45.00
  -1  -5 -14  861.31   45.90
   6  -1 -14  821.02   43.70
  -5   6 -14  885.31   44.30
   5  -6  14  844.72   43.90
  -6   1  14  920.31   45.90
   1   5  14  824.92   44.80
   1   5  14  879.01   46.00
   5  -6  14  900.11   44.40
  -6   1  14  863.91   41.60
  -6   1  14  831.92   43.50
   1   5  14  871.51   45.00
   9  -4 -14  477.95   28.00
  -5   9 -14  554.14   31.30
  -5   9 -14  525.65   29.80
  -4  -5 -14  579.14   32.30
   9  -4 -14  505.25   28.20
  -4  -5 -14  567.04   30.80
  -4  -5 -14  542.85   30.20
   9  -4 -14  568.94   31.60
  -9   4  14  505.65   28.10
   4   5  14  536.75   30.20
  -9   4  14  587.54   32.10
   5  -9  14  517.95   29.50
   5  -9  14  534.95   30.90
  -9   4  14  506.75   28.10
   4   5  14  547.65   31.90
   4   5  14  561.94   30.70
   5  -9  14  556.74   30.60
  10  -6 -14   38.10    4.50
  10  -6 -14   41.70    5.80
  -6  -4 -14   42.20    6.00
  -6  -4 -14   41.80    5.40
  -4  10 -14   42.50    5.30
  -6  -4 -14   39.80    4.90
 -10   6  14   38.00    4.30
   6   4  14   43.70    5.20
 -10   6  14   34.30    3.50
 -10   6  14   41.00    6.10
   6   4  14   41.40    5.90
   6   4  14   41.00    5.40
   4 -10  14   40.80    5.80
  -6  -1 -14  122.79   10.50
  -1   7 -14  133.39   10.30
  -6  -1 -14  128.89   10.20
  -1   7 -14  127.59    9.30
   7  -6 -14  132.99    8.70
   7  -6 -14  130.19   10.80
  -1   7 -14  126.99   10.90
   7  -6 -14  136.59    9.90
   1  -7  14  144.19    9.60
   6   1  14  139.89   11.00
   6   1  14  124.19    8.30
   6   1  14  151.58   10.70
   1  -7  14  143.89   10.20
   1  -7  14  148.29   11.40
  -7   6  14  145.69    9.80
  -7   6  14  158.78   11.70
  -6   2 -14  103.39    8.10
   2   4 -14   96.69    7.90
   4  -6 -14  101.19    7.50
  -6   2 -14   98.49    7.80
   4  -6 -14  103.99    8.70
  -6   2 -14  100.79    8.10
   4  -6 -14  100.09    7.70
   2   4 -14  108.09    8.70
  -4   6  14   92.09    7.60
  -4   6  14   88.49    8.20
  -2  -4  14   90.49    7.50
   6  -2  14   89.69    7.80
  -4   6  14   92.99    7.60
  -2  -4  14   90.09    8.40
  -2  -4  14   90.29    6.00
   5   1 -14 1550.24   78.49
   1  -6 -14 1481.55   78.79
  -6   5 -14 1578.74   79.29
  -6   5 -14 1682.33   77.29
   1  -6 -14 1617.24   79.89
  -6   5 -14 1469.25   77.79
   1  -6 -14 1555.74   79.69
  -1   6  14 1551.84   79.69
  -1   6  14 1478.55   78.69
   6  -5  14 1650.33   79.59
   6  -5  14 1628.14   78.69
  -5  -1  14 1631.04   78.39
  -1   6  14 1567.44   79.79
  -2  -6 -14  283.77   18.20
  -6   8 -14  297.57   18.00
   8  -2 -14  265.37   14.90
  -6   8 -14  261.27   16.80
   8  -2 -14  271.77   16.60
  -8   2  14  316.57   16.60
   6  -8  14  300.47   18.20
   6  -8  14  263.37   17.30
   2   6  14  284.07   18.10
   6  -8  14  291.27   17.10
  -6  11 -14  145.09   11.60
  -5  -6 -14  136.89   11.40
  -6  11 -14  160.18   12.80
  11  -5 -14  121.29    9.40
  11  -5 -14  151.28   12.30
  -5  -6 -14  146.19   11.60
  -6  11 -14  135.89   12.20
  -5  -6 -14  145.29   12.80
  11  -5 -14  132.49    9.20
   5   6  14  151.88   12.70
   6 -11  14  149.19   11.60
   5   6  14  142.29   11.60
   5   6  14  147.39   11.60
 -11   5  14  135.09    9.00
   6 -11  14  143.89   12.20
 -11   5  14  133.19    9.50
 -11   5  14  163.08   13.10
  12  -7 -14  385.16   24.50
  -7  -5 -14  395.36   25.40
  -5  12 -14  360.36   23.20
  12  -7 -14  345.27   21.80
  -7  -5 -14  395.06   23.60
  -5  12 -14  372.36   25.00
  -5  12 -14  371.76   23.40
  -7  -5 -14  347.67   22.80
   7   5  14  396.46   24.00
   5 -12  14  389.86   25.10
   5 -12  14  353.86   22.50
   7   5  14  352.16   23.30
   5 -12  14  365.76   23.20
 -12   7  14  430.86   26.00
 -12   7  14  337.27   21.50
   9  -7 -14  192.58   12.70
  -7  -2 -14  174.68   12.80
   9  -7 -14  195.18   10.60
  -2   9 -14  181.28   13.10
  -7  -2 -14  161.68   11.20
  -2   9 -14  185.18   12.40
  -7  -2 -14  180.88   13.90
   9  -7 -14  183.68   13.70
   2  -9  14  175.78   13.80
   2  -9  14  166.08   12.40
   7   2  14  177.08   13.00
   7   2  14  172.08   13.70
   7   2  14  164.88   11.40
  -9   7  14  166.78   10.60
  -9   7  14  167.68   11.90
   2  -9  14  182.18   12.40
  -9   7  14  183.18   14.20
   6  -7 -14  111.09    7.90
   1   6 -14  105.89    7.60
   1   6 -14  112.29    9.20
  -7   1 -14   98.99    5.90
  -7   1 -14  107.29    5.90
  -7   1 -14  109.59    9.20
  -7   1 -14  114.69    9.30
   1   6 -14  126.69   10.30
  -7   1 -14  112.09    9.20
   6  -7 -14  115.49    8.90
   6  -7 -14  115.89    9.80
  -1  -6  14  125.39   10.30
  -6   7  14  115.09   10.00
   7  -1  14  111.09    9.30
  -1  -6  14  122.09    7.80
  -6   7  14  116.09    8.40
  -6   7  14  116.69    8.90
   3  -7 -14  262.47   17.00
   3  -7 -14  267.17   17.10
   3  -7 -14  281.27   18.20
  -7   4 -14  252.07   16.10
   4   3 -14  279.57   17.20
  -7   4 -14  272.37   17.40
   4   3 -14  238.48   13.30
  -7   4 -14  259.07   14.10
  -4  -3  14  286.67   18.40
  -3   7  14  292.47   18.40
  -3   7  14  309.47   17.60
  -3   7  14  300.17   17.70
   7  -4  14  261.47   13.90
   7  -4  14  308.87   18.00
  -4  -3  14  302.07   17.10
   7  -4  14  272.87   16.80
   0  -7 -14  204.28   14.70
   7   0 -14  197.78   13.40
  -7   7 -14  193.58   13.00
   0  -7 -14  205.78   14.90
  -7   7 -14  200.88   12.90
  -7   0  14  239.48   13.60
   7  -7  14  210.28   13.50
   0   7  14  218.98   15.20
   0   7  14  209.18   14.80
   7  -7  14  211.48   13.30
  -3  -7 -14  263.17   17.40
  10  -3 -14  230.98   15.00
  10  -3 -14  212.08   13.80
  10  -3 -14  270.47   18.00
  -7  10 -14  260.97   17.30
  -7  10 -14  253.97   15.90
  -7  10 -14  255.27   17.10
  -3  -7 -14  264.07   17.20
  -3  -7 -14  257.07   18.20
   3   7  14  289.17   23.90
   7 -10  14  244.68   16.80
 -10   3  14  274.67   18.10
 -10   3  14  224.78   13.80
   7 -10  14  234.88   15.50
   3   7  14  244.28   16.60
 -10   3  14  235.98   14.60
   7 -10  14  243.68   16.80
   3   7  14  260.17   18.10
  -3  11 -14  342.77   20.90
  11  -8 -14  352.76   22.40
  -8  -3 -14  336.77   21.10
  -8  -3 -14  342.97   22.70
  -3  11 -14  333.57   21.50
  11  -8 -14  348.37   20.70
  -3  11 -14  331.27   22.80
  -8  -3 -14  297.57   19.60
 -11   8  14  367.06   23.30
   8   3  14  367.26   21.80
 -11   8  14  313.37   20.00
   3 -11  14  340.27   22.80
   8   3  14  285.77   19.60
   3 -11  14  310.07   20.30
   3 -11  14  330.27   20.80
 -11   8  14  304.17   17.50
   8   3  14  322.77   22.10
  -8   0 -14  491.35   29.80
   0   8 -14  542.75   31.20
   8  -8 -14  521.75   29.30
  -8   0 -14  521.65   29.50
   8  -8 -14  481.35   26.80
   0   8 -14  524.75   29.90
  -8   0 -14  446.36   27.30
  -8   0 -14  535.35   30.00
   0   8 -14  521.15   28.20
   8  -8 -14  533.05   30.90
  -8   8  14  541.55   31.30
  -8   8  14  527.75   29.10
   8   0  14  513.95   30.00
   0  -8  14  518.65   30.90
  -8   8  14  507.05   27.50
   0  -8  14  485.05   27.70
   0  -8  14  541.95   29.60
   5  -8 -14  706.43   37.40
   5  -8 -14  706.93   38.10
  -8   3 -14  700.53   37.50
  -5   8  14  722.53   38.20
  -5   8  14  731.93   41.30
   8  -3  14  644.64   37.60
   2  -8 -14  101.09    9.10
   2  -8 -14   99.79    9.60
  -8   6 -14   89.59    7.50
  -8   6 -14  102.49   10.20
   6   2 -14  100.99    8.60
   8  -6  14  112.79    7.40
  -2   8  14  116.39   10.10
  -2   8  14  116.89    9.70
   8  -6  14  107.99    8.40
  -6  -2  14  117.99    8.80
  -6  -2  14  112.89   11.50
  -2   8  14  112.19   10.40
  -8   9 -14   46.40    5.60
  -8   9 -14   46.40    6.00
  -1  -8 -14   48.00    5.90
   9  -1 -14   42.70    5.10
  -1  -8 -14   48.00    6.40
  -8   9 -14   43.60    4.80
  -9   1  14   49.70    3.30
   8  -9  14   57.49    5.60
  -9   1  14   61.39    7.30
   1   8  14   56.39    6.70
   8  -9  14   57.49    6.40
  -9   1  14   55.29    5.30
   1   8  14   56.39    6.20
   8  -9  14   51.39    5.80
  -9   1  14   45.90    3.30
   1   8  14   57.99    7.00
  -9   1  14   56.79    6.70
  -9  -1 -14  293.37   18.00
  -1  10 -14  322.17   19.90
  -9  -1 -14  298.67   18.50
  -1  10 -14  337.87   21.40
  -9  -1 -14  339.17   20.90
  10  -9 -14  346.67   22.20
  -9  -1 -14  327.47   21.20
  -1  10 -14  325.67   22.40
  -9  -1 -14  330.07   21.80
  10  -9 -14  327.87   17.40
   1 -10  14  315.07   19.50
 -10   9  14  343.77   22.80
   1 -10  14  326.17   22.30
   9   1  14  314.17   21.30
   1 -10  14  329.47   20.80
 -10   9  14  315.37   20.00
   2   7 -14  310.77   19.60
  -9   2 -14  270.97   15.00
  -9   2 -14  277.97   15.20
  -9   2 -14  289.97   19.00
   2   7 -14  294.37   20.00
  -9   2 -14  314.87   19.30
   7  -9 -14  258.17   16.80
   7  -9 -14  310.67   20.40
  -9   2 -14  281.57   18.50
   2   7 -14  291.07   16.80
  -2  -7  14  303.07   20.30
  -7   9  14  321.17   20.70
  -7   9  14  312.17   18.90
   9  -2  14  291.27   18.80
  -2  -7  14  263.27   16.30
  -7   9  14  297.07   17.70
  -2  -7  14  325.77   19.30
   4  -9 -14  325.67   20.70
   4  -9 -14  331.77   20.70
   5   4 -14  344.37   21.80
  -9   5 -14  315.37   17.60
  -9   5 -14  340.97   21.10
   5   4 -14  323.27   20.80
   4  -9 -14  358.46   22.50
   5   4 -14  324.77   16.60
  -9   5 -14  318.07   19.30
   9  -5  14  324.27   20.00
   9  -5  14  309.97   17.40
   9  -5  14  361.36   21.50
  -4   9  14  355.86   21.20
  -5  -4  14  332.47   16.50
  -5  -4  14  360.66   22.60
  -4   9  14  353.06   22.30
  -4   9  14  366.36   21.30
  -9   8 -14  272.27   17.50
   8   1 -14  299.27   19.10
   1  -9 -14  313.47   20.80
  -9   8 -14  307.47   20.00
  -9   8 -14  288.47   18.00
   1  -9 -14  310.37   20.50
   1  -9 -14  311.37   19.80
  -1   9  14  322.37   21.00
  -1   9  14  326.77   20.80
  -1   9  14  303.57   19.60
   9  -8  14  319.47   20.10
   9  -8  14  312.97   18.50
   9  -8  14  289.97   18.30
  -8  -1  14  321.17   20.50
  -8  -1  14  308.87   18.80
  -8  -1  14  306.17   21.00
  -2  -9 -14  274.87   18.20
  -2  -9 -14  261.17   18.90
  -9  11 -14  236.38   15.90
  -2  -9 -14  267.57   18.80
  -9  11 -14  266.27   18.30
  -9  11 -14  227.98   17.10
  11  -2 -14  252.47   16.30
   2   9  14  281.57   18.00
   2   9  14  257.47   18.50
 -11   2  14  221.08   13.80
   9 -11  14  276.47   18.20
   9 -11  14  273.87   18.30
   9 -11  14  250.27   16.20
 -11   2  14  293.37   19.10
 -11   2  14  245.88   15.70
   1   9 -14   48.60    6.90
   1   9 -14   45.00    6.00
   9 -10 -14   48.80    5.90
 -10   1 -14   46.10    5.80
   9 -10 -14   40.90    4.10
 -10   1 -14   49.40    5.70
 -10   1 -14   47.50    6.10
   9 -10 -14   48.40    6.70
 -10   1 -14   44.80    6.10
   1   9 -14   44.40    4.90
  -1  -9  14   38.00    5.40
  -9  10  14   41.90    6.50
  -9  10  14   38.80    4.30
  -9  10  14   40.00    5.40
  -1  -9  14   36.00    6.10
  -1  -9  14   35.10    4.30
   4   6 -14  307.27   17.00
 -10   4 -14  293.57   18.80
 -10   4 -14  310.77   20.20
 -10   4 -14  275.07   16.20
   6 -10 -14  317.27   21.40
 -10   4 -14  341.97   20.70
   6 -10 -14  304.87   19.10
   4   6 -14  321.97   20.60
   6 -10 -14  317.87   20.20
   4   6 -14  300.47   21.10
  10  -4  14  308.27   19.40
  -6  10  14  333.97   20.40
  -6  10  14  325.77   19.70
  -6  10  14  332.37   21.80
  -4  -6  14  339.67   20.40
   3 -10 -14  476.25   28.70
 -10   7 -14  462.45   27.40
 -10   7 -14  399.26   24.20
 -10   7 -14  409.06   24.50
   7   3 -14  453.05   27.00
   3 -10 -14  472.55   27.50
  -7  -3  14  484.55   28.30
  -7  -3  14  483.45   26.90
  10  -7  14  433.96   25.60
  -3  10  14  469.35   28.60
  10  -7  14  399.06   24.00
  -3  10  14  483.15   27.50
  -7  -3  14  485.75   29.10
  10  -7  14  468.75   27.50
   0 -10 -14  131.79   12.20
   0 -10 -14  137.89   11.60
   0 -10 -14  140.59   12.10
 -10  10 -14  128.79   10.50
 -10  10 -14  114.79    9.10
 -10  10 -14  137.49   11.80
   0 -10 -14  138.09   12.40
 -10   0  14  120.09    6.80
   0  10  14  145.09   11.60
 -10   0  14  145.69   12.20
  10 -10  14  137.19   11.00
 -10   0  14  132.89   12.50
 -10   0  14  135.49   10.30
  10 -10  14  136.19   10.20
   0  10  14  143.09   12.50
  10 -10  14  138.19   11.60
 -11   3 -14  131.59   10.90
   3   8 -14  139.79    9.60
   8 -11 -14  143.39   11.80
 -11   3 -14  155.98   12.20
   8 -11 -14  152.08   13.20
 -11   3 -14  133.69   11.50
   3   8 -14  139.29   12.60
   3   8 -14  140.69   12.00
   8 -11 -14  121.29    9.70
  -8  11  14  144.89   11.60
  -8  11  14  149.19   13.10
  11  -3  14  121.59   10.70
  -3  -8  14  116.59    8.90
  -3  -8  14  140.49   12.80
  -3  -8  14  169.38   12.30
   5 -11 -14   33.30    4.90
 -11   6 -14   31.70    4.00
   5 -11 -14   36.50    5.30
   5 -11 -14   35.10    6.00
   5 -11 -14   31.90    4.80
 -11   6 -14   36.20    5.30
   6   5 -14   30.50    2.50
   6   5 -14   38.30    5.70
  11  -6  14   34.10    5.20
  -6  -5  14   29.80    2.40
  -5  11  14   33.80    5.90
  -5  11  14   32.00    5.00
  -6  -5  14   32.40    4.90
  11  -6  14   27.50    4.00
  11  -6  14   24.70    2.80
  -6  -5  14   31.90    5.70
   9   2 -14  366.06   22.50
   2 -11 -14  379.76   23.10
 -11   9 -14  314.27   20.40
   2 -11 -14  350.56   23.40
   2 -11 -14  375.56   23.50
 -11   9 -14  367.86   23.20
 -11   9 -14  307.67   19.50
   2 -11 -14  373.26   24.30
  -9  -2  14  359.46   24.40
  -2  11  14  378.96   23.00
  -9  -2  14  356.66   21.90
  -2  11  14  361.26   24.20
  11  -9  14  328.47   20.60
  11  -9  14  320.67   20.50
  -9  -2  14  365.86   23.60
  11  -9  14  347.87   22.70
   7 -12 -14   62.29    8.00
 -12   5 -14   47.00    5.60
   7 -12 -14   49.80    6.00
   7 -12 -14   54.49    6.80
   7 -12 -14   55.89    6.30
 -12   5 -14   63.69    7.20
   5   7 -14   51.39    7.40
   5   7 -14   55.69    4.80
 -12   5 -14   56.49    6.90
   5   7 -14   59.29    7.30
  -5  -7  14   70.89    7.50
  12  -5  14   52.79    6.00
  -5  -7  14   51.19    4.40
  -7  12  14   67.69    8.40
  -7  12  14   70.39    7.60
  -5  -7  14   55.49    7.60
   0   0 -15  536.15   26.10
   0   0 -15  515.05   25.90
   0   0 -15  529.95   26.60
   0   0  15  454.05   25.70
   0   0  15  461.95   26.50
   0   0  15  458.15   25.70
  -1   2 -15 1931.91   94.29
   2  -1 -15 1798.02   93.09
  -1   2 -15 1762.72   93.39
   2  -1 -15 1820.12   93.89
  -1   2 -15 1872.51   93.69
   2  -1 -15 1870.41   94.39
  -1  -1 -15 1875.71   94.09
  -2   1  15 2116.09   94.59
   1   1  15 1942.21   94.29
  -2   1  15 1951.70   94.59
   1  -2  15 1894.11   93.69
   1  -2  15 2095.69   94.79
  -2   1  15 1854.31   93.19
   1   1  15 2087.69   95.29
   1  -2  15 1887.11   93.49
  -2   1 -15 1085.89   56.79
  -2   1 -15 1226.38   57.49
   1   1 -15 1066.59   55.79
   1  -2 -15 1149.08   56.79
   1   1 -15 1165.88   57.19
   1  -2 -15 1164.78   57.09
   1  -2 -15 1102.29   56.99
   2  -1  15 1123.09   55.59
  -1  -1  15 1113.79   57.09
  -1   2  15 1127.09   56.79
  -1  -1  15 1108.49   56.99
  -1  -1  15 1164.48   57.29
   2  -1  15 1143.79   57.59
  -1   2  15 1132.49   57.09
  -1   2  15 1166.08   57.59
  -2   4 -15 1297.27   62.89
  -2   4 -15 1243.48   62.69
  -2   4 -15 1316.37   63.19
   4  -2 -15 1221.78   63.59
   4  -2 -15 1330.27   62.59
  -2  -2 -15 1136.69   61.69
  -2  -2 -15 1209.68   63.09
   4  -2 -15 1121.19   61.39
  -2  -2 -15 1279.77   63.99
  -4   2  15 1310.17   62.69
  -4   2  15 1273.07   63.89
  -4   2  15 1218.58   61.49
   2   2  15 1252.07   63.99
   2  -4  15 1316.77   62.89
   2   2  15 1257.47   63.29
   2  -4  15 1336.87   63.19
   2  -4  15 1184.98   62.79
   3  -3 -15 1851.21   93.79
   3  -3 -15 1775.62   92.49
  -3   0 -15 1851.71   93.79
   0   3 -15 1986.60   93.69
   0   3 -15 1956.70   92.39
   0   3 -15 1980.60   93.69
  -3   0 -15 1836.62   91.19
   3  -3 -15 2024.50   93.19
  -3   0 -15 1822.32   93.39
  -3   3  15 1837.32   93.99
   0  -3  15 1846.32   93.69
   3   0  15 1857.41   93.49
  -3   3  15 1851.01   92.69
   0  -3  15 1976.00   93.49
  -3   3  15 1993.20   93.49
   0  -3  15 1875.41   92.29
   3   0  15 1884.31   91.39
  -3   3 -15 2120.39  107.49
  -3   3 -15 2255.87  107.89
   3   0 -15 2206.58  105.79
   0  -3 -15 2135.79  107.39
   0  -3 -15 2094.79  108.09
   3   0 -15 2237.28  107.59
  -3   3 -15 2213.68  106.29
   0  -3 -15 2188.58  107.79
   3   0 -15 2167.08  108.29
   0   3  15 2160.38  107.59
  -3   0  15 2115.59  105.69
   0   3  15 2147.19  107.69
   3  -3  15 2393.46  108.29
   3  -3  15 2307.57  107.99
   0   3  15 2227.78  108.59
  -3   0  15 2162.38  108.19
  -3   0  15 2186.28  107.39
  -3   6 -15  127.29    9.30
   6  -3 -15  119.19    8.20
  -3   6 -15  123.59    9.20
  -3  -3 -15  136.79   10.60
  -3  -3 -15  134.29    9.80
  -3   6 -15  138.89   10.00
  -3  -3 -15  127.19    8.80
   6  -3 -15  134.39   10.20
   6  -3 -15  128.29    8.60
   3   3  15  132.29   10.40
   3  -6  15  126.79    9.20
   3  -6  15  127.89    9.60
  -6   3  15  127.49   10.30
   3  -6  15  129.79    9.40
  -6   3  15  132.49    8.70
   3   3  15  111.89   10.10
   3   3  15  128.19    8.80
  -1   5 -15  111.09    8.30
  -1   5 -15   84.09    6.50
   5  -4 -15   77.69    6.40
   5  -4 -15   76.09    7.30
  -1   5 -15   81.29    7.10
   5  -4 -15   78.59    6.40
  -4  -1 -15   77.59    7.10
  -4  -1 -15   87.69    7.90
   4   1  15  102.19    5.90
  -5   4  15  106.49    7.20
   1  -5  15   92.59    7.20
   4   1  15   97.69    8.20
  -5   4  15   88.59    6.60
  -5   4  15   90.49    8.00
   4   1  15   89.49    7.60
   1  -5  15  103.09    7.10
   2   2 -15 1300.07   67.19
  -4   2 -15 1391.86   69.59
  -4   2 -15 1324.17   69.29
  -4   2 -15 1446.56   69.99
   2  -4 -15 1301.47   69.59
   2  -4 -15 1465.45   69.69
   2   2 -15 1364.06   67.39
   2   2 -15 1439.36   69.69
   2  -4 -15 1345.57   69.19
   4  -2  15 1353.56   66.69
  -2  -2  15 1430.46   70.39
  -2  -2  15 1420.86   69.99
  -2  -2  15 1388.26   69.29
  -2   4  15 1360.16   69.79
   4  -2  15 1411.56   66.89
  -2   4  15 1402.86   69.39
   4  -2  15 1436.26   69.99
  -2   4  15 1416.46   70.19
   5  -1 -15 1202.78   63.39
  -4   5 -15 1382.06   62.19
  -1  -4 -15 1232.78   63.59
   5  -1 -15 1325.07   62.09
  -4   5 -15 1246.08   62.69
  -4   5 -15 1187.58   62.09
  -1  -4 -15 1183.98   62.59
   5  -1 -15 1296.87   60.09
  -1  -4 -15 1161.78   62.19
   1   4  15 1169.88   62.49
   1   4  15 1205.58   62.39
   4  -5  15 1217.08   62.39
   4  -5  15 1320.67   62.99
   4  -5  15 1193.58   61.69
  -5   1  15 1200.08   63.19
  -5   1  15 1217.08   61.69
   1   4  15 1232.18   63.69
  -5   1  15 1245.78   59.99
   8  -4 -15  935.61   54.99
  -4   8 -15 1077.19   53.49
   8  -4 -15 1059.29   50.69
  -4   8 -15  955.00   51.99
  -4   8 -15 1023.60   52.09
   8  -4 -15  978.90   50.39
  -4  -4 -15  996.40   51.59
   4   4  15  960.40   51.49
  -8   4  15 1039.60   50.59
   4  -8  15 1014.80   52.19
  -8   4  15  959.70   50.19
   4  -8  15  984.90   51.69
   4  -8  15 1042.80   53.19
  -5  -2 -15 1346.67   71.59
  -2   7 -15 1434.06   72.79
  -2   7 -15 1467.05   74.79
   7  -5 -15 1420.66   74.39
  -5  -2 -15 1458.45   74.89
  -5  -2 -15 1415.26   73.69
  -2   7 -15 1364.56   73.49
   7  -5 -15 1488.95   72.89
  -7   5  15 1434.66   71.99
   2  -7  15 1475.85   72.99
   2  -7  15 1530.75   74.99
   5   2  15 1521.05   74.29
   5   2  15 1467.05   74.89
  -7   5  15 1388.06   72.29
   2  -7  15 1506.35   73.49
  -7   5  15 1572.54   75.69
   1   4 -15  650.13   36.60
  -5   1 -15  737.43   39.10
   4  -5 -15  717.03   38.20
   1   4 -15  769.22   39.60
   4  -5 -15  717.63   39.30
   4  -5 -15  667.63   37.70
  -5   1 -15  704.63   38.70
  -5   1 -15  747.53   39.20
  -1  -4  15  766.62   38.70
   5  -1  15  770.12   39.40
  -4   5  15  766.22   38.60
  -4   5  15  762.02   38.40
  -4   5  15  739.73   39.60
  -1  -4  15  754.12   39.80
   1  -5 -15  403.06   22.90
   1  -5 -15  361.96   22.40
   4   1 -15  354.26   19.10
   1  -5 -15  358.66   22.00
   4   1 -15  372.96   19.20
   4   1 -15  372.76   21.90
  -5   4 -15  384.76   21.70
  -5   4 -15  393.16   22.60
  -5   4 -15  430.46   20.50
  -4  -1  15  429.86   22.10
  -4  -1  15  382.56   22.70
  -4  -1  15  447.56   23.90
   5  -4  15  432.46   23.00
  -1   5  15  378.46   22.20
  -1   5  15  398.66   23.00
  -1   5  15  378.76   22.70
   5  -4  15  410.26   22.40
   5  -4  15  365.16   20.20
  -2  -5 -15  694.33   38.40
  -2  -5 -15  739.43   38.90
  -5   7 -15  745.03   38.80
   7  -2 -15  648.04   35.60
  -2  -5 -15  715.83   39.80
  -5   7 -15  741.23   38.50
  -5   7 -15  720.13   37.90
   7  -2 -15  754.52   37.50
   2   5  15  700.13   38.60
  -7   2  15  769.72   39.80
   2   5  15  698.33   38.40
   5  -7  15  722.73   38.20
   5  -7  15  658.43   37.60
   2   5  15  748.33   40.00
   5  -7  15  744.63   38.80
  -7   2  15  687.63   37.00
  -5  10 -15  258.07   17.30
  -5  -5 -15  260.67   18.80
  -5  10 -15  277.47   18.80
  10  -5 -15  280.97   18.50
  -5  -5 -15  263.97   17.60
  10  -5 -15  261.87   15.70
  -5  -5 -15  250.57   16.90
   5   5  15  261.27   17.50
   5   5  15  272.37   18.90
   5 -10  15  274.27   17.50
 -10   5  15  300.47   19.30
 -10   5  15  238.88   15.30
   5   5  15  258.07   17.20
 -10   5  15  249.58   15.00
   9  -6 -15  699.43   37.90
  -6  -3 -15  728.83   40.60
  -3   9 -15  675.73   38.30
  -3   9 -15  701.83   39.10
  -6  -3 -15  721.53   39.20
   9  -6 -15  677.03   36.30
  -3   9 -15  735.53   40.60
  -6  -3 -15  645.94   37.40
   9  -6 -15  706.83   39.90
   6   3  15  731.63   38.10
  -9   6  15  709.23   36.60
  -9   6  15  785.42   41.30
   3  -9  15  738.43   38.70
  -9   6  15  690.33   37.60
   6   3  15  757.12   40.70
   6   3  15  762.52   39.70
  -6   0 -15 1248.88   63.19
   6  -6 -15 1232.38   61.89
   0   6 -15 1209.78   62.49
  -6   0 -15 1070.59   58.69
   0   6 -15 1220.88   60.79
   0   6 -15 1271.87   63.69
   6  -6 -15 1319.87   60.99
   6  -6 -15 1247.28   63.39
  -6   0 -15 1214.08   62.49
   0  -6  15 1241.28   60.89
  -6   6  15 1247.28   63.69
   6   0  15 1102.99   58.79
   6   0  15 1211.48   63.09
  -6   6  15 1227.08   61.69
   0  -6  15 1128.89   61.89
  -6   6  15 1262.57   61.39
   0  -6  15 1260.67   63.69
   3   3 -15  965.10   53.19
   3  -6 -15  997.00   53.29
   3   3 -15  998.30   50.29
  -6   3 -15 1047.80   55.49
  -6   3 -15  963.00   52.69
   3  -6 -15 1038.60   54.29
   3  -6 -15  962.70   53.09
  -3   6  15 1134.09   53.69
  -3  -3  15 1047.90   53.19
  -3  -3  15 1099.29   54.89
  -3   6  15 1116.49   54.69
   6  -3  15 1075.49   53.69
  -3   6  15 1048.60   53.79
   6   0 -15  602.14   32.20
   0  -6 -15  607.94   33.80
  -6   6 -15  587.04   31.80
  -6   6 -15  548.05   31.30
  -6   6 -15  582.54   32.90
   0  -6 -15  577.74   34.20
   0  -6 -15  567.14   33.00
  -6   0  15  621.54   33.70
   0   6  15  600.94   33.40
  -6   0  15  576.84   31.70
   6  -6  15  651.73   32.60
   6  -6  15  584.94   31.40
   0   6  15  601.14   33.80
   0   6  15  588.84   32.70
  -6   0  15  638.44   34.30
   6  -6  15  633.44   33.30
  -3  -6 -15   31.80    4.80
  -6   9 -15   33.70    4.40
  -3  -6 -15   34.80    5.00
  -6   9 -15   43.50    5.60
   9  -3 -15   32.20    4.00
   9  -3 -15   36.00    5.40
  -6   9 -15   39.00    5.20
   6  -9  15   47.40    5.60
  -9   3  15   43.60    4.30
  -9   3  15   39.90    3.50
   3   6  15   44.20    5.40
   6  -9  15   47.30    5.00
   3   6  15   52.39    6.50
  -9   3  15   47.10    6.10
   6  -9  15   53.59    5.90
  11  -7 -15  706.63   38.00
  -4  11 -15  641.04   36.10
  -7  -4 -15  578.84   35.00
  -4  11 -15  663.13   36.70
  -4  11 -15  645.84   38.10
  11  -7 -15  651.73   35.30
  11  -7 -15  577.14   32.60
  -7  -4 -15  684.93   36.80
  -7  -4 -15  678.93   38.50
   4 -11  15  609.14   35.60
   7   4  15  607.64   35.70
   4 -11  15  654.53   38.00
   7   4  15  684.63   37.10
   7   4  15  659.53   38.00
 -11   7  15  575.04   34.40
 -11   7  15  738.13   39.20
   8  -7 -15  343.27   21.00
  -7  -1 -15  337.87   21.40
  -1   8 -15  344.27   21.70
   8  -7 -15  314.07   19.00
   7   1  15  371.06   21.90
   1  -8  15  357.26   21.40
   1  -8  15  359.36   20.50
  -8   7  15  364.56   20.90
  -8   7  15  399.96   23.50
   2   5 -15  589.54   33.10
   2   5 -15  642.24   34.40
  -7   2 -15  579.54   32.60
  -7   2 -15  612.34   33.40
   5  -7 -15  590.94   33.90
   5  -7 -15  549.74   32.40
  -7   2 -15  620.14   33.30
   2   5 -15  636.44   30.60
   5  -7 -15  555.64   31.70
   7  -2  15  572.04   32.90
  -5   7  15  609.94   32.70
  -2  -5  15  622.44   32.90
  -2  -5  15  594.34   34.10
  -5   7  15  589.44   34.00
  -5   7  15  599.94   32.50
   2  -7 -15  694.93   36.80
  -7   5 -15  645.24   34.40
   2  -7 -15  723.23   36.50
   5   2 -15  658.83   35.30
  -7   5 -15  632.04   32.80
   2  -7 -15  680.93   35.60
  -7   5 -15  689.83   36.00
  -2   7  15  637.04   36.00
  -5  -2  15  634.24   36.10
   7  -5  15  641.44   35.00
   7  -5  15  657.73   36.00
  -2   7  15  639.64   36.30
   7  -5  15  615.04   32.70
  -5  -2  15  627.54   34.80
  -5  -2  15  631.44   36.60
  -2   7  15  620.34   35.20
  -1  -7 -15 1120.49   60.39
  -7   8 -15 1153.58   59.49
   8  -1 -15 1021.80   54.69
  -7   8 -15 1082.69   58.19
  -1  -7 -15 1130.19   59.29
   8  -1 -15 1096.99   57.89
  -1  -7 -15 1132.09   59.79
   1   7  15 1152.98   59.09
   1   7  15 1187.48   59.99
   7  -8  15 1196.68   59.69
  -8   1  15 1090.29   54.69
   1   7  15 1202.78   60.89
  -8   1  15 1087.09   57.39
   7  -8  15 1170.18   58.29
   7  -8  15 1150.68   58.39
  -8   1  15 1214.08   60.39
  -4  -7 -15  250.57   18.30
  -4  -7 -15  225.88   16.70
  -4  -7 -15  233.38   16.70
  11  -4 -15  216.08   13.90
  -7  11 -15  228.08   16.70
  11  -4 -15  253.67   17.80
   4   7  15  229.88   16.80
 -11   4  15  219.18   13.80
   4   7  15  265.57   18.40
   7 -11  15  248.88   16.90
 -11   4  15  247.38   14.30
   4   7  15  261.57   17.00
 -11   4  15  265.97   18.20
  -8  -2 -15   16.40    4.20
  10  -8 -15   14.70    2.10
  10  -8 -15   13.40    4.00
  -2  10 -15   12.00    3.70
  -2  10 -15   22.00    5.60
  10  -8 -15   17.50    4.10
  -8  -2 -15   12.70    2.80
  -2  10 -15   13.60    3.50
  -8  -2 -15   14.00    4.20
   8   2  15   16.40    4.50
   8   2  15   18.50    2.90
 -10   8  15   15.00    2.30
   2 -10  15   17.70    5.00
   2 -10  15   15.70    3.60
 -10   8  15   12.00    4.00
   8   2  15   15.30    4.10
   2 -10  15   12.70    3.40
 -10   8  15   11.50    3.00
  -8   1 -15  924.71   45.20
   1   7 -15  947.61   50.99
  -8   1 -15  999.20   50.09
   1   7 -15  990.50   50.09
   7  -8 -15 1006.50   51.09
   1   7 -15  925.71   47.50
   7  -8 -15  943.71   49.30
   7  -8 -15  940.11   47.40
  -8   1 -15  843.92   45.10
  -8   1 -15  995.20   49.99
  -8   1 -15  956.30   49.99
  -1  -7  15  918.91   47.30
  -7   8  15  907.11   48.90
  -1  -7  15  887.31   49.10
  -7   8  15  928.21   48.10
  -1  -7  15  900.01   50.79
  -7   8  15  915.01   50.89
   8  -1  15  860.61   49.40
   4  -8 -15  994.10   52.39
  -8   4 -15  941.81   51.09
   4  -8 -15  997.00   52.09
   4   4 -15  959.10   48.30
   8  -4  15  991.10   51.89
  -4  -4  15 1097.49   52.69
  -4   8  15 1037.10   53.89
  -4   8  15 1047.20   52.59
  -4  -4  15  931.21   48.30
   1  -8 -15  616.14   36.60
   7   1 -15  617.84   35.20
   1  -8 -15  593.84   35.70
  -8   7 -15  620.14   34.00
  -8   7 -15  575.44   33.90
  -8   7 -15  613.34   36.00
  -1   8  15  678.53   37.20
   8  -7  15  680.83   34.30
  -7  -1  15  692.43   37.90
   8  -7  15  654.13   35.00
  -7  -1  15  683.43   36.90
  -7  -1  15  709.33   35.30
   8  -7  15  680.63   36.40
  -1   8  15  659.03   35.90
  -2  -8 -15  329.17   20.20
  -2  -8 -15  328.27   21.40
  -8  10 -15  323.47   20.40
  -8  10 -15  306.67   19.60
  10  -2 -15  273.97   18.00
  -8  10 -15  276.97   18.00
 -10   2  15  289.67   17.70
   8 -10  15  308.17   19.90
   8 -10  15  288.17   19.30
 -10   2  15  310.37   20.50
   8 -10  15  290.97   18.30
   2   8  15  295.87   19.50
   2   8  15  308.57   21.00
   9  -9 -15  189.28   12.70
   0   9 -15  223.68   14.30
   0   9 -15  226.18   16.00
   9  -9 -15  256.37   17.30
   9  -9 -15  233.28   16.80
  -9   0 -15  224.28   15.60
  -9   0 -15  221.98   16.00
  -9   0 -15  222.78   16.10
   0   9 -15  218.58   16.80
  -9   9  15  215.08   13.50
   9   0  15  206.18   15.70
   0  -9  15  218.68   15.40
   0  -9  15  197.48   13.70
   0  -9  15  227.48   17.00
  -9   9  15  228.58   15.20
  -9   9  15  235.08   17.30
   6  -9 -15  239.88   17.50
  -9   3 -15  219.68   15.60
   3   6 -15  226.78   16.30
   3   6 -15  222.18   13.60
  -9   3 -15  240.18   16.50
   6  -9 -15  226.88   16.00
  -9   3 -15  244.78   16.60
   3   6 -15  251.87   17.60
   6  -9 -15  214.88   15.00
  -6   9  15  267.07   16.60
   9  -3  15  243.78   16.20
  -3  -6  15  260.77   18.00
  -3  -6  15  271.47   16.70
  -6   9  15  262.67   17.90
  -6   9  15  261.27   16.00
  -3  -6  15  245.38   13.70
   6   3 -15  870.61   44.20
  -9   6 -15  754.42   41.70
   3  -9 -15  794.72   43.20
  -9   6 -15  664.53   39.30
   3  -9 -15  753.42   41.80
   3  -9 -15  728.53   41.30
   9  -6  15  770.22   42.20
  -6  -3  15  759.72   43.10
  -3   9  15  774.02   41.70
  -3   9  15  767.12   42.90
   9  -6  15  693.03   40.20
  -3   9  15  776.12   42.10
  -6  -3  15  796.32   42.70
  -9   9 -15  522.05   30.50
  -9   9 -15  461.45   27.70
   9   0 -15  488.35   29.00
  -9   9 -15  462.65   28.40
   0  -9 -15  494.45   30.80
   0  -9 -15  489.75   30.90
   0  -9 -15  495.35   29.90
   9  -9  15  523.35   30.40
   0   9  15  525.85   31.20
   0   9  15  513.15   30.00
   0   9  15  529.05   31.30
  -9   0  15  559.84   32.20
  -9   0  15  549.25   31.10
   9  -9  15  535.15   28.90
  -9   0  15  520.25   28.70
   9  -9  15  535.25   29.20
 -10   2 -15  235.78   17.00
   2   8 -15  249.18   17.40
   2   8 -15  238.98   15.00
 -10   2 -15  264.97   17.50
   2   8 -15  255.87   18.40
 -10   2 -15  219.18   13.00
   8 -10 -15  210.88   14.60
   8 -10 -15  265.57   18.60
   8 -10 -15  261.17   17.20
 -10   2 -15  233.58   13.20
  10  -2  15  241.98   16.90
  -2  -8  15  259.07   18.60
  -2  -8  15  244.58   14.70
  -8  10  15  259.77   15.80
  -8  10  15  262.17   20.20
  -2  -8  15  265.57   17.30
  -8  10  15  266.77   17.10
 -10   5 -15  322.27   19.40
   5   5 -15  374.66   23.70
   5 -10 -15  399.46   25.20
   5   5 -15  368.86   19.40
 -10   5 -15  325.87   21.50
   5   5 -15  374.96   24.40
   5 -10 -15  393.66   23.30
   5 -10 -15  370.96   23.40
 -10   5 -15  385.76   23.80
  -5  10  15  428.86   24.20
  10  -5  15  342.37   19.40
  10  -5  15  375.66   22.70
  -5  -5  15  401.26   19.40
  -5  -5  15  417.86   25.60
  -5  -5  15  415.36   23.80
  -5  10  15  425.26   25.50
  -5  10  15  422.06   23.90
   2 -10 -15  216.58   15.40
 -10   8 -15  197.98   13.00
   2 -10 -15  219.48   15.90
   2 -10 -15  224.58   16.50
 -10   8 -15  182.78   12.90
   8   2 -15  208.08   14.80
 -10   8 -15  223.58   15.70
  10  -8  15  194.98   13.00
  10  -8  15  216.88   16.90
  -8  -2  15  221.38   16.00
  -8  -2  15  211.48   14.50
  -2  10  15  206.58   16.20
  10  -8  15  198.08   13.80
  -8  -2  15  224.18   16.80
   7 -11 -15  206.88   14.50
 -11   4 -15  223.08   16.10
   4   7 -15  199.38   12.70
   4   7 -15  206.68   15.90
 -11   4 -15  181.98   11.70
   7 -11 -15  223.28   15.90
 -11   4 -15  212.18   15.80
 -11   4 -15  216.68   14.80
   4   7 -15  230.78   17.30
   7 -11 -15  229.08   17.30
  -4  -7  15  220.28   12.70
  -4  -7  15  246.68   16.40
  -7  11  15  242.68   17.70
  -4  -7  15  245.48   17.70
  -7  11  15  253.77   16.40
  11  -4  15  218.48   15.30
 -11   7 -15  111.49    8.40
   7   4 -15  128.39   11.00
 -11   7 -15  129.29   11.20
   4 -11 -15  126.79   12.20
 -11   7 -15  111.59    8.90
   4 -11 -15  134.09   11.20
  11  -7  15  117.39    8.20
  -4  11  15  145.19   11.60
  -7  -4  15  150.48   12.50
  -7  -4  15  135.09   12.60
  11  -7  15  136.89   11.50
  -4  11  15  149.19   12.70
  11  -7  15  124.69    9.90
  -7  -4  15  142.49   11.10
  -1   0 -16  357.66   19.70
   1  -1 -16  389.76   20.80
  -1   0 -16  357.36   20.30
   1  -1 -16  367.46   20.10
  -1   0 -16  398.76   21.10
   1  -1 -16  368.86   20.60
   0   1 -16  345.47   19.70
   0   1 -16  353.76   20.60
   0  -1  16  400.66   21.20
  -1   1  16  348.07   20.50
   0  -1  16  361.96   20.20
   1   0  16  391.26   21.30
   1   0  16  375.56   20.50
  -1   1  16  357.26   20.10
  -1   1  16  394.96   21.20
  -1   3 -16  335.07   18.10
   3  -2 -16  343.77   19.20
   3  -2 -16  316.77   17.50
  -2  -1 -16  324.47   19.10
  -2  -1 -16  344.77   18.80
   3  -2 -16  328.17   18.30
  -1   3 -16  342.87   18.80
   1  -3  16  317.57   18.60
   2   1  16  289.27   17.80
  -3   2  16  334.07   18.60
  -3   2  16  306.97   17.50
   2   1  16  321.37   18.70
   1  -3  16  300.77   18.30
  -3   2  16  316.07   19.00
   2   0 -16  184.78   11.00
   0  -2 -16  173.98   10.90
   0  -2 -16  170.18   10.50
   0  -2 -16  169.68   11.10
   2   0 -16  178.58   11.20
  -2   2 -16  163.38   10.50
  -2   2 -16  159.38   10.60
  -2   2 -16  167.28   10.90
   0   2  16  167.08   10.70
  -2   0  16  161.08   10.90
   0   2  16  148.89   10.20
   0   2  16  167.48   11.40
   2  -2  16  145.89   10.70
  -2   0  16  152.38    9.50
  -2   0  16  169.88   10.90
  -2   5 -16  123.99    9.40
  -2   5 -16  125.29    9.30
  -2   5 -16  121.39    8.80
   5  -3 -16  132.99   10.00
   5  -3 -16  122.39    8.20
   5  -3 -16  128.69    8.70
  -3  -2 -16  123.09    9.90
   2  -5  16  115.09    9.00
   2  -5  16  116.59    9.30
  -5   3  16  137.59    9.00
   3   2  16  126.89   10.10
   3   2  16  131.29    9.60
   2  -5  16  128.99    9.00
  -5   3  16  130.79    8.20
  -5   3  16  136.79   10.30
   2  -3 -16  154.08   10.00
  -3   1 -16  144.99    9.80
   2  -3 -16  151.88    9.40
  -3   1 -16  143.19    9.60
   2  -3 -16  153.08    9.70
   1   2 -16  152.58    9.80
   1   2 -16  150.48    8.60
  -3   1 -16  142.29    9.70
  -1  -2  16  122.49    9.50
  -2   3  16  136.79    9.80
   3  -1  16  122.59    7.70
  -1  -2  16  123.49    9.20
   3  -1  16  126.79    9.70
  -2   3  16  145.19    9.30
  -2   3  16  136.69    9.80
  -1  -2  16  132.99    9.50
   3  -1  16  121.89    7.70
   4  -1 -16  446.66   24.30
  -3   4 -16  427.36   23.30
  -1  -3 -16  439.06   24.30
  -1  -3 -16  434.96   23.70
   4  -1 -16  392.86   21.30
  -3   4 -16  416.26   22.50
  -3   4 -16  411.36   23.20
  -1  -3 -16  389.36   22.60
   4  -1 -16  449.56   23.20
  -4   1  16  419.76   23.90
   1   3  16  400.56   22.90
   3  -4  16  410.86   22.80
   3  -4  16  439.46   23.60
   1   3  16  386.56   23.90
   1   3  16  410.26   23.40
   3  -4  16  410.56   23.30
  -4   1  16  404.16   22.80
  -3   7 -16  164.18   11.30
  -4  -3 -16  177.28   13.90
  -4  -3 -16  159.38   10.50
  -3   7 -16  186.68   12.60
  -3   7 -16  175.48   11.70
  -4  -3 -16  173.48   12.00
   7  -4 -16  172.88   10.50
   4   3  16  155.78   12.30
  -7   4  16  156.68   10.40
   3  -7  16  156.38   11.90
  -7   4  16  151.98   10.10
   3  -7  16  161.68   11.30
   3  -7  16  144.29   10.90
   4   3  16  147.19   10.40
  -4   0 -16  165.68   11.70
   0   4 -16  158.38   10.60
  -4   0 -16  173.38   12.10
   4  -4 -16  163.68   12.00
  -4   0 -16  160.88    9.30
   0   4 -16  162.78   11.70
   4  -4 -16  171.68   11.20
   4  -4 -16  158.98   11.00
   0   4 -16  172.68   12.10
   4   0  16  187.58   12.10
  -4   4  16  188.48   11.40
   4   0  16  195.28    9.60
   0  -4  16  196.38   11.10
   0  -4  16  192.18   12.60
  -4   4  16  204.38   12.00
  -4   4  16  192.48   12.80
   4   0  16  197.98   12.80
   3   1 -16 1559.14   74.69
   3   1 -16 1564.64   72.29
   1  -4 -16 1517.45   74.89
  -4   3 -16 1507.95   74.89
   1  -4 -16 1491.15   74.59
   1  -4 -16 1467.15   74.99
  -4   3 -16 1446.36   74.39
   3   1 -16 1393.96   72.09
  -1   4  16 1520.75   75.39
  -3  -1  16 1559.44   75.79
   4  -3  16 1427.46   72.29
  -1   4  16 1475.85   74.49
  -1   4  16 1497.25   74.99
   4  -3  16 1478.85   72.69
  -3  -1  16 1402.36   74.09
  -3  -1  16 1502.45   75.09
   4  -3  16 1560.24   75.09
   6  -2 -16  184.68   12.20
  -4   6 -16  190.98   13.00
  -4   6 -16  180.68   12.60
  -2  -4 -16  201.68   14.20
  -2  -4 -16  195.58   13.20
   6  -2 -16  208.28   14.00
  -2  -4 -16  184.18   12.60
  -4   6 -16  194.78   12.90
  -6   2  16  215.98   14.30
   2   4  16  201.88   14.20
   4  -6  16  206.28   13.30
  -6   2  16  212.28   12.50
   4  -6  16  194.68   12.80
   4  -6  16  194.48   12.80
   2   4  16  200.38   12.90
   2   4  16  197.68   13.30
  -4   9 -16  477.45   28.30
   9  -5 -16  500.45   25.20
  -5  -4 -16  461.55   26.20
  -4   9 -16  439.86   26.70
   9  -5 -16  484.25   25.70
   9  -5 -16  507.25   28.50
  -5  -4 -16  504.75   27.80
  -5  -4 -16  482.55   28.80
  -9   5  16  399.46   24.70
   5   4  16  466.35   27.40
   4  -9  16  463.95   28.00
  -9   5  16  494.65   28.80
   5   4  16  446.36   28.30
   4  -9  16  454.75   26.80
  -9   5  16  436.76   25.20
  -1   6 -16 1358.66   65.59
  -5  -1 -16 1310.57   65.49
   6  -5 -16 1266.67   65.19
  -5  -1 -16 1099.79   61.39
   6  -5 -16 1300.37   62.99
  -1   6 -16 1274.37   63.19
  -5  -1 -16 1280.17   64.59
  -1   6 -16 1315.87   64.59
   6  -5 -16 1273.47   63.49
   1  -6  16 1267.47   65.29
  -6   5  16 1233.48   63.19
   5   1  16 1244.58   65.29
  -6   5  16 1178.68   62.99
  -6   5  16 1265.97   65.69
   5   1  16 1326.37   61.89
   1  -6  16 1205.88   63.89
   5   1  16 1246.48   64.49
   1  -6  16 1248.48   63.29
  -5   2 -16  102.49    8.10
  -5   2 -16   98.49    8.20
   2   3 -16  101.29    6.40
   3  -5 -16  101.19    7.90
   2   3 -16  100.09    8.10
   3  -5 -16  101.59    8.00
  -5   2 -16  103.59    8.50
   3  -5 -16  104.39    8.60
  -2  -3  16  115.19    9.10
   5  -2  16  112.49    8.70
  -2  -3  16  104.69    8.10
  -3   5  16  119.29    8.70
  -3   5  16  111.29    8.20
  -3   5  16  109.39    8.80
   5   0 -16  692.73   35.60
   5   0 -16  644.44   32.50
   0  -5 -16  699.23   36.20
  -5   5 -16  643.64   35.20
  -5   5 -16  700.03   36.30
   0  -5 -16  699.83   37.00
   0  -5 -16  670.53   36.10
  -5   5 -16  679.73   35.40
  -5   0  16  648.64   35.00
  -5   0  16  663.73   36.50
   0   5  16  672.93   36.20
   5  -5  16  718.03   36.50
   0   5  16  660.73   36.80
   0   5  16  655.93   35.80
   5  -5  16  650.93   35.60
   5  -5  16  606.34   34.20
   8  -3 -16  141.29   10.00
  -3  -5 -16  152.18   11.50
  -5   8 -16  153.38   11.40
  -5   8 -16  159.28   11.70
   8  -3 -16  146.59   12.00
  -3  -5 -16  144.29   11.00
  -5   8 -16  152.28   11.00
  -3  -5 -16  160.48   12.60
   3   5  16  156.88   12.60
  -8   3  16  143.59    9.10
  -8   3  16  136.89    9.80
   5  -8  16  152.48   10.90
   5  -8  16  159.18   11.60
  -8   3  16  158.38   12.40
   5  -8  16  166.98   11.70
   3   5  16  164.38   12.60
   3   5  16  156.48   11.60
  -6  -5 -16   20.60    3.80
  -6  -5 -16   19.20    5.20
  11  -6 -16   18.60    3.10
  11  -6 -16   26.00    4.90
  -6  -5 -16   23.30    4.10
  -5  11 -16   22.00    4.70
  -5  11 -16   20.20    4.60
   5 -11  16   26.50    4.90
   6   5  16   17.00    4.10
   6   5  16   22.80    5.40
 -11   6  16   23.90    3.30
 -11   6  16   26.40    5.90
   6   5  16   26.40    4.50
   5 -11  16   19.20    4.20
   5 -11  16   23.80    3.80
 -11   6  16   19.50    2.70
  -6  -2 -16  138.29   10.50
  -6  -2 -16  129.29   11.00
  -2   8 -16  115.29   10.60
   8  -6 -16  141.39   11.20
  -6  -2 -16  122.19    8.40
  -2   8 -16  109.99    9.10
   8  -6 -16  138.49    8.60
   8  -6 -16  134.09    9.60
  -2   8 -16  135.39   10.40
   6   2  16  110.69    8.40
  -8   6  16  124.09    8.70
  -8   6  16  125.19    9.20
   2  -8  16  115.59   10.50
   6   2  16  134.89   10.50
  -8   6  16  136.69   11.50
  -6   1 -16  319.47   18.80
  -6   1 -16  313.97   19.00
   1   5 -16  333.37   18.90
   1   5 -16  317.97   19.40
   1   5 -16  290.77   19.20
   5  -6 -16  301.97   17.40
   5  -6 -16  301.97   18.00
  -6   1 -16  319.67   18.80
   5  -6 -16  317.77   19.30
  -5   6  16  294.17   17.90
  -1  -5  16  282.77   16.50
  -5   6  16  281.47   17.70
  -5   6  16  292.87   19.20
  -1  -5  16  285.57   18.00
   6  -1  16  270.27   18.40
  -1  -5  16  281.37   19.00
   4   2 -16   62.99    6.00
  -6   4 -16   73.89    6.70
  -6   4 -16   70.69    5.90
   2  -6 -16   64.09    6.50
   2  -6 -16   68.79    6.50
   2  -6 -16   63.49    6.00
  -2   6  16   54.19    6.20
   6  -4  16   61.29    6.20
   6  -4  16   61.19    6.00
  -4  -2  16   62.29    6.70
  -2   6  16   57.99    6.20
  -4  -2  16   54.19    6.10
   6  -4  16   56.19    4.00
  -2   6  16   52.09    5.60
  -4  -2  16   54.59    5.50
  -6   7 -16   87.29    7.30
  -1  -6 -16   94.09    8.20
   7  -1 -16   79.89    7.00
   7  -1 -16   80.39    4.90
  -6   7 -16   91.19    7.30
   1   6  16   94.49    8.30
  -7   1  16   84.29    6.90
   6  -7  16   87.29    7.20
   6  -7  16   94.69    7.70
   6  -7  16   92.19    8.10
  -7   1  16   85.59    4.90
  10  -4 -16  210.58   15.30
  -6  10 -16  201.68   14.40
  -4  -6 -16  212.98   15.90
  -4  -6 -16  214.88   14.70
  10  -4 -16  183.78   12.40
  -4  -6 -16  199.58   14.30
  -6  10 -16  184.98   14.50
  10  -4 -16  168.48   11.70
   6 -10  16  217.28   15.10
   4   6  16  215.78   14.70
 -10   4  16  183.38   11.80
   4   6  16  205.48   14.40
 -10   4  16  231.68   16.00
 -10   4  16  180.28   12.10
   6 -10  16  207.18   14.50
  -3  10 -16   44.30    5.70
  10  -7 -16   46.50    6.20
  -7  -3 -16   43.90    6.20
  10  -7 -16   41.40    5.00
  -7  -3 -16   47.60    5.70
  10  -7 -16   47.60    4.00
  -3  10 -16   39.90    6.10
  -7  -3 -16   39.80    4.60
 -10   7  16   38.00    4.60
   3 -10  16   39.60    6.00
 -10   7  16   43.90    6.50
 -10   7  16   34.90    3.80
   7   3  16   42.10    5.60
   7   3  16   33.50    4.50
   3 -10  16   37.10    4.90
   7   3  16   39.40    6.00
   7  -7 -16   32.10    3.60
   0   7 -16   34.20    4.60
   0   7 -16   29.40    3.50
  -7   0 -16   29.80    4.50
   7  -7 -16   33.80    4.30
   0   7 -16   27.60    5.20
  -7   0 -16   28.80    2.30
   7  -7 -16   33.40    5.00
  -7   0 -16   30.00    4.70
  -7   0 -16   27.60    2.30
  -7   7  16   32.20    5.20
   7   0  16   28.90    4.60
   0  -7  16   26.70    4.00
   0  -7  16   28.00    3.50
  -7   7  16   32.60    4.10
   3   4 -16  410.26   22.90
   3   4 -16  389.96   19.60
   4  -7 -16  398.56   22.50
  -7   3 -16  374.96   22.00
   3   4 -16  368.06   23.10
   4  -7 -16  384.16   22.20
  -7   3 -16  428.26   23.30
   4  -7 -16  412.76   23.80
   7  -3  16  367.66   22.40
  -4   7  16  384.96   23.50
  -4   7  16  380.66   22.50
  -3  -4  16  394.56   22.40
  -3  -4  16  312.07   22.80
  -3  -4  16  332.97   19.30
  -4   7  16  385.46   22.40
   1  -7 -16   43.20    5.50
   6   1 -16   39.50    4.60
  -7   6 -16   39.20    4.20
   1  -7 -16   44.90    5.50
  -7   6 -16   33.30    4.00
   7  -6  16   31.60    4.30
   7  -6  16   28.80    3.40
  -6  -1  16   29.50    4.00
  -1   7  16   31.60    4.80
  -1   7  16   33.30    4.90
   9  -2 -16  175.28   10.40
  -7   9 -16  189.98   12.80
  -7   9 -16  195.48   13.70
  -2  -7 -16  196.28   14.20
  -7   9 -16  191.78   14.00
   9  -2 -16  205.88   14.90
  -2  -7 -16  203.38   14.10
  -2  -7 -16  194.88   14.90
   9  -2 -16  187.28   12.60
   7  -9  16  186.18   13.40
   2   7  16  186.88   13.60
   2   7  16  175.08   13.70
  -9   2  16  196.88   12.30
  -9   2  16  170.98   10.30
  -9   2  16  205.18   14.70
   2   7  16  190.08   14.90
   7  -9  16  186.38   12.90
   7  -9  16  195.78   14.00
   9  -8 -16   83.79    8.00
   9  -8 -16   88.49    9.10
  -8  -1 -16   88.29    8.50
  -8  -1 -16   88.19    9.00
  -1   9 -16   86.79    8.50
  -1   9 -16   88.79    9.30
   9  -8 -16   76.89    6.30
  -8  -1 -16   73.39    6.20
  -1   9 -16   82.19    7.40
   1  -9  16  100.79    9.80
   8   1  16  108.69    8.10
   1  -9  16   94.79    7.80
   8   1  16   98.79    9.30
  -9   8  16   98.09    7.20
  -9   8  16  105.29   10.20
  -9   8  16   96.99    8.10
   1  -9  16  107.09    8.80
   2   6 -16  252.17   17.80
   2   6 -16  260.47   17.20
   6  -8 -16  266.37   16.90
   2   6 -16  247.88   14.60
  -8   2 -16  272.17   17.30
  -8   2 -16  262.27   17.30
   6  -8 -16  277.77   18.20
  -8   2 -16  253.57   16.70
   6  -8 -16  240.28   15.50
  -6   8  16  265.27   16.40
  -2  -6  16  254.17   18.00
  -6   8  16  253.87   17.90
  -2  -6  16  269.87   16.90
  -6   8  16  249.18   17.60
   8  -2  16  250.87   16.90
  -2  -6  16  247.18   14.50
  -8   5 -16    6.50    2.70
  -8   5 -16    7.00    2.30
  -8   5 -16    6.10    1.30
   3  -8 -16    8.30    2.90
  -3   8  16    4.20    2.20
   8  -5  16    3.50    2.10
  -5  -3  16    4.10    2.30
   8  -5  16    3.90    2.00
  -3   8  16    4.80    2.20
  -5  -3  16    3.80    1.80
  -3   8  16    3.40    2.20
   8  -5  16    3.80    1.00
  -5  -3  16    4.90    2.30
   0  -8 -16  324.47   19.60
   0  -8 -16  303.17   20.20
  -8   8 -16  300.97   18.00
  -8   8 -16  312.67   19.70
  -8   8 -16  301.87   17.80
   8   0 -16  312.87   18.60
  -8   0  16  269.77   20.00
  -8   0  16  304.57   19.90
   8  -8  16  281.97   19.10
  -8   0  16  294.67   18.00
   8  -8  16  283.57   18.20
   8  -8  16  290.67   18.00
   0   8  16  300.37   19.90
   0   8  16  280.47   19.90
   0   8  16  286.87   19.00
  -3  -8 -16   23.60    5.70
  -8  11 -16   20.00    4.70
  -8  11 -16   20.40    4.70
  11  -3 -16   15.80    4.50
  -3  -8 -16   19.70    4.50
  11  -3 -16   19.20    2.40
  11  -3 -16   18.40    3.10
  -3  -8 -16   14.80    4.20
 -11   3  16   17.60    4.70
   3   8  16   17.90    4.90
 -11   3  16   12.70    1.90
   3   8  16   21.80    5.90
 -11   3  16   16.00    2.70
   3   8  16   17.20    4.40
   8 -11  16   17.20    4.40
  11  -9 -16  163.88   12.70
  -2  11 -16  164.08   12.40
  11  -9 -16  168.78   14.10
  -2  11 -16  169.88   13.50
  -9  -2 -16  151.28   11.10
  -9  -2 -16  173.98   14.30
  -9  -2 -16  174.48   13.30
  -2  11 -16  158.48   14.30
   2 -11  16  159.38   12.70
 -11   9  16  158.28   10.20
   9   2  16  177.68   14.20
   9   2  16  138.89   10.70
   9   2  16  185.18   13.60
 -11   9  16  199.88   15.50
 -11   9  16  163.78   12.30
   2 -11  16  176.48   14.70
   1   8 -16  115.69   10.10
   8  -9 -16  117.59    9.80
  -9   1 -16  121.89   10.10
  -9   1 -16  100.59    6.30
   1   8 -16  117.79   10.90
   8  -9 -16  111.19    8.00
  -9   1 -16  118.19   10.20
   1   8 -16  112.59    8.40
  -9   1 -16  107.59    6.30
   8  -9 -16  124.29   11.00
  -1  -8  16  107.19   10.60
  -8   9  16  108.99    8.50
  -8   9  16  107.59    9.30
  -1  -8  16   98.79    7.90
  -1  -8  16  101.09    9.30
  -9   4 -16  227.38   15.60
  -9   4 -16  198.08   13.90
   5  -9 -16  222.18   16.30
   4   5 -16  210.98   15.10
  -9   4 -16  207.68   15.10
   4   5 -16  204.38   11.60
   4   5 -16  200.18   15.60
   5  -9 -16  214.68   15.00
  -5   9  16  241.28   15.50
  -4  -5  16  210.28   11.60
  -4  -5  16  215.58   16.30
  -4  -5  16  228.88   15.10
   9  -4  16  212.18   14.70
  -5   9  16  235.18   15.20
  -5   9  16  235.78   16.60
  -9   7 -16  175.68   12.00
   2  -9 -16  193.18   14.30
  -9   7 -16  182.08   12.60
   2  -9 -16  191.78   14.70
   2  -9 -16  202.28   15.40
   9  -7  16  191.58   12.00
  -2   9  16  207.58   15.50
  -7  -2  16  214.88   15.90
  -2   9  16  218.28   15.70
   9  -7  16  199.98   13.60
  -7  -2  16  211.58   15.30
   9  -7  16  209.98   14.80
  -2   9  16  209.08   14.50
  10  -1 -16   45.30    5.20
  -9  10 -16   42.90    5.40
  -9  10 -16   47.90    6.10
  -1  -9 -16   47.80    6.70
  -9  10 -16   42.80    4.80
  -1  -9 -16   49.20    6.10
  -1  -9 -16   45.60    6.50
   1   9  16   38.90    5.90
 -10   1  16   32.40    2.20
   9 -10  16   35.40    4.80
 -10   1  16   37.20    5.80
   1   9  16   37.70    5.40
   1   9  16   35.30    5.70
   9 -10  16   39.00    5.60
   9 -10  16   36.20    5.10
 -10   1  16   37.40    6.20
 -10   1  16   36.00    4.50
 -10   1  16   31.40    2.20
 -10   0 -16  195.58   12.40
 -10   0 -16  217.08   16.20
   0  10 -16  228.98   16.30
  10 -10 -16  197.68   12.50
  10 -10 -16  230.98   15.80
 -10   0 -16  218.38   16.10
   0  10 -16  210.68   16.90
 -10   0 -16  193.38   12.10
 -10   0 -16  235.28   16.00
   0  10 -16  225.18   14.50
  10 -10 -16  220.58   16.80
 -10  10  16  190.18   12.90
   0 -10  16  217.68   15.60
  10   0  16  206.48   15.80
 -10  10  16  213.28   15.00
   0 -10  16  217.38   17.00
 -10  10  16  225.78   17.40
   0 -10  16  189.58   13.60
   3   7 -16   85.99    8.50
   3   7 -16   83.29    6.20
   7 -10 -16   87.89    9.30
   7 -10 -16   80.09    8.00
 -10   3 -16   86.29    8.50
 -10   3 -16   90.89    8.70
   3   7 -16   80.79    9.00
 -10   3 -16   77.59    7.60
   7 -10 -16   71.69    6.80
  -7  10  16   78.59    8.80
  10  -3  16   72.19    7.60
  -3  -7  16   82.09    8.00
  -7  10  16   74.29    7.20
  -7  10  16   82.39    8.00
  -3  -7  16   73.49    8.60
  -3  -7  16   71.99    5.80
 -10   6 -16   64.39    5.00
   4 -10 -16   73.29    7.60
   6   4 -16   68.89    7.40
   4 -10 -16   74.89    8.60
 -10   6 -16   67.29    6.30
 -10   6 -16   75.39    7.70
  -6  -4  16   75.19    8.70
  -6  -4  16   72.99    8.10
  -6  -4  16   68.99    7.20
  10  -6  16   65.59    6.70
  10  -6  16   75.09    7.90
  -4  10  16   71.29    7.70
  -4  10  16   74.99    8.50
  -4  10  16   73.69    7.70
   1 -10 -16  270.87   19.50
   1 -10 -16  280.57   18.80
 -10   9 -16  246.48   16.60
 -10   9 -16  272.77   18.80
 -10   9 -16  232.48   16.00
   9   1 -16  253.17   17.70
   1 -10 -16  269.57   19.30
  -9  -1  16  291.37   19.50
  10  -9  16  276.07   18.80
  10  -9  16  273.57   17.40
  -1  10  16  296.87   18.90
  -1  10  16  290.07   20.00
  10  -9  16  271.47   17.10
  -9  -1  16  280.97   17.60
 -11   2 -16  101.79    9.40
 -11   2 -16   82.39    5.40
   2   9 -16   96.19    9.40
 -11   2 -16   88.19    8.90
   9 -11 -16   94.99    8.90
 -11   2 -16   80.39    8.40
   2   9 -16   81.79    9.50
 -11   2 -16   76.59    5.40
   9 -11 -16  101.59   10.50
   2   9 -16   90.89    7.30
  -9  11  16   82.79    9.50
  -9  11  16   72.89    6.90
  -9  11  16   80.89    8.20
  -2  -9  16   64.29    6.30
  11  -2  16   71.39    8.00
  -2  -9  16   67.79    8.90
   5   6 -16  134.39   11.40
   6 -11 -16  128.49   10.40
 -11   5 -16  122.79    9.70
 -11   5 -16  109.59    7.10
 -11   5 -16  129.89   11.20
   6 -11 -16  138.09   12.40
 -11   5 -16  106.49    7.00
   5   6 -16  139.49   12.30
   6 -11 -16  139.39   11.40
 -11   5 -16  142.69   11.60
  11  -5  16  125.19   10.30
  -6  11  16  132.29   10.80
  -6  11  16  133.29   12.30
  -6  11  16  131.59   11.10
  -5  -6  16  122.39    7.50
  -5  -6  16  143.39   11.30
   3 -11 -16  139.39   12.60
 -11   8 -16  117.89    9.00
 -11   8 -16  109.79    8.60
   3 -11 -16  132.89   11.60
 -11   8 -16  137.49   11.60
   8   3 -16  132.09   11.10
  -8  -3  16  135.59   12.10
  -3  11  16  134.79   11.30
  11  -8  16  137.19   11.60
  -8  -3  16  132.29   12.50
  11  -8  16  109.89    8.50
  -3  11  16  132.99   12.30
  -8  -3  16  130.39   10.70
  11  -8  16  116.09    9.80
  -1   1 -17  371.66   21.10
  -1   1 -17  333.67   20.30
   1   0 -17  374.96   20.30
   1   0 -17  372.06   21.00
   0  -1 -17  360.66   20.70
   0  -1 -17  392.56   21.40
   0  -1 -17  365.56   20.60
   1   0 -17  384.96   21.10
   0   1  17  364.36   20.60
   1  -1  17  379.76   20.30
   0   1  17  376.16   20.90
   0   1  17  398.46   21.80
  -1   0  17  391.96   20.30
   1  -1  17  389.06   21.80
  -1   0  17  389.06   21.10
   0   2 -17  184.38   11.40
   2  -2 -17  188.38   12.30
  -2   0 -17  191.38   12.40
   2  -2 -17  179.28   11.50
   0   2 -17  170.48   11.10
   2  -2 -17  181.08   12.00
   0  -2  17  204.68   12.30
   2   0  17  179.48   10.80
   2   0  17  200.48   12.90
  -2   2  17  190.28   12.40
   0  -2  17  190.98   11.90
   2   0  17  190.38   12.20
  -2   2  17  211.48   12.70
  -2   2  17  200.88   11.80
   0  -2  17  203.88   12.60
  -1  -2 -17  415.26   22.70
   3  -1 -17  390.86   20.70
   3  -1 -17  398.76   22.60
  -2   3 -17  410.16   22.20
  -2   3 -17  368.96   21.60
   3  -1 -17  442.76   22.20
  -1  -2 -17  384.16   21.10
  -1  -2 -17  399.16   22.10
   1   2  17  372.66   21.30
   2  -3  17  364.86   21.40
   1   2  17  383.46   22.80
  -3   1  17  386.26   22.50
  -3   1  17  407.16   22.10
   2  -3  17  361.86   20.90
  -3   1  17  386.56   20.70
   1   2  17  389.36   22.10
   2  -3  17  394.26   22.30
  -1   4 -17  429.56   23.00
  -3  -1 -17  392.06   22.70
  -1   4 -17  394.36   21.90
   4  -3 -17  376.36   21.50
   4  -3 -17  414.56   22.20
  -3  -1 -17  419.96   23.40
  -3  -1 -17  375.86   20.80
  -1   4 -17  401.46   22.70
   3   1  17  408.86   23.00
  -4   3  17  403.86   23.50
  -4   3  17  388.26   21.60
   1  -4  17  400.56   22.60
   3   1  17  394.46   21.00
   3   1  17  389.06   23.40
  -4   3  17  428.96   22.60
   1  -4  17  382.86   22.80
   1  -4  17  399.46   22.00
   1  -3 -17   66.99    6.00
   2   1 -17   69.39    5.90
  -3   2 -17   71.79    5.90
   1  -3 -17   66.69    5.80
  -3   2 -17   69.19    6.00
   1  -3 -17   73.59    5.90
  -3   2 -17   71.99    6.10
   3  -2  17   62.69    4.40
  -2  -1  17   52.89    5.70
  -1   3  17   60.59    5.90
  -2  -1  17   62.79    5.80
  -2  -1  17   60.29    5.60
   3  -2  17   54.39    4.50
   3  -2  17   60.09    6.00
  -1   3  17   64.19    5.70
  -1   3  17   63.09    5.80
  -3   5 -17  148.59   10.30
  -2  -3 -17  144.09   10.50
   5  -2 -17  146.99    9.80
  -2  -3 -17  129.39    9.30
   5  -2 -17  140.79    8.70
  -3   5 -17  157.18   10.20
  -3   5 -17  155.98   10.40
   5  -2 -17  148.79   11.00
  -5   2  17  134.19    9.60
  -5   2  17  145.69   11.00
   3  -5  17  136.79   10.10
   2   3  17  138.69   11.00
  -5   2  17  139.89    8.70
   3  -5  17  154.28   10.30
   2   3  17  132.99   10.20
   2   3  17  136.09    9.60
   3  -5  17  149.79   10.30
  -4  -2 -17  494.95   27.80
  -2   6 -17  415.76   27.40
   6  -4 -17  502.75   26.50
   6  -4 -17  497.95   26.50
  -2   6 -17  455.25   26.60
   6  -4 -17  500.15   28.50
  -4  -2 -17  440.46   25.50
  -2   6 -17  492.05   27.60
  -4  -2 -17  499.35   28.70
   2  -6  17  513.05   27.20
   2  -6  17  520.55   28.40
   2  -6  17  483.85   27.30
  -6   4  17  513.35   26.80
  -6   4  17  543.55   29.20
   4   2  17  511.65   28.90
   3  -4 -17   17.20    3.00
   3  -4 -17   19.40    3.00
  -4   1 -17   20.00    3.20
   1   3 -17   22.10    2.50
   1   3 -17   16.60    2.10
   3  -4 -17   17.80    2.80
   1   3 -17   19.10    3.10
  -4   1 -17   22.10    3.30
  -4   1 -17   17.70    2.90
  -3   4  17   24.80    3.50
   4  -1  17   24.50    3.80
  -1  -3  17   20.20    3.20
   4  -1  17   23.40    1.80
  -3   4  17   21.40    3.50
  -1  -3  17   22.80    3.30
   0  -4 -17  150.68   11.20
  -4   4 -17  139.29   10.30
   4   0 -17  154.88   10.50
   0  -4 -17  148.39   10.70
   0  -4 -17  143.29   10.40
   4   0 -17  146.59   11.20
  -4   4 -17  150.48   10.80
   4   0 -17  138.59    8.50
   4  -4  17  157.08    9.70
   0   4  17  160.58   10.90
   4  -4  17  167.78   11.10
   4  -4  17  162.48   11.00
   0   4  17  157.88   11.50
  -4   0  17  163.28   11.40
   0   4  17  158.18   10.80
  -4   0  17  168.38   10.60
  -4   0  17  155.18    8.60
   7  -3 -17  120.79    8.50
  -3  -4 -17  118.09    8.80
   7  -3 -17  102.49    7.50
  -4   7 -17  120.29    9.30
  -4   7 -17  111.89    9.40
  -4   7 -17  129.69    9.40
   3   4  17  120.59    8.90
  -7   3  17  112.49    7.50
  -7   3  17  114.69    8.30
   4  -7  17  119.49    9.40
   4  -7  17  120.69    9.10
   4  -7  17  115.79    9.30
   8  -5 -17  597.14   31.60
  -5  -3 -17  570.64   32.80
  -3   8 -17  600.64   33.90
  -5  -3 -17  592.04   34.10
  -3   8 -17  530.35   31.80
  -5  -3 -17  510.45   30.80
   8  -5 -17  628.44   31.20
   8  -5 -17  600.04   33.90
   5   3  17  612.04   33.40
   3  -8  17  611.44   33.80
  -8   5  17  560.84   31.00
   5   3  17  585.74   34.10
   3  -8  17  601.74   32.40
  -8   5  17  649.74   34.80
  -8   5  17  576.64   31.10
  -5   0 -17  590.34   32.80
  -5   0 -17  583.94   33.10
   0   5 -17  609.84   32.90
   0   5 -17  554.84   31.00
  -5   0 -17  562.84   29.20
   0   5 -17  624.74   33.60
   5  -5 -17  544.85   31.70
   5  -5 -17  598.34   33.40
   5  -5 -17  599.14   31.70
   5   0  17  606.84   33.50
  -5   5  17  605.14   33.80
  -5   5  17  591.74   32.10
  -5   5  17  609.64   32.00
   5   0  17  658.33   29.50
   0  -5  17  617.64   33.70
   5   0  17  610.14   32.90
   0  -5  17  618.74   32.70
  -5   3 -17  736.93   39.40
   3   2 -17  727.43   36.30
   3   2 -17  755.32   39.20
   2  -5 -17  714.13   38.90
   2  -5 -17  699.53   39.40
  -5   3 -17  719.23   39.30
  -5   3 -17  693.63   38.70
   2  -5 -17  717.53   39.30
   3   2 -17  687.03   36.20
   5  -3  17  722.43   36.10
  -2   5  17  744.63   39.80
  -2   5  17  773.52   39.20
  -3  -2  17  830.92   39.20
  -3  -2  17  790.02   40.50
  -3  -2  17  765.52   39.90
   5  -3  17  749.03   39.50
  -2   5  17  783.12   39.90
   5  -3  17  701.53   35.90
  -1  -5 -17  183.68   13.00
  -5   6 -17  204.78   12.50
  -5   6 -17  187.08   12.50
   6  -1 -17  182.78   12.20
  -5   6 -17  198.88   13.20
  -1  -5 -17  187.18   13.70
   6  -1 -17  177.78   13.50
  -1  -5 -17  175.58   12.60
   6  -1 -17  189.38   10.20
   1   5  17  181.18   12.80
   1   5  17  196.68   14.00
   5  -6  17  207.48   13.40
   1   5  17  192.28   13.10
  -6   1  17  185.48   13.50
  -6   1  17  170.28   10.00
   5  -6  17  190.78   12.70
  -6   1  17  188.58   12.10
   9  -4 -17   37.90    5.30
  -5   9 -17   38.60    5.30
  -5   9 -17   36.70    4.90
   9  -4 -17   39.80    3.80
  -4  -5 -17   33.70    4.80
   9  -4 -17   38.50    4.00
  -4  -5 -17   30.70    4.40
  -4  -5 -17   35.70    5.40
   4   5  17   25.30    4.30
   4   5  17   25.20    4.00
   5  -9  17   28.40    4.60
   4   5  17   26.90    5.60
  -9   4  17   30.40    3.70
  -9   4  17   26.30    3.10
  -9   4  17   29.30    5.10
  -4  10 -17    6.40    3.00
  10  -6 -17    5.20    2.60
  -6  -4 -17    7.70    2.90
  -4  10 -17    6.00    2.50
  -6  -4 -17    4.90    2.10
  -4  10 -17    6.70    2.70
  10  -6 -17    6.10    1.80
  -6  -4 -17    5.10    2.90
   6   4  17    7.40    2.90
   4 -10  17    7.30    2.60
 -10   6  17    8.20    2.20
   6   4  17    6.60    2.50
   4 -10  17   11.00    3.90
 -10   6  17    7.90    2.40
 -10   6  17    9.50    3.60
   6   4  17    7.10    3.10
   4 -10  17    5.80    2.40
  -6  -1 -17   48.20    3.90
   7  -6 -17   53.39    5.50
  -1   7 -17   53.89    5.90
  -1   7 -17   50.99    5.10
   7  -6 -17   54.49    6.30
   7  -6 -17   54.89    5.00
  -1   7 -17   63.09    6.90
   1  -7  17   57.39    6.70
  -7   6  17   49.70    5.20
   6   1  17   64.19    4.50
  -7   6  17   51.69    5.10
   6   1  17   51.89    6.00
  -7   6  17   54.79    7.70
   1  -7  17   63.39    5.60
   6   1  17   54.59    7.30
   4  -6 -17  308.67   19.00
   2   4 -17  290.97   18.10
   4  -6 -17  307.17   18.00
  -6   2 -17  298.17   18.10
   4  -6 -17  280.97   17.50
   2   4 -17  308.27   18.90
  -2  -4  17  291.57   17.90
  -4   6  17  296.97   18.10
  -2  -4  17  271.27   18.70
  -4   6  17  304.37   17.90
   6  -2  17  282.97   18.30
  -4   6  17  287.47   18.90
   1  -6 -17  227.68   15.70
   1  -6 -17  228.38   15.40
  -6   5 -17  216.28   15.40
  -6   5 -17  210.28   14.50
   5   1 -17  250.17   15.40
   1  -6 -17  222.78   15.80
  -5  -1  17  266.87   16.50
  -5  -1  17  237.18   16.60
  -5  -1  17  249.88   15.10
  -1   6  17  255.67   16.30
  -1   6  17  251.87   15.70
   6  -5  17  248.08   15.60
  -1   6  17  248.68   16.40
   6  -5  17  258.77   16.20
  -6   8 -17  319.57   20.00
  -6   8 -17  337.87   21.00
   8  -2 -17  348.27   22.20
   8  -2 -17  337.97   19.80
  -2  -6 -17  345.57   21.20
  -6   8 -17  329.37   20.60
  -2  -6 -17  328.77   22.00
  -2  -6 -17  315.67   20.60
  -8   2  17  372.46   22.20
   2   6  17  346.77   21.10
   2   6  17  349.67   21.10
   2   6  17  344.37   22.20
  -8   2  17  330.67   19.40
   6  -8  17  344.57   20.30
  -8   2  17  327.37   17.50
   6  -8  17  346.77   20.60
  -5  -6 -17  137.09   11.30
  -5  -6 -17  124.49   10.60
  11  -5 -17  142.09   12.00
  -6  11 -17  135.69   11.20
  11  -5 -17  124.19    9.00
  -6  11 -17  128.49   10.60
  -5  -6 -17  145.49   12.60
  11  -5 -17  119.99    8.90
  -6  11 -17  145.49   12.20
   5   6  17  124.39   10.90
   5   6  17  133.19   12.10
 -11   5  17  105.09    8.50
   6 -11  17  132.09   11.60
 -11   5  17  135.49   12.20
   6 -11  17  126.09   10.20
   6 -11  17  133.99   11.00
   5   6  17  134.39   11.10
 -11   5  17  117.79    8.70
  -2   9 -17   26.40    3.90
  -7  -2 -17   33.10    4.70
  -2   9 -17   31.00    4.80
  -7  -2 -17   26.90    3.30
  -2   9 -17   26.40    5.00
  -7  -2 -17   31.60    5.10
   9  -7 -17   30.50    4.30
   9  -7 -17   32.40    5.80
   9  -7 -17   29.30    3.40
  -9   7  17   32.10    4.10
   2  -9  17   33.90    5.40
  -9   7  17   36.00    5.70
   7   2  17   35.80    4.90
  -9   7  17   29.50    3.60
   7   2  17   28.60    3.50
   2  -9  17   29.90    4.20
   2  -9  17   34.40    4.60
   7   2  17   31.00    5.10
   6  -7 -17   63.49    7.00
   6  -7 -17   50.79    5.30
  -7   1 -17   57.49    6.60
   6  -7 -17   61.29    6.20
   1   6 -17   54.79    6.80
   1   6 -17   64.29    6.60
   1   6 -17   56.99    5.00
  -7   1 -17   56.09    6.40
  -1  -6  17   66.19    5.30
  -1  -6  17   70.89    7.40
  -6   7  17   68.49    6.20
  -6   7  17   69.39    6.40
   7  -1  17   66.29    6.90
   3  -7 -17  174.78   12.40
   3  -7 -17  181.38   13.30
   4   3 -17  168.38    8.80
   4   3 -17  180.18   12.60
   3  -7 -17  200.28   13.00
  -7   4 -17  186.58   12.10
   4   3 -17  175.58    8.80
  -3   7  17  165.28   12.20
   7  -4  17  170.28   12.40
  -4  -3  17  171.08   12.10
  -3   7  17  166.78   13.10
  -3   7  17  170.88   12.70
  -7   7 -17  623.54   33.30
   0  -7 -17  591.94   35.50
   0  -7 -17  638.44   35.40
  -7   7 -17  649.04   35.30
  -7   7 -17  620.14   33.60
   7   0 -17  654.63   34.30
  -7   0  17  627.84   35.50
   0   7  17  623.54   34.70
  -7   0  17  601.74   33.50
   7  -7  17  601.94   34.00
   0   7  17  638.24   35.50
   7  -7  17  634.84   35.10
   7  -7  17  600.94   33.10
  -7   0  17  634.54   36.30
  10  -3 -17  153.38    9.90
  -3  -7 -17  158.88   13.00
  -3  -7 -17  161.78   13.90
  10  -3 -17  161.18   11.40
  -7  10 -17  170.38   13.20
  10  -3 -17  183.38   14.10
  -7  10 -17  167.38   13.10
 -10   3  17  196.48   14.50
   7 -10  17  179.68   13.30
   3   7  17  161.48   12.90
 -10   3  17  177.88   11.30
 -10   3  17  152.28    9.80
   3   7  17  175.88   14.30
   3   7  17  174.88   13.10
   7 -10  17  183.38   13.40
  11  -8 -17   91.39    6.70
  11  -8 -17   97.99   10.00
  11  -8 -17   97.39    8.80
  -8  -3 -17  100.29    9.40
  -8  -3 -17  101.09   10.30
  -3  11 -17  105.99   10.70
  -8  -3 -17   86.39    7.70
  -3  11 -17   95.89    8.70
  -3  11 -17   99.29    9.50
   3 -11  17  107.99   10.70
   8   3  17   98.29    8.20
   3 -11  17   96.69    8.70
   8   3  17   86.69    9.70
   8   3  17  104.39    9.70
 -11   8  17   89.59    6.90
   3 -11  17  104.09    9.20
 -11   8  17  112.99   11.10
   8  -8 -17   22.80    5.20
  -8   0 -17   15.00    4.10
   8  -8 -17   21.00    3.70
  -8   0 -17   18.30    1.80
  -8   0 -17   22.50    4.00
   8  -8 -17   15.50    2.60
  -8   0 -17   15.40    4.00
   0   8 -17   12.20    4.00
   0   8 -17   17.40    2.90
  -8   0 -17   16.60    1.80
   0   8 -17   17.90    4.20
   0  -8  17   11.80    4.00
   8   0  17   15.30    4.10
   0  -8  17   16.20    3.80
  -8   8  17   15.20    3.30
  -8   8  17   17.30    3.90
   0  -8  17   11.80    2.80
  -8   8  17   17.80    4.80
  -8   3 -17   13.10    3.60
   3   5 -17   12.90    3.90
   3   5 -17   20.40    4.50
   5  -8 -17   13.80    3.30
  -8   3 -17   13.20    3.30
  -8   3 -17   16.90    4.00
   5  -8 -17   19.60    4.60
  -5   8  17   21.80    5.00
  -3  -5  17   17.20    4.60
  -3  -5  17   21.00    3.60
  -5   8  17   21.70    3.70
   8  -3  17   17.20    3.90
  -8   6 -17   10.70    3.30
  -8   6 -17    9.60    2.60
   2  -8 -17   10.60    3.30
  -2   8  17   10.10    3.10
  -6  -2  17   15.00    4.90
  -6  -2  17   12.10    3.10
   8  -6  17   11.50    3.10
  -2   8  17   11.50    3.50
   8  -6  17   14.90    4.10
  -8   9 -17    5.20    2.10
  -8   9 -17    5.00    2.60
  -8   9 -17    4.60    2.20
   9  -1 -17    6.60    2.40
  -1  -8 -17    6.30    2.90
  -1  -8 -17    7.20    3.00
   1   8  17    5.50    2.50
  -9   1  17    4.40    2.70
   1   8  17    5.50    2.80
   8  -9  17    5.50    2.40
   8  -9  17    4.60    2.20
   8  -9  17    5.10    2.60
  -9   1  17    4.50    2.00
  -9   1  17    5.60    2.80
  -9  -1 -17  116.19   11.10
  -1  10 -17  117.49   11.60
  -9  -1 -17  130.19   10.90
  -1  10 -17  114.39    9.50
  -9  -1 -17   97.69    7.80
  -1  10 -17  122.89   10.90
  10  -9 -17  131.99   11.80
  -9  -1 -17  119.39   10.90
  -9  -1 -17  101.49    7.60
  10  -9 -17  129.79   10.60
  10  -9 -17  127.39    8.30
 -10   9  17  141.59   12.60
   1 -10  17  131.89   10.70
 -10   9  17  121.19    8.70
   1 -10  17  115.59    9.40
 -10   9  17  128.99   10.10
   9   1  17  122.49   11.10
   1 -10  17  132.79   12.10
   2   7 -17  204.28   15.70
   2   7 -17  192.48   12.40
   7  -9 -17  210.88   14.60
  -9   2 -17  202.18   14.90
   7  -9 -17  177.78   12.80
   7  -9 -17  215.88   15.90
  -9   2 -17  213.98   15.10
  -2  -7  17  216.48   14.70
  -7   9  17  202.58   13.80
   9  -2  17  193.18   14.70
  -7   9  17  215.18   16.00
  -2  -7  17  199.88   15.70
  -2  -7  17  205.78   12.40
  -7   9  17  214.08   14.50
   5   4 -17   10.70    3.20
   4  -9 -17    9.90    3.20
   4  -9 -17    9.20    2.90
  -9   5 -17   14.10    1.20
   4  -9 -17    9.30    3.50
  -9   5 -17   10.10    2.80
  -9   5 -17   11.60    3.50
  -5  -4  17   10.80    3.50
  -4   9  17   14.00    3.80
   9  -5  17   15.50    4.50
   9  -5  17   11.30    1.10
  -5  -4  17   15.20    3.60
  -4   9  17   14.80    3.90
  -4   9  17   12.10    3.90
  -5  -4  17   21.70    5.20
  -9   8 -17   17.70    4.50
   1  -9 -17   21.10    5.00
   1  -9 -17   20.90    4.60
   1  -9 -17   23.90    5.50
  -9   8 -17   18.70    3.10
  -9   8 -17   16.40    3.00
  -1   9  17   27.90    5.00
  -1   9  17   28.70    4.60
   9  -8  17   26.50    3.60
  -1   9  17   27.60    5.70
  -8  -1  17   25.50    6.00
   9  -8  17   26.30    5.50
  -8  -1  17   29.30    5.00
   9  -8  17   24.60    4.10
 -10   1 -17   83.69    8.80
   1   9 -17   90.39    7.50
   9 -10 -17   84.69    6.80
 -10   1 -17   80.59    5.30
 -10   1 -17   89.49    8.90
 -10   1 -17   92.79    9.20
   1   9 -17   93.79    9.20
   1   9 -17   92.19    9.90
   9 -10 -17   88.69    8.60
 -10   1 -17   71.89    5.20
  -1  -9  17   84.89    7.10
  -1  -9  17   90.09    9.80
  -9  10  17   89.09    7.40
  -9  10  17   99.79   10.30
  -1  -9  17   87.99    8.60
  10  -1  17   82.69    8.70
  -9  10  17   93.49    8.50
   4   6 -17  438.16   26.70
   6 -10 -17  357.46   24.70
 -10   4 -17  425.26   26.50
   6 -10 -17  462.45   28.20
   4   6 -17  401.86   27.10
   6 -10 -17  446.86   26.50
 -10   4 -17  465.15   27.00
 -10   4 -17  399.56   25.00
  10  -4  17  418.86   25.80
  -4  -6  17  411.16   27.60
  -6  10  17  444.26   26.00
  -6  10  17  469.35   26.60
  -4  -6  17  481.85   26.60
  -6  10  17  467.55   28.20
   3 -10 -17   58.79    6.90
   3 -10 -17   59.69    7.70
 -10   7 -17   48.30    5.40
   3 -10 -17   57.79    7.10
 -10   7 -17   56.49    6.80
   7   3 -17   58.79    6.80
  -7  -3  17   65.49    8.20
  10  -7  17   59.89    6.40
  -7  -3  17   66.29    6.80
  -3  10  17   67.99    8.10
  10  -7  17   56.99    4.70
  -7  -3  17   67.69    7.80
  -3  10  17   66.29    7.20
  -3  10  17   70.29    7.70
   8 -11 -17   58.59    7.90
 -11   3 -17   55.79    6.50
   8 -11 -17   53.99    6.70
   3   8 -17   59.49    7.80
 -11   3 -17   59.09    7.00
   3   8 -17   51.29    6.80
 -11   3 -17   56.79    7.00
   3   8 -17   49.00    4.80
   8 -11 -17   50.89    5.50
  -3  -8  17   49.99    6.50
  -8  11  17   50.99    7.50
  -8  11  17   48.00    6.30
  -8  11  17   49.99    5.80
  11  -3  17   47.30    6.20
  -3  -8  17   51.09    7.40
   6   5 -17  189.38   14.40
   5 -11 -17  201.38   15.70
   5 -11 -17  193.68   14.30
 -11   6 -17  154.18   10.00
 -11   6 -17  182.88   14.20
 -11   6 -17  159.68   12.10
   5 -11 -17  187.78   13.90
  11  -6  17  189.78   14.40
  -5  11  17  197.88   15.50
  -5  11  17  202.78   14.50
  -6  -5  17  190.78   13.90
  -6  -5  17  186.58   15.60
  11  -6  17  161.28   12.90
   0   0 -18 1984.70  100.29
   0   0 -18 2104.89   99.89
   0   0 -18 2047.20   99.69
   0   0  18 2013.10   99.69
   0   0  18 2002.60   99.69
   0   0  18 2050.69  100.79
  -1  -1 -18  347.47   20.00
   2  -1 -18  369.86   19.30
   2  -1 -18  376.66   20.50
  -1   2 -18  337.97   19.40
  -1  -1 -18  352.86   19.20
  -1  -1 -18  379.06   20.60
  -1   2 -18  381.76   20.50
  -1   2 -18  352.16   19.70
   2  -1 -18  365.56   20.10
   1  -2  18  317.37   19.10
   1   1  18  340.67   20.70
  -2   1  18  332.87   19.10
  -2   1  18  335.17   20.20
  -2   1  18  359.36   20.40
   1   1  18  329.17   19.90
   1  -2  18  334.27   19.50
   1   1 -18 1175.78   61.09
  -2   1 -18 1174.28   61.99
   1   1 -18 1178.68   61.19
   1   1 -18 1216.38   62.49
   1  -2 -18 1167.78   62.29
   1  -2 -18 1261.87   62.19
   1  -2 -18 1252.37   62.29
  -2   1 -18 1162.58   62.39
  -1   2  18 1261.67   62.49
  -1  -1  18 1403.46   63.19
   2  -1  18 1349.66   63.49
  -1   2  18 1334.77   62.39
  -1   2  18 1106.79   62.59
  -1  -1  18 1299.17   62.59
  -1  -1  18 1225.38   62.59
  -2  -2 -18  423.26   23.90
  -2  -2 -18  422.66   23.20
   4  -2 -18  438.66   23.90
  -2   4 -18  427.76   22.70
  -2  -2 -18  381.16   21.50
   4  -2 -18  397.26   21.50
  -2   4 -18  402.86   22.60
  -2   4 -18  432.76   23.30
   4  -2 -18  430.66   22.70
  -4   2  18  405.46   23.70
   2   2  18  380.66   23.00
   2  -4  18  387.06   22.40
  -4   2  18  398.66   22.70
   2  -4  18  377.06   22.60
   2   2  18  381.36   21.90
  -4   2  18  393.76   21.50
   2  -4  18  401.46   23.00
   2   2  18  390.56   23.80
  -3   0 -18  572.54   30.50
   0   3 -18  512.15   28.50
   3  -3 -18  547.25   30.30
   3  -3 -18  546.05   29.20
   3  -3 -18  609.44   30.00
  -3   0 -18  543.15   30.00
   0   3 -18  534.45   28.80
  -3   0 -18  529.95   27.80
   0   3 -18  587.94   30.40
   3   0  18  540.75   30.10
   0  -3  18  569.54   30.10
  -3   3  18  534.95   29.20
  -3   3  18  574.74   30.20
  -3   3  18  561.24   30.70
   3   0  18  527.65   28.00
   0  -3  18  550.44   29.90
   3   0  18  563.94   30.90
   0  -3  18  541.65   30.20
   0  -3 -18  700.63   37.40
  -3   3 -18  743.43   38.10
   3   0 -18  739.43   38.70
   0  -3 -18  761.52   38.70
   3   0 -18  725.73   37.90
   0  -3 -18  755.42   38.10
  -3   3 -18  728.73   38.00
  -3   3 -18  712.23   37.70
  -3   0  18  705.23   37.80
   0   3  18  723.73   38.80
   3  -3  18  702.93   36.80
   0   3  18  681.23   37.60
   0   3  18  709.13   37.90
  -3   0  18  705.33   38.40
   3  -3  18  686.53   38.20
   6  -3 -18  223.48   13.70
  -3   6 -18  206.98   14.00
  -3  -3 -18  194.68   13.10
  -3  -3 -18  197.48   16.00
  -3   6 -18  202.68   14.30
   6  -3 -18  209.08   12.90
  -3   6 -18  213.28   14.30
   6  -3 -18  220.18   15.20
   3   3  18  225.48   13.70
  -6   3  18  247.58   15.90
   3   3  18  250.57   16.10
   3  -6  18  235.78   14.50
  -6   3  18  221.08   13.80
  -6   3  18  228.58   12.90
   3  -6  18  231.28   14.80
   3  -6  18  238.18   14.50
  -4  -1 -18 1484.35   74.39
   5  -4 -18 1506.75   74.39
  -1   5 -18 1497.45   74.09
  -4  -1 -18 1447.66   73.69
  -4  -1 -18 1385.36   70.79
   5  -4 -18 1536.05   72.79
   5  -4 -18 1456.75   72.39
  -1   5 -18 1535.15   73.89
  -1   5 -18 1439.86   72.39
   1  -5  18 1483.65   73.39
   4   1  18 1401.16   70.99
  -5   4  18 1459.25   74.59
   1  -5  18 1474.95   72.59
   4   1  18 1396.36   74.39
   4   1  18 1441.96   73.79
  -5   4  18 1436.36   72.29
  -5   4  18 1449.65   72.89
   1  -5  18 1362.66   73.79
  -4   2 -18 1157.88   60.19
   2   2 -18 1241.48   60.19
   2  -4 -18 1145.89   59.59
   2  -4 -18 1191.68   59.99
  -4   2 -18 1179.88   59.99
   2  -4 -18 1170.58   60.09
  -4   2 -18 1155.28   59.99
  -2   4  18 1190.68   60.49
   4  -2  18 1113.89   57.79
  -2  -2  18 1191.38   60.79
  -2   4  18 1123.19   60.19
   4  -2  18 1270.07   60.89
  -2  -2  18 1217.68   59.89
   4  -2  18 1111.79   57.09
  -2   4  18 1197.58   59.69
  -2  -2  18 1184.28   60.29
  -4   5 -18  769.02   41.40
   5  -1 -18  831.02   43.70
  -1  -4 -18  798.52   43.50
  -1  -4 -18  808.22   42.80
  -4   5 -18  806.42   42.60
   5  -1 -18  853.61   42.30
   5  -1 -18  750.72   39.90
  -4   5 -18  827.72   42.40
  -1  -4 -18  753.62   41.80
  -5   1  18  767.02   41.80
   4  -5  18  830.42   42.80
   4  -5  18  816.92   41.80
   4  -5  18  789.72   42.50
   1   4  18  811.62   42.80
   1   4  18  849.91   44.00
  -5   1  18  823.92   43.40
   1   4  18  822.42   42.50
   8  -4 -18  164.38   10.80
  -4  -4 -18  185.38   13.00
  -4  -4 -18  204.18   14.30
  -4   8 -18  183.68   12.50
  -4  -4 -18  167.68   11.50
   8  -4 -18  170.38   11.10
   8  -4 -18  186.88   13.60
   4   4  18  154.88   12.30
  -8   4  18  163.48   11.10
   4  -8  18  176.38   13.00
  -8   4  18  145.19   10.30
  -8   4  18  168.78   14.50
   4   4  18  157.38   11.40
   4   4  18  166.18   13.30
   4  -8  18  171.08   12.30
  -2   7 -18  287.17   17.60
  -5  -2 -18  286.27   19.30
   7  -5 -18  273.27   17.30
  -2   7 -18  303.67   19.30
  -5  -2 -18  276.47   18.40
   7  -5 -18  295.77   19.20
  -5  -2 -18  246.28   15.90
   7  -5 -18  317.67   17.30
  -7   5  18  276.77   19.50
  -7   5  18  306.47   17.30
  -7   5  18  315.57   17.50
   2  -7  18  312.97   19.50
   5   2  18  303.67   18.90
   2  -7  18  311.87   18.00
   4  -5 -18  345.37   19.60
  -5   1 -18  356.06   20.70
   4  -5 -18  333.37   20.60
   1   4 -18  349.87   20.70
   1   4 -18  352.16   20.40
   4  -5 -18  321.77   19.50
  -5   1 -18  363.76   20.60
  -5   1 -18  344.87   20.30
  -4   5  18  315.17   19.40
  -4   5  18  316.57   20.60
   5  -1  18  348.87   20.90
  -4   5  18  318.07   19.80
  -1  -4  18  321.47   18.20
  -1  -4  18  343.07   20.00
  -1  -4  18  337.47   20.90
   4   1 -18  898.81   43.70
   1  -5 -18  945.41   47.20
   1  -5 -18  949.11   47.80
  -5   4 -18  874.91   46.40
   1  -5 -18  903.91   47.20
   4   1 -18  883.51   43.70
  -5   4 -18  942.21   47.40
   4   1 -18  943.11   47.00
  -1   5  18  869.31   46.80
  -4  -1  18  876.21   48.00
   5  -4  18  887.11   47.10
  -4  -1  18  871.41   47.40
  -4  -1  18  924.41   46.50
  -1   5  18  878.41   47.30
  -1   5  18  906.21   47.80
   5  -4  18  798.02   44.40
  -5   7 -18 1027.90   55.09
   7  -2 -18 1084.69   54.19
  -2  -5 -18 1063.29   55.39
  -2  -5 -18  986.70   54.49
   7  -2 -18 1105.59   56.49
  -5   7 -18 1119.49   55.09
  -2  -5 -18 1080.39   56.59
  -5   7 -18 1025.60   54.49
  -7   2  18  905.71   54.69
   2   5  18 1103.69   56.29
   2   5  18 1051.69   55.29
   2   5  18 1001.70   56.39
   5  -7  18 1108.39   55.49
  -7   2  18 1093.99   56.39
   5  -7  18 1014.50   54.59
   5  -7  18 1132.99   54.99
  10  -5 -18  485.45   24.50
  -5  -5 -18  495.95   27.10
  10  -5 -18  478.45   27.80
  -5  10 -18  466.05   26.40
  -5  -5 -18  483.85   28.50
  -5  10 -18  458.15   26.40
  -5  -5 -18  427.46   25.50
   5 -10  18  398.36   25.30
   5   5  18  437.16   27.90
   5   5  18  441.96   26.60
 -10   5  18  387.86   23.60
   5   5  18  378.86   25.30
 -10   5  18  414.86   23.90
   5 -10  18  421.36   26.00
  -6  -3 -18   63.89    6.20
  -3   9 -18   72.29    7.10
  -6  -3 -18   83.39    8.80
  -3   9 -18   74.69    7.70
   9  -6 -18   73.99    7.00
  -6  -3 -18   73.39    7.70
   9  -6 -18   77.99    6.40
   6   3  18   87.69    8.90
   3  -9  18   92.09    8.00
   3  -9  18   92.79   10.10
   6   3  18   87.69    8.40
   6   3  18   98.59    7.40
   3  -9  18   89.69    7.70
  -9   6  18   91.49    9.40
  -9   6  18   78.99    6.80
   6  -6 -18 1034.40   50.79
   0   6 -18 1007.90   49.50
  -6   0 -18 1030.10   52.19
  -6   0 -18  958.50   46.90
   6  -6 -18  905.61   49.60
   0   6 -18 1019.60   51.59
   0   6 -18 1024.30   52.49
   6   0  18  981.40   52.19
   0  -6  18  992.40   49.80
   0  -6  18  963.10   52.29
   6   0  18  834.82   46.90
  -6   6  18  938.11   50.29
  -6   6  18 1023.70   50.59
  -6   3 -18  261.77   16.50
   3   3 -18  240.48   13.80
   3  -6 -18  286.07   17.10
  -6   3 -18  273.97   17.30
  -6   3 -18  271.17   17.20
   3  -6 -18  270.57   17.50
   3   3 -18  266.77   16.90
   3   3 -18  254.47   13.90
   3  -6 -18  266.37   16.70
  -3   6  18  274.87   16.80
  -3   6  18  270.17   17.60
  -3  -3  18  260.77   16.50
  -3  -3  18  271.47   17.50
  -3   6  18  280.07   17.40
   6  -3  18  268.67   17.20
  -3  -3  18  279.37   18.10
  -6   6 -18  393.56   22.90
   0  -6 -18  382.56   23.70
  -6   6 -18  383.86   22.00
   6   0 -18  414.16   23.20
  -6   0  18  426.46   25.40
   0   6  18  410.26   26.10
  -6   0  18  408.46   22.90
   0   6  18  396.16   24.00
   0   6  18  413.66   25.20
   6  -6  18  415.46   25.50
   6  -6  18  370.16   21.90
   6  -6  18  408.36   23.50
  -3  -6 -18  595.64   34.20
  -6   9 -18  634.94   34.80
   9  -3 -18  571.54   32.70
  -6   9 -18  656.13   35.10
   9  -3 -18  527.85   31.00
  -3  -6 -18  654.83   35.10
   9  -3 -18  687.93   36.30
  -3  -6 -18  657.23   36.50
   3   6  18  627.74   36.20
   3   6  18  601.74   34.30
  -9   3  18  655.63   36.10
   6  -9  18  617.54   34.60
  -9   3  18  598.54   32.60
  -9   3  18  556.34   31.00
   6  -9  18  583.84   34.30
   3   6  18  599.14   34.50
  11  -7 -18  277.57   18.10
  11  -7 -18  304.17   20.60
  -7  -4 -18  257.37   17.60
  -7  -4 -18  304.37   21.10
  -4  11 -18  279.97   18.80
  -4  11 -18  303.17   19.70
  -7  -4 -18  304.07   19.80
   4 -11  18  286.97   18.90
   7   4  18  306.47   20.00
 -11   7  18  303.57   21.30
   4 -11  18  305.27   21.00
 -11   7  18  256.37   17.30
   7   4  18  299.77   20.90
   4 -11  18  286.67   18.90
   8  -7 -18  309.47   20.40
  -1   8 -18  317.67   19.80
  -7  -1 -18  251.47   16.20
  -1   8 -18  330.77   20.90
   8  -7 -18  340.07   17.70
  -7  -1 -18  312.17   20.40
  -1   8 -18  294.77   18.00
  -7  -1 -18  301.97   19.50
   1  -8  18  300.57   19.10
   7   1  18  286.57   20.00
   1  -8  18  303.87   18.20
   7   1  18  262.27   16.10
   7   1  18  313.67   19.70
   1  -8  18  308.77   20.60
  -8   7  18  313.87   18.00
  -8   7  18  325.87   21.00
  -8   7  18  300.57   18.40
   5  -7 -18  140.39   10.20
   2   5 -18  128.59   10.70
   2   5 -18  128.09    8.60
   5  -7 -18  128.39   10.30
  -7   2 -18  129.79   10.90
  -7   2 -18  147.19   11.40
  -7   2 -18  139.29   10.80
  -5   7  18  149.69   12.40
  -2  -5  18  153.78   11.00
  -2  -5  18  157.88    9.00
   7  -2  18  157.18   11.60
  -5   7  18  157.38   11.00
   5   2 -18  191.18   12.70
  -7   5 -18  174.98   12.70
   2  -7 -18  175.18   13.00
  -7   5 -18  169.98   11.70
  -7   5 -18  160.38    9.60
   2  -7 -18  173.08   12.80
  -2   7  18  174.48   13.20
   7  -5  18  173.08    9.80
  -2   7  18  171.48   12.90
  -5  -2  18  153.78   13.00
  -5  -2  18  177.28   12.00
  -2   7  18  174.08   12.50
   7  -5  18  170.28   12.30
  -1  -7 -18  125.69   10.30
  -1  -7 -18  125.69   11.10
  -1  -7 -18  120.39   10.30
  -7   8 -18  131.39   10.60
   8  -1 -18  114.89    6.20
  -7   8 -18  138.39    9.90
   1   7  18  124.39   10.60
   7  -8  18  118.49    9.40
   1   7  18  124.39   11.10
  -8   1  18  107.29    6.10
   7  -8  18  130.49   10.50
   7  -8  18  122.79    9.70
  -8   1  18  124.99   10.80
  -8   1  18  110.99    8.90
  11  -4 -18  203.88   15.20
  -4  -7 -18  171.98   13.70
  -7  11 -18  184.88   13.10
  -4  -7 -18  200.38   14.40
  11  -4 -18  166.28   10.70
  -7  11 -18  197.88   14.20
  -4  -7 -18  189.18   15.30
  11  -4 -18  182.08   12.00
   4   7  18  161.98   13.40
   4   7  18  174.08   13.60
   4   7  18  175.98   14.80
 -11   4  18  149.49   11.10
 -11   4  18  194.18   15.10
   7 -11  18  177.58   13.70
   7 -11  18  174.58   14.00
   7 -11  18  166.08   12.60
 -11   4  18  145.09   10.30
  -8  -2 -18  521.85   31.40
  10  -8 -18  584.54   33.90
  10  -8 -18  618.74   31.80
  -8  -2 -18  629.64   36.20
  -2  10 -18  607.94   36.40
  10  -8 -18  622.04   36.00
  -8  -2 -18  636.24   35.10
  -2  10 -18  625.24   35.20
 -10   8  18  648.94   36.90
   8   2  18  606.44   35.80
   2 -10  18  574.34   33.30
   8   2  18  627.14   35.10
   2 -10  18  571.94   34.10
   2 -10  18  606.74   36.20
   7  -8 -18  361.66   22.90
  -8   1 -18  443.46   25.90
  -8   1 -18  425.46   27.50
   1   7 -18  424.16   26.30
   7  -8 -18  441.16   26.40
   1   7 -18  379.96   22.70
  -8   1 -18  422.86   25.30
   1   7 -18  423.46   25.50
  -1  -7  18  402.56   22.90
  -1  -7  18  457.05   27.60
  -7   8  18  400.76   23.90
  -7   8  18  436.06   26.80
  -1  -7  18  435.96   26.60
   4  -8 -18  402.46   23.70
  -8   4 -18  425.16   24.40
  -8   4 -18  386.66   22.90
   4   4 -18  356.66   19.40
   4  -8 -18  395.86   23.50
   4   4 -18  417.16   24.00
  -8   4 -18  442.36   24.60
   4  -8 -18  433.46   25.20
   4   4 -18  399.76   19.60
   8  -4  18  351.46   23.10
  -4  -4  18  379.36   23.10
  -4   8  18  385.66   23.50
  -4   8  18  370.96   24.60
  -4  -4  18  386.46   24.30
  -4   8  18  386.06   23.80
  -4  -4  18  377.26   24.80
   1  -8 -18  269.57   17.40
   1  -8 -18  278.47   18.20
  -8   7 -18  241.58   15.70
  -8   7 -18  254.17   15.20
  -8   7 -18  278.37   17.70
  -1   8  18  248.48   17.00
   8  -7  18  272.77   17.70
   8  -7  18  247.48   16.50
  -7  -1  18  223.88   16.00
  -7  -1  18  276.97   18.90
   8  -7  18  240.28   15.10
  -7  -1  18  242.78   17.70
  -1   8  18  254.87   17.90
  -8  10 -18  104.09    9.70
  -2  -8 -18  115.69   10.40
  -8  10 -18  118.09   10.60
  10  -2 -18  105.69    9.00
  -2  -8 -18  111.69   10.50
  -2  -8 -18  115.69   11.30
 -10   2  18  105.99    6.60
   8 -10  18  123.09   10.70
 -10   2  18  129.69   11.40
   8 -10  18  121.99   10.20
   2   8  18  125.29   11.60
 -10   2  18  119.29    8.90
   2   8  18  121.49   10.40
  -9   0 -18  247.58   16.20
   0   9 -18  225.68   16.10
   0   9 -18  249.08   17.60
   0   9 -18  225.68   14.20
  -9   0 -18  244.38   16.70
  -9   0 -18  196.98   11.40
  -9   0 -18  244.08   16.60
  -9   0 -18  181.08   11.40
   9  -9 -18  207.88   13.20
  -9   9  18  202.78   14.60
   0  -9  18  213.68   15.30
  -9   9  18  203.38   13.70
   0  -9  18  219.48   16.80
   9   0  18  199.08   15.70
   0  -9  18  201.38   13.70
   3   6 -18  655.63   37.60
   6  -9 -18  678.33   37.80
   6  -9 -18  600.14   34.70
   3   6 -18  666.43   36.70
  -9   3 -18  651.83   36.60
  -9   3 -18  710.73   37.10
   3   6 -18  634.44   32.80
   6  -9 -18  636.64   35.90
  -6   9  18  685.03   36.30
  -6   9  18  635.84   35.60
  -3  -6  18  611.34   37.40
   9  -3  18  589.44   35.80
  -6   9  18  642.64   37.50
  -3  -6  18  610.94   32.70
  -3  -6  18  635.64   35.80
  -9   6 -18  681.63   38.60
   3  -9 -18  730.33   40.70
  -9   6 -18  709.23   36.50
   6   3 -18  734.23   40.30
   3  -9 -18  727.53   40.40
   3  -9 -18  723.43   41.60
  -3   9  18  751.12   41.80
  -6  -3  18  744.03   39.90
  -6  -3  18  742.33   42.20
   9  -6  18  790.02   41.30
  -3   9  18  780.22   40.70
   9  -6  18  701.63   39.80
   9  -6  18  649.43   36.10
  -6  -3  18  780.42   41.80
  -9   9 -18  107.99    9.10
  -9   9 -18  112.49   10.70
   0  -9 -18  118.69   10.70
   0  -9 -18  114.49   11.20
  -9   9 -18  112.39    9.50
  -9   0  18  149.49   12.90
   9  -9  18  116.39    9.60
   0   9  18  133.39   11.90
   0   9  18  129.59   10.80
   9  -9  18  127.49   10.20
   9  -9  18  136.59   11.30
   0   9  18  133.99   11.80
  -9   0  18  135.09   11.70
 -10   2 -18  191.38   13.90
   8 -10 -18  150.98   11.00
   2   8 -18  167.78   11.00
 -10   2 -18  172.18   13.50
   8 -10 -18  181.68   13.30
   8 -10 -18  184.68   14.60
   2   8 -18  182.88   13.80
   2   8 -18  181.18   14.50
 -10   2 -18  176.58   13.20
  -8  10  18  154.98   13.90
  -2  -8  18  141.59   13.50
  -2  -8  18  133.99   10.30
  -8  10  18  154.38   12.40
  -2  -8  18  164.08   12.80
  10  -2  18  139.19   13.50
   5 -10 -18  328.97   21.30
 -10   5 -18  343.97   21.80
   5   5 -18  326.27   21.50
   5   5 -18  324.67   16.40
   5 -10 -18  352.26   23.00
 -10   5 -18  299.57   19.80
 -10   5 -18  363.36   22.20
  -5  10  18  345.57   21.60
  -5  -5  18  321.57   21.00
  -5  10  18  342.27   21.60
  -5  -5  18  336.27   23.10
  10  -5  18  315.97   20.80
  -5  10  18  337.77   22.80
   8   2 -18  728.83   40.00
   2 -10 -18  754.82   40.70
   2 -10 -18  761.92   42.00
 -10   8 -18  675.23   37.30
   2 -10 -18  733.43   41.20
 -10   8 -18  668.23   37.90
 -10   8 -18  754.62   41.00
  10  -8  18  677.73   39.00
  -8  -2  18  740.83   39.50
  -8  -2  18  714.33   42.10
  -2  10  18  681.03   39.90
  10  -8  18  646.74   37.00
  10  -8  18  707.53   40.50
  -8  -2  18  758.42   41.50
  -2  10  18  718.33   41.20
  -2  10  18  740.93   41.80
   4   7 -18  195.58   14.90
   7 -11 -18  163.08   13.80
 -11   4 -18  209.08   15.20
   4   7 -18  178.48   15.20
 -11   4 -18  167.98   13.20
   4   7 -18  174.98   11.00
   7 -11 -18  208.18   16.20
   7 -11 -18  164.98   12.80
 -11   4 -18  171.98   14.30
  -4  -7  18  188.68   15.70
  -7  11  18  199.18   14.10
  -7  11  18  209.98   16.30
  -4  -7  18  208.48   14.70
  -4  -7  18  173.28   10.90
  -7  11  18  223.68   15.00
   7   4 -18   57.19    6.90
 -11   7 -18   62.09    7.30
   4 -11 -18   58.69    7.70
   4 -11 -18   61.49    7.20
   4 -11 -18   58.09    7.00
 -11   7 -18   54.29    5.60
  11  -7  18   49.80    6.60
  -4  11  18   47.20    7.20
  -7  -4  18   52.19    6.40
  -7  -4  18   49.20    7.10
  11  -7  18   46.70    5.90
  -7  -4  18   50.69    7.60
  -4  11  18   47.80    6.60
  -4  11  18   49.99    6.60
   0   1 -19  214.78   13.40
   0   1 -19  203.18   12.50
  -1   0 -19  202.88   12.90
   1  -1 -19  233.08   13.50
  -1   0 -19  212.48   12.50
   1  -1 -19  214.68   13.40
   1  -1 -19  227.68   13.00
   1   0  19  217.78   14.00
   1   0  19  193.78   12.30
  -1   1  19  219.98   13.90
   1   0  19  191.98   12.80
   0  -1  19  187.18   12.60
  -1   1  19  204.58   12.70
   0  -1  19  205.38   13.60
  -1   1  19  201.18   13.10
  -1   3 -19  786.22   38.40
   3  -2 -19  713.03   36.80
  -2  -1 -19  736.13   38.50
  -1   3 -19  682.13   37.10
   3  -2 -19  732.93   38.40
  -1   3 -19  685.03   36.80
   3  -2 -19  767.02   37.80
  -2  -1 -19  707.13   37.90
  -3   2  19  710.33   37.90
   2   1  19  680.43   36.40
   2   1  19  749.33   38.20
   1  -3  19  680.03   37.10
   1  -3  19  691.73   38.00
  -3   2  19  726.53   36.90
   1  -3  19  653.93   37.40
  -3   2  19  736.53   38.60
   0  -2 -19 1981.30  105.49
   2   0 -19 2078.99  105.29
   2   0 -19 2114.29  105.69
  -2   2 -19 2050.69  104.89
  -2   2 -19 2110.09  105.29
  -2   2 -19 2183.08  105.59
   0  -2 -19 2170.88  104.89
   2   0 -19 2231.58  104.19
   0  -2 -19 2192.18  105.49
   0   2  19 2213.08  105.49
   2  -2  19 2397.26  106.49
  -2   0  19 2103.19  105.59
  -2   0  19 2168.88  105.69
   0   2  19 2221.08  106.49
   0   2  19 2088.29  104.89
   2  -2  19 1954.60  104.09
  -2   0  19 2067.89  103.89
   5  -3 -19  257.87   14.40
  -2   5 -19  239.18   14.90
  -3  -2 -19  236.58   15.00
  -3  -2 -19  262.37   16.10
  -2   5 -19  236.98   14.30
  -2   5 -19  247.98   14.90
   5  -3 -19  218.28   13.30
   5  -3 -19  235.78   15.50
  -3  -2 -19  213.78   13.00
  -5   3  19  208.38   13.20
   2  -5  19  223.68   14.20
   2  -5  19  211.08   14.60
   3   2  19  223.18   13.40
   3   2  19  214.98   15.40
  -5   3  19  219.48   15.40
  -5   3  19  203.48   14.00
   2  -5  19  205.48   14.30
   3   2  19  220.28   14.90
   2  -3 -19  291.17   17.10
  -3   1 -19  297.67   17.20
   2  -3 -19  293.07   17.40
   1   2 -19  280.57   15.80
   1   2 -19  290.27   15.70
   2  -3 -19  297.07   16.90
  -3   1 -19  295.27   17.40
  -3   1 -19  304.27   17.60
   1   2 -19  309.07   17.60
  -1  -2  19  277.67   17.10
  -2   3  19  286.07   17.60
  -2   3  19  286.17   16.80
   3  -1  19  294.67   18.00
   3  -1  19  236.18   14.90
  -1  -2  19  256.67   17.10
  -1  -2  19  277.27   17.00
  -2   3  19  283.67   17.40
   3  -1  19  257.57   15.00
   4  -1 -19  921.71   46.70
  -1  -3 -19  801.72   44.60
  -3   4 -19  882.01   45.60
  -1  -3 -19  882.01   46.50
   4  -1 -19  841.22   43.60
  -3   4 -19  886.61   45.70
   4  -1 -19  884.01   45.40
  -1  -3 -19  876.91   45.90
   1   3  19  861.31   45.20
   3  -4  19  898.41   45.10
  -4   1  19  894.61   45.50
  -4   1  19  884.81   46.50
   3  -4  19  875.71   46.00
   1   3  19  854.51   45.80
   1   3  19  891.71   46.90
  -4   1  19  855.41   43.60
  -4  -3 -19  391.86   23.50
  -3   7 -19  357.96   22.30
   7  -4 -19  379.46   23.10
   7  -4 -19  372.96   21.00
   7  -4 -19  350.76   20.40
  -3   7 -19  357.16   21.50
  -4  -3 -19  328.37   20.20
  -4  -3 -19  369.06   22.30
  -7   4  19  363.56   20.90
   4   3  19  365.56   23.30
  -7   4  19  360.16   20.20
   4   3  19  339.77   20.50
  -7   4  19  406.36   23.80
   3  -7  19  383.36   22.70
   3  -7  19  383.36   21.90
  -4   0 -19   22.60    2.00
   0   4 -19   24.60    3.00
  -4   0 -19   24.10    3.50
  -4   0 -19   19.00    4.00
   4  -4 -19   20.60    3.00
   0   4 -19   27.40    3.70
   4  -4 -19   22.00    3.70
   4  -4 -19   22.20    3.20
   4   0  19   16.90    3.70
  -4   4  19   16.60    4.00
   4   0  19   16.60    4.10
   4   0  19   17.00    2.00
   0  -4  19   16.80    3.90
  -4   4  19   14.20    3.30
  -4   4  19   15.90    2.70
  -4   3 -19  658.83   34.60
   3   1 -19  680.23   34.80
   1  -4 -19  655.23   34.70
   1  -4 -19  697.53   35.30
  -4   3 -19  659.83   34.90
  -4   3 -19  662.63   34.80
   1  -4 -19  608.14   34.30
   4  -3  19  585.54   32.10
  -3  -1  19  672.93   34.50
   4  -3  19  665.73   35.30
  -3  -1  19  619.14   34.90
  -1   4  19  606.04   35.20
  -1   4  19  616.74   34.40
  -1   4  19  606.64   34.60
  -3  -1  19  644.34   35.50
  -4   6 -19  510.85   28.50
   6  -2 -19  532.65   26.50
  -2  -4 -19  485.15   27.70
  -4   6 -19  518.75   28.70
   6  -2 -19  519.15   28.00
  -4   6 -19  494.45   28.10
   4  -6  19  557.64   30.00
   4  -6  19  523.45   28.80
  -6   2  19  492.75   26.10
   4  -6  19  484.95   28.40
  -6   2  19  469.75   27.60
  -5  -4 -19  180.98   12.80
  -4   9 -19  207.28   14.30
   9  -5 -19  218.98   15.70
  -5  -4 -19  206.08   15.60
   9  -5 -19  192.88   12.70
   9  -5 -19  223.68   13.00
  -4   9 -19  218.58   15.50
  -5  -4 -19  205.38   14.60
   5   4  19  182.58   13.10
   5   4  19  199.88   14.50
  -9   5  19  211.58   15.70
  -9   5  19  192.38   12.60
   5   4  19  193.98   15.20
   4  -9  19  182.88   13.50
  -9   5  19  175.48   12.10
  -1   6 -19  389.66   22.40
  -1   6 -19  325.07   20.00
   6  -5 -19  346.57   20.20
   6  -5 -19  347.67   20.40
  -5  -1 -19  319.07   18.30
  -6   5  19  322.77   20.90
   1  -6  19  359.06   22.20
  -6   5  19  364.76   20.80
   1  -6  19  390.16   20.70
   5   1  19  364.86   21.70
   5   1  19  386.26   18.90
   2   3 -19 1127.29   59.09
   3  -5 -19 1184.18   59.69
   2   3 -19 1096.59   56.49
   3  -5 -19 1079.89   58.59
  -5   2 -19 1069.89   58.69
   3  -5 -19 1169.18   58.79
  -5   2 -19 1171.18   59.39
  -5   2 -19 1145.79   59.49
  -2  -3  19 1099.19   59.79
  -3   5  19 1185.68   60.09
   5  -2  19 1100.69   54.99
  -2  -3  19 1194.18   59.69
  -2  -3  19 1181.78   58.89
   5  -2  19 1215.58   60.09
  -3   5  19 1188.48   59.59
  -3   5  19 1182.38   58.89
  -5   5 -19  259.77   15.00
  -5   5 -19  259.37   16.20
   0  -5 -19  253.97   17.30
   5   0 -19  256.27   16.30
  -5   5 -19  262.27   16.80
   0  -5 -19  237.68   16.20
   0  -5 -19  259.97   16.80
   5   0 -19  242.28   13.60
  -5   0  19  265.57   17.30
   0   5  19  271.67   17.70
   5  -5  19  279.07   17.00
   5  -5  19  266.47   15.30
   0   5  19  263.87   16.90
   0   5  19  283.77   18.10
   5  -5  19  277.97   17.10
  -5   0  19  257.57   16.00
   8  -3 -19  315.97   17.30
  -3  -5 -19  302.17   19.10
  -5   8 -19  315.47   20.00
  -3  -5 -19  333.47   20.30
   8  -3 -19  355.86   19.10
   8  -3 -19  348.57   21.30
   5  -8  19  315.37   19.90
  -8   3  19  291.17   18.30
   3   5  19  303.37   20.90
  -8   3  19  285.37   16.90
   3   5  19  316.57   20.00
   3   5  19  299.97   19.30
   8  -6 -19  536.75   30.40
  -2   8 -19  581.84   31.80
   8  -6 -19  573.84   29.70
   8  -6 -19  561.94   32.40
  -2   8 -19  496.85   30.00
  -6  -2 -19  566.74   32.70
  -6  -2 -19  540.95   31.50
   6   2  19  577.34   32.00
   6   2  19  536.45   32.50
   2  -8  19  571.54   31.30
  -8   6  19  531.15   29.80
  -8   6  19  584.44   33.40
   2  -8  19  549.35   30.50
  -8   6  19  512.15   29.70
  -6   1 -19 1143.19   62.19
   5  -6 -19 1194.88   61.19
   5  -6 -19 1194.58   61.59
   1   5 -19 1159.98   59.79
   1   5 -19 1216.18   63.09
  -5   6  19 1261.07   61.79
  -1  -5  19 1218.08   60.09
   6  -1  19 1198.38   62.89
  -5   6  19 1253.17   63.79
  -1  -5  19 1184.88   63.19
  -5   6  19 1235.68   61.99
   2  -6 -19   51.09    5.50
   2  -6 -19   50.19    5.80
   2  -6 -19   50.19    5.70
  -6   4 -19   53.39    6.50
  -6   4 -19   50.79    5.30
   4   2 -19   48.50    3.00
   4   2 -19   45.20    5.20
   4   2 -19   46.90    3.00
  -4  -2  19   42.80    5.50
   6  -4  19   40.90    3.20
  -4  -2  19   38.90    4.70
  -2   6  19   46.60    5.70
  -2   6  19   42.60    5.10
   6  -4  19   46.30    5.50
  -2   6  19   43.30    5.60
   6  -4  19   37.00    2.90
   7  -1 -19  492.55   27.70
  -6   7 -19  521.05   29.10
  -6   7 -19  507.35   28.00
  -1  -6 -19  508.65   28.80
  -1  -6 -19  557.64   29.40
  -1  -6 -19  501.35   29.80
   7  -1 -19  438.16   24.50
  -6   7 -19  470.45   27.40
   6  -7  19  501.95   28.30
   1   6  19  518.95   29.00
  -7   1  19  454.55   27.20
  -7   1  19  519.05   29.60
  -7   1  19  462.25   24.50
   1   6  19  510.35   29.90
   1   6  19  506.35   28.80
   6  -7  19  498.95   27.60
  -6  10 -19   85.59    8.90
  -4  -6 -19   87.69    9.70
  10  -4 -19   83.29    7.30
  10  -4 -19   81.09    6.50
  10  -4 -19   94.69    9.50
  -4  -6 -19   92.09    8.90
  -4  -6 -19   78.19    8.10
  -6  10 -19   87.19    8.70
   6 -10  19  104.69    9.50
 -10   4  19   92.69    7.40
   6 -10  19  104.09    9.20
 -10   4  19  110.39   10.40
   4   6  19   91.59    8.70
   6 -10  19  103.29    8.70
   4   6  19  102.79    9.20
  -7  -3 -19  361.36   23.30
  10  -7 -19  339.57   19.20
  -7  -3 -19  377.76   22.30
  -3  10 -19  340.27   23.00
  -3  10 -19  363.96   22.20
  -7  -3 -19  295.47   19.10
  10  -7 -19  363.16   23.00
  -3  10 -19  325.87   20.70
 -10   7  19  305.27   19.70
   7   3  19  349.67   22.10
   3 -10  19  333.97   21.20
   7   3  19  331.57   20.00
   7   3  19  341.97   22.90
 -10   7  19  290.07   19.00
 -10   7  19  369.76   23.80
   3 -10  19  341.17   22.90
   7  -7 -19  577.64   32.00
   7  -7 -19  556.64   30.20
  -7   0 -19  584.34   31.20
   0   7 -19  514.55   31.90
   0   7 -19  582.14   31.30
   0   7 -19  474.15   28.40
  -7   0 -19  563.44   31.40
  -7   0 -19  536.35   31.20
   7  -7 -19  495.05   28.60
  -7   7  19  537.15   29.90
  -7   7  19  551.44   32.20
   0  -7  19  496.25   31.40
   7   0  19  515.65   31.20
   0  -7  19  527.15   30.30
  -7   7  19  509.45   29.30
   0  -7  19  522.65   28.80
  -7   3 -19  505.25   27.20
  -7   3 -19  452.05   26.70
   4  -7 -19  446.16   25.90
   3   4 -19  431.56   23.00
   3   4 -19  455.65   26.50
   4  -7 -19  470.75   26.30
   3   4 -19  401.36   22.80
  -7   3 -19  439.46   25.90
   7  -3  19  460.95   26.70
  -4   7  19  474.05   26.70
  -3  -4  19  428.26   27.30
  -3  -4  19  486.95   26.40
   1  -7 -19  293.17   19.00
  -7   6 -19  273.27   17.80
   6   1 -19  268.57   18.20
   1  -7 -19  301.37   19.70
   1  -7 -19  282.17   19.10
  -7   6 -19  283.97   19.00
   7  -6  19  288.87   18.70
  -1   7  19  307.57   19.70
  -1   7  19  310.27   19.10
  -6  -1  19  299.17   20.30
  -6  -1  19  316.67   19.90
   7  -6  19  305.97   16.80
   7  -6  19  306.17   19.40
  -6  -1  19  314.57   18.40
   9  -2 -19  214.08   15.70
  -2  -7 -19  216.88   15.10
   9  -2 -19  171.48   10.60
  -7   9 -19  210.08   14.90
  -2  -7 -19  211.08   15.90
  -7   9 -19  212.08   14.40
  -2  -7 -19  197.58   14.50
   9  -2 -19  211.58   13.70
   7  -9  19  203.48   14.70
   2   7  19  204.58   14.60
   2   7  19  210.58   15.90
  -9   2  19  175.98   10.60
   2   7  19  211.58   15.00
  -9   2  19  176.48   12.70
   7  -9  19  191.58   13.90
  -9   2  19  203.08   15.40
  -8  -1 -19   55.59    6.60
   9  -8 -19   43.40    6.40
  -1   9 -19   56.39    6.70
  -1   9 -19   51.49    7.10
   9  -8 -19   50.79    4.90
  -8  -1 -19   53.59    7.00
   9  -8 -19   53.99    7.10
  -1   9 -19   51.89    5.50
   1  -9  19   50.19    6.10
   1  -9  19   50.09    7.00
   1  -9  19   45.60    5.20
  -9   8  19   49.60    5.20
   8   1  19   50.69    6.80
   6  -8 -19   87.59    7.80
   2   6 -19  102.19    9.80
   6  -8 -19  106.89    9.80
   2   6 -19  105.89    9.40
  -8   2 -19  110.79    9.50
  -8   2 -19  109.89    9.50
   2   6 -19  102.49    7.00
  -2  -6  19  103.89    8.80
  -2  -6  19   93.59    9.60
  -6   8  19   95.59    8.60
  -2  -6  19   90.49    6.80
  -6   8  19   90.09    8.30
  -6   8  19   95.99    9.60
  -8   5 -19  870.21   45.70
   5   3 -19  913.81   47.00
   3  -8 -19  883.11   47.70
  -8   5 -19  875.11   47.10
   3  -8 -19  894.61   46.90
  -3   8  19  840.92   47.10
  -3   8  19  999.00   51.89
  -5  -3  19  875.81   47.70
   8  -5  19  828.32   46.40
  -3   8  19  888.21   46.80
  -5  -3  19  770.82   45.60
  -5  -3  19  793.12   47.80
  -8   8 -19  373.06   22.90
  -8   8 -19  352.76   22.50
   0  -8 -19  402.76   25.50
  -8   8 -19  396.86   24.70
   8  -8  19  405.06   24.80
   8  -8  19  396.26   22.90
  -8   0  19  389.96   24.70
   0   8  19  394.36   25.50
  -8   0  19  436.36   25.70
   0   8  19  409.86   24.50
   8  -8  19  409.66   24.00
  -8   0  19  412.06   26.20
   1   8 -19  108.29   10.90
  -9   1 -19  123.99   10.80
  -9   1 -19  119.89   10.60
   1   8 -19  113.69    8.60
   8  -9 -19   99.49    8.30
   1   8 -19  129.59   10.90
  -9   1 -19  132.19   10.90
   8  -9 -19  127.59   11.50
   8  -9 -19  125.49   10.30
  -8   9  19  106.19    9.00
  -1  -8  19  120.79   10.20
  -8   9  19  124.89   11.70
  -1  -8  19  101.09    8.20
   9  -1  19  107.79   10.30
  -1  -8  19  107.49   10.90
   5  -9 -19  290.37   19.90
  -9   4 -19  293.77   19.20
   4   5 -19  291.07   19.00
   4   5 -19  268.27   14.70
  -9   4 -19  307.77   19.40
   5  -9 -19  281.47   18.20
   5  -9 -19  280.77   18.50
  -5   9  19  290.87   18.70
  -5   9  19  287.17   19.90
   9  -4  19  263.97   18.40
  -5   9  19  275.57   18.50
  -4  -5  19  272.27   19.90
  -4  -5  19  265.47   18.10
   7   2 -19  385.46   23.00
  -9   7 -19  384.66   23.60
   2  -9 -19  383.06   23.40
   2  -9 -19  373.06   23.80
  -9   7 -19  337.47   21.30
   2  -9 -19  381.36   24.30
   9  -7  19  383.46   23.70
   9  -7  19  344.27   22.30
   9  -7  19  341.47   20.00
  -2   9  19  366.56   23.80
  -2   9  19  367.36   24.10
  -2   9  19  375.66   23.20
  -7  -2  19  380.26   22.50
   7 -10 -19   91.89    9.00
   3   7 -19   92.39    9.40
   7 -10 -19  100.59   10.20
 -10   3 -19  105.69    9.80
   7 -10 -19   86.69    8.00
 -10   3 -19   90.99    8.80
 -10   3 -19  100.19    9.70
   3   7 -19  107.79   10.60
   3   7 -19   87.49    6.80
  -7  10  19  102.99    8.90
  -3  -7  19  105.19   10.60
  10  -3  19   97.39    9.30
  -7  10  19  102.19    9.30
  -3  -7  19  100.99    9.30
  -7  10  19  100.49   10.40
  -3  -7  19   97.69    6.90
   4 -10 -19  186.58   13.70
 -10   6 -19  168.48   13.40
   6   4 -19  176.48   13.50
   4 -10 -19  182.18   14.50
   4 -10 -19  159.78   14.50
 -10   6 -19  148.59   11.70
  -6  -4  19  161.58   14.40
  -6  -4  19  196.38   14.70
  -4  10  19  187.98   14.80
  10  -6  19  146.59    8.80
  10  -6  19  161.68   12.70
  -4  10  19  182.48   13.90
  -6  -4  19  178.28   13.10
  -4  10  19  199.08   14.00
  -1   1 -20   96.69    7.70
   1   0 -20   97.69    7.60
   0  -1 -20   87.59    7.60
   0  -1 -20   98.19    7.30
   0  -1 -20   96.09    7.40
  -1   1 -20   92.59    7.10
   1   0 -20  100.29    7.70
   1   0 -20   95.89    6.90
  -1   0  20   94.99    7.90
  -1   0  20   91.09    6.80
  -1   0  20   89.89    7.40
   0   1  20   86.29    7.90
   1  -1  20   94.29    8.00
   1  -1  20   88.59    6.80
   0   1  20   86.09    7.10
   2  -2 -20  331.17   18.60
   0   2 -20  295.77   17.40
   0   2 -20  284.07   17.10
   0   2 -20  323.67   18.70
   2  -2 -20  312.27   17.80
   2  -2 -20  329.27   18.70
  -2   0 -20  303.67   18.20
  -2   0 -20  300.57   16.90
  -2   0 -20  302.17   18.60
   0  -2  20  295.37   18.20
   0  -2  20  306.17   18.00
   0  -2  20  307.77   18.70
   2   0  20  305.57   20.90
   2   0  20  313.17   18.40
   2   0  20  287.07   16.90
  -2   2  20  309.87   18.60
  -2   2  20  325.87   18.90
  -2   2  20  311.47   17.80
   3  -1 -20  153.28   11.10
  -2   3 -20  141.29   10.00
   3  -1 -20  151.48    9.50
   3  -1 -20  147.19   10.40
  -1  -2 -20  146.29   10.60
  -1  -2 -20  139.09    9.70
  -2   3 -20  144.89   10.50
  -2   3 -20  148.09   10.30
  -1  -2 -20  139.09   10.80
  -3   1  20  154.58   11.10
  -3   1  20  155.28   10.80
   2  -3  20  143.19    9.60
   2  -3  20  151.08   10.10
   1   2  20  152.88   11.50
  -3   1  20  147.49    9.40
   2  -3  20  171.98   11.40
   1   2  20  145.59   10.00
   1   2  20  149.88   10.70
   4  -3 -20  590.54   33.20
  -1   4 -20  593.14   32.80
   4  -3 -20  593.64   31.50
  -3  -1 -20  634.54   33.60
   4  -3 -20  624.74   32.30
  -3  -1 -20  585.64   32.70
  -1   4 -20  600.14   31.80
   1  -4  20  604.34   32.80
   3   1  20  589.04   33.60
  -4   3  20  617.94   32.70
  -4   3  20  571.94   33.20
  -4   3  20  577.84   31.40
   1  -4  20  596.24   32.90
   3   1  20  584.14   32.80
  -3   2 -20   87.19    7.30
   2   1 -20   90.19    6.30
   1  -3 -20   80.89    7.30
   2   1 -20   92.69    7.60
   1  -3 -20   88.39    7.30
   2   1 -20   75.89    6.00
   1  -3 -20   91.59    7.40
  -3   2 -20   86.69    7.50
  -3   2 -20   79.89    7.30
  -2  -1  20   82.49    7.60
  -1   3  20   97.89    7.60
  -2  -1  20   96.19    7.80
   3  -2  20   93.69    8.10
  -2  -1  20   96.79    7.70
  -1   3  20   90.19    7.50
  -1   3  20   90.39    8.00
   5  -2 -20  207.08   13.00
  -2  -3 -20  173.38   12.00
   5  -2 -20  199.68   14.00
  -3   5 -20  199.98   13.30
   5  -2 -20  194.18   11.60
  -3   5 -20  191.88   13.00
  -3   5 -20  197.78   12.80
  -2  -3 -20  194.18   13.40
   3  -5  20  188.48   13.00
   3  -5  20  194.08   13.30
   2   3  20  213.08   14.60
   2   3  20  193.48   14.20
  -5   2  20  197.88   12.90
  -5   2  20  188.68   11.50
  -5   2  20  194.58   14.00
   3  -5  20  201.08   13.20
   2   3  20  196.48   12.70
   6  -4 -20  150.38   10.20
  -4  -2 -20  127.09    8.90
  -4  -2 -20  153.08   11.80
  -2   6 -20  143.29   10.30
   6  -4 -20  143.49    9.80
  -2   6 -20  144.09   11.10
   2  -6  20  152.38   10.60
  -6   4  20  144.59   10.40
   2  -6  20  144.09   11.30
  -6   4  20  146.39    9.70
   4   2  20  144.29    9.40
   4   2  20  151.38   11.30
   1   3 -20  615.54   32.50
   1   3 -20  664.33   33.30
   3  -4 -20  634.14   34.00
  -4   1 -20  653.93   34.40
   3  -4 -20  647.84   33.80
   1   3 -20  690.93   34.80
   3  -4 -20  644.64   34.70
  -4   1 -20  654.53   34.80
  -4   1 -20  689.23   34.90
  -1  -3  20  635.84   34.20
  -1  -3  20  595.94   34.60
  -1  -3  20  628.54   34.40
   4  -1  20  611.94   35.00
  -3   4  20  617.14   34.70
   4  -1  20  594.24   31.40
  -3   4  20  616.14   34.50
  -3   4  20  619.24   33.70
   4  -1  20  558.24   31.20
   0  -4 -20  232.58   14.90
   4   0 -20  244.88   15.30
  -4   4 -20  242.78   15.50
  -4   4 -20  232.48   15.20
   0  -4 -20  244.28   16.00
   4   0 -20  255.27   16.30
   0  -4 -20  256.67   15.70
   4  -4  20  214.88   14.00
   4  -4  20  218.38   13.50
  -4   0  20  248.18   15.20
   4  -4  20  252.67   15.90
   0   4  20  232.98   15.30
   0   4  20  233.78   16.10
  -4   0  20  241.18   15.90
   0   4  20  245.18   15.50
   7  -3 -20  320.97   18.60
  -3  -4 -20  334.27   20.90
  -4   7 -20  305.07   19.20
   7  -3 -20  335.37   20.60
   7  -3 -20  292.17   17.30
  -4   7 -20  304.97   19.30
  -3  -4 -20  287.87   18.10
   3   4  20  304.27   18.60
   3   4  20  322.77   19.80
  -7   3  20  332.67   20.80
   4  -7  20  324.07   19.50
  -7   3  20  297.17   17.10
   3   4  20  302.37   20.50
   4  -7  20  299.07   19.30
  -7   3  20  290.67   18.20
  -5  -3 -20   23.80    5.30
   8  -5 -20   26.40    3.60
   8  -5 -20   29.90    3.80
  -3   8 -20   26.80    4.30
  -3   8 -20   25.70    3.90
  -5  -3 -20   26.30    4.20
   8  -5 -20   27.90    4.80
  -5  -3 -20   21.80    3.10
  -8   5  20   28.80    3.90
  -8   5  20   28.70    3.50
   5   3  20   25.90    3.50
   5   3  20   28.80    4.40
  -8   5  20   30.80    5.10
   3  -8  20   28.50    4.70
   3  -8  20   26.80    4.00
   5   3  20   26.40    5.60
   3  -8  20   29.70    4.30
  -5   0 -20  105.09    6.10
   5  -5 -20  106.59    8.40
   0   5 -20  126.89   11.00
   0   5 -20  101.49    9.20
   0   5 -20  107.99    7.80
   5  -5 -20   97.69    8.10
  -5   5  20  118.79    8.60
  -5   5  20  121.49   10.20
   0  -5  20  112.69    8.00
   5   0  20  111.89    6.30
   5   0  20  112.09    9.80
  -5   5  20  109.99    8.80
   0  -5  20  109.19    9.60
  -5   3 -20  143.29   10.60
   3   2 -20  136.99    8.20
  -5   3 -20  148.89   10.50
   3   2 -20  143.49   10.50
  -5   3 -20  141.49   10.60
   2  -5 -20  145.49   10.40
   2  -5 -20  136.19   10.40
   2  -5 -20  137.29   10.50
  -2   5  20  130.09   10.00
  -3  -2  20  128.29    9.90
   5  -3  20  142.09    8.00
   5  -3  20  136.79   10.70
   5  -3  20  119.99    7.50
  -2   5  20  130.79   10.60
  -2   5  20  131.39   10.60
  -3  -2  20  140.09   11.10
  -3  -2  20  132.09   10.50
   6  -1 -20   92.29    5.90
   6  -1 -20   98.69    8.00
   6  -1 -20  103.69    9.20
  -1  -5 -20   89.29    7.80
  -5   6 -20   97.09    8.10
  -5   6 -20   91.19    7.30
  -1  -5 -20   98.19    8.50
  -1  -5 -20  103.19    9.20
   5  -6  20   84.19    7.30
  -6   1  20   88.79    7.50
   1   5  20   90.99    8.20
   5  -6  20   90.79    8.30
   5  -6  20   93.19    8.20
  -6   1  20   85.39    5.70
   1   5  20   85.49    8.80
   1   5  20   88.79    8.10
  -6   1  20   93.39    8.70
  -5   9 -20   83.09    8.40
  -5   9 -20   91.39    8.10
  -4  -5 -20   78.39    7.30
  -4  -5 -20   92.79    9.40
  -5   9 -20   85.19    8.00
  -4  -5 -20   92.69    8.50
   9  -4 -20   84.89    8.80
   9  -4 -20   83.19    7.00
   4   5  20   71.29    7.20
   5  -9  20   70.29    7.20
   5  -9  20   74.19    7.70
   4   5  20   80.59    9.00
  -9   4  20   82.69    8.90
  -9   4  20   70.59    5.90
   5  -9  20   80.59    8.30
   4   5  20   81.59    8.10
  -9   4  20   70.59    6.60
  -6  -4 -20  191.38   14.20
  10  -6 -20  251.07   19.30
  -6  -4 -20  240.08   16.70
  -4  10 -20  243.28   17.60
  -4  10 -20  224.88   15.80
  -6  -4 -20  245.78   17.90
  10  -6 -20  232.68   14.40
  10  -6 -20  236.28   15.00
  -4  10 -20  244.08   16.60
   4 -10  20  227.48   15.80
 -10   6  20  209.18   14.20
   4 -10  20  227.98   15.90
   4 -10  20  245.48   17.70
 -10   6  20  254.87   18.30
   6   4  20  231.18   17.60
   7  -6 -20  200.98   12.90
  -1   7 -20  166.88   11.90
  -6  -1 -20  161.78   10.10
  -6  -1 -20  192.28   13.60
  -1   7 -20  189.68   14.20
   7  -6 -20  203.58   14.40
  -6  -1 -20  192.08   14.20
   7  -6 -20  175.48   11.90
  -1   7 -20  203.18   13.80
   6   1  20  166.08   10.40
   6   1  20  174.28   13.90
   1  -7  20  187.98   12.40
  -7   6  20  192.68   12.50
  -7   6  20  195.48   14.80
   6   1  20  186.18   13.60
  -7   6  20  184.68   12.50
   1  -7  20  184.18   13.10
  -6   2 -20  108.69    9.50
   4  -6 -20  119.39    9.90
   2   4 -20  110.59    9.30
   2   4 -20   94.69    7.00
   4  -6 -20  116.29    9.10
  -6   2 -20  102.59    9.00
   4  -6 -20  101.89    8.70
   2   4 -20  103.39    7.00
  -2  -4  20  106.29    9.80
  -2  -4  20  132.59   10.20
  -4   6  20  131.09   10.50
   6  -2  20  116.49    9.80
  -4   6  20  125.69    9.70
  -4   6  20  128.09    9.30
   1  -6 -20   14.80    3.80
   5   1 -20   12.10    1.20
  -6   5 -20   13.60    3.30
   5   1 -20   12.60    3.20
   5   1 -20   11.90    1.10
  -6   5 -20   12.80    3.40
  -5  -1  20   15.00    4.00
   6  -5  20   16.70    4.10
  -1   6  20   11.90    3.20
  -1   6  20   12.60    3.60
  -5  -1  20   15.60    3.30
   8  -2 -20    1.20    1.50
  -6   8 -20    0.70    1.30
   8  -2 -20    1.00    1.10
  -2  -6 -20    1.20    1.50
  -2  -6 -20    1.50    1.60
  -6   8 -20    0.40    1.30
   8  -2 -20    0.90    0.60
  -6   8 -20    0.60    1.30
  -2  -6 -20    1.90    1.80
  -8   2  20    2.30    1.50
   6  -8  20    2.10    1.60
   6  -8  20    2.30    1.80
   2   6  20    1.70    1.70
  -8   2  20    3.20    2.30
   2   6  20    3.10    2.00
   2   6  20    2.10    1.90
   9  -7 -20   15.90    2.70
  -7  -2 -20   11.30    2.10
  -2   9 -20   14.60    3.90
  -7  -2 -20   12.60    3.70
   9  -7 -20   17.70    4.00
  -2   9 -20   16.10    3.70
  -2   9 -20   18.80    4.80
   9  -7 -20   16.10    4.50
  -7  -2 -20   16.30    4.50
   2  -9  20   11.80    3.10
  -9   7  20   10.30    2.90
   7   2  20   11.70    3.60
   2  -9  20   14.40    4.40
  -9   7  20   11.20    4.00
   2  -9  20   12.10    3.40
   7   2  20   16.70    2.60
   7   2  20   13.10    4.20
   6  -7 -20  207.88   15.30
   6  -7 -20  218.88   13.60
  -7   1 -20  222.58   15.30
   6  -7 -20  210.48   14.10
   1   6 -20  213.38   14.80
   1   6 -20  203.68   12.40
   1   6 -20  206.18   15.30
  -7   1 -20  221.48   15.10
  -7   1 -20  211.68   14.80
  -6   7  20  200.78   13.90
  -1  -6  20  186.58   15.00
  -6   7  20  206.68   15.70
  -1  -6  20  189.48   14.00
  -6   7  20  197.28   13.90
  -1  -6  20  192.28   12.50
   4   3 -20   25.20    4.10
   4   3 -20   23.90    2.00
   4   3 -20   23.90    2.00
  -7   4 -20   26.80    4.20
   3  -7 -20   27.20    4.30
  -7   4 -20   25.50    3.90
  -7   4 -20   28.20    4.30
  -4  -3  20   34.00    5.10
  -3   7  20   29.30    4.20
  -3   7  20   28.20    4.50
   7  -4  20   30.40    4.60
  -3   7  20   27.00    4.70
  -4  -3  20   26.50    4.50
  -4  -3  20   25.90    4.00
   0  -7 -20  153.88   11.90
  -7   7 -20  143.49   11.70
   0  -7 -20  137.79   12.10
   0  -7 -20  141.19   11.80
  -7   7 -20  140.39   10.10
  -7   0  20  152.58   12.40
   0   7  20  154.18   12.30
   0   7  20  151.58   12.60
  -7   0  20  150.38   12.80
   7  -7  20  154.58   12.00
   7  -7  20  156.58   11.70
   7  -7  20  146.79   10.30
   0   7  20  154.18   11.80
  10  -3 -20   16.50    4.50
  -3  -7 -20   25.10    5.90
  10  -3 -20   22.30    3.20
  -7  10 -20   17.70    4.30
  -7  10 -20   18.60    4.10
  -3  -7 -20   22.80    5.00
  -7  10 -20   21.40    4.90
  -3  -7 -20   18.20    4.30
   3   7  20   15.30    4.10
   3   7  20   21.50    5.00
   7 -10  20   16.60    3.90
 -10   3  20   16.60    3.50
   7 -10  20   18.80    4.60
 -10   3  20   18.10    4.80
   7 -10  20   19.00    4.50
   3   7  20   20.60    5.50
 -10   3  20   14.40    2.00
   0   8 -20  127.49    9.70
  -8   0 -20  159.58   12.10
   0   8 -20  133.19   12.10
  -8   0 -20  131.59   11.70
   0   8 -20  155.78   12.10
  -8   0 -20  142.19   12.00
   8  -8 -20  157.38   12.80
   8  -8 -20  129.49    9.70
   0  -8  20  128.19   12.10
   0  -8  20  138.79   11.20
  -8   8  20  154.68   13.10
   0  -8  20  136.79   10.00
  -8   8  20  135.79   10.40
   8   0  20  138.49   12.00
   5  -8 -20   16.00    4.50
   5  -8 -20   20.40    4.50
  -8   3 -20   15.50    4.00
   3   5 -20   16.60    4.10
   5  -8 -20   19.80    5.10
  -8   3 -20   17.60    4.30
  -5   8  20   11.90    3.90
  -5   8  20   12.80    3.50
  -3  -5  20   13.00    3.60
  -3  -5  20   18.10    4.80
  -5   8  20   12.60    3.50
  -8   6 -20  198.68   15.70
   2  -8 -20  237.38   16.10
   6   2 -20  241.68   15.90
   2  -8 -20  231.78   16.50
  -8   6 -20  237.48   16.30
  -8   6 -20  194.08   12.50
   2  -8 -20  242.88   16.60
   8  -6  20  229.08   15.80
  -6  -2  20  230.08   17.10
  -2   8  20  224.68   16.50
  -2   8  20  239.98   16.10
  -2   8  20  228.58   18.60
  -6  -2  20  243.78   16.80
   8  -6  20  235.58   16.30
  -6  -2  20  224.88   15.20
  -8   9 -20  113.79   10.30
  -1  -8 -20  109.89   10.90
  -8   9 -20  109.59    9.30
  -1  -8 -20  117.39   10.40
  -8   9 -20  104.09    9.00
  -1  -8 -20  104.09   10.20
  -9   1  20  119.79   11.40
   1   8  20  111.89   11.00
   8  -9  20  108.09    9.20
  -9   1  20  118.29   10.80
   8  -9  20  114.19   10.30
  -9   2 -20  141.99   11.70
   7  -9 -20  142.39   12.20
   7  -9 -20  137.69   11.00
   2   7 -20  142.09   11.60
   2   7 -20  140.39    9.10
   7  -9 -20  122.29    9.70
  -9   2 -20  137.19   11.30
   2   7 -20  135.29   12.10
  -9   2 -20  147.39   11.80
  -7   9  20  125.59   11.90
  -2  -7  20  119.39    8.70
  -7   9  20  125.49   10.60
  -7   9  20  120.89   10.20
  -2  -7  20  119.69   10.60
   9  -2  20  117.99   11.00
  -2  -7  20  117.79   11.70
   4  -9 -20  181.78   14.50
   4  -9 -20  155.98   14.60
   5   4 -20  197.58   14.00
  -5  -4  20  190.38   14.60
  -5  -4  20  175.98   13.10
  -4   9  20  183.88   13.50
  -5  -4  20  169.58   14.50
  -4   9  20  174.98   14.40
  -9   8 -20  145.79   10.40
  -9   8 -20  159.88   12.80
   1  -9 -20  161.58   12.70
   1  -9 -20  163.28   13.30
   8   1 -20  160.38   12.20
   1  -9 -20  158.28   13.20
  -1   9  20  154.98   13.20
  -8  -1  20  144.49   11.30
  -8  -1  20  152.58   13.70
  -1   9  20  156.98   12.50
   9  -8  20  145.39   12.50
   9  -8  20  141.29   10.40
  -8  -1  20  150.58   13.00
  -1   9  20  147.39   12.90
   6 -10 -20    3.60    2.30
   6 -10 -20    3.00    2.10
   4   6 -20    3.30    2.50
 -10   4 -20    3.80    2.30
 -10   4 -20    4.00    2.50
   6 -10 -20    3.20    2.60
   4   6 -20    3.30    2.20
 -10   4 -20    2.40    2.00
  10  -4  20    2.50    2.00
  -6  10  20    2.30    2.40
  -4  -6  20    2.50    0.90
  -6  10  20    3.70    2.20
  -4  -6  20    3.60    2.50
  -4  -6  20    2.10    1.90
  -6  10  20    3.00    2.00
   3 -10 -20   48.20    6.70
 -10   7 -20   48.40    6.30
   7   3 -20   47.20    6.10
   3 -10 -20   45.90    6.30
   3 -10 -20   49.80    6.40
 -10   7 -20   40.00    3.70
  -3  10  20   41.80    6.20
  -3  10  20   41.90    6.50
  -7  -3  20   42.80    7.50
  -7  -3  20   42.80    6.60
  -3  10  20   42.70    5.90
  -7  -3  20   43.50    5.50
  10  -7  20   41.30    6.10
   0   0 -21 1902.21   92.79
   0   0 -21 1819.42   93.19
   0   0 -21 1916.21   92.69
   0   0  21 1846.92   92.69
   0   0  21 1840.12   92.59
   0   0  21 1923.31   94.09
  -1  -1 -21 1513.75   75.39
   2  -1 -21 1527.95   75.79
  -1   2 -21 1524.95   75.69
   2  -1 -21 1536.25   75.49
  -1   2 -21 1485.25   74.99
  -1   2 -21 1432.06   74.59
   2  -1 -21 1552.04   74.69
  -1  -1 -21 1530.95   75.99
  -1  -1 -21 1533.05   74.59
   1   1  21 1384.06   74.29
  -2   1  21 1517.85   74.59
  -2   1  21 1567.24   76.09
   1   1  21 1526.35   76.59
   1  -2  21 1382.16   74.59
   1   1  21 1529.95   75.59
   1  -2  21 1462.35   74.59
  -2   1  21 1508.95   75.79
   1   1 -21  626.14   33.40
   1  -2 -21  639.14   34.30
   1  -2 -21  606.14   34.30
   1  -2 -21  622.84   34.60
   1   1 -21  620.34   33.50
   1   1 -21  688.43   35.00
  -2   1 -21  596.14   34.10
  -2   1 -21  680.33   35.10
  -2   1 -21  627.14   34.60
   2  -1  21  617.24   33.10
  -1   2  21  672.83   34.50
  -1   2  21  652.43   34.70
   2  -1  21  669.63   35.70
  -1  -1  21  659.93   34.70
  -1  -1  21  639.34   35.00
  -1  -1  21  682.03   35.00
   2  -1  21  616.74   33.10
  -1   2  21  679.63   35.60
   4  -2 -21 2488.05  120.09
  -2   4 -21 2312.27  118.29
  -2  -2 -21 2421.66  119.29
   4  -2 -21 2563.74  118.59
  -2  -2 -21 2349.17  117.59
  -2   4 -21 2530.75  119.49
   4  -2 -21 2680.23  119.19
  -2   4 -21 2382.46  118.59
   2  -4  21 2597.94  119.89
   2  -4  21 2219.18  118.59
  -4   2  21 2379.96  119.99
   2  -4  21 2297.37  118.09
   2   2  21 2415.26  120.49
   2   2  21 2314.27  117.89
  -4   2  21 2307.57  117.49
  -4   2  21 2412.66  119.09
   2   2  21 2335.27  119.39
   3  -3 -21  585.14   32.30
   0   3 -21  537.45   30.30
   3  -3 -21  588.24   31.20
   0   3 -21  586.24   30.80
   3  -3 -21  619.44   31.90
  -3   0 -21  606.14   32.50
  -3   0 -21  583.44   31.90
   0  -3  21  558.34   32.00
  -3   3  21  575.24   31.20
   3   0  21  590.44   33.00
   0  -3  21  570.44   32.00
   3   0  21  585.34   32.10
  -3   3  21  567.34   32.40
  -3   3  21  612.94   32.40
   0  -3  21  565.94   31.60
   3   0 -21 1062.29   50.79
  -3   3 -21 1039.70   52.29
   0  -3 -21 1056.69   52.69
   0  -3 -21  992.40   52.89
   0  -3 -21 1008.20   51.89
   3   0 -21 1122.59   52.89
  -3   3 -21 1018.70   52.49
   3   0 -21 1071.19   53.39
  -3   3 -21 1028.00   52.49
   3  -3  21  959.50   51.09
   0   3  21  968.30   52.09
   0   3  21 1065.09   52.79
   3  -3  21 1036.50   53.19
  -3   0  21  935.81   50.29
   0   3  21  998.80   53.49
  -3   0  21  991.50   52.89
   3  -3  21  938.81   50.49
  -3   0  21  951.20   52.29
  -3  -3 -21  379.96   24.00
   6  -3 -21  453.25   23.80
  -3   6 -21  400.06   23.90
   6  -3 -21  408.76   25.00
  -3  -3 -21  388.26   24.90
   6  -3 -21  374.26   22.20
  -3   6 -21  402.46   23.70
  -3   6 -21  405.26   24.10
   3  -6  21  409.86   24.30
  -6   3  21  428.76   25.40
   3   3  21  418.46   24.60
  -6   3  21  446.36   23.90
  -6   3  21  405.56   22.20
   3   3  21  402.76   23.00
   3  -6  21  429.36   24.10
   5  -4 -21  758.92   40.90
  -1   5 -21  776.62   42.20
  -1   5 -21  829.22   42.50
   5  -4 -21  829.22   41.50
  -1   5 -21  773.42   41.00
  -5   4  21  776.22   41.80
   1  -5  21  758.02   40.90
  -5   4  21  781.52   40.90
   4   1  21  810.52   42.70
  -5   4  21  790.62   43.30
   1  -5  21  773.32   42.60
  -4   2 -21  830.92   44.50
   2   2 -21  786.62   42.20
   2  -4 -21  814.92   44.40
  -4   2 -21  836.52   44.50
   2   2 -21  879.31   44.80
   2  -4 -21  881.41   44.50
   2  -4 -21  855.31   44.70
   2   2 -21  826.62   42.40
  -4   2 -21  851.81   44.90
  -2  -2  21  867.11   45.40
  -2  -2  21  904.71   44.80
   4  -2  21  913.71   45.70
   4  -2  21  861.01   42.00
  -2  -2  21  819.12   44.60
  -2   4  21  822.72   44.80
  -2   4  21  884.71   45.40
  -2   4  21  828.12   44.20
   4  -2  21  723.13   41.50
   5  -1 -21  428.56   26.00
   5  -1 -21  526.35   28.50
  -4   5 -21  500.75   27.40
  -1  -4 -21  463.65   27.70
  -4   5 -21  526.65   28.90
   1   4  21  501.25   28.50
   4  -5  21  538.45   28.10
   4  -5  21  537.35   29.00
  -5   1  21  474.45   26.10
   4  -5  21  556.84   29.40
  -5   1  21  559.14   28.70
  -4  -4 -21  386.66   22.90
  -4  -4 -21  322.77   20.50
   8  -4 -21  400.36   23.70
   8  -4 -21  421.56   21.60
  -4   8 -21  366.96   22.30
  -4  -4 -21  376.76   23.80
  -4   8 -21  370.86   22.70
   8  -4 -21  333.67   20.20
  -8   4  21  326.37   19.70
   4  -8  21  355.46   22.60
   4   4  21  340.07   21.00
  -8   4  21  363.66   21.10
  -8   4  21  369.26   23.70
   4  -8  21  357.96   21.90
   4   4  21  331.77   23.20
  -2   7 -21  811.32   44.40
  -5  -2 -21  743.93   42.50
   7  -5 -21  844.52   44.20
  -5  -2 -21  925.91   47.30
  -5  -2 -21  894.51   46.10
   7  -5 -21  861.61   44.40
  -2   7 -21  940.81   46.40
   7  -5 -21  916.81   47.00
  -2   7 -21  889.91   46.50
   2  -7  21  762.62   44.80
   5   2  21  872.61   43.80
   2  -7  21  858.81   46.50
   2  -7  21  866.91   44.90
  -7   5  21  721.13   46.20
   5   2  21  853.01   47.00
  -7   5  21  826.72   43.90
  -7   5  21  807.32   44.40
   5   2  21  903.11   46.40
   1   4 -21 1006.90   55.69
   4  -5 -21 1130.69   57.69
   4  -5 -21 1147.49   58.89
   1   4 -21 1127.49   56.19
   1   4 -21 1156.38   58.69
   4  -5 -21 1055.79   57.39
   5  -1  21 1098.39   54.19
  -1  -4  21 1177.38   58.89
  -4   5  21 1107.19   58.99
  -4   5  21 1163.98   57.79
   5  -1  21 1146.19   59.39
  -4   5  21 1160.08   58.49
   5  -1  21 1161.48   54.19
  -1  -4  21 1102.79   58.99
   1  -5 -21  945.41   52.09
   4   1 -21 1025.80   52.39
  -5   4 -21 1038.30   52.69
   1  -5 -21 1015.40   52.49
   4   1 -21 1001.00   49.20
  -5   4 -21  981.00   51.89
  -1   5  21  991.60   52.59
   5  -4  21  973.90   52.79
  -4  -1  21 1022.70   53.19
  -4  -1  21 1020.00   51.99
  -1   5  21  996.30   53.29
  -2  -5 -21  540.55   32.00
  -5   7 -21  538.35   30.10
  -2  -5 -21  540.75   31.00
   7  -2 -21  548.95   30.00
  -5   7 -21  525.85   30.30
  -2  -5 -21  481.75   29.50
  -5   7 -21  555.14   31.10
   7  -2 -21  550.54   31.90
  -7   2  21  510.05   27.50
  -7   2  21  502.65   29.50
   2   5  21  557.14   31.10
   2   5  21  556.84   30.60
   5  -7  21  540.75   30.20
  -7   2  21  574.04   32.10
   2   5  21  553.84   32.20
  10  -5 -21  338.57   19.40
  -5  10 -21  349.47   21.20
  -5  10 -21  346.67   25.50
  -5  10 -21  340.97   21.00
  -5  -5 -21  354.86   21.70
  -5  -5 -21  362.46   23.10
  -5  -5 -21  282.47   19.20
   5 -10  21  306.87   20.20
   5 -10  21  327.77   21.80
   5 -10  21  320.07   20.80
   5   5  21  317.87   22.30
   5   5  21  303.77   20.00
 -10   5  21  271.87   18.00
 -10   5  21  352.56   22.90
 -10   5  21  291.27   18.70
   5   5  21  334.57   21.40
   9  -6 -21  855.11   42.60
   9  -6 -21  867.01   45.80
  -6  -3 -21  834.02   46.00
  -6  -3 -21  838.82   44.70
   9  -6 -21  795.22   42.90
  -3   9 -21  870.81   44.90
  -3   9 -21  754.92   45.00
   6   3  21  780.42   45.60
   6   3  21  835.92   45.00
   3  -9  21  805.52   43.90
  -9   6  21  877.61   46.80
  -9   6  21  759.32   42.10
  -9   6  21  667.73   41.80
   3  -9  21  795.02   45.30
   6  -6 -21  849.12   44.70
   6  -6 -21  779.02   43.90
   0   6 -21  917.31   46.10
  -6   0 -21  906.01   46.40
   0   6 -21  767.52   43.30
   6  -6 -21  894.71   46.60
  -6   6  21  868.11   46.90
  -6   6  21  792.92   44.60
   0  -6  21  829.82   45.10
   0  -6  21  866.81   43.80
  -6   6  21  843.22   44.50
   6   0  21  846.32   46.50
   3   3 -21  910.61   46.50
  -6   3 -21  896.81   46.60
   3  -6 -21  877.11   46.00
  -6   3 -21  858.91   46.50
   3  -6 -21  861.31   46.60
   3  -6 -21  874.71   46.10
  -3   6  21  826.22   46.40
  -3  -3  21  868.71   47.80
   6  -3  21  857.71   46.70
  -3   6  21  815.52   46.60
  -6   6 -21 1136.69   57.79
   0  -6 -21 1179.28   60.39
   0  -6 -21 1094.69   59.69
   0  -6 -21 1201.58   61.39
   6   0 -21 1013.60   55.49
  -6   6 -21 1197.08   60.39
   6   0 -21 1095.29   55.59
   6   0 -21 1175.08   59.69
  -6   0  21 1160.88   61.59
   0   6  21 1172.38   60.19
   0   6  21 1163.78   60.39
   6  -6  21 1208.58   60.69
   0   6  21 1157.98   61.29
  -6   0  21 1162.88   59.19
  -6   0  21 1167.28   60.99
   6  -6  21 1147.69   58.09
  -6   9 -21  599.74   36.80
  -3  -6 -21  618.64   36.40
  -3  -6 -21  641.24   38.50
  -6   9 -21  673.33   36.80
   9  -3 -21  721.53   36.20
  -3  -6 -21  692.13   37.80
  -6   9 -21  651.53   37.30
   9  -3 -21  697.33   38.80
   3   6  21  669.53   38.80
  -9   3  21  634.24   35.50
   3   6  21  651.93   37.00
   6  -9  21  713.93   37.60
   6  -9  21  678.13   37.50
   3   6  21  636.74   37.20
   6  -9  21  638.04   36.50
   8  -7 -21  286.67   17.50
  -1   8 -21  278.87   19.10
  -1   8 -21  251.67   16.30
  -1   8 -21  292.97   18.60
   8  -7 -21  256.77   16.10
  -7  -1 -21  283.47   19.10
  -7  -1 -21  237.88   14.00
  -7  -1 -21  298.47   18.60
   8  -7 -21  283.47   19.10
   1  -8  21  277.57   17.90
  -8   7  21  257.77   16.70
   7   1  21  253.07   18.60
   1  -8  21  257.37   18.80
  -8   7  21  258.77   16.80
   1  -8  21  281.57   17.00
   7   1  21  274.57   18.30
  -8   7  21  281.17   19.50
   7   1  21  234.58   14.10
   5  -7 -21  703.43   37.30
   2   5 -21  710.03   36.70
  -7   2 -21  667.43   36.80
  -7   2 -21  609.34   35.70
   2   5 -21  579.34   32.80
  -7   2 -21  704.83   36.80
   5  -7 -21  607.24   34.90
  -5   7  21  639.84   37.20
  -2  -5  21  628.54   35.60
  -5   7  21  646.34   35.90
  -2  -5  21  615.24   37.00
   2  -7 -21  551.44   32.60
   5   2 -21  594.74   32.30
  -7   5 -21  578.84   32.60
   2  -7 -21  552.94   32.10
  -2   7  21  591.44   32.40
  -5  -2  21  590.14   33.20
  -2   7  21  558.64   32.90
  -5  -2  21  559.74   31.60
   7  -5  21  496.45   28.10
  -5  -2  21  577.34   33.80
   7  -5  21  592.94   32.70
   7  -5  21  581.04   28.80
  -1  -7 -21  690.63   38.90
  -7   8 -21  651.23   37.30
  -7   8 -21  649.24   38.70
  -1  -7 -21  765.92   39.60
   8  -1 -21  596.14   33.40
  -7   8 -21  699.03   39.10
  -1  -7 -21  765.22   40.70
   7  -8  21  685.43   37.50
   1   7  21  730.73   39.20
  -8   1  21  704.13   37.50
   1   7  21  706.53   39.30
  -8   1  21  751.92   40.20
   7  -8  21  687.53   39.00
   1   7  21  697.73   40.20
   7  -8  21  666.53   38.20
   7  -8 -21  219.48   15.10
   1   7 -21  197.18   12.90
   1   7 -21  226.38   16.50
   7  -8 -21  219.48   16.20
   7  -8 -21  189.88   13.50
  -8   1 -21  213.98   15.80
   1   7 -21  228.48   15.80
  -8   1 -21  225.98   15.70
  -8   1 -21  213.58   15.60
   8  -1  21  202.98   15.60
  -7   8  21  198.78   14.30
  -7   8  21  218.88   16.70
  -1  -7  21  208.98   16.20
  -1  -7  21  213.88   13.20
   4  -8 -21  194.18   14.50
   4   4 -21  178.38    9.80
  -8   4 -21  216.98   15.70
  -8   4 -21  198.68   14.20
   4   4 -21  169.58    9.60
   4   4 -21  195.18   13.90
   4  -8 -21  162.48   13.00
  -8   4 -21  188.58   14.00
  -4  -4  21  186.78   14.30
  -4   8  21  179.38   13.30
  -4  -4  21  168.58   12.90
  -4   8  21  179.28   14.30
  -4  -4  21  173.38   14.40
  -4   8  21  179.38   13.70
   7   1 -21  603.24   32.90
   1  -8 -21  634.64   33.70
  -8   7 -21  605.74   33.60
  -8   7 -21  515.45   30.00
   1  -8 -21  578.94   33.90
  -1   8  21  567.74   33.70
  -7  -1  21  601.24   34.10
  -7  -1  21  563.34   34.70
   8  -7  21  510.95   30.10
  -1   8  21  550.04   33.80
  -7  -1  21  589.44   32.10
  -1   8  21  564.54   32.90
   8  -7  21  568.84   33.40
   6  -9 -21  666.03   36.80
   3   6 -21  634.94   37.80
   3   6 -21  684.53   37.50
   6  -9 -21  582.64   35.30
  -9   3 -21  655.13   37.40
   6  -9 -21  649.24   38.00
  -9   3 -21  709.43   37.90
   3   6 -21  648.04   33.30
  -3  -6  21  679.23   36.80
  -6   9  21  691.33   38.60
   9  -3  21  600.74   36.80
  -3  -6  21  617.44   38.00
  -3  -6  21  564.64   32.80
  -6   9  21  653.83   36.60
  -6   9  21  723.13   37.10
   3  -9 -21  243.68   17.40
  -9   6 -21  255.27   17.60
   6   3 -21  263.57   17.50
   3  -9 -21  246.68   18.00
  -9   6 -21  255.67   18.50
   3  -9 -21  254.17   17.40
  -6  -3  21  255.47   18.80
  -3   9  21  241.58   17.10
  -3   9  21  235.78   17.90
  -6  -3  21  249.97   18.00
  -3   9  21  227.68   17.40
  -6  -3  21  246.88   16.70
   5   5 -21 1291.57   65.69
   5 -10 -21 1264.87   65.19
 -10   5 -21 1116.99   63.39
 -10   5 -21 1226.58   65.49
 -10   5 -21 1338.07   66.19
   5 -10 -21 1138.79   64.19
   5 -10 -21 1199.28   66.39
  -5  -5  21 1241.38   64.69
  -5  10  21 1227.18   66.59
  -5  10  21 1304.17   65.39
  -5  -5  21 1192.18   66.89
  10  -5  21 1138.39   64.59
  -5  -5  21 1336.37   66.99
  -5  10  21 1233.08   65.29
   0   1 -22  438.36   26.40
   1  -1 -22  484.15   26.70
   0   1 -22  458.75   25.60
   1  -1 -22  497.25   26.60
  -1   0 -22  465.65   25.60
  -1   0 -22  485.05   27.00
   1  -1 -22  480.95   26.00
  -1   0 -22  460.45   26.10
   0   1 -22  435.26   25.70
   1   0  22  489.65   26.40
   1   0  22  461.45   25.50
   0  -1  22  470.45   26.10
   1   0  22  518.65   27.80
  -1   1  22  500.75   27.50
   0  -1  22  437.26   25.90
  -1   1  22  461.95   26.40
   0  -1  22  487.95   27.20
  -1   1  22  474.35   26.00
   3  -2 -22  145.99    9.90
   3  -2 -22  142.59   10.90
  -2  -1 -22  133.19    9.30
  -1   3 -22  139.49   10.00
  -1   3 -22  130.29    9.70
   3  -2 -22  146.19   10.50
  -2  -1 -22  136.79   10.50
  -3   2  22  179.48   11.60
  -3   2  22  164.08   10.90
   2   1  22  155.28   11.70
   1  -3  22  147.39   10.50
   2   1  22  163.68   11.20
   2   1  22  144.59    9.70
  -3   2  22  157.58   11.40
   1  -3  22  119.59    9.70
   1  -3  22  155.28   11.20
  -2   2 -22  455.55   25.40
   2   0 -22  473.35   25.70
   2   0 -22  433.26   25.60
   2   0 -22  447.26   24.20
  -2   2 -22  483.45   25.80
   0  -2 -22  438.36   25.30
  -2   2 -22  435.16   24.90
   0  -2 -22  421.46   24.70
   0  -2 -22  378.36   25.10
  -2   0  22  451.45   25.60
   2  -2  22  472.05   26.30
   0   2  22  469.25   25.50
   0   2  22  426.06   24.80
  -2   0  22  491.85   26.10
   0   2  22  462.95   26.50
  -2   0  22  425.96   24.00
  -3  -2 -22  451.95   26.30
  -2   5 -22  481.15   25.90
   5  -3 -22  431.06   23.90
  -2   5 -22  439.06   24.70
  -2   5 -22  412.56   24.70
  -3  -2 -22  403.66   23.20
   5  -3 -22  479.65   25.10
  -5   3  22  454.45   25.30
   3   2  22  421.96   23.80
   3   2  22  448.06   25.80
   2  -5  22  403.36   25.10
   2  -5  22  434.26   24.70
   3   2  22  397.16   26.00
  -5   3  22  440.86   23.90
   2  -3 -22 1943.81   95.39
  -3   1 -22 1865.21   94.99
   1   2 -22 1868.01   93.59
  -3   1 -22 1930.61   95.69
   2  -3 -22 2049.79   95.09
   1   2 -22 1837.22   93.69
   1   2 -22 1862.61   95.49
   2  -3 -22 1784.02   94.99
  -3   1 -22 1895.71   95.59
   3  -1  22 2130.69   96.89
  -1  -2  22 1944.71   95.29
   3  -1  22 1711.63   92.79
  -2   3  22 1881.41   95.59
  -1  -2  22 1953.40   95.59
  -2   3  22 1990.00   96.19
  -2   3  22 1939.31   94.89
  -1  -2  22 1873.71   95.59
   4  -1 -22  518.65   28.30
  -1  -3 -22  477.75   27.30
  -1  -3 -22  518.75   28.70
   4  -1 -22  510.75   29.20
  -3   4 -22  513.95   28.30
   4  -1 -22  495.95   26.50
  -3   4 -22  475.55   27.80
  -4   1  22  484.85   26.40
  -4   1  22  497.85   28.30
   3  -4  22  500.15   27.70
   3  -4  22  459.85   26.80
   3  -4  22  558.54   30.60
   1   3  22  538.95   30.10
  -4   1  22  514.95   29.20
  -3   7 -22   80.69    8.00
  -4  -3 -22   88.89    9.00
  -3   7 -22   84.09    8.00
  -4  -3 -22   85.59    8.10
  -4  -3 -22   74.09    6.40
   7  -4 -22   79.49    6.80
  -3   7 -22   78.59    7.40
   7  -4 -22   84.99    7.40
   7  -4 -22   86.29    8.70
   4   3  22   98.09    8.80
  -7   4  22   84.19    7.50
   4   3  22   86.79    7.10
  -7   4  22   89.99    6.90
   3  -7  22   84.89    8.30
  -7   4  22   93.99    9.30
   3  -7  22   92.79    8.10
   3  -7  22   86.89    7.90
   4   3  22   89.59    9.10
  -4   0 -22  165.68   10.00
   0   4 -22  165.38   11.10
   0   4 -22  185.98   13.00
   0   4 -22  177.08   11.50
   4  -4 -22  193.28   12.60
   4  -4 -22  174.08   12.90
   4  -4 -22  174.68   11.90
  -4   4  22  183.88   12.10
   0  -4  22  173.98   12.90
  -4   4  22  187.78   13.60
   4   0  22  185.48   10.60
  -4   4  22  192.08   13.00
   0  -4  22  190.48   12.90
   1  -4 -22   81.59    7.80
   1  -4 -22   84.49    7.50
   3   1 -22   89.69    6.20
  -4   3 -22   85.89    7.80
  -4   3 -22   84.09    7.60
   1  -4 -22   87.79    7.70
   3   1 -22   96.09    8.00
   3   1 -22   81.19    6.00
   4  -3  22   92.79    8.40
  -1   4  22   81.89    7.70
  -1   4  22   89.69    8.40
  -3  -1  22   89.39    8.40
  -3  -1  22   87.19    7.70
   4  -3  22   83.99    6.30
  -3  -1  22   85.59    7.90
  -1   4  22   85.49    7.60
  -4   6 -22 1099.89   57.99
   6  -2 -22 1291.07   58.19
  -4   6 -22 1118.29   58.09
  -2  -4 -22 1125.29   58.49
   6  -2 -22 1158.18   59.49
  -2  -4 -22  982.50   56.59
  -2  -4 -22 1072.89   59.09
  -4   6 -22 1034.00   56.99
   6  -2 -22 1040.50   55.49
  -6   2  22 1110.79   57.49
   2   4  22 1120.89   58.49
   4  -6  22 1086.79   58.09
  -6   2  22 1161.88   59.49
   4  -6  22 1139.69   58.29
   2   4  22 1098.99   59.59
   4  -6  22 1178.58   57.99
   2   4  22 1149.98   57.69
  -5  -4 -22  127.79   11.90
  -5  -4 -22  108.89    9.00
   9  -5 -22  127.59   11.60
   9  -5 -22  127.59    9.60
  -5  -4 -22  128.79   11.10
  -4   9 -22  125.59   10.40
  -4   9 -22  128.09   10.80
   9  -5 -22  113.69    9.20
   5   4  22  140.19   12.20
   5   4  22  121.59    9.70
  -9   5  22  124.69    9.00
  -9   5  22  121.19    9.50
  -9   5  22  146.09   12.60
   4  -9  22  136.59   10.80
   4  -9  22  148.49   11.20
   5   4  22  147.19   11.60
   6  -5 -22  287.47   18.30
  -5  -1 -22  288.37   18.40
   6  -5 -22  254.17   16.20
  -1   6 -22  294.87   18.00
  -1   6 -22  257.07   17.60
   6  -5 -22  277.67   16.50
  -5  -1 -22  277.27   17.60
  -5  -1 -22  258.37   14.20
  -1   6 -22  245.98   15.90
   1  -6  22  239.28   17.50
   5   1  22  264.57   18.30
   5   1  22  283.57   17.90
   1  -6  22  247.08   16.90
   1  -6  22  254.67   16.20
  -6   5  22  262.77   16.20
  -6   5  22  286.77   18.80
   5   1  22  239.68   14.40
  -6   5  22  251.67   16.70
   2   3 -22  377.26   21.50
   2   3 -22  368.26   21.30
   3  -5 -22  406.56   23.70
  -5   2 -22  406.96   24.40
   3  -5 -22  434.56   24.10
   3  -5 -22  401.16   24.20
   2   3 -22  422.46   24.30
  -2  -3  22  419.86   24.40
  -2  -3  22  394.56   24.60
  -3   5  22  425.06   23.80
  -3   5  22  415.96   24.80
   5  -2  22  425.96   20.60
  -3   5  22  422.36   24.60
   5  -2  22  384.16   20.40
   5   0 -22  515.55   26.90
   0  -5 -22  528.05   30.80
   0  -5 -22  551.14   30.40
   0  -5 -22  500.45   29.50
   5   0 -22  489.25   31.00
   0   5  22  522.75   30.10
  -5   0  22  548.85   29.70
   0   5  22  555.04   31.40
   0   5  22  538.95   30.20
  -5   0  22  557.84   31.10
   5  -5  22  516.15   28.40
  -5   8 -22  491.75   28.70
  -5   8 -22  479.25   28.50
  -3  -5 -22  529.65   30.90
   8  -3 -22  502.45   27.90
   8  -3 -22  479.35   26.00
  -5   8 -22  487.95   28.50
   8  -3 -22  530.35   30.30
  -3  -5 -22  443.46   27.40
   5  -8  22  498.45   28.80
   3   5  22  489.15   30.30
   3   5  22  505.55   29.20
  -8   3  22  511.75   30.30
  -8   3  22  449.16   25.60
  -8   3  22  484.05   27.50
   3   5  22  481.95   28.20
   5  -8  22  509.05   29.00
   5  -8  22  487.95   28.50
  -2   8 -22  222.08   15.40
   8  -6 -22  218.98   15.00
  -6  -2 -22  250.97   17.90
  -2   8 -22  246.88   16.90
   8  -6 -22  228.48   15.50
   8  -6 -22  246.18   17.60
  -6  -2 -22  241.18   16.90
   2  -8  22  254.37   16.60
   6   2  22  247.78   17.90
   6   2  22  269.77   17.50
  -8   6  22  225.78   15.40
   2  -8  22  257.87   16.10
  -8   6  22  269.07   18.70
  -8   6  22  244.48   15.40
   2  -8  22  247.78   17.60
   5  -6 -22  412.16   25.80
   1   5 -22  403.16   24.50
   5  -6 -22  459.55   26.50
  -6   1 -22  467.15   27.30
   1   5 -22  490.55   27.70
  -6   1 -22  468.75   27.40
  -6   1 -22  481.55   27.80
   5  -6 -22  474.55   27.80
  -5   6  22  485.35   28.40
  -5   6  22  467.55   26.50
  -1  -5  22  494.95   27.10
   6  -1  22  450.15   27.80
   2  -6 -22  141.79   12.00
   4   2 -22  137.29   10.50
   4   2 -22  119.19    7.30
  -6   4 -22  136.19   10.70
   2  -6 -22  131.49   10.60
   4   2 -22  135.29    7.50
  -6   4 -22  127.19   10.50
  -4  -2  22  121.69    9.80
   6  -4  22  108.39    7.10
  -2   6  22  134.29   10.30
   6  -4  22  125.29    7.50
  -4  -2  22  125.49   11.00
  -2   6  22  123.39   10.50
  -4  -2  22  130.69   10.80
  -1  -6 -22  290.37   18.60
  -1  -6 -22  271.07   19.10
  -1  -6 -22  240.88   17.20
  -6   7 -22  265.87   18.10
  -6   7 -22  256.27   17.40
   7  -1 -22  289.37   19.40
  -6   7 -22  252.47   16.60
  -7   1  22  300.47   19.30
   6  -7  22  274.17   18.10
   6  -7  22  287.67   18.60
   1   6  22  284.07   19.40
   1   6  22  297.97   18.60
   1   6  22  287.97   18.50
   6  -7  22  283.47   17.20
  -7   1  22  253.17   14.20
  -7   1  22  285.67   18.60
   0   7 -22  532.45   32.40
   7  -7 -22  600.44   33.00
   0   7 -22  560.94   32.00
   7  -7 -22  563.64   31.00
   0   7 -22  484.75   29.10
  -7   0 -22  567.94   32.30
   7  -7 -22  498.05   29.70
  -7   0 -22  559.04   32.40
  -7   0 -22  590.84   32.10
   0  -7  22  498.55   32.10
   0  -7  22  532.05   29.70
  -7   7  22  562.44   30.70
   0  -7  22  558.04   31.30
  -7   7  22  539.05   30.70
   7   0  22  535.25   32.40
   3   4 -22  357.86   22.00
   4  -7 -22  336.37   21.50
  -7   3 -22  342.47   22.20
   4  -7 -22  349.27   22.40
   4  -7 -22  339.17   21.50
  -7   3 -22  341.07   21.50
  -7   3 -22  363.66   22.40
  -4   7  22  351.56   22.70
  -3  -4  22  372.86   23.30
  -3  -4  22  365.66   21.70
  -3  -4  22  368.16   22.70
   7  -3  22  342.27   22.30
  -4   7  22  349.17   21.60
  -4   7  22  350.56   22.10
   6   1 -22  124.39   10.30
   1  -7 -22  134.79   10.90
  -7   6 -22  125.79   10.00
  -7   6 -22  130.59   10.80
   1  -7 -22  124.99   11.10
  -6  -1  22  114.89    9.80
  -6  -1  22  127.89   11.80
  -1   7  22  128.99   11.10
   7  -6  22  133.29   11.10
  -1   7  22  132.39   11.50
   7  -6  22  130.09    8.70
  -1   7  22  133.59   10.70
  -6  -1  22  131.19   11.30
  -2  -7 -22   51.99    7.10
  -7   9 -22   47.50    5.80
  -2  -7 -22   43.50    6.00
  -7   9 -22   48.40    5.90
  -7   9 -22   51.99    6.60
  -2  -7 -22   50.29    6.50
   9  -2 -22   53.09    7.10
   7  -9  22   53.19    6.10
   2   7  22   53.99    7.30
   2   7  22   52.89    6.50
  -9   2  22   49.20    6.30
   7  -9  22   53.09    6.70
   2   7  22   50.29    6.40
  -9   2  22   43.30    3.40
   7  -9  22   46.80    6.00
  -1   9 -22  417.86   26.90
  -1   9 -22  421.46   24.10
   9  -8 -22  459.55   27.40
  -8  -1 -22  453.05   26.30
  -8  -1 -22  411.86   26.60
   9  -8 -22  400.76   23.40
  -1   9 -22  458.15   26.60
   1  -9  22  407.26   25.30
   8   1  22  385.06   26.30
  -9   8  22  368.66   23.70
  -9   8  22  443.16   27.80
   1  -9  22  377.66   23.90
   1  -9  22  400.56   26.70
  -9   8  22  387.26   24.20
  -8   2 -22  431.06   27.10
   6  -8 -22  445.96   26.90
   6  -8 -22  450.55   26.20
   2   6 -22  454.35   28.20
   2   6 -22  459.65   27.80
  -8   2 -22  456.55   28.00
  -8   2 -22  474.45   28.00
   2   6 -22  390.46   24.10
   6  -8 -22  465.85   28.50
   8  -2  22  457.35   28.00
  -2  -6  22  512.25   27.70
  -6   8  22  476.75   27.10
  -2  -6  22  449.86   24.40
  -2  -6  22  461.75   28.80
  -6   8  22  488.85   29.20
  -6   8  22  471.15   27.20
  -8   5 -22  579.74   35.40
   3  -8 -22  635.54   35.50
   3  -8 -22  626.74   35.60
   3  -8 -22  610.54   36.10
  -8   5 -22  659.63   36.10
  -8   5 -22  582.84   34.20
   5   3 -22  628.94   35.50
  -3   8  22  629.94   36.40
  -3   8  22  682.83   35.90
  -5  -3  22  639.54   35.00
  -5  -3  22  622.24   36.20
  -5  -3  22  588.24   36.60
   8  -5  22  603.64   35.50
  -3   8  22  638.54   36.20
   8   0 -22  288.97   19.30
   0  -8 -22  302.47   20.20
   0  -8 -22  275.77   19.90
  -8   8 -22  278.57   17.90
  -8   8 -22  277.37   18.70
  -8   8 -22  288.07   20.00
   0  -8 -22  308.17   21.00
  -8   0  22  326.27   22.00
   0   8  22  306.47   20.10
   0   8  22  316.87   21.30
   0   8  22  299.07   20.50
  -8   0  22  324.37   21.20
  -8   0  22  298.57   18.80
   8  -8  22  305.07   19.80
   8  -8  22  327.77   20.80
   8  -8  22  304.17   18.30
   8  -9 -22  136.09   11.20
   8  -9 -22  141.29   12.60
   8  -9 -22  114.99    9.60
   1   8 -22  123.29    9.40
  -9   1 -22  149.09   12.10
   1   8 -22  117.69   11.90
  -9   1 -22  134.09   11.90
  -9   1 -22  135.59   11.70
  -8   9  22  152.58   13.40
  -1  -8  22  131.29   12.40
  -8   9  22  143.09   11.20
  -1  -8  22  157.28   12.00
  -1  -8  22  127.39    9.50
   9  -1  22  129.79   11.90
  -8   9  22  130.49   10.60
  -9   4 -22  210.48   14.90
   5  -9 -22  234.68   15.80
   4   5 -22  187.88   11.20
   4   5 -22  241.18   16.30
   4   5 -22  222.38   11.60
   5  -9 -22  196.88   14.70
   5  -9 -22  237.68   16.90
  -5   9  22  211.18   16.50
  -4  -5  22  217.18   16.40
  -4  -5  22  195.18   16.40
   9  -4  22  201.38   15.50
  -4  -5  22  203.48   15.00
  -5   9  22  216.68   15.40
   2  -9 -22  321.37   21.80
  -9   7 -22  326.77   21.60
  -9   7 -22  299.27   19.70
   2  -9 -22  350.66   21.70
   7   2 -22  331.97   21.20
   2  -9 -22  324.27   21.80
  -2   9  22  315.17   22.00
  -7  -2  22  311.77   20.30
  -2   9  22  336.77   21.50
  -7  -2  22  335.47   22.20
  -7  -2  22  328.97   23.00
   9  -7  22  309.77   20.90
   9  -7  22  330.17   21.70
  -2   9  22  326.17   22.10
   0  -1 -23  121.99    9.60
  -1   1 -23  119.69    9.30
   0  -1 -23  123.29    9.30
   1   0 -23  130.99    9.70
   0  -1 -23  123.69    9.10
  -1   1 -23  121.79    9.00
   1   0 -23  126.79    9.60
   1   0 -23  128.79    9.00
   0   1  23  120.99    9.10
  -1   0  23  127.69    9.60
   1  -1  23  113.79    8.70
   0   1  23  123.79    9.40
  -1   0  23  121.39    8.80
   1  -1  23  119.39    8.80
   0   1  23  128.19   10.40
  -1   0  23  130.09   10.20
   1  -1  23  137.69   10.50
   0   2 -23  256.77   15.70
   2  -2 -23  273.77   16.10
   2  -2 -23  258.77   16.50
   2  -2 -23  273.27   16.90
   0   2 -23  250.27   15.40
  -2   0 -23  259.87   16.40
  -2   0 -23  247.38   15.00
  -2   2  23  271.47   16.10
   0  -2  23  269.77   16.60
  -2   2  23  262.37   16.80
   2   0  23  259.97   16.50
   0  -2  23  257.67   16.20
   2   0  23  240.28   15.00
  -2   2  23  285.17   17.40
  -1  -2 -23  276.87   16.80
  -2   3 -23  263.77   16.10
   3  -1 -23  279.47   15.60
   3  -1 -23  266.37   16.50
  -1  -2 -23  272.67   15.80
   3  -1 -23  286.67   17.50
  -2   3 -23  269.67   16.40
  -3   1  23  254.87   16.90
   1   2  23  265.17   16.80
  -3   1  23  249.78   15.20
  -3   1  23  262.57   16.80
   1   2  23  242.98   15.70
   2  -3  23  239.98   15.30
   2  -3  23  224.78   15.50
  -1   4 -23  695.43   37.70
  -1   4 -23  650.33   36.00
   4  -3 -23  681.73   37.90
  -3  -1 -23  746.43   38.40
   4  -3 -23  686.73   36.90
  -3  -1 -23  642.74   35.10
  -1   4 -23  680.83   36.40
  -4   3  23  704.63   36.40
   3   1  23  692.63   38.70
  -4   3  23  717.03   37.70
   1  -4  23  734.83   37.90
   1  -4  23  673.73   37.40
  -4   3  23  707.73   38.30
   1  -4  23  643.04   36.70
   3   1  23  652.53   35.40
   1  -3 -23  797.72   40.50
   2   1 -23  733.83   38.70
   1  -3 -23  751.72   40.20
  -3   2 -23  718.93   40.10
  -3   2 -23  767.52   40.70
   2   1 -23  765.72   38.80
  -1   3  23  724.43   40.20
  -1   3  23  792.02   41.70
   3  -2  23  706.63   38.50
  -2  -1  23  787.12   40.90
  -2  -1  23  779.92   41.20
  -1   3  23  783.32   40.40
   3  -2  23  703.63   38.30
  -2  -1  23  764.22   40.70
  -2  -3 -23  228.98   16.80
   5  -2 -23  254.97   16.10
   5  -2 -23  259.07   17.30
  -2  -3 -23  234.18   16.30
   5  -2 -23  239.68   14.50
  -3   5 -23  248.88   16.40
  -2  -3 -23  224.28   14.90
  -3   5 -23  233.48   15.80
   3  -5  23  248.58   16.10
   2   3  23  275.87   17.00
   2   3  23  262.07   15.80
  -5   2  23  264.37   16.40
   3  -5  23  255.07   16.70
  -5   2  23  258.77   14.70
   2   3  23  262.07   17.70
  -2   6 -23  358.76   21.50
  -4  -2 -23  364.76   23.30
   6  -4 -23  373.06   21.10
   6  -4 -23  381.36   21.70
  -4  -2 -23  381.16   22.70
  -2   6 -23  383.46   22.70
  -4  -2 -23  336.77   19.80
  -2   6 -23  360.56   22.40
   2  -6  23  361.36   22.20
   4   2  23  365.26   20.50
   2  -6  23  362.26   21.70
  -6   4  23  368.26   20.90
  -6   4  23  358.16   21.90
  -6   4  23  403.76   24.10
   4   2  23  384.76   23.00
   4   2  23  353.76   23.50
   2  -6  23  346.57   22.50
   1   3 -23  284.47   16.70
   1   3 -23  270.87   16.40
   3  -4 -23  286.87   18.50
   1   3 -23  322.57   19.00
   3  -4 -23  309.87   18.10
   3  -4 -23  296.27   18.20
  -4   1 -23  297.47   18.70
   4  -1  23  262.47   15.60
  -1  -3  23  295.27   18.80
  -1  -3  23  295.47   18.40
  -3   4  23  283.97   18.70
  -1  -3  23  282.87   18.20
  -3   4  23  319.47   19.20
  -3   4  23  297.17   17.90
   0  -4 -23  231.08   15.20
  -4   4 -23  227.98   15.70
   0  -4 -23  239.48   16.30
  -4   4 -23  239.08   15.70
  -4   4 -23  233.68   15.60
   4   0 -23  238.98   13.60
   4  -4  23  242.88   14.60
   0   4  23  253.67   17.20
   4  -4  23  222.08   13.70
   0   4  23  243.58   15.70
  -4   0  23  255.37   15.90
  -4   7 -23  145.39   11.30
  -3  -4 -23  149.79   11.90
   7  -3 -23  161.48   11.20
  -4   7 -23  149.79   11.60
  -3  -4 -23  127.39   10.00
   7  -3 -23  135.79    9.60
   7  -3 -23  157.88   12.50
   4  -7  23  145.89   11.50
   4  -7  23  148.09   11.60
  -7   3  23  157.28   12.70
   3   4  23  144.99   12.60
   3   4  23  154.58   11.90
  -7   3  23  146.49   10.90
   3   4  23  152.08   11.00
  -5  -3 -23   49.40    6.20
   8  -5 -23   50.19    6.50
  -5  -3 -23   40.00    4.30
   8  -5 -23   52.99    5.50
  -3   8 -23   52.79    6.20
  -3   8 -23   52.49    7.20
  -5  -3 -23   52.39    6.90
   8  -5 -23   48.70    5.20
  -8   5  23   41.00    4.60
   3  -8  23   48.50    5.70
  -8   5  23   44.10    5.20
   3  -8  23   47.50    5.90
   5   3  23   45.00    6.00
   5   3  23   45.70    6.60
   5   3  23   39.70    4.60
  -5   0 -23  113.49    6.90
   5  -5 -23  127.99   10.60
  -5   0 -23  133.09   10.70
   0   5 -23  106.29    8.40
   0   5 -23  139.19   10.70
  -5   0 -23  132.29   10.40
   5  -5 -23  117.39    9.40
   5  -5 -23  124.49    9.50
   5   0  23  122.99   10.80
   0  -5  23  111.29   10.20
  -5   5  23  123.09   10.00
  -5   5  23  125.09   10.90
  -5   5  23  120.39    9.30
   5   0  23  121.59    7.20
  -5   3 -23  159.48   11.70
   3   2 -23  158.98    9.50
   3   2 -23  159.88    9.60
   2  -5 -23  166.78   11.90
   3   2 -23  171.88   12.10
  -5   3 -23  169.48   13.50
   2  -5 -23  150.78   11.70
  -5   3 -23  168.98   12.20
   5  -3  23  156.28    9.40
  -3  -2  23  152.28   11.50
   5  -3  23  131.59    8.80
  -5   6 -23  156.38   10.70
  -5   6 -23  162.08   11.80
  -5   6 -23  159.88   12.00
   6  -1 -23  161.18   12.90
  -1  -5 -23  163.48   12.80
  -1  -5 -23  156.58   12.10
   1   5  23  151.58   12.80
   5  -6  23  154.18   11.00
  -6   1  23  154.08   12.50
   1   5  23  145.39   11.60
   5  -6  23  152.58   12.00
  -6   1  23  155.48   11.40
   5  -6  23  152.28   11.90
   1   5  23  149.09   11.80
  -4  -5 -23  216.28   16.40
  -4  -5 -23  176.68   13.20
  -5   9 -23  205.38   15.10
   9  -4 -23  207.98   13.80
  -5   9 -23  194.58   14.50
  -5   9 -23  214.08   14.90
  -4  -5 -23  213.38   15.20
   9  -4 -23  235.48   16.50
   5  -9  23  203.88   14.80
  -9   4  23  182.78   13.30
  -9   4  23  213.28   16.30
  -9   4  23  181.78   12.10
   4   5  23  207.18   16.50
   5  -9  23  189.68   14.20
   4   5  23  188.78   13.90
   5  -9  23  202.18   15.10
   7  -6 -23  187.48   12.70
  -6  -1 -23  174.98   13.80
  -1   7 -23  168.38   11.80
  -6  -1 -23  162.48    9.70
   7  -6 -23  170.68   12.00
  -1   7 -23  162.48   13.50
   7  -6 -23  182.78   14.00
  -1   7 -23  196.28   13.80
  -7   6  23  176.18   12.20
  -7   6  23  175.78   14.30
  -7   6  23  159.78   12.30
   1  -7  23  179.48   13.10
   6   1  23  192.28   13.80
   1  -7  23  180.18   12.30
   6   1  23  178.18   14.20
   1  -7  23  170.38   13.90
   2   4 -23    7.60    1.80
  -6   2 -23    7.50    2.90
  -6   2 -23   11.10    3.30
   2   4 -23   11.10    1.80
  -6   2 -23   10.00    3.30
   4  -6 -23    9.90    3.00
   2   4 -23   13.30    3.70
   4  -6 -23   11.30    3.50
   4  -6 -23   12.70    3.30
  -2  -4  23   11.10    3.10
  -2  -4  23   15.10    4.60
  -4   6  23   11.70    3.60
  -2  -4  23    8.60    3.30
   6  -2  23   10.10    3.50
  -6   5 -23  504.95   27.90
  -6   5 -23  462.15   26.90
   1  -6 -23  490.25   27.70
  -6   5 -23  473.85   27.60
   5   1 -23  454.75   23.40
   1  -6 -23  458.05   27.20
   5   1 -23  420.56   23.30
   5   1 -23  500.35   27.60
   1  -6 -23  480.75   28.10
  -5  -1  23  459.95   28.70
  -1   6  23  455.05   28.20
  -5  -1  23  477.55   28.20
  -1   6  23  460.65   27.70
   6  -5  23  468.05   27.80
   6  -5  23  429.66   24.60
  -1   6  23  460.25   27.30
  -5  -1  23  482.35   26.90
  -2  -6 -23  112.59   10.90
  -6   8 -23  115.09   10.20
  -2  -6 -23  119.99   10.40
  -2  -6 -23   98.89    9.20
  -6   8 -23  109.99    9.40
  -6   8 -23  118.59    9.90
   8  -2 -23  124.19   11.20
   6  -8  23  115.99    9.70
   6  -8  23  121.69   10.50
   2   6  23  115.79   10.10
   2   6  23  111.59   10.10
  -8   2  23  123.99   11.20
   6  -8  23  112.99    9.90
   2   6  23  109.99   10.80
  -7  -2 -23   90.69    9.60
   9  -7 -23   86.39    9.30
  -2   9 -23   95.89    9.10
   9  -7 -23   85.09    7.40
  -2   9 -23   90.09    9.50
  -7  -2 -23   77.39    7.50
  -7  -2 -23   87.49    8.80
   7   2  23   87.29    8.90
  -9   7  23   82.79    7.50
   2  -9  23   82.99    7.90
   7   2  23   81.49    9.30
  -9   7  23   90.89   10.00
   2  -9  23   81.89    8.20
   2  -9  23   83.99    9.30
  -9   7  23   75.49    7.30
  -7   1 -23   69.39    7.50
   6  -7 -23   58.09    6.20
   1   6 -23   51.89    5.10
  -7   1 -23   66.99    7.30
  -7   1 -23   74.69    8.60
   1   6 -23   72.69    7.80
   6  -7 -23   62.59    7.40
  -1  -6  23   58.09    5.40
  -1  -6  23   59.49    6.70
  -1  -6  23   63.39    7.60
  -6   7  23   61.19    6.70
  -6   7  23   64.19    7.70
   7  -1  23   63.09    7.50
  -7   4 -23  133.89   10.90
   3  -7 -23  134.39   11.50
   3  -7 -23  143.89   11.40
   4   3 -23  121.79    7.80
   4   3 -23  143.29    8.10
  -7   4 -23  139.69   11.60
   3  -7 -23  133.79   11.20
   4   3 -23  151.48   11.60
  -7   4 -23  149.09   11.80
  -4  -3  23  142.69   11.00
   7  -4  23  146.99   11.90
  -3   7  23  144.09   11.90
  -3   7  23  141.59   11.90
  -4  -3  23  142.89   12.40
  -3   7  23  154.38   11.50
  -4  -3  23  156.48   12.20
  -7   7 -23   56.89    5.30
   0  -7 -23   59.19    7.40
  -7   7 -23   58.99    6.20
  -7   7 -23   61.69    7.00
   0  -7 -23   62.89    6.90
   7   0 -23   57.49    6.40
  -7   0  23   48.80    5.70
   0   7  23   52.99    7.10
   0   7  23   50.99    6.60
  -7   0  23   60.09    7.70
   7  -7  23   55.69    6.70
   7  -7  23   52.39    5.30
   7  -7  23   56.69    6.90
   0   7  23   51.39    6.40
  -7   0  23   45.30    6.50
   0   8 -23  145.99   11.00
   8  -8 -23  170.98   14.00
   0   8 -23  177.78   13.70
   8  -8 -23  156.38   11.50
  -8   0 -23  168.18   13.70
  -8   0 -23  173.58   13.50
   8  -8 -23  157.08   12.40
  -8   0 -23  155.98   13.40
  -8   8  23  162.98   12.20
   0  -8  23  171.18   11.60
  -8   8  23  154.58   12.00
   0  -8  23  173.68   13.10
   8   0  23  161.68   13.80
   0  -8  23  164.68   14.10
  -8   8  23  186.78   15.10
   3   5 -23  141.29    8.90
  -8   3 -23  142.19   11.60
  -8   3 -23  163.18   12.60
   5  -8 -23  153.18   11.90
  -8   3 -23  150.98   12.40
   5  -8 -23  152.38   12.70
   3   5 -23  146.19   12.00
   8  -3  23  137.89   12.10
  -3  -5  23  147.79   12.60
  -3  -5  23  146.89   11.70
  -5   8  23  142.19   12.60
  -3  -5  23  143.99   12.90
  -5   8  23  154.38   11.80
  -8   6 -23  197.68   15.20
   2  -8 -23  194.68   15.30
   2  -8 -23  217.88   15.40
   6   2 -23  222.88   15.40
   2  -8 -23  202.68   15.50
  -8   6 -23  211.38   16.30
   8  -6  23  201.08   11.80
   8  -6  23  206.68   15.30
  -2   8  23  220.38   15.40
  -6  -2  23  203.08   16.40
  -6  -2  23  227.68   16.30
  -6  -2  23  200.98   14.50
  -2   8  23  210.38   16.00
  -2   8  23  217.58   16.00
   2   7 -23  219.08   13.70
   2   7 -23  236.58   17.70
   7  -9 -23  240.18   16.50
   2   7 -23  260.77   17.60
  -9   2 -23  239.08   17.30
  -9   2 -23  232.08   16.60
   7  -9 -23  244.58   17.80
   7  -9 -23  210.18   14.90
  -9   2 -23  257.67   17.40
  -7   9  23  213.98   15.70
   9  -2  23  219.38   16.90
  -2  -7  23  217.18   16.10
  -7   9  23  236.68   16.20
  -2  -7  23  223.28   17.60
  -7   9  23  237.78   18.00
  -2  -7  23  199.58   13.40
   4  -9 -23  293.57   20.40
   4  -9 -23  259.57   19.00
   5   4 -23  283.97   19.50
   4  -9 -23  289.67   19.50
  -9   5 -23  279.47   19.60
  -9   5 -23  304.07   20.10
  -9   5 -23  276.47   18.50
  -4   9  23  301.87   19.60
  -4   9  23  288.37   20.50
  -4   9  23  286.47   19.80
  -5  -4  23  284.67   18.90
  -5  -4  23  287.57   20.90
  -5  -4  23  312.07   20.70
   0   0 -24 1050.99   55.79
   0   0 -24 1067.09   57.79
   0   0  24 1121.29   56.09
   0   0  24 1131.19   56.19
  -1   2 -24  665.43   37.20
  -1  -1 -24  709.93   37.70
   2  -1 -24  702.73   37.00
   2  -1 -24  730.23   38.30
  -1  -1 -24  721.83   38.40
  -1  -1 -24  704.43   36.80
  -1   2 -24  683.03   36.90
  -1   2 -24  728.33   38.20
   1   1  24  747.83   38.10
   1   1  24  661.23   36.70
  -2   1  24  743.53   38.70
   1  -2  24  632.44   36.90
  -2   1  24  714.43   38.20
   1  -2  24  676.83   36.90
  -2   1  24  681.63   36.80
   1   1 -24 1458.95   72.49
  -2   1 -24 1445.16   72.69
   1  -2 -24 1427.16   72.19
  -2   1 -24 1409.56   71.99
  -2   1 -24 1457.85   72.59
   1   1 -24 1360.36   71.09
   1  -2 -24 1459.95   72.19
  -1   2  24 1492.55   72.29
   2  -1  24 1303.17   70.59
   2  -1  24 1372.06   70.69
  -1   2  24 1412.46   72.29
  -1  -1  24 1455.05   72.69
  -1  -1  24 1460.35   72.39
  -2  -2 -24  896.01   48.60
  -2   4 -24  941.01   49.50
   4  -2 -24  957.20   48.90
  -2   4 -24 1010.00   50.79
   4  -2 -24  945.71   49.99
  -2   4 -24  954.30   49.90
  -4   2  24  986.00   48.90
   2   2  24  941.91   49.10
  -4   2  24  940.51   53.09
   2   2  24  993.30   50.89
   2  -4  24  885.31   49.80
   2  -4  24  902.81   49.20
   2  -4  24 1025.40   51.19
   2   2  24 1014.50   52.09
  -4   2  24  958.70   50.49
   0   3 -24 1018.80   52.59
   3  -3 -24 1082.79   54.49
  -3   0 -24 1066.69   54.39
   3  -3 -24  993.10   53.69
   3  -3 -24 1102.29   53.39
   0   3 -24  979.50   52.19
  -3   0 -24  948.81   51.29
   0  -3  24 1006.80   54.09
  -3   3  24 1076.39   54.69
   3   0  24 1098.49   55.49
   0  -3  24  983.00   53.79
   0  -3  24 1035.20   53.49
   3   0  24  955.50   51.49
  -3   3  24 1092.89   54.69
   0  -3 -24  660.23   38.40
   0  -3 -24  712.33   37.70
   3   0 -24  755.12   36.70
  -3   3 -24  733.23   38.50
  -3   3 -24  724.93   38.10
   3   0 -24  741.53   39.10
   0  -3 -24  732.13   38.40
  -3   3 -24  701.83   38.20
  -3   0  24  673.93   36.20
   3  -3  24  649.43   36.70
   3  -3  24  669.23   36.30
   0   3  24  715.53   39.70
  -3   0  24  751.42   39.00
   3  -3  24  637.64   38.50
  -3  -3 -24  651.73   37.40
   6  -3 -24  720.43   37.70
   6  -3 -24  751.62   40.80
  -3   6 -24  684.63   38.90
  -3  -3 -24  720.53   39.90
  -3  -3 -24  726.03   40.70
  -3   6 -24  747.93   39.90
  -3   6 -24  692.23   39.00
   6  -3 -24  717.43   39.00
   3  -6  24  729.73   39.90
   3  -6  24  728.33   39.30
   3   3  24  748.93   40.30
   3   3  24  727.13   38.40
   3   3  24  723.93   41.20
  -6   3  24  773.52   41.30
   3  -6  24  725.93   39.80
  -6   3  24  718.83   37.60
  -1   5 -24  379.86   23.70
  -1   5 -24  384.26   23.50
  -4  -1 -24  365.86   22.20
  -4  -1 -24  395.66   25.50
   5  -4 -24  415.06   25.70
   5  -4 -24  452.85   24.70
   5  -4 -24  400.96   23.90
  -1   5 -24  420.76   25.40
  -4  -1 -24  407.46   25.10
   4   1  24  471.75   26.00
   4   1  24  436.16   26.60
   1  -5  24  454.45   25.90
  -5   4  24  442.46   25.30
   1  -5  24  457.65   25.60
   1  -5  24  439.16   25.10
  -5   4  24  454.05   24.30
  -5   4  24  470.75   26.80
   2   2 -24  649.93   36.00
   2  -4 -24  752.52   38.40
   2   2 -24  683.23   36.10
   2   2 -24  814.72   39.20
   2  -4 -24  710.73   38.40
  -4   2 -24  738.33   38.70
  -2  -2  24  662.03   38.70
   4  -2  24  688.23   39.10
  -2  -2  24  674.73   38.20
  -2   4  24  664.83   38.30
  -2   4  24  701.63   38.00
  -2  -2  24  689.63   38.40
  -4   5 -24  863.51   45.10
   5  -1 -24  826.02   42.50
  -1  -4 -24  803.82   45.70
   5  -1 -24  865.31   46.30
  -1  -4 -24  756.52   43.70
  -1  -4 -24  846.42   45.30
  -5   1  24  895.11   46.30
   4  -5  24  886.11   44.40
  -5   1  24  798.32   42.30
   1   4  24  896.31   45.70
   1   4  24  839.12   44.70
   4  -5  24  910.81   45.90
   4  -5  24  757.92   43.00
   1   4  24  813.62   46.30
   8  -4 -24  339.97   20.30
  -4   8 -24  350.76   21.50
  -4   8 -24  316.27   21.10
   8  -4 -24  350.86   22.50
  -4  -4 -24  284.87   19.00
  -4  -4 -24  329.47   21.50
  -4  -4 -24  338.17   22.60
   8  -4 -24  321.67   19.30
   4   4  24  317.67   22.40
  -8   4  24  317.77   18.80
   4  -8  24  338.37   21.10
   4   4  24  323.87   20.00
   4  -8  24  331.67   21.10
  -8   4  24  346.47   20.40
   4   4  24  349.67   21.80
   4  -8  24  331.07   21.60
  -8   4  24  368.46   23.20
   7  -5 -24  413.76   24.70
  -5  -2 -24  377.36   22.90
   7  -5 -24  419.06   24.90
  -5  -2 -24  448.36   27.30
  -2   7 -24  440.46   26.50
  -5  -2 -24  451.15   26.50
   7  -5 -24  452.65   27.20
  -2   7 -24  414.66   26.40
  -2   7 -24  404.36   24.80
   2  -7  24  448.16   26.10
  -7   5  24  444.66   25.60
   5   2  24  419.96   23.60
   5   2  24  486.15   27.10
  -7   5  24  468.35   28.10
   5   2  24  461.15   27.80
   2  -7  24  444.06   25.40
  -7   5  24  445.46   24.70
   1   4 -24  402.46   23.30
  -5   1 -24  420.26   25.90
  -5   1 -24  419.06   25.60
   1   4 -24  423.96   25.60
  -5   1 -24  426.96   25.50
   4  -5 -24  429.16   24.90
   1   4 -24  363.36   22.80
   4  -5 -24  435.36   25.90
  -4   5  24  467.85   25.20
   5  -1  24  430.66   21.90
  -4   5  24  456.25   26.00
  -1  -4  24  461.25   25.60
   5  -1  24  399.66   21.60
  -1  -4  24  459.45   25.90
   5  -1  24  469.55   26.90
   4   1 -24  159.88    9.90
   4   1 -24  177.18   12.60
   4   1 -24  154.48    9.80
   1  -5 -24  161.78   12.30
  -5   4 -24  161.78   12.30
   1  -5 -24  169.68   12.90
   1  -5 -24  148.79   11.80
  -5   4 -24  159.78   12.00
  -5   4 -24  168.58   12.60
  -4  -1  24  198.38   14.10
   5  -4  24  148.69   10.20
  -1   5  24  167.08   12.40
  -1   5  24  176.58   13.40
  -4  -1  24  167.18   12.80
  -1   5  24  156.08   12.30
   5  -4  24  183.78   10.80
  -4  -1  24  176.38   12.40
   5  -4  24  183.98   13.40
  -5   7 -24  267.47   17.80
   7  -2 -24  315.97   20.40
  -2  -5 -24  260.67   17.70
   7  -2 -24  269.57   16.10
  -5   7 -24  294.57   18.80
  -2  -5 -24  306.27   20.30
  -5   7 -24  285.27   18.90
  -2  -5 -24  311.67   19.50
   5  -7  24  296.67   19.20
   5  -7  24  296.57   19.20
   2   5  24  288.87   20.30
   2   5  24  288.17   18.70
   5  -7  24  298.07   18.60
   2   5  24  294.67   19.30
  -7   2  24  270.57   15.90
  -7   2  24  320.07   20.50
   6  -6 -24  674.73   36.00
  -6   0 -24  722.23   38.10
   6  -6 -24  669.03   37.80
   0   6 -24  703.13   37.70
   0   6 -24  634.34   34.90
   0   6 -24  676.43   37.60
   6  -6 -24  658.63   36.20
  -6   0 -24  687.83   37.40
  -6   6  24  676.03   38.40
   0  -6  24  628.84   34.90
   0  -6  24  651.23   37.80
   0  -6  24  633.24   36.60
   6   0  24  656.43   38.10
   6   0  24  607.24   32.00
  -6   6  24  631.54   36.40
  -6   6  24  661.53   36.10
  -6   3 -24  926.81   49.00
  -6   3 -24  848.12   47.90
   3  -6 -24  854.91   48.00
   3  -6 -24  900.61   50.59
   3   3 -24  938.81   48.80
  -6   3 -24  934.31   48.90
   3  -6 -24  957.90   48.50
   3   3 -24  862.41   45.00
   3   3 -24  757.42   44.80
  -3   6  24  967.90   48.50
  -3  -3  24  946.01   48.40
   6  -3  24  914.11   43.70
  -3  -3  24  919.71   49.70
   6  -3  24 1011.50   49.99
   6  -3  24  821.42   43.50
  -3  -3  24  987.40   49.40
  -3   6  24  829.02   51.09
   6   0 -24  500.65   28.40
   0  -6 -24  584.24   33.00
   0  -6 -24  527.45   32.00
   0  -6 -24  555.74   33.40
  -6   6 -24  555.14   32.60
  -6   6 -24  567.94   32.10
   6   0 -24  576.74   32.40
  -6   0  24  571.54   32.00
   6  -6  24  580.24   30.80
   0   6  24  573.64   33.90
  -6   0  24  594.44   34.30
   0   6  24  568.24   32.80
   6  -6  24  608.44   33.30
  -6   0  24  600.84   33.80
   0   6  24  581.04   32.80
   8  -7 -24  411.06   25.50
  -1   8 -24  507.85   28.40
   8  -7 -24  479.35   28.70
   8  -7 -24  485.25   27.00
  -7  -1 -24  401.86   22.50
  -7  -1 -24  487.15   28.80
  -1   8 -24  384.66   25.10
  -7  -1 -24  482.95   28.10
   1  -8  24  449.86   27.10
  -8   7  24  454.75   26.50
   1  -8  24  444.16   28.50
   1  -8  24  458.85   26.10
  -8   7  24  493.25   29.50
   7   1  24  439.26   28.50
   2   5 -24  977.90   49.40
  -7   2 -24  943.51   49.30
   2   5 -24  761.62   45.10
  -7   2 -24  886.41   49.30
   5  -7 -24  906.61   49.50
  -7   2 -24  930.31   48.90
   5  -7 -24  890.71   48.30
  -2  -5  24  939.81   48.60
  -2  -5  24  960.70   49.80
  -5   7  24  897.91   49.99
  -5   7  24  938.01   48.50
   7  -2  24  859.11   49.40
  -2  -5  24  846.32   49.70
  -7   5 -24  503.25   29.30
   5   2 -24  446.36   24.10
   5   2 -24  439.96   24.10
   2  -7 -24  521.95   29.30
   2  -7 -24  492.15   29.30
  -7   5 -24  511.95   29.40
   5   2 -24  506.45   29.00
  -7   5 -24  485.55   28.20
  -2   7  24  491.85   29.80
  -5  -2  24  506.45   29.80
  -5  -2  24  472.95   28.20
  -5  -2  24  518.05   30.70
  -2   7  24  503.35   29.90
   7  -5  24  462.65   25.00
   7  -5  24  503.85   29.50
  -2   7  24  502.25   28.90
  -7   8 -24  779.52   45.70
  -1  -7 -24  833.82   47.20
   8  -1 -24  805.82   45.00
  -7   8 -24  810.42   45.00
  -1  -7 -24  871.41   46.50
   7  -8  24  809.42   45.60
  -8   1  24  868.61   47.20
  -8   1  24  800.02   44.50
   1   7  24  873.91   46.30
   1   7  24  844.92   47.40
   7  -8  24  866.51   46.50
  -8   1 -24  187.98   14.70
  -8   1 -24  196.08   14.40
   7  -8 -24  180.08   13.40
  -8   1 -24  179.68   14.20
   1   7 -24  181.58   14.70
   1   7 -24  166.38   11.50
   7  -8 -24  173.48   12.50
   7  -8 -24  188.08   14.80
  -1  -7  24  181.28   14.90
   8  -1  24  178.28   14.50
  -1  -7  24  175.68   13.50
  -7   8  24  197.98   15.60
  -1  -7  24  160.68   11.50
  -7   8  24  183.78   13.30
  -7   8  24  171.18   13.20
  -8   4 -24  795.62   43.30
   4   4 -24  754.52   39.10
   4  -8 -24  818.72   44.00
   4   4 -24  758.42   39.20
  -8   4 -24  762.02   44.10
   4   4 -24  867.11   44.60
   4  -8 -24  772.72   43.50
  -8   4 -24  852.91   44.80
   4  -8 -24  768.12   44.30
  -4   8  24  838.12   44.00
  -4   8  24  769.52   44.10
  -4  -4  24  861.91   45.30
  -4  -4  24  749.82   45.10
   8  -4  24  795.72   44.50
  -4  -4  24  776.62   43.30
  -4   8  24  779.12   44.80
   1  -8 -24  442.96   29.00
   1  -8 -24  451.45   28.50
   1  -8 -24  515.45   29.20
  -8   7 -24  454.85   28.60
  -8   7 -24  421.56   27.00
   7   1 -24  467.35   28.20
  -7  -1  24  465.85   30.30
  -1   8  24  494.25   28.80
   8  -7  24  485.35   25.70
  -7  -1  24  516.55   29.90
  -1   8  24  473.85   29.60
   8  -7  24  466.65   28.80
  -1   8  24  481.15   29.30
   8  -7  24  454.75   28.50
  -7  -1  24  487.65   27.80
   0   1 -25  370.26   22.10
  -1   0 -25  388.46   22.60
   0   1 -25  403.26   23.20
  -1   0 -25  368.16   22.90
  -1   0 -25  384.16   21.90
   0   1 -25  379.56   22.00
   1  -1 -25  365.86   22.80
   1  -1 -25  388.46   22.80
   1  -1 -25  402.36   22.50
   0  -1  25  403.96   23.80
   1   0  25  364.56   21.80
   0  -1  25  388.96   22.40
   1   0  25  397.26   22.70
   0  -1  25  359.16   22.30
  -1   1  25  405.76   22.50
   1   0  25  408.26   24.10
  -1   1  25  396.36   22.90
  -1   3 -25   79.59    7.50
  -2  -1 -25   76.99    6.20
  -2  -1 -25   76.99    7.70
  -1   3 -25   72.59    6.60
  -1   3 -25   70.49    6.40
   3  -2 -25   80.39    7.60
   3  -2 -25   83.39    6.80
  -3   2  25   74.59    6.50
  -3   2  25   75.19    7.50
   2   1  25   66.29    6.10
   2   1  25   71.09    7.90
   1  -3  25   66.59    6.40
   1  -3  25   61.69    6.50
  -2   2 -25   78.19    7.30
   0  -2 -25   84.89    8.10
  -2   2 -25   84.19    7.90
   2   0 -25   82.69    7.00
   2   0 -25   86.59    8.00
  -2   2 -25   87.39    7.90
   2   0 -25   87.19    8.10
   0  -2 -25   82.49    7.50
   0  -2 -25   87.99    7.90
  -2   0  25   97.09    7.20
  -2   0  25  102.69    8.60
   0   2  25  104.49    8.40
   2  -2  25   95.89    7.20
   2  -2  25   93.69    7.30
   0   2  25  105.69    9.30
   0   2  25   96.39    7.90
   2  -2  25  113.09    9.40
  -2   5 -25  202.38   13.80
  -2   5 -25  193.08   14.00
   5  -3 -25  226.88   15.70
  -3  -2 -25  213.28   15.40
  -3  -2 -25  209.88   14.80
  -2   5 -25  225.88   15.10
  -3  -2 -25  189.38   12.70
   5  -3 -25  212.78   13.50
  -5   3  25  234.68   16.10
   2  -5  25  197.58   14.50
  -5   3  25  226.48   13.60
   3   2  25  205.68   13.30
   2  -5  25  211.88   14.20
   2  -5  25  206.38   14.80
   3   2  25  228.88   15.40
  -3   1 -25   62.39    6.70
   2  -3 -25   57.19    6.40
   1   2 -25   70.29    7.00
   1   2 -25   59.09    5.50
   2  -3 -25   64.99    6.80
   2  -3 -25   64.99    6.40
   1   2 -25   58.39    5.60
  -2   3  25   72.09    7.10
   3  -1  25   75.19    7.80
  -1  -2  25   77.69    7.40
  -2   3  25   75.79    6.80
   3  -1  25   67.29    5.40
   3  -1  25   66.29    5.40
  -1  -2  25   74.59    7.00
  -1  -2  25   69.89    7.10
  -1  -3 -25  246.88   15.70
  -3   4 -25  216.28   14.90
   4  -1 -25  238.88   13.80
   4  -1 -25  250.27   16.30
  -3   4 -25  241.38   15.50
  -1  -3 -25  230.48   14.40
  -1  -3 -25  211.98   15.60
  -3   4 -25  238.28   15.00
   4  -1 -25  230.98   15.20
   3  -4  25  219.28   15.60
   1   3  25  205.38   15.90
  -4   1  25  204.78   13.30
   3  -4  25  201.48   13.60
   1   3  25  201.38   14.30
   1   3  25  225.18   15.40
  -3   7 -25   36.40    5.20
  -4  -3 -25   32.90    5.00
  -4  -3 -25   33.50    5.40
  -3   7 -25   34.70    5.00
   7  -4 -25   33.70    4.10
   7  -4 -25   35.80    5.50
  -4  -3 -25   28.40    3.60
  -7   4  25   32.20    5.40
   4   3  25   29.20    6.20
   4   3  25   28.70    4.80
  -7   4  25   31.00    4.60
  -7   4  25   30.40    3.80
   3  -7  25   32.90    5.10
   3  -7  25   32.50    4.90
   4   3  25   30.30    4.10
   4  -4 -25  439.26   25.80
   0   4 -25  400.56   23.60
  -4   0 -25  420.96   25.20
   0   4 -25  448.26   25.90
  -4   0 -25  411.86   25.60
   0   4 -25  391.96   23.30
   4  -4 -25  425.26   25.70
  -4   4  25  453.85   24.70
   0  -4  25  442.56   25.60
   4   0  25  453.95   26.80
   0  -4  25  439.76   25.30
   0  -4  25  391.26   25.30
  -4   3 -25   61.09    6.60
   1  -4 -25   60.09    6.70
   3   1 -25   54.49    4.90
   1  -4 -25   61.69    6.30
   3   1 -25   64.99    5.30
   3   1 -25   64.39    6.60
  -4   3 -25   63.99    6.50
   4  -3  25   54.19    4.70
  -1   4  25   64.99    7.30
   4  -3  25   67.39    7.40
  -3  -1  25   57.89    6.40
   4  -3  25   54.79    5.10
  -1   4  25   62.19    6.60
  -4   6 -25  331.97   21.40
  -2  -4 -25  296.77   20.00
   6  -2 -25  351.76   22.80
  -2  -4 -25  341.27   21.90
  -2  -4 -25  322.17   22.30
  -4   6 -25  334.97   21.50
   6  -2 -25  320.97   19.30
   6  -2 -25  409.66   23.60
  -6   2  25  357.36   19.40
  -6   2  25  394.56   23.40
   2   4  25  361.66   21.30
   4  -6  25  350.76   22.00
   2   4  25  365.26   23.40
   2   4  25  375.96   22.40
   4  -6  25  341.47   21.30
   6  -5 -25   45.20    5.20
  -1   6 -25   40.20    4.80
   6  -5 -25   46.90    6.30
  -5  -1 -25   46.60    5.90
  -5  -1 -25   42.10    6.00
  -1   6 -25   47.50    6.10
   5   1  25   52.69    6.30
  -6   5  25   48.50    5.20
  -6   5  25   51.49    6.90
  -6   5  25   46.20    5.80
   1  -6  25   49.40    5.80
   5   1  25   45.60    6.50
  -5   2 -25   96.19    9.00
  -5   2 -25   87.99    8.50
   2   3 -25  100.89    8.90
   3  -5 -25   86.89    8.30
  -5   2 -25   87.49    8.40
   2   3 -25   84.49    6.70
   2   3 -25   79.89    6.50
   5  -2  25   92.79    6.00
  -2  -3  25  107.59    9.00
  -2  -3  25  112.59    9.80
   5  -2  25  113.19    6.50
  -3   5  25  105.89    9.60
   5  -2  25  109.19    9.80
  -5   5 -25  266.77   17.40
   5   0 -25  257.57   14.80
   0  -5 -25  241.48   16.80
   0  -5 -25  276.67   18.40
  -5   5 -25  248.98   17.40
   0  -5 -25  273.17   17.80
  -5   5 -25  280.27   17.80
   5   0 -25  274.77   17.60
   0   5  25  268.97   17.70
   0   5  25  271.67   18.80
   5  -5  25  235.18   15.00
   5  -5  25  272.57   18.20
  -5   0  25  266.47   17.40
  -5   0  25  281.67   18.50
   5  -5  25  259.07   16.10
   0   5  25  282.57   18.00
  -3  -5 -25  148.19   11.90
  -3  -5 -25  177.58   14.70
  -3  -5 -25  182.78   13.90
   8  -3 -25  162.68   11.20
  -5   8 -25  177.98   13.40
  -5   8 -25  171.18   13.30
  -5   8 -25  156.98   12.80
   3   5  25  195.08   13.50
  -8   3  25  197.48   15.20
   3   5  25  197.78   15.30
  -8   3  25  171.48   10.90
   3   5  25  207.38   14.50
   5  -8  25  194.48   13.90
   5  -8  25  182.78   13.60
  -6  -2 -25   58.39    4.60
  -6  -2 -25   62.49    7.60
  -6  -2 -25   64.29    8.40
   8  -6 -25   69.99    8.00
  -2   8 -25   73.99    7.60
   8  -6 -25   63.09    6.20
   8  -6 -25   66.99    6.60
  -2   8 -25   56.39    7.30
  -2   8 -25   55.79    6.10
  -8   6  25   58.89    7.90
   2  -8  25   49.50    5.90
  -8   6  25   51.09    5.60
  -8   6  25   43.70    5.80
   2  -8  25   49.30    6.40
   6   2  25   58.29    7.10
   6   2  25   53.39    7.40
   2  -8  25   45.10    6.60
  -6   1 -25  181.08   13.40
  -6   1 -25  182.68   13.40
  -6   1 -25  174.58   13.60
   5  -6 -25  177.78   13.60
   1   5 -25  186.38   13.60
   1   5 -25  163.08   10.90
   1   5 -25  153.98   10.60
   6  -1  25  165.18   13.70
  -1  -5  25  177.58   13.40
  -5   6  25  171.68   13.90
  -1  -5  25  165.58   12.70
  -1  -5  25  160.38   13.50
  -6   4 -25  229.08   16.10
   4   2 -25  254.87   16.90
  -6   4 -25  257.27   17.00
   2  -6 -25  235.68   16.70
  -6   4 -25  229.98   16.60
   2  -6 -25  251.17   16.70
   6  -4  25  252.47   17.40
  -4  -2  25  261.97   16.50
  -4  -2  25  265.17   17.50
  -2   6  25  263.27   16.90
  -4  -2  25  226.98   17.30
   6  -4  25  229.18   13.40
  -2   6  25  258.37   17.70
   6  -4  25  210.48   12.90
  -1  -6 -25  194.88   15.50
  -6   7 -25  202.18   14.40
  -6   7 -25  197.08   14.80
  -1  -6 -25  180.18   13.90
  -1  -6 -25  206.98   15.10
  -6   7 -25  181.28   13.00
   7  -1 -25  225.88   14.90
  -7   1  25  216.68   14.40
   6  -7  25  196.08   14.70
   6  -7  25  206.28   15.00
  -7   1  25  210.78   15.80
   1   6  25  207.48   15.00
   6  -7  25  197.08   13.70
   1   6  25  205.98   16.00
   1   6  25  200.38   14.80
  -7   0 -25   99.99   10.00
   0   7 -25  110.39   10.10
   0   7 -25   96.89   10.00
  -7   0 -25  106.49   10.20
   0   7 -25   85.69    7.80
   7  -7 -25  111.99   10.50
   0  -7  25  104.99    8.40
   0  -7  25  107.79   10.60
  -7   7  25  113.19    9.20
   7   0  25  114.69   10.90
  -7   7  25  125.39   11.50
   0  -7  25  114.09    9.90
  -7   7  25  112.59    9.60
   3   4 -25   86.49    5.90
   3   4 -25   72.69    5.70
   3   4 -25  106.99    9.30
   4  -7 -25   86.29    8.30
  -7   3 -25  105.59    9.30
   4  -7 -25   98.29    9.20
  -7   3 -25   89.69    8.80
  -7   3 -25   87.29    8.30
   4  -7 -25  101.09    8.80
  -4   7  25   84.79    8.20
  -3  -4  25   82.09    8.00
   7  -3  25   76.49    8.60
  -3  -4  25   86.59    8.90
  -4   7  25   77.89    8.40
  -4   7  25   77.99    8.70
  -3  -4  25   61.79    8.20
   6   1 -25    4.90    0.70
   1  -7 -25    4.30    2.40
  -7   6 -25    5.70    2.50
   1  -7 -25    5.90    2.70
   6   1 -25    5.40    2.50
  -7   6 -25    5.50    2.60
  -7   6 -25    5.40    2.60
   6   1 -25    4.80    0.70
   1  -7 -25    5.00    2.80
   7  -6  25    5.60    1.50
  -6  -1  25    7.40    2.70
  -6  -1  25    7.40    3.20
   7  -6  25    7.00    3.00
  -6  -1  25    6.70    3.30
   7  -6  25    8.10    2.10
  -1   7  25    5.50    2.40
  -1   7  25    6.90    3.00
   2   6 -25  131.49    9.50
  -8   2 -25  169.28   13.20
   2   6 -25  129.69    9.70
   2   6 -25  168.68   13.20
   6  -8 -25  154.38   11.70
   6  -8 -25  150.48   13.10
   6  -8 -25  158.78   12.40
  -8   2 -25  152.18   13.00
  -8   2 -25  163.28   12.90
  -2  -6  25  164.68   12.50
   8  -2  25  154.48   13.20
  -6   8  25  168.08   12.40
  -2  -6  25  154.38   13.50
  -6   8  25  166.98   13.90
  -2  -6  25  168.78   13.40
   3  -8 -25   69.59    8.00
  -8   5 -25   71.99    8.20
   3  -8 -25   75.59    8.10
  -8   5 -25   75.29    8.30
   5   3 -25   79.09    8.20
   3  -8 -25   70.49    8.20
  -8   5 -25   67.89    7.40
  -3   8  25   87.69    8.50
  -5  -3  25   85.89    9.00
  -3   8  25   85.79    9.10
   8  -5  25   84.29    8.90
  -5  -3  25   84.69    8.10
  -5  -3  25   79.29    9.20
  -3   8  25   82.19    8.70
   0  -1 -26  387.96   22.50
  -1   1 -26  358.66   22.30
   0  -1 -26  394.86   23.20
   1   0 -26  366.96   22.70
   1   0 -26  403.96   25.40
   0  -1 -26  382.76   22.20
  -1   1 -26  355.26   21.90
   1   0 -26  421.76   24.80
   0   1  26  386.46   23.80
   1  -1  26  393.46   23.80
  -1   0  26  370.96   21.70
   0   1  26  391.96   22.60
  -1   0  26  428.46   24.00
   1  -1  26  343.77   21.60
   0   1  26  357.76   22.00
  -1   0  26  375.16   22.60
   1  -1  26  364.26   21.70
   2  -2 -26   66.09    6.70
  -2   0 -26   61.69    6.80
   2  -2 -26   68.89    6.40
  -2   0 -26   55.79    5.40
   0   2 -26   68.29    6.80
   0   2 -26   57.69    5.70
   0   2 -26   60.99    6.00
   2  -2 -26   67.79    6.80
  -2   2  26   74.19    7.20
   2   0  26   62.09    5.70
   0  -2  26   69.19    6.50
   0  -2  26   68.29    7.20
  -2   2  26   73.69    6.60
   2   0  26   69.09    7.60
  -2   2  26   76.89    7.60
   0  -2  26   62.39    6.50
  -2   3 -26  170.38   12.40
   3  -1 -26  196.18   12.10
  -2   3 -26  180.88   12.30
  -2   3 -26  185.28   13.10
  -1  -2 -26  179.98   13.30
  -1  -2 -26  176.18   12.00
   3  -1 -26  191.58   13.00
  -3   1  26  183.48   13.40
   1   2  26  188.28   13.20
   2  -3  26  169.18   11.70
  -3   1  26  181.48   13.30
   1   2  26  175.68   13.80
   2  -3  26  186.18   13.60
   1   2  26  167.08   12.00
   2  -3  26  143.39   11.60
  -3   1  26  176.58   11.60
  -3  -1 -26  228.08   14.60
  -1   4 -26  231.88   15.40
  -1   4 -26  251.17   16.90
   4  -3 -26  262.27   17.50
  -3  -1 -26  247.78   17.20
  -1   4 -26  228.88   15.60
   4  -3 -26  263.17   16.00
   4  -3 -26  253.17   16.40
  -3  -1 -26  256.77   16.90
   3   1  26  283.37   17.40
   3   1  26  234.78   14.90
  -4   3  26  279.37   18.00
  -4   3  26  264.37   15.90
   1  -4  26  241.58   16.60
   1  -4  26  267.37   17.30
   3   1  26  260.67   18.10
   1  -4  26  253.07   16.30
   1  -3 -26  101.09    8.90
   1  -3 -26   92.79    8.30
   2   1 -26   96.99    7.40
  -3   2 -26  101.89    8.80
   2   1 -26   94.39    7.40
   2   1 -26  112.69    9.10
   1  -3 -26   95.49    8.40
  -2  -1  26   97.99    8.80
   3  -2  26  110.39    9.70
  -1   3  26   88.69    8.80
  -1   3  26  104.29    9.50
  -2  -1  26  109.49    9.30
   3  -2  26   93.59    7.20
   3  -2  26   80.09    6.80
  -2  -1  26   90.19    8.50
  -2  -3 -26    3.50    2.40
  -2  -3 -26    4.90    2.00
   5  -2 -26    4.50    1.70
  -3   5 -26    5.40    2.40
   5  -2 -26    4.20    2.10
   5  -2 -26    9.40    3.50
  -2  -3 -26    5.10    2.40
  -3   5 -26    3.80    2.00
  -5   2  26    6.30    2.70
   2   3  26    6.00    2.30
   3  -5  26    6.10    2.40
   2   3  26    6.10    2.90
  -5   2  26    6.90    2.10
  -5   2  26    7.90    3.20
   3  -5  26    5.40    1.90
   3  -5  26    6.50    2.80
   2   3  26    8.80    3.20
  -4  -2 -26  325.57   20.10
   6  -4 -26  394.46   24.10
  -4  -2 -26  358.06   22.90
  -4  -2 -26  373.76   23.90
  -2   6 -26  383.86   23.30
  -2   6 -26  347.07   21.80
   6  -4 -26  373.16   21.70
   2  -6  26  392.56   23.30
  -6   4  26  387.26   24.40
   2  -6  26  352.96   23.00
   4   2  26  358.16   20.90
   4   2  26  383.76   23.50
  -6   4  26  377.36   21.50
   4   2  26  387.86   24.60
  -4   1 -26   62.59    6.80
   1   3 -26   58.19    6.50
   1   3 -26   54.29    5.20
  -4   1 -26   52.39    6.00
   3  -4 -26   59.09    6.10
   3  -4 -26   59.19    6.30
  -4   1 -26   57.59    6.50
   1   3 -26   48.20    4.80
  -3   4  26   55.19    6.10
  -1  -3  26   50.69    6.10
  -1  -3  26   59.69    7.20
   4  -1  26   51.09    4.40
  -3   4  26   61.59    6.80
  -1  -3  26   58.29    6.60
   4  -1  26   56.79    6.90
  -4   4 -26  462.15   26.90
  -4   4 -26  455.55   26.70
   0  -4 -26  478.85   27.20
  -4   4 -26  440.86   26.80
   4   0 -26  450.45   24.70
   4   0 -26  471.95   27.00
   0  -4 -26  436.86   26.10
   0  -4 -26  413.56   27.00
  -4   0  26  486.45   27.70
   4  -4  26  491.75   28.00
   0   4  26  453.95   26.70
  -4   0  26  519.05   27.50
   0   4  26  458.25   28.20
   0   4  26  501.15   27.50
   4  -4  26  411.06   24.40
   4  -4  26  406.96   25.10
   7  -3 -26   85.89    7.90
  -3  -4 -26   65.39    6.60
   7  -3 -26   80.09    8.80
   7  -3 -26   77.39    6.60
  -3  -4 -26   80.69    8.40
  -4   7 -26   78.99    7.70
   3   4  26   87.29    9.40
   4  -7  26   86.09    8.30
  -7   3  26   82.79    7.90
  -7   3  26   90.69    9.30
   4  -7  26   87.39    8.40
   4  -7  26   88.89    8.50
   3   4  26   88.59    8.70
   0   5 -26  104.39    8.20
  -5   0 -26  117.59   10.10
   5  -5 -26  117.19    9.40
   0   5 -26  119.09   10.30
   5  -5 -26  116.19   10.40
   5  -5 -26  117.49    9.50
  -5   0 -26  120.79   10.40
   0   5 -26  110.69    8.60
   0  -5  26  108.59    9.90
  -5   5  26  117.59   10.80
   0  -5  26  104.89   10.20
   5   0  26  113.99    7.30
  -5   5  26  118.19    9.30
   5   0  26  119.19   10.90
   2  -5 -26  242.88   15.80
   2  -5 -26  231.58   15.50
  -5   3 -26  208.68   15.20
  -5   3 -26  204.68   15.00
   3   2 -26  237.78   15.70
   3   2 -26  212.98   12.90
   3   2 -26  189.88   12.60
  -5   3 -26  218.78   15.60
  -3  -2  26  217.38   15.20
  -3  -2  26  221.88   16.20
   5  -3  26  224.58   16.20
  -2   5  26  209.98   15.50
  -3  -2  26  220.68   15.60
  -2   5  26  229.38   16.30
  -2   5  26  227.28   15.30
   6  -1 -26   17.00    4.00
  -1  -5 -26   18.60    4.80
   6  -1 -26   14.10    2.20
  -1  -5 -26   16.90    4.30
  -5   6 -26   15.80    3.90
   6  -1 -26   13.20    4.10
  -5   6 -26   18.70    4.20
  -1  -5 -26   13.20    3.30
   1   5  26   16.50    4.70
   1   5  26   13.90    3.90
   5  -6  26   14.80    3.40
  -6   1  26   13.00    4.10
   5  -6  26    9.60    2.50
  -6   1  26   14.60    3.80
   5  -6  26   17.30    4.40
   1   5  26   14.30    3.90
  -1   7 -26  116.59   10.40
  -6  -1 -26  114.39   10.30
   7  -6 -26  112.29   10.60
   7  -6 -26  108.29    9.30
  -6  -1 -26   96.89    6.50
  -1   7 -26  111.39   10.30
  -6  -1 -26  108.49   10.50
  -7   6  26  116.89   11.30
   6   1  26  115.19   11.00
   1  -7  26  105.19   10.40
   1  -7  26  112.09    9.90
   6   1  26  107.59    7.00
   1  -7  26  113.49    9.10
   6   1  26  118.09   10.40
  -7   6  26  112.99    9.20
  -6   2 -26  131.39   11.00
   4  -6 -26  123.99   10.50
   4  -6 -26  130.99   10.70
   4  -6 -26  131.89   11.20
   2   4 -26  123.29    8.70
   2   4 -26  109.89    8.30
   2   4 -26  141.99   11.40
  -6   2 -26  138.59   11.50
  -6   2 -26  126.19   10.80
  -4   6  26  140.89   10.80
  -2  -4  26  131.79   11.70
  -2  -4  26  145.39   11.60
  -2  -4  26  134.29   10.80
  -4   6  26  138.89   11.90
   6  -2  26  137.59   11.80
  -4   6  26  134.39   11.40
  -6   5 -26  198.18   14.70
   5   1 -26  232.78   15.70
  -6   5 -26  207.08   15.30
  -6   5 -26  225.98   15.70
   1  -6 -26  198.38   15.50
   1  -6 -26  224.48   15.70
  -5  -1  26  203.18   14.70
  -5  -1  26  229.98   16.20
  -1   6  26  225.88   15.60
  -1   6  26  221.68   16.40
   6  -5  26  221.88   16.10
   6  -5  26  223.48   13.20
  -1   6  26  214.68   17.20
   6  -5  26  179.98   12.00
  -5  -1  26  216.08   16.60
   6  -7 -26   10.40    3.30
  -7   1 -26   10.40    3.60
  -7   1 -26    9.20    3.50
   6  -7 -26    9.10    3.00
  -7   1 -26   10.60    3.70
   1   6 -26    8.70    2.30
   1   6 -26    7.40    2.00
   6  -7 -26   11.30    3.90
  -6   7  26    8.10    3.20
  -6   7  26    6.70    3.30
   7  -1  26    8.00    3.40
  -1  -6  26    2.60    2.10
  -1  -6  26    8.50    3.00
  -1  -6  26    5.80    2.80
  -6   7  26    7.10    2.70
   3  -7 -26   56.39    7.70
  -7   4 -26   71.89    7.80
   3  -7 -26   70.99    7.60
   3  -7 -26   67.99    7.50
  -7   4 -26   64.99    7.60
   4   3 -26   79.39    8.00
  -7   4 -26   66.49    7.20
  -4  -3  26   72.99    7.50
   7  -4  26   69.99    8.10
  -3   7  26   66.59    7.80
  -4  -3  26   67.79    8.20
  -3   7  26   67.89    7.90
  -4  -3  26   71.49    8.00
  -3   7  26   69.39    7.40
   0   0 -27  908.31   49.90
   0   0 -27 1015.50   51.09
   0   0 -27  927.01   49.80
   0   0  27 1019.90   52.09
   0   0  27  928.01   49.99
  -1  -1 -27  173.18   12.20
   2  -1 -27  179.08   13.30
  -1   2 -27  159.88   12.40
  -1   2 -27  156.78   12.00
  -1   2 -27  155.88   12.80
  -1  -1 -27  170.88   13.20
   2  -1 -27  171.78   13.00
   2  -1 -27  187.68   12.60
   1   1  27  191.38   12.60
  -2   1  27  213.08   14.50
   1  -2  27  168.98   12.50
   1  -2  27  204.38   14.40
   1  -2  27  194.78   12.60
  -2   1  27  210.68   12.80
   1   1  27  226.28   15.30
  -2   1  27  213.68   14.00
  -2   1 -27  446.26   25.60
   1   1 -27  453.95   25.60
   1  -2 -27  424.26   25.30
   1  -2 -27  467.95   25.20
   1  -2 -27  450.75   25.20
   1   1 -27  423.16   23.90
   1   1 -27  397.86   23.90
   2  -1  27  377.56   23.30
  -1  -1  27  401.76   24.70
  -1   2  27  414.46   25.10
  -1  -1  27  437.76   25.90
  -1   2  27  427.36   24.90
  -1   2  27  453.05   26.50
  -1  -1  27  391.56   25.00
  -2  -2 -27  137.79   10.50
  -2  -2 -27  139.49   12.10
  -2   4 -27  150.08   12.00
  -2  -2 -27  144.59   11.80
   4  -2 -27  149.99   11.60
   4  -2 -27  145.09   10.70
   4  -2 -27  147.49   12.30
  -2   4 -27  133.19   11.00
  -2   4 -27  148.09   12.60
   2  -4  27  188.28   13.20
  -4   2  27  168.98   11.10
  -4   2  27  192.88   13.10
   2   2  27  158.78   11.10
   2  -4  27  158.88   11.20
   2  -4  27  164.58   11.90
  -4   2  27  174.28   13.10
   2   2  27  183.78   12.90
   2   2  27  174.78   13.50
  -3   0 -27  505.55   28.40
   0   3 -27  495.15   29.00
  -3   0 -27  525.95   30.60
   0   3 -27  537.55   31.10
   3  -3 -27  566.14   30.40
   3  -3 -27  573.44   30.90
  -3   0 -27  512.95   31.00
   0   3 -27  531.95   29.60
  -3   3  27  579.74   30.40
  -3   3  27  597.24   32.10
   3   0  27  500.35   28.60
   3   0  27  586.44   32.70
   0  -3  27  521.75   30.30
   0  -3  27  497.75   30.60
   0  -3  27  578.34   31.60
  -3   3 -27  174.48   12.60
   0  -3 -27  171.58   11.90
   3   0 -27  164.28   12.30
   0  -3 -27  171.98   12.40
   0  -3 -27  173.48   12.90
  -3   3 -27  178.58   12.70
   3   0 -27  161.98   10.90
   0   3  27  167.18   12.40
   0   3  27  171.98   13.40
   3  -3  27  134.29   10.30
   3  -3  27  173.88   13.20
   0   3  27  140.39   11.50
   3  -3  27  147.19   10.90
  -3   0  27  161.08   12.50
  -3  -3 -27  285.57   20.00
  -3   6 -27  260.77   18.50
   6  -3 -27  277.27   18.60
   6  -3 -27  302.67   20.30
  -3   6 -27  307.37   19.60
  -3  -3 -27  298.87   19.50
  -3  -3 -27  253.17   17.10
   6  -3 -27  282.77   17.50
  -6   3  27  281.07   18.90
   3  -6  27  288.97   18.40
   3   3  27  322.47   21.20
   3  -6  27  281.37   19.10
   3   3  27  297.67   18.20
   3   3  27  337.37   20.30
   3  -6  27  319.67   19.90
  -6   3  27  331.17   21.00
  -6   3  27  296.97   17.50
  -4  -1 -27  388.06   22.10
  -4  -1 -27  436.46   26.00
  -1   5 -27  401.86   23.80
   5  -4 -27  449.56   26.20
   5  -4 -27  439.86   24.80
  -1   5 -27  400.76   23.50
  -4  -1 -27  440.96   25.50
  -1   5 -27  468.95   26.00
   5  -4 -27  437.86   24.30
   4   1  27  391.86   26.20
  -5   4  27  392.06   25.00
  -5   4  27  398.86   23.80
   1  -5  27  396.56   24.60
   4   1  27  422.76   25.50
   1  -5  27  362.26   24.70
   1  -5  27  407.96   25.30
  -5   4  27  415.46   26.20
  -4   2 -27  517.45   29.90
   2  -4 -27  544.65   30.00
   2   2 -27  501.15   27.50
   2   2 -27  477.15   27.40
  -4   2 -27  524.05   30.20
  -4   2 -27  540.75   29.80
   2  -4 -27  542.95   30.00
   2   2 -27  569.24   30.40
   4  -2  27  451.55   26.70
  -2  -2  27  481.55   30.10
  -2  -2  27  525.95   30.00
  -2   4  27  516.85   30.00
  -2   4  27  526.45   29.60
   4  -2  27  580.24   31.60
   4  -2  27  427.66   26.80
  -2   4  27  527.65   30.80
  -1  -4 -27  386.96   24.10
   5  -1 -27  425.06   25.30
  -4   5 -27  445.96   25.70
  -1  -4 -27  437.56   26.40
   5  -1 -27  415.36   23.10
  -1  -4 -27  426.06   25.60
  -4   5 -27  409.26   25.20
   5  -1 -27  460.25   26.90
  -4   5 -27  405.66   25.00
   4  -5  27  453.65   26.40
   1   4  27  454.75   26.10
  -5   1  27  384.96   22.60
   4  -5  27  377.96   23.20
   4  -5  27  396.56   24.30
   1   4  27  409.26   24.90
   1   4  27  435.26   27.00
  -5   1  27  463.25   26.80
  -5   1  27  421.36   25.30
  -5  -2 -27   65.09    7.90
   7  -5 -27   64.89    6.60
  -2   7 -27   63.19    7.20
  -5  -2 -27   61.49    7.10
   7  -5 -27   63.69    7.60
  -5  -2 -27   51.69    4.80
   7  -5 -27   57.89    6.10
   2  -7  27   66.39    7.30
   5   2  27   61.29    7.90
  -7   5  27   57.89    5.90
  -7   5  27   63.69    8.10
   2  -7  27   62.29    7.40
   5   2  27   52.19    5.20
  -7   5  27   57.39    6.60
   5   2  27   61.79    7.20
   1   4 -27  151.48   10.90
  -5   1 -27  159.78   12.90
  -5   1 -27  160.98   12.70
   4  -5 -27  170.58   13.20
  -5   1 -27  168.58   13.40
   1   4 -27  177.68   13.20
   1   4 -27  141.69   10.50
   4  -5 -27  165.18   12.50
  -1  -4  27  174.78   13.60
   5  -1  27  143.49    9.50
  -4   5  27  190.88   14.00
  -4   5  27  179.48   13.50
  -1  -4  27  198.08   13.60
   5  -1  27  188.58   14.40
  -1  -4  27  189.68   13.40
   5  -1  27  173.38   10.00
  -5   4 -27  218.78   15.50
   1  -5 -27  203.48   14.70
   1  -5 -27  221.68   15.40
   4   1 -27  223.28   12.90
   4   1 -27  180.28   12.20
   1  -5 -27  223.28   15.70
   4   1 -27  228.78   15.50
  -5   4 -27  208.78   14.90
  -5   4 -27  227.78   15.40
   5  -4  27  221.08   16.00
  -4  -1  27  227.68   15.40
   5  -4  27  200.88   13.10
  -4  -1  27  223.28   15.90
  -1   5  27  223.68   16.40
  -1   5  27  208.88   15.20
  -1   5  27  232.78   15.50
  -4  -1  27  214.18   16.20
   5  -4  27  181.48   12.20
   7  -2 -27  404.56   25.90
  -2  -5 -27  383.56   25.50
   7  -2 -27  405.06   21.80
  -5   7 -27  376.46   24.20
  -2  -5 -27  331.97   22.60
   7  -2 -27  438.16   24.60
  -5   7 -27  402.06   24.50
  -2  -5 -27  412.66   25.00
   2   5  27  419.16   25.20
   2   5  27  393.86   26.00
   2   5  27  392.46   24.10
   5  -7  27  402.36   24.10
  -7   2  27  380.56   23.80
   5  -7  27  386.06   24.60
  -7   2  27  430.26   26.20
  -7   2  27  362.06   21.10
  -6   0 -27   59.19    6.90
  -6   0 -27   57.09    7.00
  -6   0 -27   53.89    7.00
   0   6 -27   59.09    6.90
   0   6 -27   52.29    5.20
   0   6 -27   47.70    5.10
   6  -6 -27   62.89    7.30
   6  -6 -27   54.79    6.00
   6   0  27   44.60    3.30
  -6   6  27   59.69    7.40
  -6   6  27   50.19    6.30
   0  -6  27   46.10    6.70
   0  -6  27   41.70    6.20
   6   0  27   49.30    7.00
   3   3 -27   95.69    7.60
  -6   3 -27  115.59   10.40
   3  -6 -27   94.59   11.30
   3  -6 -27  108.49   10.00
  -6   3 -27  112.79   10.50
   3   3 -27  104.29    7.80
  -6   3 -27  110.99   10.10
   3  -6 -27  119.79   10.30
   3   3 -27  127.69   10.80
   6  -3  27  128.59    7.10
  -3  -3  27  134.29   11.10
  -3   6  27  142.49   10.80
  -3  -3  27  131.99   10.60
  -3  -3  27  131.39   11.50
  -3   6  27  130.39   11.20
   6  -3  27  143.19   11.90
   6  -3  27  115.19    6.80
  -3   6  27  138.59   11.50
   6   0 -27   15.50    4.00
   0  -6 -27   16.40    4.50
  -6   6 -27   16.00    3.90
   0  -6 -27   16.90    4.40
  -6   6 -27   17.60    4.40
  -6   6 -27   19.60    4.50
  -6   0  27    8.80    3.60
   0   6  27    6.50    2.80
  -6   0  27    7.90    3.00
  -6   0  27    8.00    3.30
   0   6  27    7.10    3.30
   6  -6  27    9.20    2.70
   6  -6  27    8.00    3.20
   6  -6  27    5.80    1.80
   0   6  27    5.40    2.60
  -7   2 -27  126.59   11.40
  -7   2 -27  114.59   10.60
   2   5 -27   98.79    8.00
  -7   2 -27  122.99   10.90
   2   5 -27  128.39   11.10
   2   5 -27   98.59    7.80
   5  -7 -27  118.59   10.90
   5  -7 -27  116.99   10.10
  -2  -5  27  135.09   11.50
  -2  -5  27  128.29   10.70
   7  -2  27  134.19   11.90
  -5   7  27  131.49   10.60
  -2  -5  27  142.49   12.20
  -5   7  27  132.49   11.20
  -5   7  27  129.19   11.80
   2  -7 -27  182.78   13.70
   5   2 -27  169.98   10.30
  -7   5 -27  176.88   13.70
   2  -7 -27  160.88   13.20
   5   2 -27  173.48   13.40
  -7   5 -27  161.08   13.40
  -7   5 -27  164.48   12.80
   2  -7 -27  167.38   13.60
   5   2 -27  155.98    9.50
  -5  -2  27  172.88   14.60
  -2   7  27  193.78   13.80
   7  -5  27  166.68   10.10
  -5  -2  27  190.48   14.50
  -2   7  27  182.38   14.40
   7  -5  27  191.58   14.50
   7  -5  27  141.29    9.30
  -2   7  27  176.38   14.00
  -5  -2  27  183.58   13.20
   1  -1 -28   37.40    5.10
  -1   0 -28   44.00    5.50
   0   1 -28   38.00    4.70
   0   1 -28   37.20    4.80
   1  -1 -28   39.10    5.10
  -1   0 -28   39.70    4.70
   0   1 -28   41.60    5.50
   0  -1  28   52.89    6.50
   1   0  28   50.39    6.30
   1   0  28   44.60    4.90
   0  -1  28   40.60    5.20
   0  -1  28   44.20    5.20
  -1   1  28   46.20    6.20
  -1   1  28   46.20    5.20
  -1   1  28   44.50    5.40
   3  -2 -28  224.48   15.30
   3  -2 -28  219.88   14.10
  -2  -1 -28  216.28   14.70
  -1   3 -28  216.98   15.00
  -2  -1 -28  214.28   13.30
   3  -2 -28  201.78   14.40
  -1   3 -28  195.28   13.80
  -1   3 -28  194.38   13.40
   1  -3  28  190.98   13.70
  -3   2  28  199.08   13.60
   2   1  28  194.48   13.20
   1  -3  28  215.28   16.90
   2   1  28  224.18   15.00
   2   1  28  207.68   15.80
  -3   2  28  193.28   14.80
   2   0 -28  221.48   13.50
  -2   2 -28  204.48   14.30
   0  -2 -28  204.68   14.50
   2   0 -28  209.68   14.40
   0  -2 -28  204.58   13.70
   0   2  28  187.48   14.90
   0   2  28  183.08   13.40
   2  -2  28  178.98   12.70
   0   2  28  205.38   14.20
  -2   0  28  196.18   14.60
  -2   0  28  201.18   14.30
   2  -2  28  187.58   14.80
  -3  -2 -28   22.40    5.20
   5  -3 -28   22.60    3.90
   5  -3 -28   23.50    4.50
  -3  -2 -28   23.60    4.20
  -3  -2 -28   20.00    3.10
   5  -3 -28   23.50    3.60
  -2   5 -28   21.10    3.60
  -5   3  28   26.80    4.60
  -5   3  28   28.00    5.00
   2  -5  28   26.50    5.40
   2  -5  28   23.50    4.10
   3   2  28   28.10    4.60
   3   2  28   24.70    3.60
   2  -5  28   24.50    3.90
  -5   3  28   27.30    3.70
   3   2  28   22.20    6.20
   1   2 -28  202.38   13.00
  -3   1 -28  201.88   14.70
  -3   1 -28  206.68   14.70
   2  -3 -28  195.38   14.30
   1   2 -28  212.68   14.80
   2  -3 -28  224.28   16.00
   1   2 -28  181.28   12.90
   2  -3 -28  227.68   14.60
  -3   1 -28  205.28   14.30
  -2   3  28  194.08   15.30
  -1  -2  28  196.38   14.30
  -1  -2  28  219.58   15.20
   3  -1  28  176.98   12.30
   3  -1  28  214.58   15.70
  -2   3  28  208.98   15.40
   4  -1 -28  352.56   19.50
  -1  -3 -28  320.87   19.80
  -1  -3 -28  346.17   21.30
   4  -1 -28  358.26   22.10
  -1  -3 -28  325.67   21.40
  -3   4 -28  315.97   20.60
  -3   4 -28  330.57   21.00
   4  -1 -28  344.87   21.00
  -3   4 -28  378.16   23.00
  -4   1  28  345.77   21.40
  -4   1  28  332.87   21.60
   3  -4  28  336.17   21.70
   1   3  28  342.97   21.30
  -4   1  28  302.57   18.80
   3  -4  28  282.77   18.90
   1   3  28  302.07   19.90
   1   3  28  317.97   22.10
  -4   0 -28  113.29    9.80
   0   4 -28  100.19    8.30
   4  -4 -28  114.29    9.70
   0   4 -28  100.89    8.50
   4  -4 -28  121.89    9.60
   4  -4 -28  118.39   10.40
  -4   0 -28  113.79   10.30
  -4   4  28  120.39    9.50
  -4   4  28  124.19   10.90
   4   0  28  109.49    7.90
   0  -4  28  111.59   10.00
   4   0  28  120.49   11.10
  -4   4  28  118.79   10.50
   1  -4 -28  222.08   14.60
  -4   3 -28  212.18   14.40
   3   1 -28  170.08   11.80
   3   1 -28  201.18   12.40
  -4   3 -28  202.88   14.40
   1  -4 -28  200.08   14.40
  -4   3 -28  205.08   14.10
   1  -4 -28  194.28   13.70
   3   1 -28  212.08   14.50
   4  -3  28  194.48   14.90
  -1   4  28  176.68   14.60
  -3  -1  28  176.18   14.40
  -3  -1  28  180.38   14.10
  -1   4  28  182.78   13.80
  -3  -1  28  188.98   14.10
  -1   4  28  167.08   13.50
  -2  -4 -28  127.59   11.50
  -2  -4 -28  134.09   11.00
  -4   6 -28  121.69   11.40
   6  -2 -28  129.59    9.00
  -4   6 -28  129.19   10.80
  -2  -4 -28  118.09    9.40
   6  -2 -28  133.29   10.60
   6  -2 -28  147.59   12.10
  -6   2  28  104.59    9.80
  -6   2  28  127.39   11.50
  -6   2  28  113.79    8.40
   2   4  28  122.99   10.80
   2   4  28  116.79    9.90
   2   4  28  118.69   11.50
   4  -6  28  109.69    9.90
   4  -6  28  121.59   10.80
   4  -6  28  108.89    9.10
   6  -5 -28   26.20    4.10
  -1   6 -28   22.90    3.60
   6  -5 -28   22.70    4.00
  -5  -1 -28   25.10    5.70
   6  -5 -28   25.10    4.80
  -5  -1 -28   27.60    3.90
  -1   6 -28   24.80    3.80
  -5  -1 -28   25.80    4.60
  -1   6 -28   27.40    4.60
  -6   5  28   24.90    3.90
   5   1  28   26.10    6.00
   1  -6  28   27.30    4.70
   1  -6  28   22.50    5.10
  -6   5  28   26.60    6.00
   1  -6  28   26.30    4.50
  -6   5  28   23.10    4.90
   5   1  28   27.10    4.70
   2   3 -28   42.60    5.60
   2   3 -28   34.00    4.00
   2   3 -28   36.30    4.00
   3  -5 -28   47.60    5.80
  -5   2 -28   46.20    5.80
   3  -5 -28   38.70    5.40
   3  -5 -28   41.90    5.60
  -5   2 -28   40.90    5.70
  -5   2 -28   40.40    5.70
  -2  -3  28   34.30    5.50
  -3   5  28   42.90    5.40
  -2  -3  28   37.20    5.50
  -3   5  28   41.30    5.80
   5  -2  28   42.00    6.30
  -3   5  28   45.00    6.20
  -2  -3  28   41.70    5.60
   0  -5 -28   51.19    6.70
   5   0 -28   47.10    4.60
   5   0 -28   51.19    6.20
  -5   5 -28   52.59    6.40
  -5   5 -28   49.00    6.30
   0  -5 -28   45.50    5.70
   0  -5 -28   54.29    6.60
  -5   5 -28   53.49    6.40
   5  -5  28   66.19    7.60
  -5   0  28   56.39    6.60
   0   5  28   68.29    7.20
   5  -5  28   56.39    5.70
   5  -5  28   51.49    4.80
  -5   0  28   59.69    7.20
  -5   0  28   54.59    7.20
   0   5  28   61.99    7.70
   0   5  28   62.79    6.90
   5  -6 -28  177.88   12.90
   1   5 -28  139.19   10.40
  -6   1 -28  170.08   13.30
   5  -6 -28  177.48   12.90
  -6   1 -28  179.28   13.40
   1   5 -28  147.59   10.70
  -6   1 -28  171.68   13.80
   5  -6 -28  177.08   13.70
   1   5 -28  187.68   13.90
  -1  -5  28  168.08   13.30
  -5   6  28  156.88   13.00
  -5   6  28  161.08   13.80
   6  -1  28  165.98   14.10
  -5   6  28  163.18   12.40
  -1  -5  28  162.08   12.80
  -1  -5  28  146.79   13.20
   2  -6 -28  130.89   11.00
   4   2 -28  130.59   11.10
  -6   4 -28  128.99   11.10
  -6   4 -28  127.39   11.20
  -6   4 -28  121.79   10.60
   2  -6 -28  119.59   10.70
   2  -6 -28  125.09   11.00
   4   2 -28  118.79    8.30
  -2   6  28  136.49   11.90
  -2   6  28  127.59   11.20
  -4  -2  28  131.29   11.50
  -4  -2  28  132.59   10.90
  -4  -2  28  127.99   11.90
  -2   6  28  127.09   10.90
   6  -4  28  141.29   12.00
   1   0 -29   21.20    4.70
   1   0 -29   17.70    3.20
   0  -1 -29   15.60    3.70
   0  -1 -29   13.90    3.80
  -1   1 -29   18.20    4.30
  -1   0  29   16.40    3.80
   1  -1  29   15.90    3.50
   1  -1  29   19.60    3.40
   0   1  29   24.40    5.60
   0   1  29   16.00    3.70
   1  -1  29   20.20    4.90
  -1   0  29   24.00    5.30
   0   2 -29   10.80    2.80
  -2   0 -29   10.80    3.50
   0   2 -29   10.30    2.90
   2  -2 -29   10.40    3.20
  -2   0 -29   13.30    3.50
   0   2 -29   10.50    3.20
   2  -2 -29   13.70    3.50
  -2   2  29    9.10    3.40
  -2   2  29    8.70    2.60
   0  -2  29    6.00    2.40
   0  -2  29    8.70    3.20
   2   0  29    9.50    2.60
   0  -2  29   12.10    3.40
  -2   2  29    9.30    3.60
   2   0  29   10.20    3.80
  -2   3 -29  134.69   11.40
  -1  -2 -29  126.59   11.30
   3  -1 -29  148.39   10.60
  -1  -2 -29  144.49   11.40
   3  -1 -29  149.39   12.10
   3  -1 -29  130.99   11.10
  -1  -2 -29  143.49   10.70
   1   2  29  143.19   12.50
   1   2  29  142.19   10.80
  -3   1  29  150.08   12.00
   1   2  29  161.38   12.00
   2  -3  29  152.08   12.30
  -3   1  29  142.59   11.80
  -3   1  29  148.89   10.40
   2  -3  29  138.59   10.30
   4  -3 -29   13.20    3.90
  -3  -1 -29   11.20    3.70
   4  -3 -29   10.60    3.30
  -3  -1 -29   12.40    3.50
  -1   4 -29    9.20    2.80
   4  -3 -29   13.20    3.20
  -1   4 -29   12.40    3.80
  -1   4 -29   12.30    3.10
  -3  -1 -29   12.90    2.40
   1  -4  29    7.00    2.70
   1  -4  29   12.50    4.70
  -4   3  29   13.00    3.90
   3   1  29   12.00    4.90
   1  -4  29   13.20    3.40
  -4   3  29   16.30    4.40
   3   1  29   16.60    4.30
   3   1  29   15.00    3.20
  -4   3  29   16.20    3.70
   2   1 -29   22.80    4.80
   1  -3 -29   22.00    3.90
  -3   2 -29   22.30    4.80
   2   1 -29   17.70    3.00
  -3   2 -29   19.80    4.40
  -3   2 -29   21.10    3.70
   1  -3 -29   20.70    4.80
   2   1 -29   21.30    3.20
   1  -3 -29   20.60    3.70
  -2  -1  29   16.30    4.30
  -1   3  29   19.30    5.00
   3  -2  29   13.80    2.70
   3  -2  29   23.10    5.40
   3  -2  29   15.80    2.80
  -2  -1  29   18.60    4.40
  -2  -1  29   16.30    4.00
  -1   3  29   17.30    4.00
  -1   3  29   20.10    4.50
  -2  -3 -29   50.99    6.10
  -2  -3 -29   45.40    6.40
   5  -2 -29   45.70    4.90
   5  -2 -29   47.10    5.80
  -3   5 -29   46.00    6.00
   5  -2 -29   48.80    6.50
  -3   5 -29   43.70    5.50
  -3   5 -29   42.50    5.30
  -2  -3 -29   44.60    5.00
   3  -5  29   33.10    4.90
  -5   2  29   38.10    4.40
   2   3  29   42.40    6.50
   3  -5  29   34.10    4.50
  -5   2  29   42.20    6.20
   3  -5  29   42.50    5.90
   2   3  29   45.50    6.00
  -5   2  29   39.00    5.60
   2   3  29   38.10    5.00
  -4   1 -29   39.10    5.50
  -4   1 -29   38.30    5.20
  -4   1 -29   31.40    5.10
   3  -4 -29   39.80    5.50
   3  -4 -29   39.80    5.40
   1   3 -29   37.60    4.20
   1   3 -29   34.70    4.20
   1   3 -29   41.70    5.60
   4  -1  29   30.40    3.60
  -1  -3  29   36.00    5.30
  -1  -3  29   29.10    4.90
  -3   4  29   36.40    5.50
   4  -1  29   34.40    5.80
  -3   4  29   34.30    5.40
  -1  -3  29   36.00    5.20
  -3   4  29   36.10    4.90
   0  -4 -29   81.99    8.20
   0  -4 -29   74.49    8.30
  -4   4 -29   76.29    8.00
   0  -4 -29   73.19    7.40
  -4   4 -29   76.99    7.80
  -4   4 -29   70.19    7.60
   4   0 -29   86.29    6.80
   4   0 -29   85.29    8.30
   4  -4  29   82.99    8.90
  -4   0  29   87.89    8.80
   0   4  29   93.09    8.60
   0   4  29   86.79    9.20
  -4   0  29   83.09    8.40
   0   4  29   82.49    8.00
   4  -4  29   72.69    6.40
   5  -5 -29   46.30    6.30
  -5   0 -29   47.50    6.00
   0   5 -29   34.30    4.40
   5  -5 -29   39.70    5.30
  -5   0 -29   40.30    5.90
   0   5 -29   39.50    4.60
   0   5 -29   44.00    6.00
  -5   5  29   41.40    5.90
   5   0  29   40.60    6.40
  -5   5  29   45.30    6.50
   0  -5  29   41.00    5.90
   0  -5  29   44.60    5.80
   0  -5  29   33.20    5.60
  -5   3 -29    3.90    2.20
   2  -5 -29    3.60    2.10
   3   2 -29    4.30    2.50
   2  -5 -29    3.30    2.40
  -5   3 -29    3.50    2.20
  -5   3 -29    4.20    2.40
   3   2 -29    3.80    1.60
   3   2 -29    3.70    1.50
   2  -5 -29    3.70    2.20
  -3  -2  29    4.00    2.30
   5  -3  29    4.90    1.70
  -3  -2  29    4.30    2.40
  -3  -2  29    6.00    3.00
   5  -3  29    2.90    2.30
   5  -3  29    3.10    1.30
  -2   5  29    4.60    2.50
  -2   5  29    4.80    2.60
  -2   5  29    5.10    2.40
   0   0 -30 1205.38   61.49
   0   0  30 1059.19   60.19
   0   0  30 1247.28   62.89
   2  -1 -30  332.27   21.20
   2  -1 -30  331.77   21.10
  -1  -1 -30  330.37   20.00
   2  -1 -30  345.27   20.30
  -1  -1 -30  330.07   20.70
  -1  -1 -30  339.47   21.50
   1   1  30  356.66   22.80
   1   1  30  301.97   19.70
   1  -2  30  276.37   19.70
   1  -2  30  319.07   20.00
  -2   1  30  341.67   22.00
  -2   1  30  321.77   19.90
   1  -2  30  375.06   22.60
   1   1  30  346.27   21.10
   1  -2 -30   84.29    9.00
   1  -2 -30   82.69    8.00
   1  -2 -30   78.19    8.20
  -2   1 -30   83.19    8.20
   1   1 -30   71.49    7.10
   1   1 -30   82.29    7.30
  -2   1 -30   79.99    7.80
   1   1 -30   82.89    8.30
  -2   1 -30   84.19    8.40
   2  -1  30   74.29    7.00
  -1  -1  30   96.09    9.20
  -1  -1  30   83.59    9.10
  -1   2  30  100.49    8.50
  -1   2  30  100.19    9.50
  -1   2  30   95.39    8.60
   2  -1  30   88.49    7.30
  -2   4 -30  151.58   12.00
  -2  -2 -30  157.28   12.60
   4  -2 -30  161.88   11.10
  -2   4 -30  145.49   11.30
   4  -2 -30  161.88   12.00
  -2  -2 -30  154.78   11.90
  -2  -2 -30  153.88   10.70
   4  -2 -30  164.28   12.80
  -4   2  30  130.89   10.20
   2  -4  30  123.99   10.40
   2   2  30  122.29   10.20
   2  -4  30  137.99   12.10
   2   2  30  144.59   11.90
  -4   2  30  136.89   12.10
   2   2  30  135.09   12.60
  -4   2  30  130.39   11.70
   0   3 -30  149.19   12.20
  -3   0 -30  145.29   12.20
   3  -3 -30  154.48   11.80
   0   3 -30  139.49   10.80
   3  -3 -30  166.58   12.70
   0   3 -30  132.49   10.40
   3  -3 -30  147.09   11.80
  -3   0 -30  153.18   12.00
  -3   3  30  156.58   13.60
   3   0  30  168.88   13.80
   3   0  30  139.59   10.20
   0  -3  30  159.18   12.70
  -3   3  30  164.78   13.10
   3   0 -30  228.38   15.70
  -3   3 -30  217.58   15.60
   3   0 -30  241.58   14.40
  -3   3 -30  224.78   15.50
   0  -3 -30  241.08   15.80
   0  -3 -30  226.88   15.10
   0  -3 -30  227.98   16.10
  -3   3 -30  218.08   15.00
   0   3  30  224.38   15.70
   0   3  30  220.28   16.70
   0   3  30  203.68   14.90
   3  -3  30  177.08   13.60
   3  -3  30  214.48   16.40
  -3   0  30  226.68   16.10
   3  -3  30  179.58   13.30
  -3   0  30  218.38   15.80
   2   2 -30  180.98   13.30
  -4   2 -30  176.78   13.10
   2   2 -30  151.88   10.80
   2  -4 -30  185.58   13.30
   2   2 -30  153.38   10.80
   2  -4 -30  170.08   12.80
   2  -4 -30  170.38   12.80
  -4   2 -30  163.18   12.50
  -4   2 -30  179.18   13.40
  -2   4  30  154.28   13.30
  -2   4  30  135.19   12.20
  -2  -2  30  149.59   12.60
  -2  -2  30  144.99   13.80
  -2   4  30  153.18   12.20
   4  -2  30  145.29   13.20
   0   1 -31  243.68   16.80
  -1   0 -31  247.88   16.90
  -1   0 -31  258.57   16.50
   1  -1 -31  261.97   17.10
   0   1 -31  237.98   15.80
   1   0  31  253.97   18.00
   0  -1  31  207.48   15.80
   0  -1  31  224.18   15.80
  -1   1  31  267.07   18.10
  -1   1  31  234.98   16.30
   0  -1  31  242.38   17.60
   1   0  31  219.78   15.40
  -2  -1 -31  376.56   23.80
   3  -2 -31  362.36   23.20
   3  -2 -31  374.76   23.80
  -2  -1 -31  370.56   23.10
   3  -2 -31  381.06   22.60
  -1   3 -31  372.46   23.50
  -2  -1 -31  360.56   21.70
   2   1  31  417.46   24.00
   1  -3  31  416.66   24.70
   1  -3  31  356.96   22.30
  -3   2  31  377.36   23.90
   2   1  31  401.96   25.40
   2   1  31  345.87   21.70
  -3   2  31  371.96   22.40
  -3   2  31  380.16   24.30
   1  -3  31  325.07   22.40
   0  -2 -31   57.49    6.60
   0  -2 -31   60.99    7.00
   2   0 -31   52.79    5.80
   2   0 -31   55.69    6.50
  -2   2 -31   54.09    6.70
  -2   2 -31   53.69    6.20
  -2   2 -31   55.59    6.50
   0  -2 -31   57.09    6.30
  -2   0  31   55.89    6.80
   2  -2  31   54.29    5.70
  -2   0  31   63.59    7.50
   2  -2  31   61.69    7.50
   0   2  31   50.69    6.10
   0   2  31   61.39    7.80
   0   2  31   64.39    6.90
   1   2 -31  504.75   30.20
   1   2 -31  562.34   32.40
  -3   1 -31  569.24   31.90
   2  -3 -31  587.64   32.00
   2  -3 -31  589.64   32.40
   1   2 -31  524.65   30.20
  -3   1 -31  528.75   32.20
  -3   1 -31  587.54   32.70
   2  -3 -31  522.85   31.80
  -1  -2  31  539.55   31.70
   3  -1  31  569.14   33.80
  -2   3  31  608.34   32.20
  -2   3  31  555.04   32.30
  -1  -2  31  568.84   32.80
   3  -1  31  469.15   29.40
   1   0 -32  176.18   12.90
   0  -1 -32  150.88   12.40
   0  -1 -32  158.88   12.00
   0  -1 -32  154.68   11.80
  -1   1 -32  156.88   11.80
  -1   1 -32  155.48   12.20
  -1   1 -32  164.08   12.70
   1  -1  32  128.99   11.00
  -1   0  32  164.58   13.40
   0   1  32  150.68   11.90
   0   1  32  169.28   13.80
   0   1  32  137.79   11.50
   1  -1  32  165.18   13.60
   1  -1  32  136.89   11.10
   0   0   0    0.00    0.00

_computing_structure_solution     'SHELXT 2014/5 (Sheldrick, 2014)'
;
_shelx_hkl_checksum              11308
loop_
_space_group_symop_operation_xyz
'x, y, z'
'-y, x-y, z'
'-x+y, -x, z'
'x+2/3, y+1/3, z+1/3'
'-y+2/3, x-y+1/3, z+1/3'
'-x+y+2/3, -x+1/3, z+1/3'
'x+1/3, y+2/3, z+2/3'
'-y+1/3, x-y+2/3, z+2/3'
'-x+y+1/3, -x+2/3, z+2/3'
loop_
_atom_site_label
_atom_site_type_symbol
_atom_site_fract_x
_atom_site_fract_y
_atom_site_fract_z
_atom_site_U_iso_or_equiv
_atom_site_adp_type
_atom_site_occupancy
_atom_site_site_symmetry_order
_atom_site_calc_flag
_atom_site_refinement_flags_posn
_atom_site_refinement_flags_adp
_atom_site_refinement_flags_occupancy
_atom_site_disorder_assembly
_atom_site_disorder_group
Zn1 Zn 0.3333 0.6667 0.52342(2) 0.01312(10) Uani 1 3 d S T P . .
N1 N 0.30168(18) 0.47743(18) 0.57695(7) 0.0173(3) Uani 1 1 d . . . . .
C1 C 0.2036(2) 0.3961(2) 0.61309(8) 0.0206(4) Uani 1 1 d . . . . .
H1A H 0.1451 0.4283 0.6320 0.025 Uiso 1 1 calc R U . . .
S1 S 0.18875(6) 0.22693(6) 0.62376(2) 0.02566(13) Uani 1 1 d . . . . .
C2 C 0.3240(2) 0.2673(2) 0.57668(9) 0.0221(4) Uani 1 1 d . . . . .
H2A H 0.3602 0.2030 0.5664 0.027 Uiso 1 1 calc R U . . .
C3 C 0.3721(2) 0.4055(2) 0.55619(8) 0.0151(3) Uani 1 1 d . . . . .
C4 C 0.4792(2) 0.4865(2) 0.51330(7) 0.0129(3) Uani 1 1 d . . . . .
N2 N 0.46871(18) 0.59544(18) 0.48903(6) 0.0149(3) Uani 1 1 d . . . . .
C5 C 0.5761(2) 0.6462(2) 0.44964(7) 0.0148(3) Uani 1 1 d . . . . .
C6 C 0.6158(2) 0.7583(2) 0.41113(9) 0.0213(4) Uani 1 1 d . . . . .
H6A H 0.5678 0.8156 0.4095 0.026 Uiso 1 1 calc R U . . .
C7 C 0.7276(2) 0.7821(2) 0.37559(8) 0.0217(4) Uani 1 1 d . . . . .
H7A H 0.7572 0.8575 0.3490 0.026 Uiso 1 1 calc R U . . .
C8 C 0.7986(2) 0.6977(2) 0.37775(8) 0.0191(4) Uani 1 1 d . . . . .
H8A H 0.8750 0.7171 0.3525 0.023 Uiso 1 1 calc R U . . .
C9 C 0.7606(2) 0.5870(2) 0.41559(8) 0.0172(4) Uani 1 1 d . . . . .
H9A H 0.8086 0.5296 0.4166 0.021 Uiso 1 1 calc R U . . .
C10 C 0.6491(2) 0.5629(2) 0.45222(7) 0.0144(3) Uani 1 1 d . . . . .
N3 N 0.58595(17) 0.46120(17) 0.49409(6) 0.0135(3) Uani 1 1 d . . . . .
Zn2 Zn 0.6667 0.3333 0.52127(2) 0.01051(9) Uani 1 3 d S T P . .
Cl1 Cl 0.6667 0.3333 0.61116(3) 0.01816(16) Uani 1 3 d S T P . .
loop_
_atom_site_aniso_label
_atom_site_aniso_U_11
_atom_site_aniso_U_22
_atom_site_aniso_U_33
_atom_site_aniso_U_23
_atom_site_aniso_U_13
_atom_site_aniso_U_12
Zn1 0.01154(12) 0.01154(12) 0.01628(18) 0.000 0.000 0.00577(6)
N1 0.0160(7) 0.0171(7) 0.0185(7) 0.0021(6) 0.0023(6) 0.0081(6)
C1 0.0184(9) 0.0219(10) 0.0210(10) 0.0050(8) 0.0049(8) 0.0096(8)
S1 0.0212(2) 0.0250(3) 0.0317(3) 0.0159(2) 0.0120(2) 0.0122(2)
C2 0.0188(9) 0.0210(10) 0.0291(10) 0.0097(8) 0.0090(8) 0.0118(8)
C3 0.0120(8) 0.0141(8) 0.0177(8) 0.0028(7) 0.0006(6) 0.0054(7)
C4 0.0116(9) 0.0116(8) 0.0150(9) 0.0014(7) 0.0005(6) 0.0054(7)
N2 0.0145(7) 0.0139(7) 0.0167(7) 0.0035(6) 0.0021(6) 0.0073(6)
C5 0.0135(8) 0.0138(8) 0.0165(8) 0.0018(6) 0.0019(6) 0.0063(7)
C6 0.0249(10) 0.0199(9) 0.0226(9) 0.0078(8) 0.0052(8) 0.0140(8)
C7 0.0248(10) 0.0186(9) 0.0202(9) 0.0079(7) 0.0062(8) 0.0099(8)
C8 0.0168(9) 0.0211(9) 0.0168(9) 0.0031(7) 0.0041(7) 0.0076(8)
C9 0.0163(9) 0.0197(9) 0.0175(8) 0.0026(7) 0.0021(7) 0.0105(7)
C10 0.0139(8) 0.0137(8) 0.0146(8) 0.0010(6) -0.0008(6) 0.0062(7)
N3 0.0131(7) 0.0139(7) 0.0140(7) 0.0028(6) 0.0026(6) 0.0071(6)
Zn2 0.01029(12) 0.01029(12) 0.01096(16) 0.000 0.000 0.00515(6)
Cl1 0.0217(2) 0.0217(2) 0.0111(3) 0.000 0.000 0.01085(12)
loop_
_atom_type_symbol
_atom_type_description
_atom_type_scat_dispersion_real
_atom_type_scat_dispersion_imag
_atom_type_scat_source
C C -0.0001 0.0005 'International Tables Vol C Tables 4.2.6.8 and 6.1.1.4'
H H 0.0000 0.0000 'International Tables Vol C Tables 4.2.6.8 and 6.1.1.4'
N N 0.0004 0.0010 'International Tables Vol C Tables 4.2.6.8 and 6.1.1.4'
S S 0.0441 0.0406 'International Tables Vol C Tables 4.2.6.8 and 6.1.1.4'
Zn Zn 0.2594 0.5335 'International Tables Vol C Tables 4.2.6.8 and 6.1.1.4'
Cl Cl 0.0550 0.0526 'International Tables Vol C Tables 4.2.6.8 and 6.1.1.4'
loop_
_geom_angle_atom_site_label_1
_geom_angle_atom_site_label_2
_geom_angle_atom_site_label_3
_geom_angle
_geom_angle_site_symmetry_1
_geom_angle_site_symmetry_3
_geom_angle_publ_flag
N2 Zn1 N2 104.24(5) . 3_565 ?
N2 Zn1 N2 104.24(5) . 2_665 ?
N2 Zn1 N2 104.24(5) 3_565 2_665 ?
N2 Zn1 N1 76.13(6) . . ?
N2 Zn1 N1 90.03(6) 3_565 . ?
N2 Zn1 N1 164.99(6) 2_665 . ?
N2 Zn1 N1 164.98(6) . 3_565 ?
N2 Zn1 N1 76.13(6) 3_565 3_565 ?
N2 Zn1 N1 90.03(6) 2_665 3_565 ?
N1 Zn1 N1 88.88(6) . 3_565 ?
N2 Zn1 N1 90.03(6) . 2_665 ?
N2 Zn1 N1 164.99(6) 3_565 2_665 ?
N2 Zn1 N1 76.13(6) 2_665 2_665 ?
N1 Zn1 N1 88.88(6) . 2_665 ?
N1 Zn1 N1 88.87(6) 3_565 2_665 ?
C1 N1 C3 111.10(17) . . ?
C1 N1 Zn1 134.15(15) . . ?
C3 N1 Zn1 111.51(12) . . ?
N1 C1 S1 114.43(16) . . ?
N1 C1 H1A 122.8 . . ?
S1 C1 H1A 122.8 . . ?
C1 S1 C2 90.07(10) . . ?
C3 C2 S1 109.70(15) . . ?
C3 C2 H2A 125.2 . . ?
S1 C2 H2A 125.2 . . ?
C2 C3 N1 114.70(17) . . ?
C2 C3 C4 130.61(18) . . ?
N1 C3 C4 114.56(16) . . ?
N2 C4 N3 115.48(16) . . ?
N2 C4 C3 117.07(17) . . ?
N3 C4 C3 127.41(17) . . ?
C4 N2 C5 104.57(15) . . ?
C4 N2 Zn1 118.38(13) . . ?
C5 N2 Zn1 136.15(12) . . ?
N2 C5 C6 130.52(17) . . ?
N2 C5 C10 108.35(15) . . ?
C6 C5 C10 121.13(17) . . ?
C7 C6 C5 117.20(19) . . ?
C7 C6 H6A 121.4 . . ?
C5 C6 H6A 121.4 . . ?
C6 C7 C8 121.57(19) . . ?
C6 C7 H7A 119.2 . . ?
C8 C7 H7A 119.2 . . ?
C9 C8 C7 121.77(18) . . ?
C9 C8 H8A 119.1 . . ?
C7 C8 H8A 119.1 . . ?
C8 C9 C10 117.32(18) . . ?
C8 C9 H9A 121.3 . . ?
C10 C9 H9A 121.3 . . ?
N3 C10 C9 131.11(17) . . ?
N3 C10 C5 107.88(16) . . ?
C9 C10 C5 120.99(17) . . ?
C4 N3 C10 103.70(15) . . ?
C4 N3 Zn2 131.79(13) . . ?
C10 N3 Zn2 124.01(12) . . ?
N3 Zn2 N3 109.33(4) 2_655 3_665 ?
N3 Zn2 N3 109.33(4) 2_655 . ?
N3 Zn2 N3 109.33(4) 3_665 . ?
N3 Zn2 Cl1 109.61(4) 2_655 . ?
N3 Zn2 Cl1 109.61(4) 3_665 . ?
N3 Zn2 Cl1 109.61(4) . . ?
loop_
_geom_bond_atom_site_label_1
_geom_bond_atom_site_label_2
_geom_bond_distance
_geom_bond_site_symmetry_2
_geom_bond_publ_flag
Zn1 N2 2.0715(16) . ?
Zn1 N2 2.0715(16) 3_565 ?
Zn1 N2 2.0715(16) 2_665 ?
Zn1 N1 2.2554(17) . ?
Zn1 N1 2.2554(17) 3_565 ?
Zn1 N1 2.2554(17) 2_665 ?
N1 C1 1.302(3) . ?
N1 C3 1.380(3) . ?
C1 S1 1.706(2) . ?
C1 H1A 0.9500 . ?
S1 C2 1.710(2) . ?
C2 C3 1.360(3) . ?
C2 H2A 0.9500 . ?
C3 C4 1.463(3) . ?
C4 N2 1.333(2) . ?
C4 N3 1.348(2) . ?
N2 C5 1.374(2) . ?
C5 C6 1.399(3) . ?
C5 C10 1.408(3) . ?
C6 C7 1.378(3) . ?
C6 H6A 0.9500 . ?
C7 C8 1.401(3) . ?
C7 H7A 0.9500 . ?
C8 C9 1.379(3) . ?
C8 H8A 0.9500 . ?
C9 C10 1.393(3) . ?
C9 H9A 0.9500 . ?
C10 N3 1.390(2) . ?
N3 Zn2 2.0085(15) . ?
Zn2 N3 2.0085(16) 2_655 ?
Zn2 N3 2.0085(15) 3_665 ?
Zn2 Cl1 2.2288(8) . ?
loop_
_geom_torsion_atom_site_label_1
_geom_torsion_atom_site_label_2
_geom_torsion_atom_site_label_3
_geom_torsion_atom_site_label_4
_geom_torsion
_geom_torsion_site_symmetry_1
_geom_torsion_site_symmetry_2
_geom_torsion_site_symmetry_3
_geom_torsion_site_symmetry_4
_geom_torsion_publ_flag
C3 N1 C1 S1 -0.7(2) . . . . ?
Zn1 N1 C1 S1 156.59(12) . . . . ?
N1 C1 S1 C2 0.22(18) . . . . ?
C1 S1 C2 C3 0.30(18) . . . . ?
S1 C2 C3 N1 -0.7(2) . . . . ?
S1 C2 C3 C4 -176.25(17) . . . . ?
C1 N1 C3 C2 0.9(3) . . . . ?
Zn1 N1 C3 C2 -161.74(15) . . . . ?
C1 N1 C3 C4 177.17(17) . . . . ?
Zn1 N1 C3 C4 14.5(2) . . . . ?
C2 C3 C4 N2 157.6(2) . . . . ?
N1 C3 C4 N2 -17.9(2) . . . . ?
C2 C3 C4 N3 -20.3(3) . . . . ?
N1 C3 C4 N3 164.20(18) . . . . ?
N3 C4 N2 C5 0.9(2) . . . . ?
C3 C4 N2 C5 -177.25(16) . . . . ?
N3 C4 N2 Zn1 -169.94(12) . . . . ?
C3 C4 N2 Zn1 11.9(2) . . . . ?
C4 N2 C5 C6 179.2(2) . . . . ?
Zn1 N2 C5 C6 -12.4(3) . . . . ?
C4 N2 C5 C10 -0.2(2) . . . . ?
Zn1 N2 C5 C10 168.18(14) . . . . ?
N2 C5 C6 C7 -178.5(2) . . . . ?
C10 C5 C6 C7 0.8(3) . . . . ?
C5 C6 C7 C8 0.1(3) . . . . ?
C6 C7 C8 C9 -0.2(3) . . . . ?
C7 C8 C9 C10 -0.6(3) . . . . ?
C8 C9 C10 N3 179.42(19) . . . . ?
C8 C9 C10 C5 1.5(3) . . . . ?
N2 C5 C10 N3 -0.6(2) . . . . ?
C6 C5 C10 N3 179.98(18) . . . . ?
N2 C5 C10 C9 177.81(18) . . . . ?
C6 C5 C10 C9 -1.7(3) . . . . ?
N2 C4 N3 C10 -1.2(2) . . . . ?
C3 C4 N3 C10 176.69(17) . . . . ?
N2 C4 N3 Zn2 170.65(13) . . . . ?
C3 C4 N3 Zn2 -11.4(3) . . . . ?
C9 C10 N3 C4 -177.1(2) . . . . ?
C5 C10 N3 C4 1.03(19) . . . . ?
C9 C10 N3 Zn2 10.2(3) . . . . ?
C5 C10 N3 Zn2 -171.68(12) . . . . ?
