#------------------------------------------------------------------------------
#$Date: 2021-07-05 20:38:50 +0300 (Mon, 05 Jul 2021) $
#$Revision: 267178 $
#$URL: file:///home/coder/svn-repositories/cod/cif/7/70/73/7707387.cif $
#------------------------------------------------------------------------------
#
# This file is available in the Crystallography Open Database (COD),
# http://www.crystallography.net/
#
# All data on this site have been placed in the public domain by the
# contributors.
#
data_7707387
loop_
_publ_author_name
'Dissem, Nour'
'Essalhi, Mohamed'
'Ferhi, Najmeddine'
'Abidi, Adela'
'Maris, Thierry'
'Duong, Adam'
_publ_section_title
;
 Flexible and porous 2D layered structures based on mixed-linker
 metal-organic frameworks for gas sorption studies.
;
_journal_issue                   25
_journal_name_full
'Dalton transactions (Cambridge, England : 2003)'
_journal_page_first              8727
_journal_page_last               8735
_journal_paper_doi               10.1039/d1dt00426c
_journal_volume                  50
_journal_year                    2021
_chemical_formula_moiety         'C44 H44 N4 O8 Zn, 2(C3 H7 N O)'
_chemical_formula_sum            'C50 H58 N6 O10 Zn'
_chemical_formula_weight         968.39
_space_group_crystal_system      triclinic
_space_group_IT_number           2
_space_group_name_Hall           '-P 1'
_space_group_name_H-M_alt        'P -1'
_atom_sites_solution_hydrogens   geom
_atom_sites_solution_primary     dual
_audit_creation_date             2019-09-13
_audit_creation_method
;
Olex2 1.2
(compiled 2018.05.29 svn.r3508 for OlexSys, GUI svn.r5506)
;
_audit_update_record
;
2020-11-22 deposited with the CCDC.	2021-05-13 downloaded from the CCDC.
;
_cell_angle_alpha                94.957(13)
_cell_angle_beta                 99.778(13)
_cell_angle_gamma                110.086(13)
_cell_formula_units_Z            1
_cell_length_a                   8.1297(17)
_cell_length_b                   10.1868(19)
_cell_length_c                   15.619(3)
_cell_measurement_reflns_used    5918
_cell_measurement_temperature    100
_cell_measurement_theta_max      68.433
_cell_measurement_theta_min      2.906
_cell_volume                     1182.4(4)
_computing_cell_refinement
'SAINT (2013) V8.38A; Integration Software for Single Crystal Data. Bruker AXS Inc., Madison, WI 53719-1173.'
_computing_data_collection
;
APEX 2 (2013) Bruker AXS Inc., Madison, WI 53719-1173.
;
_computing_data_reduction
'SAINT (2013) V8.38A; Integration Software for Single Crystal Data. Bruker AXS Inc., Madison, WI 53719-1173.'
_computing_molecular_graphics    'Olex2 (Dolomanov et al., 2009)'
_computing_publication_material  'Olex2 (Dolomanov et al., 2009)'
_computing_structure_refinement  'XL (Sheldrick, 2008)'
_computing_structure_solution    'XT (Sheldrick, 2015)'
_diffrn_ambient_temperature      100
_diffrn_detector                 'CCD area detector'
_diffrn_detector_area_resol_mean 8.3
_diffrn_detector_type            'Bruker APEX2 CCD'
_diffrn_measured_fraction_theta_full 0.961
_diffrn_measured_fraction_theta_max 0.956
_diffrn_measurement_device       'three-circle diffractometer'
_diffrn_measurement_device_type  'Bruker Smart APEX'
_diffrn_measurement_method       '\w scans'
_diffrn_radiation_collimation    'Focusing mirrors'
_diffrn_radiation_monochromator  'Quazar MX Mirror Optics'
_diffrn_radiation_probe          x-ray
_diffrn_radiation_type           CuK\a
_diffrn_radiation_wavelength     1.54178
_diffrn_reflns_av_R_equivalents  0.0669
_diffrn_reflns_av_unetI/netI     0.0463
_diffrn_reflns_Laue_measured_fraction_full 0.961
_diffrn_reflns_Laue_measured_fraction_max 0.956
_diffrn_reflns_limit_h_max       9
_diffrn_reflns_limit_h_min       -9
_diffrn_reflns_limit_k_max       12
_diffrn_reflns_limit_k_min       -12
_diffrn_reflns_limit_l_max       18
_diffrn_reflns_limit_l_min       -18
_diffrn_reflns_number            12885
_diffrn_reflns_point_group_measured_fraction_full 0.961
_diffrn_reflns_point_group_measured_fraction_max 0.956
_diffrn_reflns_theta_full        67.679
_diffrn_reflns_theta_max         68.446
_diffrn_reflns_theta_min         2.907
_diffrn_source                   'Microfocus Source'
_diffrn_source_target            Cu
_diffrn_source_type              'Incoatec I\mS High Brilliance Microsource'
_exptl_absorpt_coefficient_mu    1.260
_exptl_absorpt_correction_T_max  0.1851
_exptl_absorpt_correction_T_min  0.0664
_exptl_absorpt_correction_type   multi-scan
_exptl_absorpt_process_details
'SADABS-2016/2 (Bruker,2016/2) was used for absorption correction. wR2(int) was 0.1369 before and 0.0684 after correction. The Ratio of minimum to maximum transmission is 0.3587. The \l/2 correction factor is Not present.'
_exptl_crystal_colour            'clear light colourless'
_exptl_crystal_colour_lustre     clear
_exptl_crystal_colour_modifier   light
_exptl_crystal_colour_primary    colourless
_exptl_crystal_density_diffrn    1.360
_exptl_crystal_description       block
_exptl_crystal_F_000             510
_exptl_crystal_size_max          0.12
_exptl_crystal_size_mid          0.1
_exptl_crystal_size_min          0.08
_refine_diff_density_max         0.516
_refine_diff_density_min         -0.732
_refine_diff_density_rms         0.079
_refine_ls_extinction_method     none
_refine_ls_goodness_of_fit_ref   1.053
_refine_ls_hydrogen_treatment    constr
_refine_ls_matrix_type           full
_refine_ls_number_parameters     307
_refine_ls_number_reflns         4166
_refine_ls_number_restraints     0
_refine_ls_restrained_S_all      1.053
_refine_ls_R_factor_all          0.0569
_refine_ls_R_factor_gt           0.0512
_refine_ls_shift/su_max          0.000
_refine_ls_shift/su_mean         0.000
_refine_ls_structure_factor_coef Fsqd
_refine_ls_weighting_details
'w=1/[\s^2^(Fo^2^)+(0.1093P)^2^] where P=(Fo^2^+2Fc^2^)/3'
_refine_ls_weighting_scheme      calc
_refine_ls_wR_factor_gt          0.1387
_refine_ls_wR_factor_ref         0.1445
_reflns_Friedel_coverage         0.000
_reflns_number_gt                3686
_reflns_number_total             4166
_reflns_threshold_expression     'I > 2\s(I)'
_cod_data_source_file            d1dt00426c2.cif
_cod_data_source_block           ada220
_cod_depositor_comments
;
The following automatic conversions were performed:

data item '_diffrn_radiation_probe' value 'X-ray' was changed to
'x-ray' in accordance with the
/home/data/users/saulius/crontab/automatic-downloads/rss-feeds/RSC/lib/dictionaries/cif_core.dic
dictionary named 'cif_core.dic' version 2.4.2 last updated on
2011-04-26.

Automatic conversion script
Id: cif_fix_values 7556 2019-12-06 15:28:31Z antanas 

 Adding full bibliography for 7707385--7707390.cif.
;
_cod_database_code               7707387
_shelx_shelxl_version_number     2018/3
_shelx_space_group_comment
;
The symmetry employed for this shelxl refinement is uniquely defined
by the following loop, which should always be used as a source of
symmetry information in preference to the above space-group names.
They are only intended as comments.
;
_shelx_estimated_absorpt_t_max   0.906
_shelx_estimated_absorpt_t_min   0.863
_olex2_refinement_description
;
1. Fixed Uiso
 At 1.2 times of:
  All C(H) groups, All C(H,H) groups, All N(H) groups
 At 1.5 times of:
  All C(H,H,H) groups, All O(H) groups
2.a Ternary CH refined with riding coordinates:
 N1(H1), N2(H2A)
2.b Secondary CH2 refined with riding coordinates:
 C18(H18A,H18B), C19(H19A,H19B), C20(H20A,H20B), C21(H21A,H21B), C22(H22A,H22B)
2.c Aromatic/amide H refined with riding coordinates:
 C3(H3), C4(H4), C6(H6), C7(H7), C9(H9), C12(H12), C13(H13), C15(H15),
 C16(H16), C1A(H1A)
2.d Idealised Me refined as rotating group:
 C2A(H2AA,H2AB,H2AC), C3A(H3AA,H3AB,H3AC)
2.e Idealised tetrahedral OH refined as rotating group:
 O2(H2)
;
_shelx_res_file
;
TITL ada220_a.res in P-1
    ada220.res
    created by SHELXL-2018/3 at 12:33:34 on 13-Sep-2019
REM Old TITL ada220 in P-1
REM SHELXT solution in P-1
REM R1 0.134, Rweak 0.006, Alpha 0.041, Orientation as input
REM Formula found by SHELXT: C52 N4 O10 Zn
CELL 1.54178 8.1297 10.1868 15.6188 94.957 99.778 110.086
ZERR 1 0.0017 0.0019 0.0031 0.013 0.013 0.013
LATT 1
SFAC C H N O Zn
UNIT 50 58 6 10 1
EQIV $1 +X,+Y,1+Z
EQIV $2 -X,1-Y,1-Z

L.S. 30
PLAN  10
SIZE 0.08 0.1 0.12
TEMP -173
HTAB O2 O3_$1
HTAB N1 O3
HTAB N2 O1_$2
MORE -1
HTAB
CONF
BOND $H
list 4
fmap 2
acta
REM <olex2.extras>
REM <HklSrc "%.\\ada220.hkl">
REM </olex2.extras>

WGHT    0.109300
FVAR       0.99926
ZN1   5    0.000000    0.500000    0.000000    10.50000    0.03838    0.02569 =
         0.03335    0.00949    0.00991    0.01328
O1    4    0.420082    0.655113    0.833533    11.00000    0.04981    0.03366 =
         0.04861    0.01018    0.02153    0.01021
O2    4    0.563878    0.872799    0.911479    11.00000    0.04805    0.03290 =
         0.03828    0.01284    0.01686    0.01586
AFIX 147
H2    2    0.501281    0.838842    0.947522    11.00000   -1.50000
AFIX   0
O3    4    0.377783    0.783322    0.025414    11.00000    0.03791    0.03419 =
         0.03604    0.01438    0.01016    0.01127
O4    4    0.278952    0.578431    0.075677    11.00000    0.03705    0.03045 =
         0.03913    0.00932    0.00627    0.01144
N1    3   -0.012337    0.703716    0.016898    11.00000    0.03696    0.02830 =
         0.04802    0.01008    0.00833    0.01263
AFIX  13
H1    2    0.112640    0.773371    0.039472    11.00000   -1.20000
AFIX   0
N2    3   -0.077430    0.482312    0.120567    11.00000    0.03888    0.03925 =
         0.03568    0.01068    0.00993    0.01186
AFIX  13
H2A   2   -0.209466    0.427501    0.107661    11.00000   -1.20000
AFIX   0
C1    1    0.525730    0.775666    0.841926    11.00000    0.04076    0.03058 =
         0.03974    0.01440    0.01138    0.01686
C2    1    0.628539    0.826896    0.773248    11.00000    0.03626    0.03042 =
         0.03699    0.01272    0.00972    0.01422
C3    1    0.737111    0.968544    0.779739    11.00000    0.04226    0.02907 =
         0.03661    0.01058    0.01070    0.01530
AFIX  43
H3    2    0.744390    1.035521    0.827863    11.00000   -1.20000
AFIX   0
C4    1    0.834983    1.011731    0.715482    11.00000    0.03894    0.02669 =
         0.03860    0.01237    0.01040    0.01126
AFIX  43
H4    2    0.908121    1.108541    0.719873    11.00000   -1.20000
AFIX   0
C5    1    0.826871    0.914429    0.644699    11.00000    0.03660    0.02939 =
         0.03543    0.01128    0.00703    0.01416
C6    1    0.715742    0.772531    0.638207    11.00000    0.04042    0.02828 =
         0.03594    0.00904    0.00923    0.01405
AFIX  43
H6    2    0.707668    0.705350    0.590018    11.00000   -1.20000
AFIX   0
C7    1    0.617554    0.729850    0.701854    11.00000    0.03868    0.02834 =
         0.03962    0.01234    0.01093    0.01141
AFIX  43
H7    2    0.542016    0.633519    0.696790    11.00000   -1.20000
AFIX   0
C8    1    0.923333    0.958705    0.573187    11.00000    0.03895    0.02579 =
         0.03549    0.01176    0.01013    0.01501
C9    1    0.829630    0.903644    0.486098    11.00000    0.03685    0.02610 =
         0.03730    0.01057    0.01001    0.01202
AFIX  43
H9    2    0.711115    0.836056    0.476586    11.00000   -1.20000
AFIX   0
C10   1    0.899947    0.942136    0.412784    11.00000    0.03911    0.02508 =
         0.03642    0.01093    0.00942    0.01399
C11   1    0.779136    0.880597    0.325127    11.00000    0.03715    0.02896 =
         0.03396    0.01015    0.01122    0.01366
C12   1    0.754219    0.965913    0.262162    11.00000    0.03921    0.02659 =
         0.03811    0.00997    0.01141    0.01098
AFIX  43
H12   2    0.822552    1.064580    0.273752    11.00000   -1.20000
AFIX   0
C13   1    0.631375    0.908171    0.183393    11.00000    0.03869    0.02824 =
         0.03618    0.01235    0.01078    0.01290
AFIX  43
H13   2    0.616451    0.967346    0.141275    11.00000   -1.20000
AFIX   0
C14   1    0.528974    0.763361    0.165268    11.00000    0.03608    0.02984 =
         0.03386    0.01018    0.01166    0.01387
C15   1    0.554950    0.677293    0.226857    11.00000    0.03692    0.02704 =
         0.03696    0.00933    0.01046    0.01008
AFIX  43
H15   2    0.487627    0.578455    0.214691    11.00000   -1.20000
AFIX   0
C16   1    0.678405    0.735044    0.305736    11.00000    0.03907    0.02745 =
         0.03722    0.01182    0.00997    0.01391
AFIX  43
H16   2    0.694969    0.675270    0.347168    11.00000   -1.20000
AFIX   0
C17   1    0.386518    0.703699    0.081819    11.00000    0.03529    0.02907 =
         0.03517    0.00997    0.01193    0.01260
C18   1   -0.048613    0.627802    0.158723    11.00000    0.04324    0.04556 =
         0.04083   -0.00135    0.01323    0.01334
AFIX  23
H18A  2    0.080313    0.679744    0.184596    11.00000   -1.20000
H18B  2   -0.116027    0.625674    0.206074    11.00000   -1.20000
AFIX   0
C19   1   -0.111983    0.702724    0.087263    11.00000    0.04167    0.03536 =
         0.05644   -0.00086    0.01140    0.01522
AFIX  23
H19A  2   -0.241996    0.653065    0.063032    11.00000   -1.20000
H19B  2   -0.091560    0.801030    0.112380    11.00000   -1.20000
AFIX   0
C20   1   -0.088157    0.744704   -0.065062    11.00000    0.04152    0.03219 =
         0.06125    0.02058    0.00624    0.01535
AFIX  23
H20A  2   -0.086671    0.842022   -0.052125    11.00000   -1.20000
H20B  2   -0.214515    0.680415   -0.086700    11.00000   -1.20000
AFIX   0
C21   1    0.016142    0.738625   -0.136582    11.00000    0.04190    0.04321 =
         0.05675    0.02810    0.00611    0.01174
AFIX  23
H21A  2    0.145262    0.789560   -0.110689    11.00000   -1.20000
H21B  2   -0.018616    0.790615   -0.182760    11.00000   -1.20000
AFIX   0
C22   1    0.008796    0.409016    0.180566    11.00000    0.04349    0.05545 =
         0.03845    0.02209    0.01080    0.01375
AFIX  23
H22A  2   -0.043364    0.400744    0.233608    11.00000   -1.20000
H22B  2    0.138474    0.466022    0.199539    11.00000   -1.20000
AFIX   0

O1A   4    0.696470    0.530602    0.464899    11.00000    0.07204    0.03944 =
         0.05084    0.01637    0.01549    0.02701
N1A   3    0.743571    0.332494    0.499660    11.00000    0.06119    0.03877 =
         0.08252    0.01095    0.00678    0.02770
C1A   1    0.687124    0.439818    0.510990    11.00000    0.05660    0.03580 =
         0.05425    0.01094    0.00957    0.02255
AFIX  43
H1A   2    0.634184    0.445654    0.560237    11.00000   -1.20000
AFIX   0
C2A   1    0.821893    0.313516    0.425666    11.00000    0.07611    0.07672 =
         0.09577   -0.01385    0.01102    0.04593
AFIX 137
H2AA  2    0.744537    0.225117    0.386905    11.00000   -1.50000
H2AB  2    0.940384    0.309363    0.446669    11.00000   -1.50000
H2AC  2    0.834051    0.393155    0.393076    11.00000   -1.50000
AFIX   0
C3A   1    0.727066    0.232108    0.562833    11.00000    0.10341    0.06522 =
         0.15386    0.05849    0.03962    0.05125
AFIX 137
H3AA  2    0.846083    0.232651    0.588400    11.00000   -1.50000
H3AB  2    0.650361    0.136781    0.532514    11.00000   -1.50000
H3AC  2    0.673754    0.259991    0.609686    11.00000   -1.50000
AFIX   0
HKLF 4




REM  ada220_a.res in P-1
REM wR2 = 0.144469, GooF = S = 1.05253, Restrained GooF = 1.05253 for all data
REM R1 = 0.051179 for 3686 Fo > 4sig(Fo) and 0.056910 for all 4166 data
REM 307 parameters refined using 0 restraints

END

WGHT      0.1093      0.0000

REM Instructions for potential hydrogen bonds
HTAB O2 O3_$1
HTAB N1 O3
HTAB N2 O1_$2
EQIV $3 -x, -y+1, -z
HTAB N2 O3_$3
HTAB C20 O4_$3
HTAB C21 O3
HTAB C22 O4

REM Highest difference peak  0.516,  deepest hole -0.732,  1-sigma level  0.079
Q1    1  -0.0658  0.5227  0.0402  11.00000  0.05    0.52
Q2    1  -0.0146  0.6244  0.0145  11.00000  0.05    0.50
Q3    1   0.1398  0.5360  0.0318  11.00000  0.05    0.46
Q4    1   0.0354  0.4737  0.0870  11.00000  0.05    0.43
Q5    1   0.7054  0.1945  0.4974  11.00000  0.05    0.36
Q6    1   0.4635  0.7266  0.1167  11.00000  0.05    0.36
Q7    1  -0.0592  0.7001 -0.0159  11.00000  0.05    0.36
Q8    1   0.5419  0.7226  0.2053  11.00000  0.05    0.35
Q9    1   0.2611  0.4803  0.0714  11.00000  0.05    0.30
Q10   1   0.6457  0.7061  0.2597  11.00000  0.05    0.29
;
_shelx_res_checksum              67714
_shelx_hkl_file
;
  -1   0   0 785.396 41.5992   1
  -1   0   0  655.03 40.4792   1
  -1   0   0  657.04 58.1531   1
  -1   0   0 584.573 42.7192   1
  -1   0   0 741.358 36.6823   1
   1   0   0 678.955 38.0247   1
   1   0   0 676.271 40.0343   1
   1   0   0 662.854  44.284   1
  -2   0   0 148.093 50.1703   1
  -2   0   0 136.867 18.6325   1
  -2   0   0 121.103 18.8701   1
  -2   0   0 94.1297 21.5003   1
  -2   0   0 136.155 10.5126   1
   2   0   0 111.803 12.8968   1
   2   0   0 108.936 22.2215   1
   2   0   0 113.475 17.1986   1
  -3   0   0 2253.30 126.313   1
  -3   0   0 2720.20 209.793   1
  -3   0   0 2495.08 143.722   1
  -3   0   0 1926.74 146.632   1
  -3   0   0 2453.34 146.369   1
   3   0   0 2386.22  152.45   1
   3   0   0 2186.99 130.808   1
   3   0   0 2466.54 138.438   1
  -4   0   0 359.587 50.7819   1
  -4   0   0 445.078 103.937   1
  -4   0   0 324.245 49.8855   1
  -4   0   0 318.307 29.0981   1
  -4   0   0 329.592 58.5021   1
   4   0   0 337.608 55.2326   1
   4   0   0 403.534 41.5747   1
  -5   0   0 199.527 54.6308   1
   5   0   0 27.8034 93.2396   1
   5   0   0 189.058 36.9705   1
   5   0   0  181.53 54.6308   1
  -6   0   0 3.36779  1.6839   1
  -6   0   0 5.03975 2.68707   1
  -6   0   0 6.38926 4.37097   1
   6   0   0 4.70536 5.38608   1
  -7   0   0 129.385 10.8806   1
  -7   0   0 135.605  8.3952   1
  -7   0   0 140.277 9.02484   1
   7   0   0 129.385 15.5532   1
  -8   0   0 51.5692 5.23408   1
  -8   0   0 57.8538 3.92324   1
   9   0   0    0.00 0.63009   1
   9  -1   0 19.3492 1.79825   1
   8  -1   0 113.267 10.6689   1
  -8   1   0 119.836 6.84054   1
  -8   1   0  102.87 8.48266   1
   7  -1   0 27.3894  7.0029   1
  -7   1   0 46.5088 3.82388   1
  -6   1   0 369.704 69.6173   1
  -6   1   0 386.592 21.6294   1
   5  -1   0 33.0939  18.817   1
   5  -1   0 18.1717  18.817   1
   5  -1   0 39.5813 43.1534   1
  -5   1   0 69.7599 76.5699   1
  -5   1   0  77.872  43.476   1
  -5   1   0  60.023 29.1991   1
   4  -1   0  982.38 65.7682   1
   4  -1   0 918.367 92.3765   1
   4  -1   0 1000.51 71.0317   1
  -4   1   0 903.459 72.7862   1
  -4   1   0 856.689 55.2515   1
  -4   1   0 824.828 79.5136   1
  -4   1   0 972.154 77.1673   1
  -4   1   0 1212.12 144.991   1
   3  -1   0 1116.14 94.1838   1
   3  -1   0 1199.69 76.8523   1
   3  -1   0 1303.44 74.0035   1
  -3   1   0 1169.67 77.3669   1
  -3   1   0 1201.23 77.8815   1
  -3   1   0 1307.33 132.192   1
  -3   1   0 1146.66 65.1999   1
  -3   1   0 1020.91 84.0937   1
   2  -1   0 1064.00 82.4992   1
   2  -1   0 1153.92 71.6025   1
   2  -1   0 1280.43 70.2116   1
  -2   1   0 1300.59 64.4258   1
  -2   1   0 1108.04 74.8534   1
  -2   1   0 1408.11 72.9934   1
  -2   1   0 1099.46 101.964   1
  -2   1   0 1132.83 70.2116   1
   1  -1   0 20.2786 5.07153   1
   1  -1   0 13.5191 8.44755   1
   1  -1   0 15.4171 5.07153   1
  -1   1   0 12.6713 4.22377   1
  -1   1   0 13.9392 6.12935   1
  -1   1   0 14.5769  2.3257   1
  -1   1   0 17.7428 13.9392   1
  -1   1   0  18.163 4.43384   1
   0  -1   0  472.47 33.4495   1
   0  -1   0 553.185 28.3349   1
   0  -1   0 455.643 32.3827   1
   0  -1   0 468.634 31.1041   1
   0   1   0 566.607 32.8064   1
   0   1   0 487.594 42.1808   1
   0   1   0 528.708 32.5946   1
  -1  -1   0 2904.17 139.044   1
  -1  -1   0 2495.93 146.363   1
  -1  -1   0 2796.69 150.255   1
  -1  -1   0 2641.84 147.509   1
   1   1   0 2321.42 140.653   1
   1   1   0 2580.11 141.562   1
  -2  -1   0 2634.96 158.671   1
  -2  -1   0 2803.94 158.419   1
  -2  -1   0 2919.20 143.706   1
   2   1   0 2603.06 149.098   1
   2   1   0 2392.65 152.042   1
  -3  -1   0 5897.94 344.924   1
  -3  -1   0 6675.54 369.311   1
  -3  -1   0 6978.74 371.746   1
   3   1   0 6651.97 355.222   1
   3   1   0 6358.57 388.549   1
  -4  -1   0 1023.77 92.6938   1
  -4  -1   0 832.028 60.8814   1
  -4  -1   0 869.586 90.5745   1
   4   1   0 929.262 92.9951   1
   4   1   0 1072.21 75.4267   1
   4   1   0 956.223 143.882   1
  -5  -1   0 49.4427 27.6828   1
  -5  -1   0 90.6333 41.2023   1
   5   1   0 83.0484 69.2128   1
   5   1   0 74.8196 29.0055   1
   5   1   0 67.8901 26.3718   1
  -6  -1   0 5.64045 4.30982   1
  -6  -1   0 9.62055 2.64948   1
  -6  -1   0 7.28901 1.99005   1
  -7  -1   0 401.886  23.893   1
  -7  -1   0 391.737 21.4963   1
  -7  -1   0 392.628 22.1007   1
  -8  -1   0 22.0645 2.94309   1
  -8  -1   0 26.2353 2.20296   1
   9  -2   0 0.46772 2.58915   1
   8  -2   0-1.40608 3.64982   1
  -8   2   0 0.55844 2.52296   1
  -8   2   0-0.83766 1.12686   1
   7  -2   0 6.11387 6.11387   1
  -7   2   0 5.15393 3.54262   1
  -7   2   0 8.04517 2.25128   1
   6  -2   0  1.0067 36.4449   1
  -6   2   0 40.8313 30.3688   1
   5  -2   0 13.8489 14.4893   1
   5  -2   0 13.1971 22.8605   1
   5  -2   0 16.1018 36.7094   1
  -5   2   0 37.0296 69.5534   1
  -5   2   0 20.9278  27.046   1
  -5   2   0 28.6585 19.9672   1
   4  -2   0 1.44924 28.6559   1
   4  -2   0-10.1241 18.2337   1
   4  -2   0 2.31262   10.71   1
  -4   2   0 0.28779  37.043   1
  -4   2   0 4.04966 11.2856   1
  -4   2   0 12.1592 17.0723   1
  -4   2   0 9.83635  12.447   1
   3  -2   0 11.2495 9.96932   1
   3  -2   0-3.57733 20.7104   1
   3  -2   0 0.25423 10.9953   1
  -3   2   0 27.8651   36.30   1
  -3   2   0 7.92643 9.20664   1
  -3   2   0 5.11177 8.68911   1
  -3   2   0 3.83156 13.0382   1
   2  -2   0 1268.43 72.4857   1
   2  -2   0 1283.75 91.6912   1
  -2   2   0 1195.51 64.9415   1
  -2   2   0 1219.98  70.423   1
  -2   2   0 1136.07 73.8581   1
  -2   2   0 1113.20 99.4628   1
  -2   2   0 1243.53 72.2583   1
   1  -2   015695.90 984.044   1
   1  -2   019688.50 979.774   1
   1  -2   018260.70 974.434   1
   1  -2   020405.20  983.62   1
   1  -2   017433.60 971.233   1
  -1   2   018678.40 975.503   1
  -1   2   017809.50 997.925   1
  -1   2   021355.30 978.704   1
   0  -2   0 707.861 49.4377   1
   0  -2   0 739.794 53.8197   1
   0  -2   0 864.036 44.6283   1
   0  -2   0 754.455 56.0029   1
   0   2   0 738.263 71.5343   1
   0   2   0 770.841 52.0638   1
   0   2   0 774.337 51.1936   1
  -1  -2   0 6.76629 5.12648   1
  -1  -2   0 14.9239 18.8909   1
  -1  -2   0 4.66269 11.6609   1
  -1  -2   0 6.06233 12.5884   1
   1   2   0 3.26306 9.09349   1
   1   2   0 13.5243 24.4812   1
  -2  -2   0 38.1395  18.693   1
  -2  -2   0   30.56  9.3465   1
  -2  -2   0 33.0895 19.1953   1
   2   2   0 36.3724 12.1271   1
   2   2   0 29.2953 14.8988   1
   2   2   0 44.4542 36.8747   1
  -3  -2   0 35.2118 21.5161   1
  -3  -2   0 38.5662 14.5293   1
  -3  -2   0 52.8177 34.6461   1
   3   2   0 49.7411 27.1035   1
   3   2   0 76.2889 72.6566   1
   3   2   0 44.9873 15.3729   1
  -4  -2   0 919.612 68.5096   1
  -4  -2   0 810.501 101.361   1
  -4  -2   0 1060.03  99.192   1
   4   2   0 1212.21 167.669   1
   4   2   0 975.109  96.715   1
   4   2   0 1031.83 79.0454   1
  -5  -2   0 3.31208 31.4178   1
  -5  -2   0-1.65604 3.64094   1
  -5  -2   0 4.95637  1.9849   1
   5   2   0-1.65604 117.731   1
   5   2   0 15.8792 33.0738   1
   5   2   0 4.62751 31.7466   1
  -6  -2   0 21.5989 5.16495   1
  -6  -2   0 31.5967 3.22952   1
  -6  -2   0 31.9288 4.19151   1
  -7  -2   0 84.7281 5.88902   1
  -7  -2   0 81.9281 5.61001   1
  -7  -2   0 88.6641 7.57302   1
  -8  -2   0 -1.1217  1.1217   1
   8   2   0  2.2434 0.66825   1
   9  -3   0 3.62371 3.38327   1
   8  -3   0-1.70263 3.96944   1
   7  -3   0 39.4958 8.66787   1
   6  -3   0-17.7523 47.9027   1
   6  -3   0 5.36615 13.0644   1
   6  -3   0-24.4511 43.2147   1
  -6   3   0 5.02109 20.7745   1
   5  -3   0 21.1202 42.8883   1
   5  -3   0 51.2091 19.1992   1
   5  -3   0 29.7706  33.931   1
  -5   3   0 60.1664  24.644   1
   4  -3   0 643.819 57.5082   1
   4  -3   0 631.399 85.2513   1
   4  -3   0 594.983 52.3044   1
  -4   3   0 678.213 104.034   1
  -4   3   0 646.713 51.1549   1
  -4   3   0 555.971 57.5082   1
  -4   3   0 670.987 52.8895   1
   3  -3   0 779.151 51.4144   1
   3  -3   0 661.156 50.3918   1
   3  -3   0 749.075 72.2413   1
  -3   3   0 654.473 87.9277   1
  -3   3   0 708.197 49.8714   1
  -3   3   0  677.61 47.5613   1
  -3   3   0 631.874  39.079   1
   2  -3   0-1.63306 8.86994   1
   2  -3   0-16.8032 18.2041   1
   2  -3   0-6.77266 15.8747   1
  -2   3   0 0.93673 3.03402   1
  -2   3   0-1.16884 6.30015   1
  -2   3   0 3.26613 7.00477   1
  -2   3   0 3.73864 21.9427   1
  -2   3   0-3.73864 9.56627   1
   1  -3   0 843.982 49.1743   1
   1  -3   0  796.15 46.7212   1
   1  -3   0 758.392 63.7107   1
   1  -3   0 831.693 64.5999   1
   1  -3   0 766.442  59.241   1
  -1   3   0  791.68 54.0965   1
  -1   3   0 835.265 56.3274   1
  -1   3   0 767.109 81.3671   1
   0  -3   0 143.595 32.4199   1
   0  -3   0 118.935 20.0942   1
   0  -3   0 147.933  29.679   1
   0  -3   0 178.301 16.2099   1
   0   3   0 168.708 23.7432   1
   0   3   0 149.303 23.2891   1
   0   3   0 125.787 38.3557   1
  -1  -3   0 134.109 28.5657   1
  -1  -3   0 131.443 30.5091   1
  -1  -3   0 125.149 36.5627   1
  -1  -3   0 157.352  16.467   1
   1   3   0 135.081 25.9086   1
   1   3   0 176.235  63.916   1
  -2  -3   0 906.778 74.6777   1
  -2  -3   0 682.755 52.5835   1
  -2  -3   0  701.16 75.9851   1
  -2  -3   0 693.279 70.7277   1
   2   3   0 795.299 106.222   1
   2   3   0 878.381 73.0996   1
  -3  -3   0 753.655 74.5587   1
  -3  -3   0 575.543   52.22   1
  -3  -3   0 501.273 81.8127   1
   3   3   0 673.893  110.54   1
   3   3   0 697.973 72.8174   1
  -4  -3   0 20.6171 13.3279   1
  -4  -3   0 9.83536 29.1794   1
  -4  -3   0-19.0285 19.0285   1
   4   3   0 26.9599 66.9323   1
   4   3   0 11.0972 26.9599   1
  -5  -3   0 0.97977 1.64462   1
  -5  -3   0  2.2978 1.97121   1
  -5  -3   0 5.91363 4.26901   1
  -6  -3   0 636.841 34.3991   1
  -6  -3   0 638.073 34.7045   1
  -6  -3   0  641.76 36.5477   1
  -7  -3   0 12.8303  2.5697   1
  -7  -3   0 7.18058    1.54   1
   9  -4   0 0.73198 3.43333   1
   8  -4   0 72.9415 5.93453   1
   8  -4   0 84.8206 11.0256   1
   7  -4   0 2.21758 2.21758   1
   7  -4   0-0.31519 5.39199   1
   6  -4   0 7.93938 41.9988   1
   6  -4   0 93.9219 25.4624   1
   6  -4   0-3.64084 53.2384   1
  -6   4   0 124.669 37.7003   1
   5  -4   0 68.1814  50.972   1
   5  -4   0 19.4384 34.7243   1
   5  -4   0 77.0973 21.9841   1
  -5   4   0 117.875 27.3925   1
   4  -4   0 996.142 101.105   1
   4  -4   0 1042.74 76.3413   1
   4  -4   0 765.659 64.9786   1
  -4   4   0 1043.32  69.056   1
   3  -4   0 1599.84 116.428   1
   3  -4   0 2074.99 158.284   1
   3  -4   0 1779.98  115.38   1
  -3   4   0 1987.27 115.109   1
  -3   4   0 1916.96  164.87   1
  -3   4   0 1929.60 110.103   1
  -3   4   0 1782.88 115.904   1
  -3   4   0 1876.40 100.365   1
   2  -4   0 1081.11 66.0929   1
   2  -4   0 985.988 57.8031   1
   2  -4   0 981.596 74.6339   1
   2  -4   0 992.571 92.1922   1
   2  -4   0 1027.70 80.7321   1
  -2   4   0 1041.60 72.6848   1
  -2   4   0 875.744 100.976   1
  -2   4   0 997.699 66.8292   1
   1  -4   0 4355.44  252.92   1
   1  -4   0 4018.22 249.598   1
   1  -4   0 4135.21 246.755   1
   1  -4   0 4318.02  225.92   1
  -1   4   0 4274.69 238.234   1
  -1   4   0 3828.53 286.313   1
  -1   4   0 4423.39 241.548   1
   0  -4   0 3100.10 201.197   1
   0  -4   0 3061.45 194.188   1
   0  -4   0 3521.80 172.448   1
   0   4   0 3169.43 189.118   1
   0   4   0 2623.31 226.557   1
   0   4   0 3159.04 186.218   1
  -1  -4   0-3.31926 15.5806   1
  -1  -4   0-19.9156 35.7501   1
  -1  -4   0 3.06533 7.66332   1
   1   4   0    0.00 35.7501   1
   1   4   0 -1.0248 12.7692   1
   1   4   0-4.85192 4.85192   1
  -2  -4   0 5.80564 21.5722   1
  -2  -4   0 1.66016 12.9964   1
  -2  -4   0  7.4658 27.6627   1
   2   4   0 16.5918 42.0442   1
   2   4   0 8.57584 15.2165   1
  -3  -4   0 396.387 85.5035   1
  -3  -4   0 396.988 45.3271   1
   3   4   0 494.253 51.6691   1
   3   4   0 522.958  90.944   1
  -4  -4   0 3.22684 1.93381   1
  -4  -4   0 0.32039 1.29302   1
  -4  -4   0-1.61342 3.86763   1
  -5  -4   0 21.7351 3.51848   1
  -5  -4   0 31.9614 6.07222   1
  -5  -4   0 23.6533 2.87153   1
  -6  -4   0 70.9615 5.11116   1
  -6  -4   0 58.4709 6.24026   1
  -7  -4   0 13.8633 1.36374   1
  -7  -4   0 13.4034 2.04157   1
   7   4   0 12.4996 1.36374   1
   9  -5   0 121.382   7.404   1
   9  -5   0 131.967 10.8563   1
   8  -5   0 33.1689  3.8999   1
   8  -5   0 38.7416 8.08685   1
   7  -5   0 149.253 9.90843   1
   7  -5   0 138.102 16.0998   1
   6  -5   0 330.732 19.4521   1
   6  -5   0 328.785 25.6137   1
   5  -5   0 343.504 65.5965   1
   5  -5   0 349.525 38.9775   1
  -5   5   0 463.936 48.1731   1
   4  -5   0 64.7466 24.5399   1
   4  -5   0 15.0788 57.9527   1
  -4   5   0 109.395 21.5787   1
   3  -5   0  70.442  27.851   1
   3  -5   0 127.511 54.8777   1
   3  -5   0 58.7082 20.7525   1
  -3   5   0 87.9168 9.28043   1
  -3   5   0 104.848 19.9282   1
  -3   5   0 45.8688 17.2032   1
  -3   5   0  98.293 55.9735   1
   2  -5   0 469.052 42.2502   1
   2  -5   0 390.736 74.4456   1
   2  -5   0 368.605 54.3543   1
   2  -5   0 429.382  52.552   1
   2  -5   0 445.603 31.9392   1
  -2   5   0 480.388 48.6911   1
  -2   5   0 441.486 42.2502   1
  -2   5   0 425.768 77.7941   1
   1  -5   0 170.758 20.2153   1
   1  -5   0 252.615 57.6042   1
   1  -5   0 145.491 37.9003   1
  -1   5   0 169.241 32.3373   1
  -1   5   0 187.689 76.5454   1
  -1   5   0  168.99 29.0533   1
   0  -5   0 1695.09 141.289   1
   0  -5   0 1762.92 102.375   1
   0  -5   0 1667.26 130.198   1
   0   5   0 1955.01 129.942   1
   0   5   0 1762.92 119.135   1
   0   5   0 1432.86 166.558   1
  -1  -5   0 1379.93 92.9499   1
  -1  -5   0 1546.76 133.981   1
  -1  -5   0 1263.61 121.482   1
   1   5   0 1448.14 172.551   1
   1   5   0 1804.38 124.203   1
   1   5   0 1487.28 112.785   1
  -2  -5   0 390.974 41.7534   1
  -2  -5   0 435.362 80.8829   1
   2   5   0 453.148 107.754   1
   2   5   0 560.891 65.4095   1
   2   5   0 444.675 68.9149   1
  -3  -5   0 49.7107 6.56222   1
  -3  -5   0 39.3955 4.37481   1
  -4  -5   0 4.80618 2.24365   1
  -4  -5   0 6.73094 2.56254   1
  -4  -5   0 2.24365 3.21172   1
  -5  -5   0 236.147  15.045   1
  -5  -5   0 226.819 13.5384   1
  -6  -5   0 1.26498 1.01378   1
  -6  -5   0 3.53476 1.76738   1
   6   5   0  0.2512 1.01378   1
   9  -6   0 51.1372 7.41437   1
   9  -6   0 63.0002 4.44862   1
   8  -6   0 1.90748 2.17859   1
   8  -6   0 8.45294 5.72244   1
   7  -6   0 48.5744  9.5956   1
   7  -6   0  35.688 4.49428   1
   6  -6   0 11.9936 3.16094   1
   6  -6   0 9.15776 7.26344   1
   5  -6   0 700.637 68.1236   1
   5  -6   0 814.875 137.507   1
  -5   6   0 831.521 65.9272   1
   4  -6   0 584.254 105.284   1
   4  -6   0 520.964 57.2919   1
  -4   6   0 709.927 56.6953   1
   3  -6   0 18.1513 19.2895   1
   3  -6   0 30.9136 56.4382   1
   3  -6   0 9.63972 26.3808   1
  -3   6   0 23.5402 16.1669   1
  -3   6   0 17.3052 13.9005   1
  -3   6   0 17.3052 6.52721   1
   2  -6   0 1382.33 111.978   1
   2  -6   0 1351.54 80.1028   1
   2  -6   0 1215.34 111.707   1
  -2   6   0 1230.84 156.635   1
  -2   6   0 1341.19 95.3628   1
  -2   6   0 1367.62 105.446   1
   1  -6   0  28.865 11.8698   1
   1  -6   0 40.7348 28.0507   1
   1  -6   0 40.1887 31.8253   1
  -1   6   0 44.5094 21.5841   1
  -1   6   0 59.0712 28.0507   1
  -1   6   0 79.5727   66.63   1
   0  -6   0-3.85864 8.54973   1
   0  -6   0-9.64661 34.1891   1
   0  -6   0-4.69109 21.5065   1
   0   6   0-0.27422 45.2264   1
   0   6   0 6.89463 23.9941   1
   0   6   0 21.2323 6.62041   1
  -1  -6   0  152.29 52.0225   1
  -1  -6   0 144.776 28.0334   1
  -1  -6   0 232.633 81.5032   1
   1   6   0 235.528 49.7129   1
   1   6   0 265.583 114.741   1
   1   6   0  218.18 52.0225   1
  -2  -6   0 18.3334 4.27671   1
  -2  -6   0 10.3878 2.44228   1
  -3  -6   0  42.731 5.69972   1
  -3  -6   0 35.4574 4.11459   1
  -4  -6   0 9.84776 2.45921   1
  -4  -6   0   12.93 3.69427   1
  -5  -6   0 1.62573 1.89509   1
  -5  -6   0 5.14656 1.35638   1
  -6  -6   0 1.07941 0.86506   1
  -6  -6   0-0.21435 0.64305   1
   9  -7   0  6.4513 1.73621   1
   9  -7   0 5.20863 3.71919   1
   8  -7   0 10.9022 5.84789   1
   8  -7   0 5.31884 2.12565   1
   7  -7   0 77.6612 11.8327   1
   7  -7   0 82.5728 6.93148   1
   6  -7   0 68.5897 6.70198   1
   5  -7   0-2.77247 2.77247   1
   4  -7   0 24.4746 13.8951   1
  -4   7   0 45.0114 22.6613   1
   3  -7   0 119.653 43.2958   1
  -3   7   0 165.266 33.9343   1
   2  -7   0 389.027 34.6152   1
   2  -7   0 331.247 63.5102   1
   2  -7   0 399.045 64.0792   1
  -2   7   0 402.763 48.9204   1
   1  -7   0 195.769 56.0254   1
   1  -7   0  280.37 29.4389   1
   1  -7   0 218.346 38.5853   1
  -1   7   0 267.793 42.0165   1
  -1   7   0 283.517 53.7311   1
  -1   7   0 370.403 127.765   1
   0  -7   0 130.896 68.6651   1
   0  -7   0  213.56 28.9313   1
   0  -7   0 116.285 46.7487   1
   0   7   0 208.008 23.3795   1
   0   7   0 248.323 120.675   1
   0   7   0 202.457 48.5024   1
  -1  -7   0  2.7213 3.63557   1
  -1  -7   0  9.3901 3.03323   1
  -1  -7   0  6.0557 2.11896   1
  -2  -7   0  127.79 8.41304   1
  -2  -7   0 115.635 9.04402   1
  -3  -7   0 6.76558 2.76525   1
  -3  -7   0 5.54144 1.84715   1
  -4  -7   0 79.1131 5.33067   1
  -4  -7   0 75.7453 5.88865   1
  -5  -7   0 21.0947  2.3219   1
  -5  -7   0 22.2556 1.85258   1
   9  -8   0 31.8338 3.03264   1
   8  -8   0  3.3903 1.82483   1
   7  -8   0 112.216 8.33604   1
   6  -8   0 190.341 12.5965   1
   5  -8   0 276.653 17.4235   1
  -5   8   0 299.188 17.4235   1
   4  -8   0 580.604 34.8621   1
  -4   8   0 655.441 33.9655   1
   3  -8   0  211.45 16.3629   1
  -3   8   0 286.989 15.1692   1
   2  -8   0  258.57 16.8468   1
   2  -8   0 87.4774 34.2814   1
   2  -8   0 272.761  14.779   1
   2  -8   0 244.683  14.779   1
   1  -8   0 178.374 13.0842   1
   1  -8   0 183.137 11.0038   1
   1  -8   0 160.538 11.0038   1
   0  -8   0  123.12 10.2814   1
   0  -8   0 107.692 8.16499   1
  -1  -8   0 35.0273 5.22682   1
  -1  -8   0 33.1832 3.99377   1
  -1  -8   0 33.4887 3.68823   1
  -2  -8   0  146.10 9.11572   1
  -2  -8   0  153.36 10.0219   1
  -3  -8   0 2.83068 1.41534   1
  -3  -8   0 2.53958 1.97746   1
  -4  -8   0 5.06415 0.96827   1
  -4  -8   0 5.30407 1.44812   1
   8  -9   0 122.654 7.54012   1
   7  -9   0 2.15154 2.15154   1
   6  -9   0 86.9382  7.3148   1
  -5   9   0 4.93996 2.32044   1
   4  -9   0 59.5732 6.78682   1
  -4   9   0 67.2397 5.60331   1
   3  -9   0 766.776 43.6084   1
  -3   9   0 796.435 42.4178   1
   2  -9   0 790.196 43.5251   1
   2  -9   0 814.039 43.8216   1
   2  -9   0 842.361 45.6109   1
   1  -9   0  254.31 15.3145   1
   1  -9   0 259.717 15.3145   1
   1  -9   0 269.027 17.4154   1
   0  -9   0 0.89941 2.70895   1
   0  -9   0-1.80953 1.80953   1
   0  -9   0 1.20992 2.10934   1
  -1  -9   0  754.00 41.2369   1
  -1  -9   0 806.205 42.1219   1
  -1  -9   0 746.583 41.5319   1
  -2  -9   0 24.8025 2.79103   1
  -2  -9   0 30.0976 3.34527   1
  -3  -9   0 44.0995 3.16727   1
  -3  -9   0 45.8043 3.40958   1
   8 -10   0  2.4049 1.34028   1
   7 -10   0 59.8981 4.79374   1
  -5  10   0 1155.17 61.1423   1
   4 -10   0 31.4943 4.29144   1
  -4  10   0 38.3688 3.72196   1
   3 -10   0 19.7343 4.06021   1
  -3  10   0 26.4017 3.19458   1
   2 -10   0 130.364 8.48127   1
   2 -10   0 123.347 9.64394   1
  -2  10   0 129.191 8.48127   1
   1 -10   0 5.54735 2.92402   1
   1 -10   0 4.96669 2.04267   1
   1 -10   0 9.63268 2.04267   1
   0 -10   0 32.9022 3.14999   1
   0 -10   0 31.1849 4.00354   1
  -1 -10   0 204.316 11.6097   1
  -1 -10   0 210.797 11.6097   1
  -2 -10   0 6.23901 1.20178   1
  -2 -10   0 5.27588 0.96313   1
   5 -11   0 85.1618 7.11869   1
   4 -11   0 272.118 15.2616   1
  -4  11   0 258.521   14.70   1
   3 -11   0  166.35 10.0704   1
  -3  11   0 147.342 9.22624   1
   2 -11   0 118.521 8.09159   1
  -2  11   0 117.957 7.24975   1
   1 -11   0 1.63712 1.63712   1
   1 -11   0 2.73175 1.36588   1
  -1  11   0 1.90835 1.09464   1
   0 -11   0 87.2081   5.159   1
   0 -11   0 88.2436 5.67215   1
   0  11   0 83.0754   5.159   1
   4 -12   0 18.2059 2.17197   1
   3 -12   0 2.14275 1.34279   1
  -3  12   0 3.48554 1.07614   1
   2 -12   0 7.82186 1.30519   1
  -2  12   0 9.38624   1.046   1
  -2  12  -1 2.11901 1.06421   1
   2 -12   1 4.51113 1.32791   1
   3 -12   1 189.088 10.8818   1
   4 -12   1 99.3357 6.33247   1
   0 -11   1 158.535 9.24499   1
   0 -11   1 160.919 8.98219   1
  -1  11  -1 30.8664 2.78539   1
   1 -11   1 30.8664 3.06195   1
   1 -11   1 36.7138 3.61508   1
  -2  11  -1 34.2786 3.11898   1
   2 -11   1 25.2135 2.83727   1
   2 -11   1 29.1776 3.68241   1
  -3  11  -1 18.9821 2.54638   1
   3 -11   1 18.4185 3.12007   1
   4 -11   1 5.61361 2.24345   1
   5 -11   1 89.4212 6.92167   1
  -2 -10   1 39.3602 2.72541   1
  -2 -10   1 41.8306 2.97157   1
  -1 -10   1 43.1402 3.31999   1
  -1 -10   1 44.8002 3.87005   1
   0 -10   1 96.8851 7.85331   1
   0 -10   1  103.87 6.69598   1
   0 -10   1 105.617 6.98532   1
   1 -10   1 115.395 7.67272   1
   1 -10   1 116.873 8.85717   1
   1 -10   1 116.873 7.67272   1
  -2  10  -1 116.013  7.6547   1
   2 -10   1 109.529  7.6547   1
   2 -10   1 111.296 8.83637   1
  -3  10  -1 566.856 30.3567   1
   3 -10   1 547.582  31.238   1
   3 -10   1 549.334 30.0664   1
   4 -10   1 80.1108  6.9181   1
   6 -10   1 1.37705 2.47089   1
   7 -10   1 88.7919 6.17351   1
  -3  -9   1  38.521 3.27268   1
  -3  -9   1 37.2603 2.77194   1
  -2  -9   1 77.8735  5.7035   1
  -2  -9   1 77.0124 5.13619   1
  -1  -9   1 441.173 23.1259   1
  -1  -9   1 379.604 22.2299   1
  -1  -9   1 376.905 21.9205   1
   0  -9   1 52.6335 4.84542   1
   0  -9   1 53.2459 6.34954   1
   0  -9   1 53.8475 5.44707   1
   1  -9   1 531.473 29.0616   1
   1  -9   1 509.903 30.5621   1
   1  -9   1 536.273 29.0616   1
   2  -9   1 17.2131  2.9725   1
   2  -9   1 16.3277 3.26764   1
   2  -9   1 11.2786 4.15306   1
  -3   9  -1 23.6431 3.25316   1
   3  -9   1 17.4306 4.42849   1
   3  -9   1  14.188 3.25316   1
   4  -9   1 1367.77 77.7086   1
   4  -9   1 1539.98 77.1232   1
   5  -9   1 106.094  9.8795   1
   6  -9   1 186.305 11.8615   1
   7  -9   1 209.337 12.7101   1
   8  -9   1 12.2707 2.08686   1
  -4  -8   1 3.24573 1.49871   1
  -4  -8   1 2.24363  1.0021   1
  -3  -8   1 68.8336 5.20797   1
  -3  -8   1 79.8247 5.78321   1
  -2  -8   1 222.473 13.4862   1
  -2  -8   1 217.879 12.8766   1
  -1  -8   1 52.6742 5.51431   1
  -1  -8   1 67.6836 7.35242   1
  -1  -8   1 52.6742 4.90524   1
   0  -8   1 237.747 16.4538   1
   0  -8   1  254.19 15.2535   1
   1  -8   1 364.538 20.7894   1
   1  -8   1 373.617 22.8382   1
   2  -8   1 633.206 37.5227   1
   2  -8   1 695.751  36.066   1
   2  -8   1 653.569 35.7768   1
  -3   8  -1 335.263 18.7739   1
   3  -8   1  313.27 19.9512   1
   4  -8   1 105.632 8.92949   1
   5  -8   1-2.68423 2.68423   1
   6  -8   1 172.461 11.6912   1
   7  -8   1   32.24 4.16573   1
   8  -8   1 40.2349 3.91585   1
   9  -8   1  32.417 3.04022   1
  -5  -7   1 11.5408  1.4426   1
  -5  -7   1 13.4614 1.92062   1
  -4  -7   1 5.17763 1.72588   1
  -4  -7   1 4.89169 2.29777   1
  -3  -7   1 125.049 8.37555   1
  -3  -7   1 144.599 9.62086   1
  -2  -7   1 349.742 21.0523   1
  -2  -7   1  362.44 20.1178   1
  -1  -7   1 6.84913 3.27659   1
  -1  -7   1 2.98064 1.78627   1
  -1  -7   1 3.27659 2.37817   1
   0   7  -1 8.28275 70.7937   1
   0   7  -1 9.13434 23.1248   1
   0   7  -1 8.28275  27.403   1
   0  -7   1 11.9933 29.6841   1
   0  -7   1 2.28105  12.561   1
   0  -7   1-19.6981 53.3766   1
  -1   7  -1 83.5998 27.5928   1
   1  -7   1 87.4993 38.4597   1
   1  -7   1 56.2941 15.3304   1
   1  -7   1 56.5712 15.3304   1
  -2   7  -1 245.899 38.5261   1
   2  -7   1 255.109 27.6404   1
   2  -7   1 210.168 49.1341   1
  -3   7  -1 1798.07 102.242   1
  -3   7  -1 1906.30 120.855   1
  -3   7  -1 1646.86 127.162   1
   3  -7   1 1674.63 134.892   1
  -4   7  -1 208.883 34.4708   1
   4  -7   1 115.603 28.8242   1
   4  -7   1 252.874 86.7786   1
   5  -7   1 558.646 31.4278   1
   6  -7   1 163.832  11.209   1
   7  -7   1    0.00 6.32511   1
   7  -7   1-0.85833 2.29911   1
   8  -7   1-2.65882 4.78023   1
   8  -7   1 1.06542 1.85741   1
   9  -7   1 10.9082 3.71531   1
   9  -7   1 10.9082  1.7344   1
  -6  -6   1 40.7285 2.90861   1
  -6  -6   1 41.1735 2.68609   1
  -5  -6   1-0.55389 1.39461   1
  -5  -6   1 2.22544  1.9485   1
  -4  -6   1  25.823 3.42538   1
  -4  -6   1 38.5742 4.98338   1
  -3  -6   1  159.07 10.3746   1
  -3  -6   1  177.63 11.9492   1
   2   6  -1  131.87 87.5157   1
   2   6  -1 115.989 45.5567   1
   2   6  -1  106.09 34.4656   1
  -2  -6   1 77.3187  26.078   1
  -2  -6   1 126.473  54.849   1
  -2  -6   1 74.3277 6.29066   1
  -2  -6   1 77.0207 7.19541   1
   1   6  -1 78.4841  35.166   1
   1   6  -1  56.825 28.6922   1
   1   6  -1 51.7599 62.7293   1
  -1  -6   1 52.3194 17.4431   1
  -1  -6   1 58.5134 34.8763   1
  -1  -6   1 99.2939 60.7612   1
   0   6  -1  465.82 56.4288   1
   0   6  -1 351.386 87.9913   1
   0   6  -1 572.533 64.4548   1
   0  -6   1  421.16 37.4419   1
   0  -6   1 477.323 71.9394   1
   0  -6   1 473.314  66.326   1
  -1   6  -1  168.87 32.1564   1
  -1   6  -1 171.488 35.0349   1
  -1   6  -1 171.748 78.6963   1
   1  -6   1 178.285 42.6214   1
   1  -6   1 158.414 36.0842   1
   1  -6   1  190.31 21.9607   1
  -2   6  -1 191.541 30.1646   1
   2  -6   1 168.781 19.5835   1
   2  -6   1 113.507 16.9335   1
   2  -6   1 185.188  45.247   1
   2  -6   1 93.1345 32.8052   1
   2  -6   1 55.0387 29.1028   1
  -3   6  -1  7.1893 8.57413   1
  -3   6  -1 1.65983 13.5536   1
  -3   6  -1 31.8019 19.6331   1
   3  -6   1 36.5063 21.0179   1
   3  -6   1 1.65983 22.4027   1
   3  -6   1 141.841 73.2877   1
  -4   6  -1 25.2825 17.0534   1
   4  -6   1 1.47246  22.348   1
   4  -6   1-56.7472 56.7472   1
   5  -6   1 347.811 51.3721   1
   5  -6   1 237.956 102.436   1
   6  -6   1 60.0108 10.3126   1
   6  -6   1 43.1376 5.00645   1
   7  -6   1 163.462 16.6793   1
   7  -6   1 150.061  10.418   1
   8  -6   1 48.5224 8.40476   1
   8  -6   1 47.1649 4.88112   1
   9  -6   1 14.7471 4.18228   1
   9  -6   1 17.6983 2.20901   1
   6   5  -1 10.4233 1.56442   1
  -6  -5   1 13.5521 1.82361   1
  -6  -5   1  17.727 2.86964   1
  -5  -5   1 15.5959 2.74774   1
  -5  -5   1 12.8482 1.83545   1
  -5  -5   1 22.6336 4.58319   1
  -4  -5   1 18.2352 2.87446   1
  -4  -5   1 22.3935 4.79455   1
   3   5  -1 164.313 43.6175   1
   3   5  -1 93.0718 48.5378   1
   3   5  -1 139.155 91.2389   1
  -3  -5   1 86.6241 70.9576   1
  -3  -5   1 125.638 9.52428   1
  -3  -5   1 150.828 12.5899   1
  -3  -5   1 202.399 36.8643   1
   2   5  -1 881.238 79.8877   1
   2   5  -1 740.799 68.2357   1
   2   5  -1 701.027 124.234   1
  -2  -5   1 585.315 95.8107   1
  -2  -5   1 655.257 58.8455   1
  -2  -5   1 861.337 75.0512   1
   1   5  -1 1484.76 113.248   1
   1   5  -1 1332.82 162.478   1
   1   5  -1 1745.47 118.524   1
  -1  -5   1 1470.27 122.209   1
  -1  -5   1 1383.64 113.781   1
  -1  -5   1 1342.56 87.7026   1
   0   5  -1  197.51 36.1677   1
   0   5  -1 201.257 75.5687   1
   0   5  -1  199.76 35.4148   1
   0  -5   1 203.002 21.9504   1
   0  -5   1 256.372 62.3524   1
   0  -5   1 162.095 40.1539   1
  -1   5  -1 2173.60 194.023   1
  -1   5  -1 2472.22 146.849   1
  -1   5  -1 2338.30 144.167   1
   1  -5   1 2310.71  156.38   1
   1  -5   1 2028.71 155.407   1
   1  -5   1 2465.14 129.742   1
   1  -5   1 2274.54 157.117   1
  -2   5  -1 1245.44  84.454   1
  -2   5  -1 1203.96 127.901   1
   2  -5   1 1282.17 73.7076   1
   2  -5   1 1307.41 81.9516   1
   2  -5   1 1220.96 95.9459   1
   2  -5   1 1324.90 119.435   1
  -3   5  -1 685.168 59.8736   1
  -3   5  -1 676.388  40.716   1
  -3   5  -1 676.123 50.2995   1
   3  -5   1 643.951 60.4123   1
   3  -5   1 547.085 55.0818   1
   3  -5   1 700.337 102.187   1
  -4   5  -1 319.611 31.2983   1
  -4   5  -1 347.719 34.7771   1
  -4   5  -1 282.807 20.2858   1
   4  -5   1 229.195 38.2558   1
   4  -5   1 304.544   84.91   1
  -5   5  -1 300.991 38.7162   1
   5  -5   1 195.755 33.4151   1
   5  -5   1 164.846 61.5179   1
  -6   5  -1 6.09407 2.56292   1
   6  -5   1 8.01911 2.88187   1
   6  -5   1 18.2822 7.70017   1
   7  -5   1 114.113 14.1089   1
   7  -5   1 95.4064 7.66999   1
   8  -5   1 86.1656 12.4271   1
   8  -5   1 106.881 7.17965   1
   9  -5   1 126.637 10.5169   1
   7   4  -1 3.76343 0.94294   1
  -7  -4   1 3.99708 1.41024   1
  -7  -4   1 1.87754 0.94294   1
  -6  -4   1 147.466 9.57944   1
  -6  -4   1  160.53 11.0334   1
  -6  -4   1 157.622 9.00199   1
  -5  -4   1 71.9414 8.34963   1
  -5  -4   1 56.2003 5.46376   1
  -5  -4   1 60.7059 4.81358   1
  -4  -4   1 1.27768 1.59427   1
  -4  -4   1-0.63319 3.50514   1
  -4  -4   1-0.63319 1.59427   1
   3   4  -1 241.522 44.8874   1
   3   4  -1 327.458 111.621   1
  -3  -4   1 240.641 49.9006   1
  -3  -4   1 162.381 61.1224   1
  -3  -4   1 164.447 31.0017   1
   2   4  -1 354.354 81.1974   1
   2   4  -1 459.988 54.0393   1
  -2  -4   1 209.692   55.93   1
  -2  -4   1 347.087 35.4946   1
  -2  -4   1 400.057 49.4747   1
   1   4  -1 1523.02 157.689   1
   1   4  -1 1681.45 117.108   1
   1   4  -1 1721.56 115.622   1
  -1  -4   1 1620.79 119.342   1
  -1  -4   1 1694.33 123.545   1
  -1  -4   1 1798.56 98.2909   1
   0   4  -1 35.7731 33.9048   1
   0   4  -1 32.0281 15.4286   1
   0   4  -1 24.7871  16.832   1
   0  -4   1-3.74505 12.6219   1
   0  -4   1 30.3922 19.1737   1
   0  -4   1 21.2745 8.65265   1
   0  -4   1 55.4118 32.5014   1
  -1   4  -1 1433.82 91.7027   1
  -1   4  -1 1563.78 93.9906   1
  -1   4  -1 1374.21 125.834   1
   1  -4   1 1450.33 80.6948   1
   1  -4   1 1327.45 105.226   1
   1  -4   1 1460.65 102.247   1
   1  -4   1 1428.32 99.7225   1
   1  -4   1 1313.01 82.9908   1
  -2   4  -1  352.32 55.9205   1
  -2   4  -1 370.068 32.4583   1
   2  -4   1 351.849 40.9915   1
   2  -4   1 360.592 54.2626   1
   2  -4   1 399.211  32.938   1
  -3   4  -1 478.214 103.989   1
  -3   4  -1 490.053 30.3695   1
  -3   4  -1 496.489 43.7624   1
  -3   4  -1 500.346 38.8714   1
   3  -4   1 488.764 43.7624   1
   3  -4   1 451.693 42.9853   1
   3  -4   1 490.565 73.6199   1
  -4   4  -1 914.411 63.2996   1
  -4   4  -1  835.07 50.1168   1
  -4   4  -1 839.942 65.0186   1
   4  -4   1 981.718 109.693   1
   4  -4   1 784.384 65.5882   1
   4  -4   1  906.68 71.5998   1
  -5   4  -1 712.434 60.0836   1
   5  -4   1 493.495 52.5313   1
   5  -4   1 711.809  104.75   1
   5  -4   1 590.379 66.6863   1
  -6   4  -1 68.0717 30.4388   1
   6  -4   1 -11.448  57.263   1
   6  -4   1 40.5734 4.57918   1
   6  -4   1 44.8272 10.4717   1
   6  -4   1  25.848 41.2359   1
   6  -4   1 46.7913 22.5821   1
  -7   4  -1 26.9603 4.38759   1
   7  -4   1 21.9491 7.52795   1
   7  -4   1 28.8423 3.76398   1
  -8   4  -1 42.7332 6.70559   1
   8  -4   1 58.6541 6.42784   1
   8  -4   1 58.0986 9.21522   1
   9  -4   1 10.1768 3.87974   1
  -7  -3   1 5.01108 1.32068   1
  -7  -3   1 7.38081 1.58294   1
  -7  -3   1  7.9147 2.36973   1
  -6  -3   1 16.8065 2.17821   1
  -6  -3   1 15.5681 2.79739   1
  -6  -3   1   12.45   4.666   1
  -5  -3   1 39.6086 6.87075   1
  -5  -3   1 33.7144 4.25498   1
  -5  -3   1  39.283 3.92947   1
   4   3  -1-59.9233 74.5882   1
   4   3  -1 -1.8733 34.0186   1
  -4  -3   1 24.6521 17.7908   1
  -4  -3   1-2.49403 25.5943   1
  -4  -3   1 15.9175 42.1325   1
   3   3  -1 845.682 119.688   1
   3   3  -1 987.208 81.6823   1
   3   3  -1 853.338 75.7291   1
  -3  -3   1 708.971 87.3534   1
  -3  -3   1 767.969 59.5619   1
  -3  -3   1 989.475 86.2252   1
   2   3  -1 2338.84 149.257   1
   2   3  -1 2077.23 191.071   1
  -2  -3   1 2333.19 155.925   1
  -2  -3   1 2103.65 144.902   1
  -2  -3   1 2391.68 151.316   1
  -2  -3   1 2430.41 130.026   1
   1   3  -1 102.822 21.9364   1
   1   3  -1 99.9912 45.0455   1
  -1  -3   1 86.5563 22.4055   1
  -1  -3   1 94.8065 13.6778   1
  -1  -3   1 66.2699 21.9364   1
  -1  -3   1 106.131 31.1331   1
   0   3  -1 1369.79 86.4364   1
   0   3  -1 1361.15 83.9962   1
   0   3  -1 1172.55 108.823   1
   0  -3   1 1346.51 90.2068   1
   0  -3   1 1337.43 91.5371   1
   0  -3   1 1468.62 75.3534   1
   0  -3   1 1181.87 86.8772   1
  -1   3  -1 1398.85  112.06   1
  -1   3  -1 1529.34 89.3229   1
   1  -3   1 1525.65 81.9467   1
   1  -3   1 1471.67 84.5492   1
   1  -3   1 1489.66  94.959   1
   1  -3   1 1389.75 101.896   1
   1  -3   1 1583.11 97.5615   1
  -2   3  -1 6758.37 435.638   1
  -2   3  -1 7744.83  403.09   1
  -2   3  -1 7585.51 414.699   1
  -2   3  -1 7489.68 408.782   1
   2  -3   1 7873.42 436.099   1
   2  -3   1 8531.23 410.827   1
   2  -3   1 7894.82 416.292   1
  -3   3  -1 403.455 25.5046   1
  -3   3  -1 420.117 36.8668   1
  -3   3  -1 379.968 32.5712   1
  -3   3  -1 398.657 62.8736   1
   3  -3   1 451.684 59.8425   1
   3  -3   1 432.995 35.8535   1
   3  -3   1 408.755 36.8668   1
  -4   3  -1 480.488 45.9679   1
  -4   3  -1 497.332 43.4023   1
  -4   3  -1 500.475 31.6898   1
   4  -3   1 620.116 81.3793   1
   4  -3   1 501.905 54.2529   1
   4  -3   1 505.617 44.2541   1
  -5   3  -1 194.485 34.2718   1
   5  -3   1 151.682 27.9269   1
   5  -3   1  112.97 39.0277   1
   5  -3   1 144.063 56.4849   1
  -6   3  -1 59.7845 33.8795   1
   6  -3   1 53.8037 10.9589   1
   6  -3   1 38.5273  46.832   1
   6  -3   1 4.64781 52.1522   1
   6  -3   1 33.2189 19.2636   1
  -7   3  -1 9.84167 3.49475   1
   7  -3   1 6.97823 5.71561   1
  -8   3  -1 46.6569 5.03085   1
   8  -3   1  43.303 7.81916   1
   9  -3   1 14.9782 3.80787   1
  -8  -2   1 0.45873 0.92565   1
  -8  -2   1-0.92565 1.15501   1
  -7  -2   1 432.282 24.3497   1
  -7  -2   1  440.88 25.4996   1
  -7  -2   1 448.898 23.7799   1
  -6  -2   1  5.1998 2.59413   1
  -6  -2   1 8.76241 1.94848   1
  -6  -2   1 4.86544 4.54262   1
   5   2  -1 14.7727 24.9515   1
   5   2  -1-3.94094 123.766   1
   5   2  -1 13.7933  48.259   1
  -5  -2   1 19.0401 32.5069   1
   4   2  -1 606.708 53.7224   1
   4   2  -1 592.052 128.496   1
   4   2  -1 617.699 76.9089   1
  -4  -2   1  540.78 72.9415   1
  -4  -2   1  451.08 65.6246   1
  -4  -2   1 495.306 43.0343   1
   3   2  -1 2.19427 5.21749   1
   3   2  -1 10.7081 11.8101   1
   3   2  -1 29.9299 20.5969   1
  -3  -2   1 7.41177 15.9255   1
  -3  -2   1 5.21749 14.8235   1
  -3  -2   1 18.6757 7.41177   1
   2   2  -1 1604.24 102.118   1
   2   2  -1 1721.98 115.541   1
  -2  -2   1 1719.26 117.032   1
  -2  -2   1 1815.66 118.276   1
  -2  -2   1 1994.28 99.6387   1
   1   2  -1 414.907 60.0646   1
   1   2  -1 535.264 43.3325   1
  -1  -2   1 459.379 43.3325   1
  -1  -2   1 485.516 43.3325   1
  -1  -2   1 468.784 43.0963   1
  -1  -2   1 523.572 31.6404   1
   0   2  -1 602.571 42.6314   1
   0   2  -1 554.178 55.2142   1
   0  -2   1 644.779 35.1742   1
   0  -2   1 618.553 46.0459   1
   0  -2   1 562.491 45.8339   1
   0  -2   1 558.229 44.3425   1
  -1   2  -1 193.819 26.5932   1
  -1   2  -1 185.097 16.6244   1
   1  -2   1 232.882 17.8641   1
   1  -2   1 205.868 13.9164   1
   1  -2   1 232.048 23.2727   1
   1  -2   1 202.135 22.8521   1
   1  -2   1 200.261 28.0468   1
  -2   2  -1 6857.15 354.859   1
  -2   2  -1 7028.54 364.284   1
  -2   2  -1 6574.30 359.121   1
  -2   2  -1 6581.48  388.29   1
   2  -2   1 7633.07 361.814   1
   2  -2   1 6885.41 382.004   1
   2  -2   1 6033.69 360.021   1
   2  -2   1 6757.56 361.368   1
  -3   2  -1 961.527 65.9973   1
  -3   2  -1 1041.17 58.1574   1
  -3   2  -1 1073.04 105.188   1
  -3   2  -1 1094.78 71.0533   1
   3  -2   1 1031.31 91.0258   1
   3  -2   1 993.893 69.0327   1
   3  -2   1 1139.76  67.515   1
  -4   2  -1 2046.31 179.034   1
  -4   2  -1 1739.75 101.617   1
  -4   2  -1 1797.04 117.741   1
  -4   2  -1 1684.77 119.182   1
   4  -2   1 1919.07 112.557   1
   4  -2   1 1787.83 119.755   1
   4  -2   1 1944.41 151.102   1
  -5   2  -1 40.1182   24.39   1
   5  -2   1 14.4403 13.1524   1
   5  -2   1 9.31152  36.585   1
   5  -2   1 2.24525 23.4213   1
  -6   2  -1 145.873 50.3075   1
   6  -2   1 78.4745 11.7313   1
   6  -2   1 36.2181 48.6282   1
  -7   2  -1 0.63201 1.27531   1
  -7   2  -1-2.22333 2.53934   1
   7  -2   1-1.27531 4.76267   1
  -8   2  -1 6.06036 1.38047   1
  -8   2  -1 5.78622 2.76094   1
   8  -2   1 6.06036 4.41554   1
   9  -2   1    0.00 2.30641   1
  -8  -1   1 26.8857 3.51575   1
  -8  -1   1 29.3931  2.7662   1
  -8  -1   1 25.6275 2.51635   1
  -7  -1   1-0.30151 1.21682   1
  -7  -1   1-1.81985 1.81985   1
  -7  -1   1 4.24273 3.33819   1
  -6  -1   1 1.99554 3.99108   1
  -6  -1   1  1.3343 1.99554   1
  -6  -1   1 1.99554 1.66492   1
   5   1  -1  88.678 26.8358   1
   5   1  -1  134.83 95.2329   1
   5   1  -1  120.43 49.4179   1
  -5  -1   1 143.663 49.0925   1
   4   1  -1 370.448 41.0592   1
  -4  -1   1 344.974 27.8802   1
  -4  -1   1 296.111 56.3459   1
  -4  -1   1  303.01 51.5555   1
   3   1  -1 244.803 28.7583   1
   3   1  -1 234.858  34.132   1
  -3  -1   1 241.844 43.2663   1
  -3  -1   1  323.28  77.131   1
  -3  -1   1 202.072 33.3207   1
  -3  -1   1 237.282 37.0908   1
  -3  -1   1 249.642 20.4257   1
   2   1  -1 1439.77 88.8185   1
   2   1  -1 1328.47 92.4856   1
  -2  -1   1 1567.98 99.0899   1
  -2  -1   1 1494.33 100.315   1
  -2  -1   1 1673.17 83.4309   1
  -2  -1   1 1553.06 136.995   1
  -2  -1   1 1551.10 96.8914   1
   1   1  -1 3824.68 238.384   1
   1   1  -1 4244.37 235.404   1
  -1  -1   1 5044.58 244.115   1
  -1  -1   1 4375.73 240.908   1
  -1  -1   1 4698.22 233.116   1
  -1  -1   1 4172.42 268.418   1
  -1  -1   1 4658.12 244.115   1
   0  -1   1 2087.80 112.254   1
   0  -1   1 2034.80 108.274   1
   0  -1   1 1915.84 112.046   1
   0  -1   1 2044.86 116.651   1
   0  -1   1 2060.78 107.225   1
  -1   1  -1 8793.96  443.74   1
  -1   1  -1 8192.14  445.19   1
  -1   1  -1 8213.27 455.756   1
  -1   1  -1 8579.96 448.714   1
   1  -1   1 9162.28 447.059   1
   1  -1   1 8572.71 446.639   1
   1  -1   1 8122.75 457.205   1
   1  -1   1 8519.47 447.059   1
  -2   1  -1 92.1455 36.9021   1
  -2   1  -1 48.5923 11.0063   1
  -2   1  -1 56.1551 6.87896   1
  -2   1  -1   76.10 15.8175   1
   2  -1   1 79.3075 23.1524   1
   2  -1   1 56.1551  12.146   1
  -3   1  -1 532.779  32.273   1
  -3   1  -1  586.47 79.7656   1
  -3   1  -1 564.273 45.9523   1
  -3   1  -1 519.357 43.1101   1
   3  -1   1 467.463 39.7544   1
   3  -1   1 494.308 37.6915   1
   3  -1   1 528.901 58.8615   1
  -4   1  -1 205.377 64.4592   1
  -4   1  -1  141.24 35.1643   1
  -4   1  -1 176.956 19.3357   1
  -4   1  -1 203.618 49.5152   1
  -4   1  -1 166.112 33.4056   1
   4  -1   1 186.041 46.2995   1
   4  -1   1  187.80 28.7121   1
   4  -1   1 171.097 24.3205   1
  -5   1  -1 64.3631 11.7066   1
  -5   1  -1 122.873 41.9313   1
  -5   1  -1 65.3329 20.1575   1
   5  -1   1 54.6076 22.7551   1
  -6   1  -1 69.3071 7.74327   1
  -6   1  -1 74.6963 5.38922   1
   6  -1   1  70.992 10.4319   1
  -7   1  -1 16.6419 2.19735   1
  -7   1  -1 16.3296  4.3947   1
   7  -1   1 15.7049 5.65511   1
  -8   1  -1  104.90 8.29732   1
  -8   1  -1 128.186 6.95721   1
   8  -1   1 111.591 10.7019   1
   9  -1   1    0.00  0.6547   1
   9   0  -1 36.5572 2.38183   1
  -8   0   1 440.784 24.0302   1
  -8   0   1 440.784 23.7647   1
   7   0  -1 22.9587 6.60273   1
  -7   0   1 18.8697 2.51373   1
  -7   0   1 17.3056 5.03863   1
  -7   0   1 18.2441 3.15054   1
  -6   0   1 2.35697 2.35697   1
  -6   0   1  -1.005 1.35197   1
  -6   0   1-3.37394 5.04894   1
  -6   0   1 3.02697 3.70894   1
   5   0  -1 311.916 45.6361   1
  -5   0   1 279.975  56.391   1
   4   0  -1 143.631  27.241   1
   4   0  -1 100.098 36.7175   1
   4   0  -1 92.1041  19.542   1
  -4   0   1 134.743 37.0226   1
  -4   0   1 153.076 47.3826   1
  -4   0   1 77.8841 23.3915   1
  -4   0   1 93.5871 13.0315   1
  -4   0   1 260.283 107.208   1
   3   0  -1 530.967 42.4385   1
   3   0  -1  499.40 36.0704   1
   3   0  -1 485.872  51.727   1
  -3   0   1 600.197 93.8923   1
  -3   0   1 523.007 48.5429   1
  -3   0   1 485.344 44.2944   1
  -3   0   1 412.667 49.3342   1
  -3   0   1 536.808  32.095   1
   2   0  -110691.90 604.417   1
   2   0  -111754.80 591.307   1
   2   0  -111373.00 594.705   1
  -2   0   110880.80 602.235   1
  -2   0   112240.20 597.862   1
  -2   0   111495.40 648.836   1
  -2   0   110364.30 594.463   1
   1   0  -1 295.122 25.5113   1
   1   0  -1 294.183 19.1938   1
   1   0  -1 286.693 17.0824   1
   1   0  -1 309.868 21.2969   1
  -1   0   1 315.721 21.7707   1
  -1   0   1 326.718 24.8131   1
  -1   0   1 316.652 20.3658   1
  -1   0   1 324.615 41.8955   1
   0   0  -1 2479.61 125.838   1
   0   0  -1 2641.18 126.291   1
   0   0  -1 2544.02 123.785   1
   0   0   1 2501.46  133.80   1
   0   0   1 2232.69 126.064   1
   0   0   1 2230.42 125.151   1
   0   0   1 2287.09 130.841   1
   0   0   1 2100.94 125.612   1
  -1   0  -1 155.017 15.0636   1
  -1   0  -1 137.743 13.9545   1
  -1   0  -1 165.872 9.96635   1
  -1   0  -1 165.644 14.6152   1
   1   0   1 115.372 11.2957   1
   1   0   1 134.416  13.514   1
   1   0   1 143.721 19.2719   1
  -2   0  -116212.40 890.519   1
  -2   0  -114232.70 852.511   1
  -2   0  -116128.80 848.919   1
  -2   0  -117023.30 839.358   1
  -2   0  -117754.20 852.265   1
   2   0   115472.30 857.292   1
   2   0   115977.90 846.533   1
  -3   0  -1 2309.19  135.79   1
  -3   0  -1 1886.88 114.244   1
  -3   0  -1 1943.60 130.758   1
   3   0   1 2119.60 124.894   1
   3   0   1 2192.84 142.183   1
  -4   0  -1 253.431 42.5901   1
  -4   0  -1 224.029 42.5901   1
  -4   0  -1 167.346 20.0913   1
   4   0   1 228.536 32.9919   1
   4   0   1 188.939 42.2918   1
   4   0   1 203.033 84.8819   1
  -5   0  -1 1033.41 102.693   1
  -5   0  -1 1209.46 115.855   1
  -5   0  -1 1291.42 79.9801   1
   5   0   1 1584.31 174.081   1
   5   0   1 1454.99 101.699   1
   5   0   1 1257.84 106.644   1
  -6   0  -1 12.7228  4.3519   1
  -6   0  -1 10.7133 2.00948   1
   6   0   1 7.36018 6.02845   1
  -7   0  -1 88.9613 8.87007   1
  -7   0  -1 94.1508 6.11242   1
  -8   0  -1  28.294 3.82083   1
   9  -1  -1-0.22831 2.75597   1
   8  -1  -1 73.6654 8.89473   1
  -8   1   1 76.9923 5.55797   1
  -8   1   1 75.0475 5.00514   1
   7  -1  -1    0.00 4.49837   1
  -7   1   1 0.63936 2.24918   1
  -7   1   1    0.00 1.29014   1
   6  -1  -1 270.874 49.5048   1
  -6   1   1 312.238  62.727   1
   5  -1  -1 52.3358  20.805   1
   5  -1  -1 42.5913 19.8352   1
   5  -1  -1 54.6102 41.2867   1
  -5   1   1  112.80 37.3843   1
  -5   1   1 107.604 45.1891   1
  -5   1   1 123.537 87.7689   1
   4  -1  -1 298.845 31.1863   1
   4  -1  -1 295.617 32.0639   1
   4  -1  -1  276.79  54.422   1
  -4   1   1 376.514 91.1978   1
  -4   1   1 292.671 48.5399   1
  -4   1   1 269.143 33.2445   1
  -4   1   1 287.081 38.5415   1
   3  -1  -1 258.691 27.3417   1
   3  -1  -1 255.535 41.2834   1
   3  -1  -1 277.358 24.9792   1
  -3   1   1 209.527 24.1855   1
  -3   1   1 235.822 26.8188   1
  -3   1   1  208.21 33.3928   1
  -3   1   1 224.253 63.1064   1
   2  -1  -1 160.067 30.1988   1
   2  -1  -1 143.291 17.9763   1
   2  -1  -1 189.066  17.738   1
  -2   1   1  154.79 17.2528   1
  -2   1   1 168.689 15.8144   1
  -2   1   1 155.752  42.183   1
  -2   1   1 154.552 22.7683   1
   1  -1  -1 4303.98 242.351   1
   1  -1  -1 4780.96 233.041   1
  -1   1   1 4174.98 257.575   1
  -1   1   1 4294.89 232.356   1
  -1   1   1 4412.33 236.672   1
   0  -1  -1 3772.61 194.585   1
   0  -1  -1 3732.87 189.165   1
   0  -1  -1 3763.81 197.071   1
   0  -1  -1 3630.40 192.781   1
   0   1   1 3705.13 214.454   1
   0   1   1 3081.61  194.81   1
  -1  -1  -1 9204.65 480.392   1
  -1  -1  -1 9784.38 481.085   1
  -1  -1  -1 9030.84 480.854   1
  -1  -1  -1 9987.67 470.179   1
   1   1   1 7954.03 479.461   1
   1   1   1 9178.89 510.331   1
   1   1   1 8687.38 474.358   1
   1   1   1 8244.10 473.427   1
  -2  -1  -1 7023.49 378.663   1
  -2  -1  -1 7353.60 395.341   1
  -2  -1  -1 8112.93  397.33   1
   2   1   1 7476.10 437.672   1
   2   1   1 7229.37 385.879   1
   2   1   1 6745.14 389.619   1
   2   1   1 6637.33  394.35   1
  -3  -1  -1 812.085 75.8382   1
  -3  -1  -1 1050.33 78.8745   1
  -3  -1  -1 780.919 54.8781   1
   3   1   1 830.009 76.1124   1
   3   1   1 849.862 114.448   1
   3   1   1 970.079 65.3582   1
  -4  -1  -1 81.8866 32.0112   1
  -4  -1  -1 115.745 18.1594   1
  -4  -1  -1 95.4323 35.0942   1
   4   1   1 84.9587 70.8007   1
   4   1   1 160.657 41.8616   1
   4   1   1 106.201 25.2438   1
  -5  -1  -1 1065.46 108.943   1
  -5  -1  -1 1034.90 111.267   1
  -5  -1  -1 1185.66 78.0588   1
   5   1   1 1272.36  112.93   1
   5   1   1 1330.82 95.9898   1
   5   1   1 1268.04 175.677   1
  -6  -1  -1 11.8581 4.93503   1
  -6  -1  -1 10.2092 1.97635   1
  -7  -1  -1 288.814 18.1105   1
  -7  -1  -1 284.437 15.7663   1
  -8  -1  -1 4.27887 2.13521   1
   8   1   1 15.2081 1.42629   1
   9  -2  -1 15.2945 4.06552   1
  -9   2   1  17.688 1.90969   1
   8  -2  -1 146.984 13.9369   1
  -8   2   1 163.193 9.38215   1
  -7   2   1 303.975 18.4943   1
  -7   2   1 317.607 17.5149   1
   6  -2  -1 11.2003 32.9257   1
   6  -2  -1  35.988 58.3886   1
   6  -2  -1  53.976 38.0255   1
  -6   2   1 133.065  44.126   1
   5  -2  -1 902.693 80.8325   1
   5  -2  -1 842.314 69.7989   1
   5  -2  -1 1027.35 114.591   1
  -5   2   1 838.417 88.6264   1
  -5   2   1 1097.79 159.394   1
  -5   2   1 958.853  81.801   1
   4  -2  -1 497.575 45.2379   1
   4  -2  -1  577.18 75.4939   1
   4  -2  -1 546.924 52.2907   1
  -4   2   1 538.995 48.7643   1
  -4   2   1 523.126 58.7488   1
  -4   2   1 614.488 108.692   1
   3  -2  -1 438.858 55.6154   1
   3  -2  -1 425.739 34.1016   1
   3  -2  -1 409.732 36.2073   1
  -3   2   1 402.129 33.3189   1
  -3   2   1 379.851 31.7443   1
  -3   2   1  336.04 39.6175   1
  -3   2   1 373.552 72.1444   1
   2  -2  -1 3639.14 206.172   1
   2  -2  -1 3777.13 183.288   1
   2  -2  -1 3302.10 181.858   1
  -2   2   1 3034.91 185.904   1
  -2   2   1 3279.46 180.901   1
  -2   2   1 3237.50 179.944   1
  -2   2   1 3065.42 220.945   1
   1  -2  -1 8.82201 5.20643   1
   1  -2  -1-1.80779 13.1205   1
   1  -2  -1 3.62361 8.37208   1
   1  -2  -1 3.39061 14.0284   1
   1  -2  -1 2.94067 4.07355   1
  -1   2   1 0.67491  18.327   1
  -1   2   1 1.35785 5.88134   1
  -1   2   1 5.20643 9.27195   1
   0  -2  -1 1169.03 61.7847   1
   0  -2  -1 1080.02 72.3179   1
   0  -2  -1 1078.18 65.9053   1
   0  -2  -1 1168.35 77.5763   1
   0   2   1 1047.29 72.3179   1
   0   2   1 1090.08 97.0252   1
  -1  -2  -1 1825.66 95.1109   1
  -1  -2  -1 1820.37 111.685   1
  -1  -2  -1 1684.94 109.041   1
  -1  -2  -1 1843.19 114.807   1
   1   2   1 1516.60 108.802   1
   1   2   1 1713.75 144.321   1
  -2  -2  -1 64.0553 24.3788   1
  -2  -2  -1 137.671  32.152   1
  -2  -2  -1  85.054 23.3381   1
  -2  -2  -1 92.5786 12.9676   1
   2   2   1 86.3526 24.3788   1
   2   2   1 136.639 57.3136   1
   2   2   1 116.174 18.9265   1
  -3  -2  -1 216.834  24.347   1
  -3  -2  -1 216.254 51.5631   1
  -3  -2  -1 310.793 44.9804   1
   3   2   1 215.684 44.6853   1
   3   2   1  244.62 77.9246   1
   3   2   1 260.085 30.9399   1
  -4  -2  -1 1309.62 114.047   1
  -4  -2  -1 1164.62 80.8708   1
  -4  -2  -1 1169.36 116.257   1
   4   2   1 1262.55 90.9797   1
   4   2   1 1261.92 113.408   1
   4   2   1 1445.12 182.565   1
  -5  -2  -1 108.433 9.98209   1
  -5  -2  -1 105.444 6.98156   1
  -5  -2  -1 90.8075  7.6549   1
  -6  -2  -1 239.116 14.6457   1
  -6  -2  -1  255.99 16.8737   1
  -6  -2  -1 250.584 14.3291   1
  -7  -2  -1 0.81355 1.09442   1
  -7  -2  -1-2.45034 2.45034   1
  -8  -2  -1 3.67648 1.29713   1
   8   2   1 4.97361 0.86731   1
   9  -3  -1 19.5873 4.65122   1
   8  -3  -1 5.72909 5.15923   1
   7  -3  -1 78.9839 6.79468   1
  -7   3   1 94.8496  7.1166   1
   6  -3  -1 13.8521  44.281   1
   6  -3  -1 58.1331 53.4037   1
   6  -3  -1 28.0522  16.901   1
  -6   3   1 43.5968   27.38   1
   5  -3  -1 643.954 72.0293   1
   5  -3  -1 745.839 65.2078   1
   5  -3  -1 896.996  111.61   1
  -5   3   1 948.261 145.349   1
  -5   3   1 856.113 71.3725   1
  -5   3   1 671.862 77.8714   1
   4  -3  -1-4.13294 18.6087   1
   4  -3  -1-8.86379 31.0075   1
   4  -3  -1 2.65389 11.8114   1
  -4   3   1 1.77276 11.8114   1
  -4   3   1 8.57008 46.6686   1
  -4   3   1 7.09103 15.9443   1
   3  -3  -1-2.12152 9.82501   1
   3  -3  -1-2.38554  10.089   1
   3  -3  -1  4.7805 5.30852   1
  -3   3   1 1.32949 6.63801   1
  -3   3   1 10.8811 36.1036   1
  -3   3   1 2.65898 7.16604   1
  -3   3   1   3.187 14.6055   1
   2  -3  -1 5533.24 271.234   1
   2  -3  -1 4610.87 280.003   1
   2  -3  -1 5390.45  299.01   1
  -2   3   1 4859.19 268.793   1
  -2   3   1 5061.70 276.592   1
  -2   3   1 4349.63 312.418   1
   1  -3  -1 2956.35 176.712   1
   1  -3  -1 2712.98 168.735   1
   1  -3  -1 2831.74  157.94   1
   1  -3  -1 2960.11 175.779   1
  -1   3   1 2957.05 168.502   1
  -1   3   1 2850.76 208.872   1
  -1   3   1 2885.72 163.567   1
   0  -3  -1  174.76 32.6638   1
   0  -3  -1 172.618 21.2226   1
   0  -3  -1 207.187 17.8859   1
   0  -3  -1 217.205 37.1946   1
   0   3   1  185.49 27.6588   1
   0   3   1 175.954 26.9474   1
   0   3   1 213.149 51.2696   1
  -1  -3  -1 39.1825 28.1379   1
  -1  -3  -1 60.2904  23.365   1
  -1  -3  -1 55.7673 11.5531   1
   1   3   1 74.1006 47.9789   1
   1   3   1 47.4794 18.3333   1
  -2  -3  -1 191.013 38.3165   1
  -2  -3  -1 54.0774 39.4071   1
  -2  -3  -1 128.809 31.5218   1
  -2  -3  -1 114.409 16.8515   1
   2   3   1 133.973 40.2178   1
   2   3   1 177.974 25.5475   1
  -3  -3  -1 115.148 20.2898   1
  -3  -3  -1 132.461 37.2951   1
  -3  -3  -1 69.2078 31.0227   1
   3   3   1 88.6075 84.7297   1
   3   3   1 87.1136 42.9635   1
  -4  -3  -1 108.757 46.1434   1
  -4  -3  -1 91.9774  40.344   1
  -4  -3  -1 84.5505 23.8855   1
   4   3   1 79.3929 118.109   1
   4   3   1 74.2238 52.2753   1
  -5  -3  -1 19.0354 4.91913   1
  -5  -3  -1 10.8291 2.62276   1
  -5  -3  -1 10.8291 2.29637   1
  -6  -3  -1 249.279 16.5445   1
  -6  -3  -1 252.889 14.1307   1
  -6  -3  -1 251.084 14.7395   1
  -7  -3  -1 2.22583 1.97949   1
   7   3   1 5.19947 1.24048   1
   9  -4  -1  176.23 13.6184   1
   8  -4  -1 599.319 37.6067   1
   8  -4  -1  586.50 32.1938   1
   7  -4  -1 123.264 15.6519   1
   7  -4  -1 128.379 9.26636   1
  -7   4   1 137.963 9.90151   1
   6  -4  -1 194.487   75.20   1
   6  -4  -1 320.837 42.4491   1
  -6   4   1 470.905 56.1477   1
   5  -4  -1 410.955 59.3179   1
   5  -4  -1 554.179 94.9686   1
   5  -4  -1 584.972 56.3941   1
  -5   4   1 665.678 57.0502   1
   4  -4  -1 60.1039 17.0466   1
   4  -4  -1 25.4159 20.3391   1
   4  -4  -1 31.3955 20.0311   1
  -4   4   1 16.4518 22.7288   1
  -4   4   1 46.9552 18.5442   1
  -4   4   1 67.5811 61.8989   1
   3  -4  -1  51.573 38.2001   1
   3  -4  -1 42.0181 23.1894   1
   3  -4  -1 66.3026 20.4664   1
  -3   4   1 59.7518 14.7296   1
  -3   4   1 55.9337  15.282   1
  -3   4   1 69.3067 22.9181   1
  -3   4   1 71.2157 51.8443   1
   2  -4  -1 1703.35 93.4285   1
   2  -4  -1 1805.18 112.008   1
   2  -4  -1 1590.09 119.385   1
   2  -4  -1 1828.85 134.384   1
   2  -4  -1 1654.47  102.84   1
  -2   4   1 1687.06 103.093   1
  -2   4   1 1722.95 112.514   1
  -2   4   1 1510.67  151.95   1
   1  -4  -1 5822.21 338.596   1
   1  -4  -1 6034.13 346.775   1
   1  -4  -1 5736.44 336.615   1
   1  -4  -1 6154.33 314.799   1
  -1   4   1 5948.85 326.702   1
  -1   4   1 6032.40  332.90   1
  -1   4   1 5456.84 389.889   1
   0  -4  -1 1788.71 132.926   1
   0  -4  -1 1976.89 144.278   1
   0  -4  -1 2078.05 111.504   1
   0   4   1 1935.52  126.87   1
   0   4   1 1961.75 131.663   1
   0   4   1 1744.32 174.043   1
  -1  -4  -1 185.917 20.7172   1
  -1  -4  -1 146.067 55.2552   1
  -1  -4  -1 106.784 34.0003   1
   1   4   1 191.228 35.8588   1
   1   4   1 111.303 34.8022   1
   1   4   1 290.578 97.2178   1
  -2  -4  -1 1350.19 113.647   1
  -2  -4  -1 1059.66 99.3319   1
  -2  -4  -1 1025.30 73.5686   1
   2   4   1 1137.81 93.6078   1
   2   4   1 1384.83 160.283   1
  -3  -4  -1 193.682  56.723   1
  -3  -4  -1 315.494 34.0911   1
   3   4   1 281.392 115.604   1
   3   4   1 277.054 56.4148   1
  -4  -4  -1 15.6254 4.87715   1
  -4  -4  -1  17.567 3.25914   1
  -4  -4  -1  11.719 2.27677   1
  -5  -4  -1 68.8947 5.06216   1
  -5  -4  -1 60.9928 5.69072   1
  -5  -4  -1 55.9419 7.58763   1
  -6  -4  -1 34.1337 4.40972   1
  -6  -4  -1 31.1124 3.30484   1
   6   4   1 37.1648 3.03107   1
  -7  -4  -1 6.54636 1.52619   1
   7   4   1 9.81567 1.09235   1
   9  -5  -1  41.182 6.44955   1
   9  -5  -1 29.5252 3.22477   1
   8  -5  -1  154.58 15.4083   1
   8  -5  -1 161.295  10.365   1
   6  -5  -1  76.042  6.8801   1
   5  -5  -1 145.888 55.1938   1
   5  -5  -1 151.367 24.8515   1
  -5   5   1 230.736 35.8215   1
   4  -5  -1 452.894  51.947   1
   4  -5  -1 581.052 103.894   1
  -4   5   1 697.396 176.156   1
  -4   5   1 495.692 73.8155   1
  -4   5   1 602.618 49.2067   1
   3  -5  -1 900.443 84.2866   1
   3  -5  -1 722.829 66.7482   1
   3  -5  -1 1063.89  112.00   1
  -3   5   1 998.843 77.4962   1
  -3   5   1  973.70 66.7482   1
  -3   5   1 932.406  125.29   1
  -3   5   1 904.692 66.1857   1
   2  -5  -1 3657.03 200.446   1
   2  -5  -1 3719.02 238.019   1
   2  -5  -1 3869.58 249.829   1
   2  -5  -1 4012.33 229.431   1
   2  -5  -1 3134.28 206.623   1
  -2   5   1 3796.31 214.133   1
  -2   5   1 4084.25 228.898   1
  -2   5   1 3412.03 287.935   1
   1  -5  -1 3084.65 163.489   1
   1  -5  -1 2803.01 191.712   1
   1  -5  -1 2839.40 202.259   1
  -1   5   1 2723.38 251.323   1
  -1   5   1 3120.26 187.759   1
  -1   5   1 2862.35 176.678   1
   0  -5  -1 23.1144  22.847   1
   0  -5  -1 26.8856 54.3059   1
   0  -5  -1 26.8856 11.2946   1
   0   5   1 41.3977 26.8856   1
   0   5   1 47.3171 25.5394   1
   0   5   1 30.1126 50.5346   1
  -1  -5  -1 2053.92 162.782   1
  -1  -5  -1 1632.69 112.586   1
  -1  -5  -1 1539.32 144.724   1
   1   5   1 1827.09 204.539   1
   1   5   1 1953.19 141.898   1
   1   5   1 2011.31 140.515   1
  -2  -5  -1 745.296 84.8542   1
  -2  -5  -1 810.561 61.0865   1
  -2  -5  -1 987.195   95.99   1
   2   5   1  939.05 91.7794   1
   2   5   1 847.869 143.835   1
  -3  -5  -1 175.818 13.0328   1
  -3  -5  -1 168.183 10.8079   1
  -4  -5  -1 71.3377 7.99836   1
  -4  -5  -1 63.6574 5.76019   1
  -5  -5  -1 37.0153 3.81837   1
  -5  -5  -1 42.5968 5.28938   1
   5   5   1 30.8391 3.23414   1
  -6  -5  -1-0.72462 1.45787   1
  -6  -5  -1 0.72462 0.72462   1
   6   5   1 0.24154 0.72462   1
   9  -6  -1 92.8716 9.90372   1
   9  -6  -1 101.289  6.4383   1
   8  -6  -1-0.54335 1.91142   1
   8  -6  -1  1.0964 4.91923   1
   7  -6  -1 138.466 15.9505   1
   7  -6  -1  125.22 9.33298   1
   6  -6  -1  305.28 23.8806   1
   6  -6  -1 298.281 17.5147   1
  -6   6   1 271.857 16.8702   1
   5  -6  -1-48.5024 73.7056   1
   5  -6  -1 62.8605  30.314   1
  -5   6   1 55.5172 22.6534   1
   4  -6  -1 222.558 70.0986   1
   4  -6  -1 24.2834 16.5966   1
   3  -6  -1 358.947 58.2664   1
   3  -6  -1 233.336 34.2548   1
   3  -6  -1 139.671 55.9266   1
  -3   6   1  321.76 48.6056   1
  -3   6   1 303.021 86.6665   1
  -3   6   1 349.869 38.0609   1
   2  -6  -1 506.645 66.1322   1
   2  -6  -1 537.167  40.127   1
   2  -6  -1 498.455 73.4791   1
  -2   6   1 591.998 65.8512   1
  -2   6   1  548.76 50.0232   1
  -2   6   1 489.412 104.563   1
   1  -6  -1 433.089 72.5679   1
   1  -6  -1 457.179 39.2243   1
   1  -6  -1 458.582 66.1201   1
  -1   6   1 486.602 45.9507   1
  -1   6   1 464.741 108.429   1
  -1   6   1 582.692 64.9957   1
   0  -6  -1 49.1627 46.8787   1
   0  -6  -1 54.3094 16.8613   1
   0  -6  -1 61.4559 37.1537   1
   0   6   1 105.188 40.3006   1
   0   6   1 89.7476 35.4382   1
   0   6   1 102.893 81.1799   1
  -1  -6  -1  586.73 88.7664   1
  -1  -6  -1 782.691 116.165   1
  -1  -6  -1 620.096  55.401   1
   1   6   1 682.944 136.128   1
   1   6   1 806.821 89.3588   1
   1   6   1 748.141 79.5312   1
  -2  -6  -1 253.326 16.2029   1
  -2  -6  -1 239.303 14.6424   1
  -3  -6  -1 192.003 11.7466   1
  -3  -6  -1 182.477 13.0091   1
  -4  -6  -1 1.81437 3.02753   1
  -4  -6  -1-0.30061 1.51377   1
  -5  -6  -1 196.232  12.279   1
  -5  -6  -1 213.737 11.7593   1
   9  -7  -1 4.46654 3.47104   1
   9  -7  -1 3.71771 1.48885   1
   8  -7  -1 29.4939 7.17293   1
   8  -7  -1 26.8418 3.45433   1
   7  -7  -1  84.631 6.93461   1
   6  -7  -1 15.0123 3.67692   1
  -6   7   1 19.9076 3.37232   1
   5  -7  -1 262.744 15.9165   1
  -5   7   1 253.068 15.2958   1
   4  -7  -1 295.798 61.5626   1
  -4   7   1 145.603 31.7051   1
   3  -7  -1 410.873 71.3798   1
  -3   7   1 474.722 50.6828   1
   2  -7  -1  198.65 25.0155   1
   2  -7  -1 103.313 40.3196   1
   2  -7  -1 128.924 44.1561   1
  -2   7   1 219.547  51.505   1
  -2   7   1 261.048 109.198   1
  -2   7   1  163.62 25.3082   1
   1  -7  -1  72.955 37.0678   1
   1  -7  -1 45.8855 15.8802   1
   1  -7  -1 54.7136 23.2353   1
  -1   7   1  98.541 24.1233   1
  -1   7   1 122.372 43.2423   1
  -1   7   1 149.117 96.7858   1
   0  -7  -1 5.99124  12.887   1
   0  -7  -1 2.39437 64.1265   1
   0  -7  -1-17.3778 27.8705   1
   0   7   1 16.7819 75.8111   1
   0   7   1 6.58718 35.9581   1
   0   7   1 10.1841 29.3603   1
  -1  -7  -1 44.3633 5.54678   1
  -1  -7  -1 52.9843  6.7721   1
  -1  -7  -1 47.1312 4.61685   1
  -2  -7  -1 22.5154 3.13238   1
  -2  -7  -1 25.0257 4.37645   1
  -3  -7  -1 60.3532  5.7628   1
  -3  -7  -1 57.3264 4.85799   1
  -4  -7  -1 13.3121 1.90034   1
  -4  -7  -1 13.8523 2.72029   1
  -5  -7  -1 1.99463 0.89088   1
  -5  -7  -1 1.33238 0.66225   1
   9  -8  -1  4.5378  1.5126   1
   8  -8  -1-1.55955 1.55955   1
   7  -8  -1 83.0546 6.92204   1
   6  -8  -1-2.63046 2.63046   1
  -6   8   1 0.58224 2.04823   1
   5  -8  -1 77.2525  7.5452   1
  -5   8   1 86.0088  6.6342   1
   4  -8  -1-2.42604 3.34255   1
  -4   8   1 2.42604 2.12414   1
   3  -8  -1 44.3666 6.33502   1
  -3   8   1 47.0785 4.83434   1
   2  -8  -1 334.462 18.6358   1
   2  -8  -1 303.498 20.4396   1
   1  -8  -1 278.675 18.7241   1
   1  -8  -1 307.962 16.3005   1
   1  -8  -1  251.80 16.3005   1
   0  -8  -1 264.838 17.1105   1
   0  -8  -1 321.355 19.8555   1
   0  -8  -1 309.746 17.1105   1
  -1  -8  -1 69.7241 6.14122   1
  -1  -8  -1  90.602  8.2901   1
  -1  -8  -1 68.1861 5.53037   1
  -2  -8  -1 19.7498 3.29517   1
  -2  -8  -1 22.7473 2.68928   1
  -3  -8  -1 22.4861 2.46383   1
  -3  -8  -1 21.6583 2.74624   1
  -4  -8  -1 84.4802 5.32676   1
  -4  -8  -1 91.4263 5.32676   1
   8  -9  -1 9.03949 2.06486   1
   7  -9  -1 75.9665 5.88011   1
   6  -9  -1 74.7043 6.71723   1
  -6   9   1  79.464 5.87261   1
  -5   9   1 19.1043 2.89958   1
   4  -9  -1 162.796 11.5026   1
  -4   9   1 155.128 10.0255   1
   3  -9  -1 465.425 27.9614   1
  -3   9   1 471.964 26.1762   1
   2  -9  -1 2.99389 3.29115   1
   1  -9  -1 117.365 7.80374   1
   1  -9  -1 117.067 9.90393   1
   1  -9  -1 95.1588 7.50524   1
   0  -9  -1 213.066 12.8722   1
   0  -9  -1 227.724 14.9662   1
   0  -9  -1 217.551 13.1698   1
  -1  -9  -1 141.627 9.03542   1
  -1  -9  -1 139.878 9.32522   1
  -1  -9  -1 170.452 10.4947   1
  -2  -9  -1 72.7606 5.13954   1
  -2  -9  -1 84.1252 5.13954   1
  -3  -9  -1 27.4046 2.10485   1
  -3  -9  -1 24.1267 2.34612   1
   8 -10  -1 189.523 10.6462   1
   7 -10  -1 109.316 7.12703   1
  -6  10   1 17.2998 2.42889   1
  -5  10   1 104.493  6.9484   1
   4 -10  -1 5.67652  2.8433   1
  -4  10   1 9.08445 1.98628   1
   3 -10  -1 196.171 13.2313   1
  -3  10   1 197.325 11.7907   1
   2 -10  -1 21.9863 4.04795   1
  -2  10   1 23.1473 2.89727   1
   1 -10  -1 159.352 10.0642   1
   1 -10  -1 177.764 11.5049   1
   0 -10  -1 259.238 14.5579   1
   0 -10  -1 284.436 15.6816   1
   0 -10  -1 242.165 14.5579   1
  -1 -10  -1 5.49917 1.31198   1
  -1 -10  -1 9.95619 1.31198   1
  -2 -10  -1 22.4362 1.84846   1
  -2 -10  -1 20.3577 1.84846   1
  -5  11   1 8.65686 1.62376   1
   4 -11  -1 337.069 18.6094   1
  -4  11   1 320.656 18.0555   1
   3 -11  -1 0.82117 1.92585   1
  -3  11   1 1.92585  1.3784   1
   2 -11  -1 2.45894 1.91467   1
  -2  11   1 0.81641  1.3704   1
  -1  11   1 2.93405 1.06951   1
   0 -11  -1 20.3178 2.25358   1
   0  11   1 23.8274 2.00417   1
   4 -12  -1 254.403 13.6876   1
  -4  12   1 239.638 13.4207   1
   3 -12  -1  10.816 1.84641   1
  -3  12   1 14.2464 1.58397   1
   2 -12   2 20.7177 2.15013   1
   3 -12   2 37.4816 3.30864   1
   4 -12   2 2.22368 1.39351   1
  -1 -11   2 98.6269 5.61848   1
   0 -11   2 113.707 6.46909   1
   0 -11   2 101.582 6.73705   1
  -1  11  -2 9.32209 1.69584   1
   1 -11   2 11.5799 1.97681   1
   1 -11   2 8.19822 2.25777   1
  -2  11  -2 156.385 9.46895   1
   2 -11   2 171.593 10.3353   1
   2 -11   2 160.972 9.46895   1
   3 -11   2 224.372  12.896   1
   3 -11   2 231.538 13.7612   1
   4 -11   2 27.5127 2.84093   1
   4 -11   2 21.8409 3.12301   1
   5 -11   2 94.4894 7.26765   1
  -2 -10   2 3.29881 1.27085   1
  -2 -10   2 4.56966 1.01848   1
  -1 -10   2 51.3065 4.22465   1
  -1 -10   2 45.9506 3.66404   1
   0 -10   2 90.4744 6.18584   1
   0 -10   2 92.8295 6.47891   1
   0 -10   2 101.088 7.36858   1
   1 -10   2 29.1557 4.45949   1
   1 -10   2  30.054 3.57182   1
   1 -10   2 35.4117 3.86771   1
  -2  10  -2 408.541 23.0911   1
   2 -10   2 426.017 23.0911   1
   2 -10   2 407.658 23.9848   1
   3 -10   2 200.578 11.4372   1
   3 -10   2 169.787 12.0205   1
   4 -10   2  94.695  7.5287   1
   4 -10   2  104.25 6.95273   1
   5 -10   2 78.4161 5.68116   1
   6 -10   2 181.797 11.0675   1
   7 -10   2 48.8857 4.32643   1
  -3  -9   2 8.26839  1.5509   1
  -3  -9   2  8.7823 1.29394   1
  -2  -9   2 94.9215 6.68069   1
  -2  -9   2 92.0244 6.09304   1
  -1  -9   2 308.609 18.4806   1
  -1  -9   2 353.133 19.6854   1
  -1  -9   2 331.016  19.083   1
   0  -9   2 162.633 11.8126   1
   0  -9   2 174.445 10.9089   1
   0  -9   2  173.24 10.5969   1
   1  -9   2 140.738  11.355   1
   1  -9   2  153.26 10.1558   1
   1  -9   2 159.532 9.85866   1
   2  -9   2 1437.12 79.5017   1
   2  -9   2 1514.85  78.326   1
   3  -9   2 47.3954 5.88653   1
   3  -9   2 48.8697 5.00825   1
   4  -9   2 112.226 9.69298   1
   4  -9   2 145.426 8.81654   1
   5  -9   2 149.672 10.4682   1
   5  -9   2 161.296 9.87972   1
   6  -9   2 190.303  11.882   1
   7  -9   2 8.68165  2.4378   1
   8  -9   2 1.05259 1.57423   1
  -4  -8   2 4.10924 1.02959   1
  -4  -8   2 6.66955 1.53983   1
  -3  -8   2-0.29249 1.76538   1
  -3  -8   2 1.47289  1.1804   1
  -2  -8   2  29.567 4.00352   1
  -2  -8   2 37.8803 3.69724   1
  -1  -8   2 78.6445 6.09538   1
  -1  -8   2 84.7507 7.92508   1
  -1  -8   2  82.921 7.01564   1
   0  -8   2 11.2482 3.55316   1
   0  -8   2 17.4609 3.25881   1
   1  -8   2 52.9044 6.65283   1
   1  -8   2 64.7522 5.49269   1
   2  -8   2 472.914 24.6921   1
   2  -8   2  420.97 25.8446   1
   2  -8   2 432.138 24.4066   1
   3  -8   2 299.366 18.2782   1
   4  -8   2 176.123 11.7995   1
   5  -8   2 292.895 18.7174   1
   5  -8   2  327.65 17.8206   1
   6  -8   2 193.754 12.5333   1
   7  -8   2 53.5554 5.27276   1
   8  -8   2 44.6748 4.18449   1
  -5  -7   2  2.9687  0.9925   1
  -5  -7   2 1.48435 1.23842   1
  -4  -7   2 62.6418  5.2704   1
  -4  -7   2 62.0493 4.68826   1
  -3  -7   2 79.7437 6.84813   1
  -3  -7   2 68.2158 5.60905   1
  -2  -7   2 188.833 11.3645   1
  -2  -7   2 171.634 11.9752   1
  -1  -7   2 40.1428 3.80924   1
  -1  -7   2 26.9561 4.10066   1
  -1  -7   2   31.65  4.6939   1
   0   7  -2 161.858 39.4898   1
   0  -7   2 87.3848 41.1708   1
   0  -7   2 184.259 24.9273   1
   0  -7   2 126.318 60.7764   1
  -1   7  -2 1622.77 115.026   1
   1  -7   2 1642.98 98.3554   1
   1  -7   2 1871.92  143.69   1
   1  -7   2 1472.80 121.314   1
  -2   7  -2 26.5809 19.1838   1
   2  -7   2 7.66962 26.0358   1
  -3   7  -2 15.5084 21.9861   1
  -3   7  -2 73.8575 16.6297   1
  -3   7  -2 37.4944 20.0137   1
   3  -7   2 64.8368  12.685   1
   3  -7   2 31.8578 28.7541   1
   3  -7   2-8.17969 27.3424   1
  -4   7  -2-7.33733 15.2583   1
   4  -7   2-76.5938 76.5938   1
   4  -7   2 -2.9391 22.8875   1
   5  -7   2 922.318 51.9841   1
   5  -7   2 983.061 51.0717   1
   6  -7   2 65.8437    6.61   1
  -7   7  -2-1.43223 1.71665   1
   7  -7   2-1.43223 5.71878   1
   7  -7   2 0.28441 2.28548   1
   8  -7   2 162.741 9.77832   1
   8  -7   2 146.881 14.0012   1
   9  -7   2 47.9764 3.46076   1
   9  -7   2 41.5467  6.1837   1
  -6  -6   2 97.7533 5.99392   1
  -6  -6   2 100.988 5.76464   1
  -5  -6   2 48.8873 4.83523   1
  -5  -6   2 54.5705 4.55259   1
  -4  -6   2 40.0508 5.32306   1
  -4  -6   2 33.1719 4.06731   1
  -3  -6   2 15.2873 3.74429   1
  -3  -6   2 9.98109  2.4925   1
   2   6  -2 92.2071 39.4755   1
   2   6  -2 42.4259 35.9391   1
   2   6  -2 69.2312  78.658   1
  -2  -6   2 43.8907 16.4996   1
  -2  -6   2-27.6946 27.6946   1
   1   6  -2 325.852 53.3915   1
   1   6  -2 410.622 58.3475   1
   1   6  -2 289.245 86.1478   1
  -1  -6   2  285.12   66.06   1
  -1  -6   2 316.214 27.2529   1
  -1  -6   2 287.593 44.3104   1
   0   6  -2-7.58191 38.6705   1
   0   6  -2 12.0178 21.1681   1
   0   6  -2 12.5468 17.7715   1
   0  -6   2 11.2383 30.5689   1
   0  -6   2-1.56835 7.84175   1
   0  -6   2  4.9649 19.8596   1
  -1   6  -2  38.604 18.6574   1
   1  -6   2 33.4925 11.2489   1
   1  -6   2 54.7101 23.7779   1
   1  -6   2 34.7635 24.2864   1
  -2   6  -2 944.769  72.088   1
   2  -6   2  922.99 103.463   1
   2  -6   2 973.032 66.8941   1
   2  -6   2 936.988 82.1995   1
  -3   6  -2 950.646  85.915   1
  -3   6  -2 984.595 70.6882   1
  -3   6  -2 1015.32 60.6271   1
   3  -6   2 813.074 109.291   1
   3  -6   2 920.733 71.4993   1
   3  -6   2 1028.37 81.0196   1
  -4   6  -2 357.257 35.6681   1
  -4   6  -2 290.845  21.166   1
  -4   6  -2 326.224 35.9565   1
   4  -6   2 263.004  46.112   1
   4  -6   2 112.525 94.2531   1
  -5   6  -2 216.006 35.4938   1
   5  -6   2 18.6707 79.8665   1
   5  -6   2 176.219 39.4714   1
  -6   6  -2 174.516 10.8262   1
   6  -6   2 163.064 11.4527   1
   6  -6   2 171.109 18.2562   1
  -7   6  -2 19.7583 3.24764   1
   7  -6   2 21.5287  8.2553   1
   7  -6   2 24.4831 3.54098   1
   8  -6   2 118.462 12.6218   1
   8  -6   2 120.885 7.79444   1
   9  -6   2 15.6205 4.15216   1
   9  -6   2 12.9333 1.70767   1
  -6  -5   2 48.3013 4.54009   1
  -6  -5   2 50.1685 3.99983   1
  -5  -5   2 192.401 11.4306   1
  -5  -5   2 167.686 10.4982   1
  -5  -5   2 199.499 12.6593   1
  -4  -5   2 109.183 7.95869   1
  -4  -5   2 122.546 9.86923   1
   3   5  -2 15.4209 26.6107   1
   3   5  -2 14.5188 61.9841   1
   3   5  -2 15.4209 25.0965   1
  -3  -5   2-6.34661 17.2357   1
  -3  -5   2 -12.704 33.8701   1
   2   5  -2 1132.51 150.803   1
   2   5  -2 1195.97 95.7318   1
   2   5  -2 1137.25 100.179   1
  -2  -5   2 1323.12 99.3492   1
  -2  -5   2 863.998 73.7509   1
  -2  -5   2 830.048  105.19   1
   1   5  -2 0.25586 17.2342   1
   1   5  -2-2.05605 19.2994   1
   1   5  -2-1.80018 34.7335   1
  -1  -5   2 6.43314 8.23333   1
  -1  -5   2 3.85623 29.3329   1
  -1  -5   2-10.8102 12.3546   1
   0   5  -2 1754.81 113.555   1
   0   5  -2 1335.97 146.424   1
   0   5  -2 1583.75 111.607   1
   0  -5   2 1584.48 120.132   1
   0  -5   2 1613.48 120.132   1
   0  -5   2 1667.82 93.8139   1
  -1   5  -2 325.027 37.0712   1
  -1   5  -2 296.561 60.9926   1
   1  -5   2 319.769 43.2894   1
   1  -5   2 330.294 26.3083   1
   1  -5   2 333.403  52.863   1
   1  -5   2 361.835 46.6449   1
  -2   5  -2 16.9279 10.5506   1
   2  -5   2 5.14895 12.2669   1
   2  -5   2 11.5263 15.6995   1
   2  -5   2-14.2271 27.2258   1
  -3   5  -2 9.96335 11.2763   1
  -3   5  -2 22.0218 6.55532   1
  -3   5  -2 20.4481 11.0155   1
   3  -5   2 34.8717  19.666   1
   3  -5   2 8.65042 15.2057   1
   3  -5   2 72.0992 51.9118   1
  -4   5  -2 708.885 53.2554   1
  -4   5  -2 675.958 56.1231   1
  -4   5  -2 642.176  39.517   1
   4  -5   2  589.49 103.074   1
   4  -5   2  524.49 55.8383   1
  -5   5  -2 564.782  51.293   1
   5  -5   2 488.457  95.793   1
   5  -5   2 403.518 46.0364   1
  -6   5  -2 61.8763 5.71322   1
   6  -5   2 68.2206 11.0996   1
   6  -5   2  73.607 6.34427   1
  -7   5  -2 130.923 9.39626   1
   7  -5   2  155.13 16.0587   1
   7  -5   2 146.982 9.69763   1
  -8   5  -2 82.5851 7.08619   1
   8  -5   2 105.209 6.81514   1
   8  -5   2 115.567 11.7232   1
   9  -5   2 32.6158 5.31155   1
  -7  -4   2 10.8523 1.68738   1
  -7  -4   2 9.88445 1.92721   1
  -6  -4   2-0.29322 1.18333   1
  -6  -4   2 3.53953 2.06298   1
  -6  -4   2-0.87965 2.64941   1
  -5  -4   2 28.9251 5.46769   1
  -5  -4   2  26.996  3.8582   1
  -5  -4   2 29.8954 3.21898   1
  -4  -4   2 37.7639 18.2505   1
  -4  -4   2 51.2981 30.2089   1
  -4  -4   2 48.4594 6.91798   1
  -4  -4   2 42.4802 4.40337   1
   3   4  -2 320.919 89.2935   1
   3   4  -2 438.302 58.8563   1
  -3  -4   2 210.167 61.7497   1
  -3  -4   2 320.044 42.0417   1
  -3  -4   2 263.216 34.2059   1
   2   4  -2 78.7528 55.0493   1
   2   4  -2 110.361 30.2888   1
  -2  -4   2 86.3858 38.7169   1
  -2  -4   2 90.0807 28.1841   1
  -2  -4   2 66.6391 18.4371   1
  -2  -4   2 52.1495 15.7992   1
   1   4  -2 96.5112 54.3188   1
   1   4  -2  80.027 24.9761   1
   1   4  -2 51.4078  21.824   1
  -1  -4   2 62.0786 14.3053   1
  -1  -4   2 77.1159 31.2804   1
  -1  -4   2 100.637 36.1293   1
   0   4  -2 20.4007   12.61   1
   0   4  -2 41.4852 31.6349   1
   0   4  -2 21.3206 15.5895   1
   0  -4   2 10.3143 15.8174   1
   0  -4   2 33.6945 9.85843   1
   0  -4   2 21.5485 17.4212   1
   0  -4   2 31.6349 26.1317   1
  -1   4  -2 1273.93 80.4462   1
  -1   4  -2 1125.00 104.559   1
   1  -4   2 1244.86 69.6262   1
   1  -4   2 1319.90 86.9767   1
   1  -4   2 1131.76 96.8924   1
   1  -4   2 1195.76 87.6569   1
   1  -4   2 1169.17 72.7873   1
  -2   4  -2 1475.22 142.837   1
  -2   4  -2 1723.98 102.646   1
  -2   4  -2 1706.44 110.593   1
  -2   4  -2 1749.69 94.9313   1
   2  -4   2 1806.48 103.111   1
   2  -4   2 1749.69 134.417   1
   2  -4   2 1795.73 110.593   1
  -3   4  -2 3208.86 189.593   1
  -3   4  -2 3070.25 179.654   1
  -3   4  -2 3204.54 172.259   1
   3  -4   2 3226.20 184.234   1
   3  -4   2 3441.02  184.75   1
   3  -4   2 3063.88 223.744   1
   3  -4   2 3219.57 183.727   1
  -4   4  -2 445.524 30.6913   1
  -4   4  -2  517.14 43.1959   1
  -4   4  -2 480.192 48.0202   1
   4  -4   2 427.055 42.6308   1
   4  -4   2 480.192 77.8637   1
   4  -4   2 502.647 56.2657   1
  -5   4  -2  98.322  28.092   1
   5  -4   2 46.8274 46.1955   1
   5  -4   2 45.5746 18.4139   1
   5  -4   2 66.4829 36.8278   1
  -6   4  -2 0.32214 2.26649   1
   6  -4   2 2.26649 2.58863   1
   6  -4   2-1.62221  5.5109   1
  -7   4  -2  96.472 8.03842   1
   7  -4   2 115.953 8.03842   1
   7  -4   2 111.308 13.2985   1
  -8   4  -2 56.8485 5.21859   1
   8  -4   2 54.1075 8.51556   1
   9  -4   2 48.8349 6.66699   1
   8   3  -2 3.80505 0.84807   1
  -8  -3   2 2.95698 0.84807   1
  -7  -3   2 146.627  8.3429   1
  -7  -3   2 153.077 8.87807   1
  -7  -3   2  132.12 9.41324   1
  -6  -3   2 98.2017 9.41568   1
  -6  -3   2  102.28 6.58541   1
  -6  -3   2 89.7331 7.22055   1
  -5  -3   2 4.88037 4.23274   1
  -5  -3   2 5.86338 1.95446   1
  -5  -3   2 4.55655 2.60209   1
   4   3  -2-8.61795  21.862   1
   4   3  -2 3.08409 7.08684   1
  -4  -3   2 28.3255 21.5558   1
  -4  -3   2 4.93235 20.9434   1
  -4  -3   2 26.4772 13.2441   1
   3   3  -2 3175.27 183.338   1
   3   3  -2 2742.42  241.95   1
   3   3  -2 2665.67 161.848   1
  -3  -3   2 2585.03 184.458   1
  -3  -3   2 2722.89 154.315   1
  -3  -3   2 2249.03 172.177   1
   2   3  -2 489.638 48.7395   1
   2   3  -2 355.564 70.4633   1
  -2  -3   2 452.514  60.615   1
  -2  -3   2 450.747 48.9907   1
  -2  -3   2 508.581 38.1377   1
   1   3  -2 709.824 53.6937   1
   1   3  -2 514.821 72.9868   1
  -1  -3   2 670.544 56.4841   1
  -1  -3   2  595.46 55.7906   1
  -1  -3   2 504.831  48.113   1
  -1  -3   2 704.012 40.6748   1
  -1  -3   2  632.42 53.9249   1
   0   3  -2 1874.69 102.371   1
   0   3  -2 1408.82 121.164   1
   0   3  -2 1655.30 102.371   1
   0  -3   2 1626.01  106.31   1
   0  -3   2 1679.37 91.4326   1
   0  -3   2 1522.76 110.443   1
   0  -3   2 1725.53 105.657   1
  -1   3  -2 74.7723 26.8597   1
  -1   3  -2 51.1327 12.0335   1
   1  -3   2 66.1726 18.4737   1
   1  -3   2 55.8636 17.1917   1
   1  -3   2 76.7028  13.964   1
   1  -3   2 76.2755 26.8597   1
   1  -3   2 52.2086 8.16474   1
  -2   3  -2 1278.76 82.1963   1
  -2   3  -2 1071.14 88.7585   1
  -2   3  -2 1200.21  74.267   1
  -2   3  -2 1309.33 69.9646   1
   2  -3   2 1363.67 76.9852   1
   2  -3   2 1346.01 102.575   1
   2  -3   2 1280.80 79.7033   1
   2  -3   2 1332.42 76.9852   1
  -3   3  -2 112.265 17.1195   1
  -3   3  -2 132.879 11.8272   1
  -3   3  -2 113.525 24.4143   1
   3  -3   2 129.357 39.0128   1
   3  -3   2 124.601 22.6532   1
   3  -3   2 132.879 19.6315   1
  -4   3  -2 1888.01 110.837   1
  -4   3  -2 2039.30 124.224   1
  -4   3  -2 1864.92 129.922   1
   4  -3   2 1860.37 129.355   1
   4  -3   2 2316.51 125.935   1
   4  -3   2 2145.84 169.498   1
  -5   3  -2 57.8624 25.2987   1
  -5   3  -2  51.855 8.53395   1
  -5   3  -2 45.8475 15.4959   1
   5  -3   2 21.5033 36.3591   1
   5  -3   2 30.6661 15.8103   1
   5  -3   2 21.5033 45.2075   1
  -6   3  -2 267.341 16.1387   1
   6  -3   2 207.745 41.4929   1
   6  -3   2  147.19 72.4371   1
   6  -3   2  268.99 21.0739   1
  -7   3  -2 61.2648  6.2497   1
   7  -3   2 60.0104 9.69092   1
  -8   3  -2 7.38922 2.74179   1
   8  -3   2 3.55849 4.38492   1
  -9   3  -2 0.46293 1.39706   1
   9  -3   2    0.00 2.56265   1
  -8  -2   2-0.23458  0.9467   1
  -8  -2   2-0.70374 0.70374   1
  -7  -2   2-2.90996 2.90996   1
  -7  -2   2-0.57786 1.16605   1
  -7  -2   2 2.03285 1.74391   1
  -6  -2   2  21.148 5.21189   1
  -6  -2   2  23.101 3.58245   1
  -6  -2   2 18.2243 2.60017   1
   5   2  -2 21.5098 63.5686   1
   5   2  -2-9.12257 22.1697   1
   5   2  -2 3.91298 20.8615   1
  -5  -2   2    0.00 24.4503   1
   4   2  -2 321.237 90.8827   1
   4   2  -2 374.683 57.0711   1
   4   2  -2 338.748 39.8597   1
  -4  -2   2 208.306 47.7094   1
  -4  -2   2 302.513 27.1736   1
  -4  -2   2 285.602 44.9856   1
   3   2  -2 35.0845  14.142   1
  -3  -2   2 19.8509  11.698   1
  -3  -2   2 10.0655 6.80052   1
  -3  -2   2  70.169 22.3045   1
   2   2  -2 1.97329 7.90195   1
   2   2  -2-0.24557 7.65638   1
  -2  -2   2 11.1118 14.0762   1
  -2  -2   2 6.17422 15.3128   1
  -2  -2   2 13.3307 31.1167   1
  -2  -2   2  2.4732 6.66535   1
  -2  -2   2 2.96433  13.585   1
  -1  -2   2 113.728 23.2939   1
  -1  -2   2  120.33 12.5635   1
  -1  -2   2 88.8364 21.2419   1
  -1  -2   2 144.305 26.0353   1
  -1  -2   2 97.2878 23.7481   1
  -1  -2   2 88.6094 20.5525   1
   0   2  -2 916.913 74.3594   1
   0   2  -2 1085.63 62.8502   1
   0  -2   2 992.528 65.4078   1
   0  -2   2 1025.13 54.5418   1
   0  -2   2 1085.85 64.3409   1
   0  -2   2 848.524 56.8876   1
   0  -2   2 897.315 72.0137   1
  -1   2  -2  86.168 10.4581   1
  -1   2  -2 85.7446 7.94757   1
  -1   2  -2 79.2603 14.6399   1
   1  -2   2 89.3024 13.1766   1
   1  -2   2 82.4022 14.2239   1
   1  -2   2 84.4893 12.7607   1
   1  -2   2 107.894 27.4005   1
  -2   2  -2 3278.70  193.54   1
  -2   2  -2 3680.68 201.647   1
  -2   2  -2 3798.95 190.835   1
  -2   2  -2 3300.33 209.762   1
   2  -2   2 3633.58 197.821   1
   2  -2   2 3852.81 197.365   1
   2  -2   2 3735.63 196.021   1
   2  -2   2 3653.86 220.581   1
  -3   2  -2 1503.35 82.7796   1
  -3   2  -2 1402.03 89.8861   1
  -3   2  -2 1468.31 96.7491   1
  -3   2  -2 1448.50 120.873   1
   3  -2   2 1664.58 92.4293   1
   3  -2   2 1602.64 121.631   1
   3  -2   2 1461.96 94.2059   1
  -4   2  -2 187.602 33.5345   1
  -4   2  -2 196.278 18.5025   1
  -4   2  -2 205.232  30.064   1
   4  -2   2 196.278 27.1788   1
   4  -2   2 217.379 54.9325   1
   4  -2   2 185.292 34.6948   1
  -5   2  -2 158.659 43.0384   1
  -5   2  -2 147.423 34.0497   1
  -5   2  -2 133.929 13.4944   1
   5  -2   2 70.6546 20.8747   1
   5  -2   2 85.1186 32.7607   1
   5  -2   2 81.2631 48.5023   1
  -6   2  -2 91.8872 6.32604   1
  -6   2  -2 102.872 8.65544   1
   6  -2   2  96.546 13.3142   1
  -7   2  -2 188.947 13.1238   1
  -7   2  -2 207.063 11.5596   1
   7  -2   2 176.767 16.5518   1
  -8   2  -2 15.0712 3.23022   1
   8  -2   2 17.7567 4.84534   1
  -9   2  -2    0.00 1.12413   1
   9  -2   2 1.34736 2.24826   1
  -8  -1   2  278.23 14.8325   1
  -8  -1   2 265.441 15.0868   1
  -7  -1   2 138.307 10.7042   1
  -7  -1   2 135.862 9.18281   1
  -7  -1   2 141.057 8.56338   1
  -6  -1   2  23.932 5.65536   1
  -6  -1   2 18.2884 2.98707   1
  -6  -1   2 20.2837 3.32946   1
   5   1  -2 2.92509 19.2039   1
  -5  -1   2 26.0484 27.3433   1
   4   1  -2 680.901 56.4026   1
  -4  -1   2 768.896 84.1482   1
  -4  -1   2 870.955 139.947   1
  -4  -1   2 496.782 65.6441   1
  -4  -1   2 492.903 37.8985   1
  -4  -1   2  557.36  55.205   1
   3   1  -2 282.632 30.3932   1
   3   1  -2 264.608 37.1175   1
  -3  -1   2 272.679 22.0547   1
  -3  -1   2 298.765 36.8405   1
  -3  -1   2 314.362   74.77   1
  -3  -1   2 248.208 30.3932   1
  -3  -1   2 282.097 41.1483   1
   2   1  -2  39.954 15.0495   1
   2   1  -2 53.7684 12.5792   1
  -2  -1   2 41.4344 8.13797   1
  -2  -1   2 90.0257 49.8264   1
  -2  -1   2 48.5913 17.7564   1
  -2  -1   2 50.0717 15.7854   1
  -2  -1   2 73.0052 22.1976   1
  -1  -1   2 1425.68 93.3823   1
  -1  -1   2 1300.47 111.499   1
  -1  -1   2 1578.04 89.9007   1
  -1  -1   2 1392.93 79.6789   1
  -1  -1   2 1424.98 78.0537   1
  -1  -1   2 1542.04 89.4305   1
  -1  -1   2 1494.67 83.1605   1
  -1  -1   2 1329.74  85.256   1
   0  -1   2 4758.07 250.777   1
   0  -1   2 4337.60 259.837   1
   0  -1   2 5006.70  254.66   1
   0  -1   2 4805.51 264.364   1
   0  -1   2 4890.46 250.133   1
   0  -1   2 4439.15 249.482   1
   0  -1   2 4842.18 246.901   1
  -1   1  -2 3972.64 211.461   1
  -1   1  -2 3854.80 218.057   1
   1  -1   2 4011.36 216.569   1
   1  -1   2 4064.98 232.308   1
   1  -1   2 4269.20 216.138   1
  -2   1  -211446.90 557.348   1
  -2   1  -211965.50 570.339   1
  -2   1  -2 9650.54 561.055   1
   2  -1   210219.20 561.986   1
   2  -1   210808.60  585.39   1
   2  -1   210094.00  564.07   1
  -3   1  -2 2505.57 143.863   1
  -3   1  -2 2394.88 125.871   1
  -3   1  -2 2344.74 137.853   1
   3  -1   2 2101.40 130.545   1
   3  -1   2 2224.88 135.238   1
   3  -1   2 2344.49 160.575   1
  -4   1  -2  229.50 37.3191   1
  -4   1  -2 188.331 38.2026   1
  -4   1  -2 191.286  18.365   1
   4  -1   2 192.475 27.5475   1
   4  -1   2 201.069 31.0922   1
   4  -1   2 261.181 52.1289   1
   4  -1   2 186.553 25.7699   1
   4  -1   2  261.78 51.5293   1
  -5   1  -2 254.415 22.5402   1
  -5   1  -2  279.89 53.5721   1
  -5   1  -2 220.123 44.7439   1
   5  -1   2 293.939 41.4841   1
  -6   1  -2 213.508 14.3731   1
  -6   1  -2  204.82 12.0349   1
   6  -1   2  189.45 17.3759   1
  -7   1  -2    0.00  1.2356   1
  -7   1  -2 -1.2356 2.76642   1
   7  -1   2    0.00 4.61435   1
  -8   1  -2 43.6983 4.68394   1
   8  -1   2  38.497 5.98658   1
  -9   1  -2 1.70223  1.4904   1
   9  -1   2 1.91407  0.6355   1
  -8   0   2 0.53821 1.35513   1
  -8   0   2-0.80731 1.08602   1
  -7   0   2 50.9503 4.74322   1
  -7   0   2 41.7785 4.11379   1
  -6   0   2 20.5593 4.04485   1
  -6   0   2 16.1794 2.69258   1
  -6   0   2 13.4749 6.73743   1
   5   0  -2-15.9684 19.8795   1
  -5   0   2 5.86664 20.5275   1
  -5   0   2 7.16263 30.3052   1
  -5   0   2 29.3216 77.8632   1
   4   0  -2 23.4947 10.7121   1
   4   0  -2 41.0524 17.2513   1
   4   0  -2   47.00 29.1466   1
  -4   0   2 63.3533 32.1256   1
  -4   0   2 68.7094 76.1466   1
  -4   0   2  41.644 23.8011   1
  -4   0   2 32.1256  20.822   1
   3   0  -2 112.395 16.9418   1
   3   0  -2 124.504 32.8044   1
   3   0  -2 120.732 20.7045   1
  -3   0   2 114.553 29.8439   1
  -3   0   2  192.50 80.6693   1
  -3   0   2 83.6298 19.6253   1
  -3   0   2 109.444 22.8533   1
   2   0  -2 288.165 17.2183   1
   2   0  -2 235.765 32.4338   1
   2   0  -2  289.91 26.4522   1
   2   0  -2 274.695 21.9593   1
  -2   0   2 294.899 59.6303   1
  -2   0   2 292.161 27.9498   1
  -2   0   2 240.506  23.705   1
  -2   0   2 303.637 33.9314   1
   1   0  -2 4225.40 203.225   1
   1   0  -2 4254.75 207.356   1
  -1   0   2 3753.86 205.657   1
  -1   0   2 3796.81 211.729   1
  -1   0   2 3783.21 207.356   1
  -1   0   2 3461.51 209.538   1
  -1   0   2 3896.38 242.078   1
   0   0  -2 2056.30 106.073   1
   0   0  -2 2036.19 101.452   1
   0   0  -2 2022.56 106.073   1
   0   0   2 1832.62 115.528   1
   0   0   2 1783.86 105.613   1
   0   0   2 1825.69 104.226   1
   0   0   2 1963.19 120.838   1
  -1   0  -2 2705.24 134.571   1
  -1   0  -2 2750.79 143.641   1
   1   0   2 2439.69 157.233   1
   1   0   2 2505.41 140.237   1
   1   0   2 2335.49 149.982   1
  -2   0  -2 490.136 39.2029   1
  -2   0  -2 462.375 25.8153   1
  -2   0  -2 437.779 36.5306   1
   2   0   2 441.186 56.9839   1
   2   0   2 460.429 46.5108   1
   2   0   2 323.353 27.7612   1
   2   0   2 397.841 33.1145   1
   2   0   2 367.407 34.5761   1
  -3   0  -2 3038.42 185.075   1
  -3   0  -2 3855.30 208.142   1
  -3   0  -2 3347.26 205.703   1
   3   0   2 3604.26 197.558   1
   3   0   2 3088.63 201.635   1
   3   0   2 3676.16 217.916   1
   3   0   2 3582.82 247.769   1
  -4   0  -2 316.762 48.1771   1
  -4   0  -2 204.858 22.2531   1
  -4   0  -2 225.898 46.9534   1
   4   0   2 297.552 37.1967   1
   4   0   2  388.72 78.3568   1
   4   0   2 217.365 36.8935   1
  -5   0  -2 7.95871  25.854   1
  -5   0  -2-17.5657 17.5657   1
  -5   0  -2 0.98895 8.61801   1
   5   0   2-6.95799  21.545   1
  -6   0  -2 120.192 10.6242   1
  -6   0  -2 120.192 7.64095   1
  -7   0  -2 154.864 11.6379   1
  -7   0  -2 160.524 9.25307   1
  -8   0  -2 27.3753 3.69676   1
   8   0   2  32.062 2.47035   1
   9  -1  -2 201.747 13.5127   1
  -9   1   2 214.797 11.4192   1
   8  -1  -2 127.438 12.0728   1
  -8   1   2 144.256 8.70322   1
  -8   1   2 136.141 8.14494   1
  -7   1   2 142.103 9.37106   1
  -7   1   2  150.82 10.0134   1
   6  -1  -2 205.961 44.1863   1
  -6   1   2 325.614 88.7227   1
  -6   1   2 276.333  63.225   1
  -6   1   2 260.687  124.76   1
   5  -1  -2 29.7539 17.6526   1
   5  -1  -2 31.0663 18.9649   1
   5  -1  -2 37.9299 42.8424   1
  -5   1   2 29.1036 76.5218   1
  -5   1   2 24.5278 33.3541   1
  -5   1   2 52.9695 28.4532   1
   4  -1  -2 2212.71 138.757   1
   4  -1  -2 2552.23 177.513   1
   4  -1  -2 2436.19 144.427   1
  -4   1   2 2105.89 148.009   1
  -4   1   2 2800.50 247.342   1
  -4   1   2 2256.85 161.701   1
   3  -1  -2 81.8455 15.9354   1
   3  -1  -2 89.6837  31.065   1
   3  -1  -2 54.0232 14.8609   1
  -3   1   2 64.5573 15.6668   1
  -3   1   2 43.7577 12.4241   1
  -3   1   2 121.833 63.7514   1
  -3   1   2 68.8841 24.8482   1
   2  -1  -2 7506.86 428.191   1
   2  -1  -2 7839.25 412.385   1
   2  -1  -2 7984.22 409.872   1
  -2   1   2 7405.50 417.401   1
  -2   1   2 7894.68 411.128   1
  -2   1   2 7754.45 467.323   1
   1  -1  -2 6094.84 294.659   1
   1  -1  -2 5927.13 310.927   1
   1  -1  -2 6114.50 298.547   1
   1  -1  -2 5103.10 302.676   1
  -1   1   2 4731.49 299.762   1
  -1   1   2 6023.23 338.109   1
  -1   1   2 5545.56 304.857   1
  -1   1   2 5669.60 297.573   1
   0  -1  -2 4352.22 213.297   1
   0  -1  -2 4216.48 224.879   1
   0  -1  -2 4506.87 220.865   1
   0   1   2 3448.89 216.127   1
   0   1   2 3352.66 221.335   1
   0   1   2 4739.32  251.37   1
   0   1   2 4020.45 223.939   1
  -1  -1  -2 1716.21 102.788   1
  -1  -1  -2 1522.60 98.4922   1
  -1  -1  -2 1681.79 100.165   1
  -1  -1  -2 1761.63 88.6862   1
   1   1   2 1574.69 93.7038   1
   1   1   2 1736.29 130.499   1
   1   1   2 1448.74 97.7705   1
  -2  -1  -2 936.919 71.1375   1
  -2  -1  -2 949.196 71.3919   1
  -2  -1  -2 1014.70 72.4097   1
  -2  -1  -2 933.593 55.7795   1
   2   1   2 983.738 63.7129   1
   2   1   2 990.908 71.9008   1
   2   1   2 898.279 71.3919   1
   2   1   2 1096.32 107.978   1
  -3  -1  -2 3225.51 184.818   1
  -3  -1  -2 2526.39 157.635   1
  -3  -1  -2 2644.43 181.129   1
   3   1   2 3004.71 169.246   1
   3   1   2 3258.59 239.448   1
   3   1   2 2665.94 179.148   1
  -4  -1  -2 976.724 68.1572   1
  -4  -1  -2 825.015 94.5389   1
  -4  -1  -2 1132.17  98.934   1
   4   1   2 1108.61 81.9783   1
   4   1   2 1265.34 160.465   1
  -5  -1  -2 419.568 82.9185   1
  -5  -1  -2 494.792 41.7977   1
  -5  -1  -2 384.456 70.8779   1
   5   1   2 521.177 110.669   1
   5   1   2 517.163 57.8399   1
   5   1   2 471.055 57.5074   1
  -6  -1  -2 21.7781 5.20781   1
  -6  -1  -2 29.2607 2.92145   1
  -7  -1  -2 47.6281 3.68539   1
  -7  -1  -2  42.815 5.66906   1
  -8  -1  -2 6.86727 1.82856   1
   8   1   2 7.09483  1.1459   1
   9  -2  -2 25.6171 4.59135   1
  -9   2   2 24.6474 2.17124   1
   8  -2  -2 15.1743 6.01073   1
  -8   2   2 22.0495 2.57312   1
  -8   2   2  22.619 3.15283   1
  -7   2   2 145.007 9.11934   1
  -7   2   2  114.05 17.5906   1
  -7   2   2 151.846  10.103   1
   6  -2  -2-4.09848 30.7265   1
   6  -2  -2 5.11703 19.4617   1
   6  -2  -2-15.3632 48.1389   1
  -6   2   2 -1.3702 36.5346   1
  -6   2   2 11.6043 24.5787   1
  -6   2   2-6.82675 81.9453   1
   5  -2  -2 414.112  81.515   1
   5  -2  -2 371.376 43.3898   1
   5  -2  -2 450.591 58.5068   1
  -5   2   2 428.237 54.5612   1
  -5   2   2 545.881 123.913   1
  -5   2   2 421.992 64.7521   1
   4  -2  -2 58.9362 19.5422   1
   4  -2  -2 68.8567 37.5893   1
   4  -2  -2 56.5228 17.7374   1
  -4   2   2 115.459 78.7773   1
  -4   2   2 43.3024 28.5657   1
  -4   2   2 63.4426 21.3469   1
   3  -2  -2 380.474 54.4709   1
   3  -2  -2 379.381 31.8642   1
   3  -2  -2 401.175 35.1338   1
  -3   2   2 337.988 39.7673   1
  -3   2   2 334.167 30.7807   1
  -3   2   2 265.805 24.7832   1
  -3   2   2 384.556 77.3581   1
   2  -2  -2 2363.22  123.40   1
   2  -2  -2 2313.87 147.048   1
   2  -2  -2 2183.16  123.40   1
  -2   2   2 2110.16 171.223   1
  -2   2   2 2016.72 128.909   1
  -2   2   2 2033.35 117.354   1
  -2   2   2 2179.13 121.888   1
   1  -2  -2 8.21327 5.56133   1
   1  -2  -2 21.7476 15.9459   1
   1  -2  -2 12.0839 10.1529   1
   1  -2  -2  15.225 16.4351   1
  -1   2   2 11.6033 7.25205   1
  -1   2   2 30.6903 28.7593   1
  -1   2   2 11.6033 12.3242   1
   0  -2  -2 302.806 36.1703   1
   0  -2  -2 260.368 18.0851   1
   0  -2  -2 264.949 25.5607   1
   0  -2  -2 278.453 30.3817   1
   0   2   2 226.372 27.0078   1
   0   2   2 224.446 29.6538   1
   0   2   2 281.587 51.8406   1
  -1  -2  -2 589.748   51.48   1
  -1  -2  -2 526.774 48.7374   1
  -1  -2  -2 637.207 57.2316   1
  -1  -2  -2 524.271 35.2372   1
   1   2   2 587.751  79.723   1
  -2  -2  -2 695.759 61.7926   1
  -2  -2  -2 609.014 56.6878   1
  -2  -2  -2 581.066 40.8389   1
  -2  -2  -2 715.911  67.699   1
   2   2   2 565.752 58.0332   1
   2   2   2 790.604 103.166   1
   2   2   2 706.245 49.9704   1
  -3  -2  -2 1634.93 109.597   1
  -3  -2  -2 1555.79 137.369   1
  -3  -2  -2 2226.89 141.209   1
   3   2   2 2415.07 218.869   1
   3   2   2 1893.72 120.236   1
   3   2   2 1841.14 140.621   1
  -4  -2  -2 15.4801 12.8924   1
  -4  -2  -2 22.2469 30.9487   1
  -4  -2  -2 23.5293 28.6931   1
   4   2   2 14.5068 18.0563   1
   4   2   2 3.22883 20.3119   1
  -5  -2  -2  19.993 5.67001   1
  -5  -2  -2 29.3326 3.33809   1
  -6  -2  -2 898.327 50.2563   1
  -6  -2  -2 891.453 47.4513   1
  -7  -2  -2 4.73541  2.6339   1
   7   2   2 10.2554 1.57847   1
  -8  -2  -2 42.8964 3.31954   1
   8   2   2 51.3976 2.89999   1
   9  -3  -2 93.7477 9.12945   1
  -8   3   2 24.4679 3.45598   1
   7  -3  -2 314.687 19.1793   1
  -7   3   2 329.963 19.5027   1
  -7   3   2  358.90 27.6317   1
   6  -3  -2  -0.339 14.6618   1
   6  -3  -2-22.8341 31.0185   1
   6  -3  -2-22.8341 47.0484   1
  -6   3   2 6.47732  19.093   1
   5  -3  -2 1016.35 80.9019   1
   5  -3  -2 855.861 84.2092   1
   5  -3  -2 1117.73 130.442   1
  -5   3   2 1390.13 184.897   1
  -5   3   2 1077.77  84.866   1
  -5   3   2 949.969 94.7764   1
   4  -3  -2 43.2056 17.3449   1
   4  -3  -2 97.0667 45.9505   1
   4  -3  -2 85.5034 22.5214   1
  -4   3   2 55.6875 29.2108   1
  -4   3   2 128.709 28.9082   1
  -4   3   2 150.312 88.8536   1
   3  -3  -2 94.2497 18.8539   1
   3  -3  -2 113.104 21.0691   1
   3  -3  -2 91.7588 34.6557   1
  -3   3   2 101.456 26.8877   1
  -3   3   2 120.586 69.5772   1
  -3   3   2 102.845 13.5866   1
   2  -3  -2 260.927 28.5903   1
   2  -3  -2 276.379 26.2757   1
   2  -3  -2 288.492 40.7035   1
   2  -3  -2 333.569 50.2366   1
  -2   3   2 243.928 56.4121   1
  -2   3   2 291.585 35.0312   1
  -2   3   2 283.598 26.0195   1
   1  -3  -2 683.514 61.2653   1
   1  -3  -2 560.267 53.2965   1
   1  -3  -2 679.278 63.0076   1
  -1   3   2 656.114 47.5653   1
  -1   3   2 659.351  89.647   1
  -1   3   2 595.627 53.7917   1
   0  -3  -2 3025.36 166.573   1
   0  -3  -2 3134.41 186.679   1
   0  -3  -2 3035.16 173.105   1
   0  -3  -2 3355.51 196.478   1
   0   3   2 3082.65 180.396   1
   0   3   2 3270.33 239.449   1
   0   3   2 2710.02 184.163   1
  -1  -3  -2 114.575 44.1462   1
  -1  -3  -2 122.461  31.005   1
  -1  -3  -2 112.997 14.9798   1
   1   3   2 84.0924 18.6571   1
   1   3   2 171.582 44.4075   1
   1   3   2 53.8714 26.5437   1
  -2  -3  -2 236.298 59.0845   1
  -2  -3  -2 186.551 28.5533   1
  -2  -3  -2 170.718 16.6762   1
  -2  -3  -2 223.296 41.2738   1
   2   3   2  309.80 111.663   1
   2   3   2 140.779 38.1615   1
  -3  -3  -2 129.846 24.9267   1
  -3  -3  -2 209.817 46.4658   1
  -3  -3  -2 104.002 47.6897   1
   3   3   2 110.766 90.1558   1
   3   3   2 132.622 44.9249   1
  -4  -3  -2 68.1799 26.2266   1
  -4  -3  -2 34.4101 33.4323   1
  -4  -3  -2 44.5725 58.6694   1
   4   3   2-5.24998  80.298   1
   4   3   2 60.3108 35.0736   1
  -5  -3  -2 2.60489  1.6324   1
  -5  -3  -2-0.64833 1.95657   1
  -5  -3  -2-0.64833 3.91313   1
  -6  -3  -2-0.58086  3.2155   1
  -7  -3  -2 97.7956 6.64278   1
   7   3   2 100.881 5.93467   1
   9  -4  -2 26.6159 5.46805   1
   8  -4  -2 62.2691 10.5709   1
   8  -4  -2 68.5589 5.99561   1
  -8   4   2 77.4053 5.99561   1
   7  -4  -2-0.95646 2.56194   1
  -7   4   2 4.16743 2.24312   1
   6  -4  -2 363.574   45.24   1
   6  -4  -2 187.674 74.6165   1
  -6   4   2 442.579 56.0433   1
   5  -4  -2 25.4731 45.6589   1
   5  -4  -2 25.4731 17.2014   1
   5  -4  -2 18.2001 25.1441   1
  -5   4   2 25.1441 33.4159   1
  -5   4   2 48.9606 79.4038   1
  -5   4   2 45.3182 21.8308   1
   4  -4  -2 -0.3073 12.9836   1
   4  -4  -2-46.9735 46.9735   1
   4  -4  -2 11.4361  12.358   1
  -4   4   2 22.5539 21.0173   1
  -4   4   2 11.1288 50.0575   1
  -4   4   2 25.0342  15.453   1
   3  -4  -2 2844.76 193.383   1
   3  -4  -2 4009.70 248.165   1
  -3   4   2 3326.24  188.54   1
  -3   4   2 3264.65 267.557   1
  -3   4   2 3537.92 203.089   1
   2  -4  -2 2991.06 194.283   1
   2  -4  -2 2629.84  181.93   1
   2  -4  -2 3014.40  170.13   1
  -2   4   2 2647.29 160.999   1
  -2   4   2 2917.79 174.686   1
  -2   4   2 2478.77 223.535   1
   1  -4  -2 1381.69 105.527   1
   1  -4  -2 1251.55 100.551   1
   1  -4  -2 1412.84 112.865   1
  -1   4   2 1402.11 101.602   1
  -1   4   2 1363.88 154.203   1
  -1   4   2 1358.12  93.223   1
   0  -4  -2 1905.88 133.806   1
   0  -4  -2 1898.98 106.748   1
   0  -4  -2 2000.12 147.348   1
   0   4   2 1729.30 177.621   1
   0   4   2 1781.34 130.118   1
   0   4   2 1734.34 122.149   1
  -1  -4  -2 1297.82 117.615   1
  -1  -4  -2 1365.11 90.6455   1
  -1  -4  -2 1642.04 137.919   1
   1   4   2 1460.21 114.001   1
   1   4   2 1755.47  182.93   1
  -2  -4  -2 1013.37 109.438   1
  -2  -4  -2 1406.14 124.002   1
  -2  -4  -2 1104.93 80.8901   1
   2   4   2 1445.40 176.313   1
   2   4   2 1314.88  112.11   1
  -3  -4  -2 37.5041 19.3956   1
  -3  -4  -2 63.8879 42.2796   1
   3   4   2   35.28 36.8719   1
   3   4   2 73.1115  33.056   1
   3   4   2 77.2435 69.2956   1
  -4  -4  -2 46.4468 4.25201   1
  -4  -4  -2 46.7721 5.23949   1
  -4  -4  -2 49.3976 7.52814   1
  -5  -4  -2  511.17  31.006   1
  -5  -4  -2  545.27 29.4535   1
  -6  -4  -2 8.73521 2.65159   1
   6   4   2 9.26177 1.58907   1
  -7  -4  -2 8.31897 1.24858   1
   7   4   2  11.023 1.04172   1
   9  -5  -2 39.0346 6.46309   1
   9  -5  -2 38.5313 3.47877   1
   8  -5  -2 163.058 10.3703   1
   8  -5  -2  156.34  16.252   1
  -8   5   2 150.727 9.80298   1
   7  -5  -2 178.645 11.8704   1
  -7   5   2  180.83 11.2492   1
   6  -5  -2 388.745 22.5038   1
  -6   5   2 386.101 27.4628   1
  -6   5   2 396.689  22.163   1
   5  -5  -2 29.9644 64.5486   1
   5  -5  -2 94.1855 32.9351   1
  -5   5   2 115.589 32.2684   1
   4  -5  -2 316.722 87.1919   1
   4  -5  -2 362.824  49.555   1
  -4   5   2 441.863 41.0898   1
  -4   5   2 378.819 52.6849   1
  -4   5   2 437.474 104.434   1
   3  -5  -2-5.60487 33.0426   1
   3  -5  -2 17.6946 32.1521   1
   3  -5  -2 8.55922 15.3374   1
  -3   5   2 14.7508 21.2357   1
  -3   5   2  20.649 8.55922   1
  -3   5   2  21.529 48.0867   1
   2  -5  -2-0.84034  19.998   1
   2  -5  -2 5.35215 5.35215   1
   2  -5  -2 2.82113 8.73351   1
   2  -5  -2 -17.467 30.4222   1
   2  -5  -2 16.3366 25.6303   1
  -2   5   2-1.41057 18.3074   1
  -2   5   2 12.6751 44.5079   1
  -2   5   2-2.53102 20.8484   1
   1  -5  -2 7034.17 427.409   1
   1  -5  -2 6741.18 409.973   1
   1  -5  -2 7061.34 378.645   1
  -1   5   2 7187.17 502.254   1
  -1   5   2 7182.73 395.835   1
  -1   5   2 7101.23  408.86   1
   0  -5  -2 1066.99 69.3227   1
   0  -5  -2 994.296  117.78   1
   0  -5  -2 952.615 97.4941   1
   0   5   2 1089.26 152.136   1
   0   5   2 1089.26 96.0831   1
   0   5   2 955.156 87.0662   1
  -1  -5  -2 1940.15 175.753   1
  -1  -5  -2 1945.14 140.508   1
  -1  -5  -2 2686.43 202.792   1
   1   5   2 2578.85 173.696   1
   1   5   2 2450.12 249.238   1
   1   5   2 2675.84 180.451   1
  -2  -5  -2 1093.26 79.0962   1
  -2  -5  -2 902.842 111.352   1
  -2  -5  -2 1267.89 117.554   1
   2   5   2 923.002 98.9473   1
   2   5   2 1182.28 97.7025   1
   2   5   2 1283.70 157.542   1
  -3  -5  -2 237.466   14.18   1
  -3  -5  -2 229.409 15.7937   1
  -4  -5  -2 343.674 19.6436   1
  -4  -5  -2  352.55 21.2187   1
   4   5   2 328.474 19.0023   1
  -5  -5  -2 5.96698 1.70629   1
  -5  -5  -2 4.26068 2.84719   1
   5   5   2 9.09686 1.70629   1
  -6  -5  -2 116.317 7.41592   1
   6   5   2 124.655 6.72453   1
   9  -6  -2 37.6379 6.43714   1
   9  -6  -2 39.6165 3.71103   1
   8  -6  -2 7.36024 2.45019   1
   8  -6  -2    0.00 4.91006   1
  -8   6   2 1.09435 1.63669   1
   7  -6  -2 40.6372 9.93212   1
   7  -6  -2 43.9515 5.12108   1
  -7   6   2 49.0726 4.82173   1
   6  -6  -2 394.107 23.0683   1
  -6   6   2 401.151  22.431   1
   5  -6  -2  69.082 105.092   1
   5  -6  -2 46.0547  31.137   1
  -5   6   2 35.6757 21.4031   1
   4  -6  -2 321.529 39.8027   1
   4  -6  -2 321.529 89.0737   1
  -4   6   2 427.027  42.641   1
   3  -6  -2 341.702 75.5685   1
   3  -6  -2 532.558 76.7865   1
  -3   6   2 548.036 114.716   1
  -3   6   2 545.611 64.9516   1
  -3   6   2 544.706 46.1323   1
   2  -6  -2 270.823 28.2628   1
   2  -6  -2 254.041 62.1195   1
   2  -6  -2 188.094 47.6902   1
  -2   6   2 316.464  44.752   1
  -2   6   2 362.387  55.344   1
  -2   6   2  332.65  95.098   1
   1  -6  -2 96.9768 37.9691   1
   1  -6  -2 97.2673 17.8227   1
   1  -6  -2 66.0102 37.9691   1
  -1   6   2  209.11 109.249   1
  -1   6   2 186.619 50.2416   1
  -1   6   2 123.846 34.1722   1
   0  -6  -2 163.598 63.5534   1
   0  -6  -2 236.348 60.8745   1
   0  -6  -2 250.902 30.8802   1
   0   6   2 372.946 140.754   1
   0   6   2 224.768 52.2686   1
   0   6   2 240.798 49.8851   1
  -1  -6  -2  464.67 46.3536   1
  -1  -6  -2 602.487 113.573   1
  -1  -6  -2 471.418 94.2334   1
   1   6   2 480.629 124.932   1
   1   6   2  464.67 71.5254   1
   1   6   2 601.561 77.9682   1
  -2  -6  -2 195.059 12.0351   1
  -2  -6  -2 202.651  13.621   1
  -3  -6  -2 275.995 17.3943   1
  -3  -6  -2 273.154 15.8109   1
  -4  -6  -2  323.19 18.2541   1
  -4  -6  -2 335.851 19.4251   1
  -5  -6  -2 115.024 7.50427   1
   9  -7  -2 2.72609 3.46477   1
   9  -7  -2 5.69841 1.73239   1
   8  -7  -2 38.1117 7.40617   1
   8  -7  -2 34.6718 3.96625   1
  -8   7   2 39.4275 4.50197   1
   7  -7  -2 10.3687 3.16992   1
  -7   7   2 8.35426 2.30075   1
   6  -7  -2 58.3022 6.13536   1
  -6   7   2 55.5343 5.21996   1
   5  -7  -2  17.652 3.78337   1
   4  -7  -2 17.2544 9.41248   1
  -4   7   2 16.9313 16.9313   1
   3  -7  -2   67.40 43.7018   1
  -3   7   2   78.79 116.032   1
  -3   7   2 43.0896  44.937   1
  -3   7   2 58.4804 15.6968   1
   2  -7  -2 8.79712 32.7443   1
  -2   7   2 50.0262  34.564   1
  -2   7   2 40.0231  31.829   1
  -2   7   2 102.777  83.072   1
   1  -7  -2 18.4794 13.9295   1
   1  -7  -2 18.1675 26.3531   1
   1  -7  -2 1.51665 32.1078   1
  -1   7   2 34.5279 69.6582   1
  -1   7   2-6.35701 18.7806   1
  -1   7   2 9.69149 33.0113   1
   0  -7  -2 82.5542 21.4833   1
   0  -7  -2 116.627  10.431   1
   0  -7  -2 79.7965  54.324   1
   0  -7  -2 96.9853 7.06299   1
  -1  -7  -2  212.27 14.6695   1
  -1  -7  -2 166.998 11.8643   1
  -1  -7  -2 181.357 11.2433   1
  -2  -7  -2 31.8116 4.36413   1
  -2  -7  -2  36.796 3.74385   1
  -3  -7  -2 67.3037 5.92803   1
  -3  -7  -2 62.8498 5.04356   1
  -4  -7  -2 18.7743 2.61191   1
  -4  -7  -2 16.6903 1.82463   1
  -5  -7  -2 30.1874 2.11447   1
  -5  -7  -2  25.546 2.11447   1
   9  -8  -2 21.1205  2.2594   1
   8  -8  -2 25.5766 3.10075   1
   7  -8  -2 45.9335 4.95285   1
  -7   8   2   45.66 4.40579   1
   6  -8  -2 33.2513 4.37135   1
  -6   8   2 38.5031 4.37135   1
   5  -8  -2 64.9971 6.64572   1
  -5   8   2 80.1137 6.34511   1
   4  -8  -2    0.00 3.36943   1
  -4   8   2 3.67376 2.14122   1
   3  -8  -2 203.604 15.2893   1
  -3   8   2 220.413 13.1501   1
   2  -8  -2 537.391 32.6404   1
   2  -8  -2 563.022 30.5062   1
   1  -8  -2 18.0395 5.20224   1
   1  -8  -2 14.6836 2.74774   1
   0  -8  -2 10.1367 3.99357   1
   0  -8  -2 2.76058 2.14954   1
   0  -8  -2 3.68805 2.45506   1
  -1  -8  -2 76.8967 7.93353   1
  -1  -8  -2 57.3664 5.19148   1
  -1  -8  -2 62.5578 5.49495   1
  -2  -8  -2 85.1767 6.14345   1
  -2  -8  -2 82.5364 5.85239   1
  -3  -8  -2 4.22788  1.3218   1
  -3  -8  -2 5.27782 1.58428   1
  -4  -8  -2 20.9539 1.76248   1
  -4  -8  -2 20.7346 1.98181   1
   7  -9  -2 43.7492 4.77418   1
  -7   9   2 45.8679 3.97378   1
   6  -9  -2-2.21675 2.21675   1
  -6   9   2 0.27586 1.66503   1
  -5   9   2 57.5451 5.18121   1
   4  -9  -2 57.9401 6.76856   1
  -4   9   2 54.1171 5.29577   1
   3  -9  -2 70.7356 8.02254   1
  -3   9   2 70.7356 5.64744   1
   2  -9  -2  291.42 19.1113   1
   1  -9  -2 129.921 11.0531   1
   1  -9  -2 135.002 8.96338   1
   0  -9  -2 374.836 20.6785   1
   0  -9  -2 358.585 20.3848   1
   0  -9  -2 364.502 22.1578   1
  -1  -9  -2  76.775 5.68592   1
  -1  -9  -2  79.623 5.68592   1
  -1  -9  -2 87.5813 7.10992   1
  -2  -9  -2  58.923 3.90782   1
  -2  -9  -2 51.3666 3.90782   1
  -3  -9  -2  19.698 1.56599   1
  -3  -9  -2 16.3355 1.56599   1
   8 -10  -2  78.806  5.0414   1
   7 -10  -2 121.464 7.32598   1
  -7  10   2 113.348 7.32598   1
  -6  10   2 276.917 15.5035   1
  -5  10   2 1.64848 1.64848   1
   4 -10  -2  3.9265 2.81034   1
  -4  10   2 3.36842 1.68421   1
   3 -10  -2 489.053 28.1408   1
  -3  10   2 481.664 26.7176   1
   2 -10  -2    0.00  2.5617   1
  -2  10   2 1.42767 1.42767   1
   1 -10  -2 0.28053  2.2543   1
   0 -10  -2 66.7602 4.63586   1
   0 -10  -2 66.7602 5.71981   1
  -1 -10  -2  116.82 6.82525   1
  -1 -10  -2 123.654 7.07671   1
  -6  11   2 161.869 9.03521   1
  -5  11   2 75.0311 5.07351   1
   4 -11  -2 14.0057 2.69782   1
  -4  11   2 14.0057 2.15251   1
   3 -11  -2 123.227 8.37894   1
  -3  11   2 114.858 7.29438   1
   2 -11  -2 4.01205 2.13913   1
  -2  11   2  7.2255 1.60672   1
   1 -11  -2 7.52751 1.81508   1
  -1  11   2 11.4157  1.5571   1
   0 -11  -2 47.8453 3.15691   1
   0  11   2 41.5315  2.9154   1
   4 -12  -2 133.341 7.69345   1
  -4  12   2 133.341 7.69345   1
   3 -12  -2 14.5407 1.81643   1
  -3  12   2 10.9078 1.30008   1
   2 -12   3 44.9058 3.26693   1
   2 -12   3 43.0017 2.99629   1
   3 -12   3 104.454 6.68725   1
   4 -12   3 10.6788 1.68664   1
  -1 -11   3 49.9039 3.22757   1
   0 -11   3 25.7071 2.73873   1
   0 -11   3 33.9039 3.28259   1
  -1  11  -3  59.209 4.58189   1
   1 -11   3 67.7937 4.86635   1
   1 -11   3 70.6586 5.15081   1
   2 -11   3 54.8201 4.34688   1
   2 -11   3 50.7513 4.93401   1
   3 -11   3 242.705 14.1795   1
   3 -11   3 233.447 13.5938   1
   4 -11   3 25.7561  3.1509   1
   4 -11   3 28.6224  2.8663   1
   5 -11   3 5.91874  1.6925   1
   5 -11   3 2.82417 1.97291   1
  -2 -10   3 20.6881 2.06606   1
  -2 -10   3 20.9452 2.32317   1
  -1 -10   3 0.28432 1.14744   1
  -1 -10   3 2.28472 1.71608   1
   0 -10   3  414.22 22.9141   1
   0 -10   3 418.986 22.6182   1
   0 -10   3 408.565  23.506   1
   1 -10   3 38.9296 4.19078   1
   1 -10   3 43.4288 5.09488   1
   1 -10   3  45.822  4.4886   1
   2 -10   3 576.471 30.9356   1
   2 -10   3 555.942 31.8336   1
   3 -10   3  28.861 3.82861   1
   3 -10   3  22.093 3.82861   1
   4 -10   3 267.856 16.5802   1
   4 -10   3 292.008 16.0017   1
   5 -10   3  276.89 15.7056   1
   6 -10   3 9.45606 2.49988   1
   7 -10   3 38.0533  3.8034   1
  -3  -9   3 4.74317 1.31911   1
  -3  -9   3    0.00 0.78585   1
  -2  -9   3 74.0755 5.58568   1
  -2  -9   3 64.6686 4.70868   1
  -1  -9   3 58.1905 5.18283   1
  -1  -9   3 45.7041 5.48579   1
   0  -9   3 5.45949 3.03664   1
   0  -9   3 7.88235 2.72436   1
   0  -9   3 10.6067 2.42285   1
   1  -9   3 10.1385 3.58078   1
   1  -9   3 5.37118 2.38366   1
   1  -9   3 11.3356 2.68029   1
   2  -9   3 19.7477 4.41863   1
   2  -9   3 26.2395 3.83227   1
   3  -9   3 36.4254 4.70577   1
   3  -9   3 39.3678 4.40319   1
   4  -9   3 279.631 16.7272   1
   4  -9   3 280.506 16.1436   1
   5  -9   3 125.261 7.84429   1
   5  -9   3 102.585 8.72161   1
   6  -9   3 67.6229 5.93924   1
  -7   9  -3 61.1351 5.43316   1
   8  -9   3 10.7904 1.84203   1
  -4  -8   3 17.0095 2.09134   1
  -4  -8   3 24.6034 2.62114   1
  -3  -8   3 14.8788 2.08176   1
  -2  -8   3 22.2307 3.09277   1
  -2  -8   3 28.7233 4.01403   1
  -1  -8   3 60.4204 5.76922   1
  -1  -8   3 62.8467  6.3731   1
   0  -8   3 110.453 7.63685   1
   0  -8   3 91.9448 8.52364   1
   1  -8   3  77.367 6.01472   1
   1  -8   3 64.1875 7.16474   1
   2  -8   3 294.448  16.234   1
   2  -8   3  261.98 17.0836   1
   3  -8   3 229.563 13.8323   1
   3  -8   3 239.651 14.9782   1
   4  -8   3 67.4802 6.45001   1
   4  -8   3 71.0022 5.86649   1
   4  -8   3  60.728 6.45001   1
   5  -8   3 2.06891 2.65702   1
   5  -8   3 4.73643 2.36297   1
   6  -8   3 177.006  11.606   1
  -7   8  -3 96.5145 6.91424   1
   7  -8   3 105.914 7.18924   1
   8  -8   3   1.306 3.90875   1
   8  -8   3 -0.5187 1.56535   1
  -5  -7   3  1.5159  1.5159   1
  -5  -7   3 1.76705 1.01359   1
  -4  -7   3  5.3335 1.77783   1
  -4  -7   3 2.96656 2.07238   1
  -3  -7   3 328.087 19.3409   1
  -3  -7   3 333.393 19.0308   1
  -2  -7   3 82.3385 7.01859   1
  -1  -7   3 21.7308 3.76585   1
  -1  -7   3 34.1807 3.76585   1
  -1  -7   3 25.4966 3.47775   1
   0   7  -3 27.0889 22.6706   1
   0  -7   3-2.48404 22.6706   1
   0  -7   3    0.00 53.6279   1
   0  -7   3 17.9676 10.7806   1
  -1   7  -3 314.824 41.8156   1
   1  -7   3 333.173 67.4472   1
   1  -7   3 387.129 32.3774   1
   1  -7   3 251.967 36.6892   1
  -2   7  -3-20.0599 27.3754   1
  -2   7  -3 2.98396 13.0139   1
  -2   7  -3 1.62674  14.631   1
   2  -7   3   7.046 21.9562   1
  -3   7  -3 459.119 69.5464   1
  -3   7  -3 485.932 48.0407   1
  -3   7  -3 484.533 39.3809   1
   3  -7   3  424.49 44.4101   1
   3  -7   3 392.956 80.4381   1
   3  -7   3 555.756 58.9324   1
  -4   7  -3 95.7962 27.9509   1
  -4   7  -3 68.4244 9.60651   1
  -4   7  -3 132.764 30.2776   1
   4  -7   3   50.08 23.8767   1
   4  -7   3 27.6614 87.3479   1
   5  -7   3 112.504   7.501   1
   5  -7   3 100.198 8.39601   1
   6  -7   3 44.7579 10.1405   1
   6  -7   3 49.2295 5.37222   1
  -7   7  -3 43.4062 4.54415   1
   7  -7   3 54.1872 5.10839   1
   7  -7   3 54.4693 9.36034   1
  -8   7  -3 47.7525 4.72401   1
   8  -7   3 55.0948 7.87334   1
   8  -7   3 65.8472 4.72401   1
   9  -7   3 0.73544 0.98935   1
   9  -7   3-1.23449 2.71413   1
  -6  -6   3 315.188 16.9722   1
  -6  -6   3 318.253 17.2067   1
  -5  -6   3 127.362 8.64773   1
  -5  -6   3 130.535 8.36118   1
  -4  -6   3 57.3901 5.02289   1
  -4  -6   3 63.6604 6.27026   1
  -3  -6   3 288.201 17.6476   1
  -3  -6   3 322.253 18.2634   1
   2   6  -3 289.317 110.798   1
   2   6  -3 318.979   53.22   1
   2   6  -3 275.364 58.4459   1
  -2  -6   3 177.073 79.6802   1
  -2  -6   3 206.735 38.0999   1
   1   6  -3 217.181 45.8227   1
   1   6  -3 187.624  44.744   1
   1   6  -3 234.266 96.5377   1
  -1  -6   3 172.707 27.3896   1
  -1  -6   3 201.175 59.6523   1
  -1  -6   3 196.571 54.7792   1
   0   6  -3-3.09152 16.2259   1
   0  -6   3 4.89339 31.6744   1
   0  -6   3 9.27457 17.7717   1
   0  -6   3-3.34763 7.20746   1
  -1   6  -3 1994.82 134.259   1
   1  -6   3 2340.35 157.728   1
   1  -6   3 2180.32 120.652   1
   1  -6   3 2041.52 140.821   1
  -2   6  -3 566.616 64.9342   1
  -2   6  -3 595.619 52.3557   1
  -2   6  -3 591.517 42.0924   1
   2  -6   3 574.318 47.9897   1
   2  -6   3 623.337  85.716   1
   2  -6   3 608.963 59.5382   1
  -3   6  -3 13.4843 12.6702   1
  -3   6  -3-8.89694 15.6391   1
  -3   6  -3  21.299 10.2473   1
   3  -6   3 74.6902 54.4734   1
   3  -6   3 7.01029 14.8346   1
   3  -6   3 10.2473 22.1131   1
  -4   6  -3 759.136 47.2204   1
  -4   6  -3 825.069 61.0348   1
  -4   6  -3 725.444  66.219   1
   4  -6   3  646.30 68.5197   1
   4  -6   3 841.767 131.283   1
   5  -6   3 14.8788 3.34234   1
   5  -6   3 37.0353 4.24801   1
  -6   6  -3 176.774 11.6442   1
   6  -6   3 204.351 19.9149   1
   6  -6   3 180.137 11.9489   1
  -7   6  -3 16.0349  2.9192   1
   7  -6   3 13.9956  2.9192   1
   7  -6   3 14.2855 7.28765   1
  -8   6  -3 235.351 15.3903   1
   8  -6   3 278.072 19.3675   1
   8  -6   3 299.042 15.3903   1
   9  -6   3 1.69213 1.21112   1
   9  -6   3 0.48101 2.90324   1
  -7  -5   3 132.153  7.2343   1
  -6  -5   3 138.594 7.87149   1
  -6  -5   3 111.771 7.05254   1
  -6  -5   3 128.853 8.14125   1
  -5  -5   3 12.7243 3.72687   1
  -5  -5   3 15.2162 2.78964   1
  -4  -5   3 331.991 19.6268   1
  -4  -5   3 309.195 18.3565   1
   3   5  -3 345.249 57.3471   1
   3   5  -3 311.197  99.461   1
   3   5  -3 288.507  56.753   1
  -3  -5   3 212.341 39.7271   1
  -3  -5   3 206.358 77.0568   1
   2   5  -3 310.439 47.7186   1
   2   5  -3 239.947 76.2485   1
   2   5  -3 264.629 51.0109   1
  -2  -5   3 277.798 68.2905   1
  -2  -5   3 262.983  37.569   1
  -2  -5   3 310.711 48.8193   1
   1   5  -3 0.25225 19.0269   1
   1   5  -3 1.27026 15.4773   1
   1   5  -3-4.06303 31.7114   1
  -1  -5   3 13.6936 20.8016   1
  -1  -5   3-7.86479 25.6214   1
  -1  -5   3    0.00 11.9188   1
   0   5  -3 914.613 73.4193   1
   0   5  -3 1015.71 73.8981   1
   0   5  -3 752.882 98.6904   1
   0  -5   3 861.173 75.1035   1
   0  -5   3 844.083 74.1375   1
   0  -5   3 901.858  54.885   1
  -1   5  -3 550.275 48.8205   1
   1  -5   3 542.219 71.5726   1
   1  -5   3 531.319 42.6591   1
   1  -5   3 556.672 53.8036   1
   1  -5   3 653.354 62.3304   1
   1  -5   3 573.507 37.9201   1
  -2   5  -3 1035.78  70.964   1
  -2   5  -3 1031.64 61.6973   1
  -2   5  -3 942.633 79.2521   1
   2  -5   3 1071.38 70.4704   1
   2  -5   3 1125.73 109.486   1
   2  -5   3 1043.09  77.546   1
  -3   5  -3 69.2046 13.0582   1
  -3   5  -3 84.8689 26.8954   1
  -3   5  -3 55.0985 14.3658   1
   3  -5   3 75.7244  23.501   1
   3  -5   3 146.728  50.925   1
   3  -5   3 43.8673 16.7122   1
  -4   5  -3 1249.21 93.5315   1
  -4   5  -3 1153.97 68.4446   1
  -4   5  -3 1199.88 78.9878   1
   4  -5   3 1076.11 80.4158   1
   4  -5   3 1191.32 125.191   1
   5  -5   3 478.899 53.4194   1
   5  -5   3 632.713 106.228   1
  -6   5  -3 38.2979 4.70501   1
   6  -5   3 34.8416 4.39283   1
   6  -5   3 40.8065 9.42117   1
  -7   5  -3 79.7148 6.56338   1
   7  -5   3 82.1005 6.56338   1
   7  -5   3 91.9509 12.8405   1
  -8   5  -3 18.7611 3.21728   1
   8  -5   3  17.419 5.35896   1
   8  -5   3 21.9784 2.68424   1
   9  -5   3 111.656 9.28421   1
  -7  -4   3 34.4031 2.70547   1
  -7  -4   3 39.0723 3.43857   1
  -7  -4   3 45.2163  3.1942   1
  -6  -4   3 62.4925 5.06239   1
  -6  -4   3 54.1644 4.16405   1
  -6  -4   3 62.1966 5.95016   1
  -5  -4   3 120.934 7.70151   1
  -5  -4   3 122.541 8.65851   1
  -5  -4   3 120.934 9.94589   1
  -4  -4   3 162.027 11.2231   1
  -4  -4   3 133.383 9.35261   1
   3   4  -3 712.248 120.247   1
  -3  -4   3 575.112 75.8736   1
  -3  -4   3 640.106 54.1141   1
  -3  -4   3 756.885 93.9015   1
   2   4  -3 192.009 35.9122   1
   2   4  -3 196.954 75.4564   1
  -2  -4   3 113.975 21.3385   1
  -2  -4   3 120.739 42.4182   1
  -2  -4   3 112.413 27.0589   1
  -2  -4   3 90.0301 31.2268   1
   1   4  -3 154.113 28.3259   1
   1   4  -3 127.458 29.2894   1
   1   4  -3 154.113 61.2222   1
  -1  -4   3 112.357 36.2558   1
  -1  -4   3  154.59 30.7305   1
  -1  -4   3 137.784 17.7698   1
   0   4  -3 3576.43 254.339   1
   0   4  -3 4191.92 219.959   1
   0   4  -3 4134.54 223.824   1
   0  -4   3 3325.74 231.799   1
   0  -4   3 3963.99 207.431   1
   0  -4   3 3903.42 224.738   1
   0  -4   3 3785.46 228.151   1
  -1   4  -3 657.349 48.5819   1
  -1   4  -3  587.40 65.2205   1
   1  -4   3 627.211 69.9493   1
   1  -4   3 651.949  52.408   1
   1  -4   3 623.832 44.5321   1
   1  -4   3 656.894 39.3559   1
   1  -4   3  638.45 56.9052   1
  -2   4  -3 68.1551 19.2055   1
  -2   4  -3 99.2965 15.6871   1
  -2   4  -3 80.3322 11.0043   1
   2  -4   3 101.642 19.2055   1
   2  -4   3 151.265 40.2825   1
   2  -4   3 111.008 22.0169   1
  -3   4  -3 3527.96 206.936   1
  -3   4  -3 3523.37  186.50   1
  -3   4  -3 3369.06 192.625   1
   3  -4   3 3456.43 200.039   1
   3  -4   3 3640.13  197.48   1
   3  -4   3 3284.49 232.998   1
   3  -4   3 3458.72 196.464   1
  -4   4  -3 96.4271 23.3264   1
  -4   4  -3 93.5884  14.507   1
  -4   4  -3 68.2718 27.5896   1
   4  -4   3 90.7395 30.4384   1
   4  -4   3 86.1833 22.1848   1
   4  -4   3 63.1499  43.521   1
  -5   4  -3 1017.50 82.7551   1
  -5   4  -3 1080.66 63.1546   1
   5  -4   3 1148.44 98.6211   1
   5  -4   3 987.327 81.1972   1
   5  -4   3 1215.95 137.811   1
  -6   4  -3 129.208 8.97297   1
   6  -4   3 121.511 8.97297   1
   6  -4   3 129.846 15.3952   1
  -7   4  -3 190.801 12.7668   1
   7  -4   3 208.424 12.4539   1
   7  -4   3 195.959 18.2275   1
  -8   4  -3 40.8715 4.57417   1
   8  -4   3 48.6638 7.52493   1
  -9   4  -3   2.571 1.63383   1
   9  -4   3 3.74039 3.03543   1
  -8  -3   3 2.15924 0.86523   1
  -7  -3   3 151.278 9.26609   1
  -7  -3   3 150.194 9.81799   1
  -7  -3   3 150.194 8.72388   1
  -6  -3   3 35.8743 5.66613   1
  -6  -3   3 29.8953 3.15157   1
  -6  -3   3 32.0969 4.09034   1
  -5  -3   3 22.0202 2.90919   1
  -5  -3   3 29.7818 5.50791   1
  -5  -3   3 16.5122 3.24265   1
   4   3  -3 16.4661 54.9013   1
   4   3  -3 11.5912 20.4309   1
  -4  -3   3 7.62639 7.32307   1
  -4  -3   3 7.62639 10.0638   1
  -4  -3   3-10.9846 12.1979   1
   3   3  -3 316.429 34.5824   1
   3   3  -3 375.356 83.8131   1
  -3  -3   3 262.492 53.3866   1
  -3  -3   3  229.02 48.4055   1
  -3  -3   3 338.288 33.4722   1
   2   3  -3 170.411 30.6215   1
   2   3  -3 146.564 56.9819   1
  -2  -3   3 152.582 19.5764   1
  -2  -3   3 88.6018 31.6289   1
  -2  -3   3 104.915 32.1281   1
   1   3  -3 280.285 53.0943   1
   1   3  -3 396.412 38.7173   1
  -1  -3   3 362.561  36.634   1
  -1  -3   3 355.611 25.2708   1
  -1  -3   3 300.681 39.1784   1
  -1  -3   3  332.91 40.1089   1
  -1  -3   3  386.21 40.3394   1
   0   3  -3 453.273 55.2895   1
   0   3  -3 618.253 44.9797   1
   0  -3   3 524.584 56.6065   1
   0  -3   3 530.289 37.3039   1
   0  -3   3 562.301 47.8319   1
   0  -3   3  555.28 34.0075   1
   0  -3   3 582.266 45.1979   1
  -1   3  -3 1326.85 94.4111   1
  -1   3  -3 1492.43  80.305   1
  -1   3  -3 1457.27 92.4609   1
  -1   3  -3 1453.37 85.5158   1
   1  -3   3 1520.43 90.9424   1
   1  -3   3 1506.11 112.186   1
   1  -3   3 1533.89 86.8185   1
  -2   3  -3 19.7042 11.2316   1
  -2   3  -3  25.206 6.18553   1
  -2   3  -3 18.5647 7.10522   1
   2  -3   3 25.6699 11.2316   1
   2  -3   3  25.206 11.0037   1
   2  -3   3 23.3748 11.9153   1
   2  -3   3 23.1469 23.1469   1
  -3   3  -3 657.526 46.5384   1
  -3   3  -3 680.158 41.1919   1
  -3   3  -3 690.328  58.234   1
  -3   3  -3  696.18 48.3176   1
   3  -3   3 723.382 50.0968   1
   3  -3   3 701.012 79.5931   1
   3  -3   3 591.688 53.1494   1
  -4   3  -3 4511.32 250.118   1
  -4   3  -3 4011.38 256.139   1
  -4   3  -3 4165.68 235.773   1
   4  -3   3 4067.89 256.139   1
   4  -3   3 4716.72 302.607   1
   4  -3   3 4974.00 250.688   1
  -5   3  -3 17.3986 6.63821   1
  -5   3  -3 36.9987 17.7131   1
   5  -3   3 18.3421 19.2968   1
   5  -3   3 2.52724 36.3697   1
   5  -3   3 21.1839 46.4899   1
  -6   3  -3  53.165 5.87248   1
   6  -3   3 55.4468 9.78746   1
  -7   3  -3 137.288  10.111   1
   7  -3   3 144.646 15.0196   1
  -8   3  -3  46.167 5.07069   1
   8  -3   3 60.8483 8.27423   1
  -9   3  -3 9.53894 1.81425   1
   9  -3   3 15.4413 3.17696   1
  -8  -2   3 21.5658 2.15318   1
  -8  -2   3 29.7104 2.63828   1
  -7  -2   3 60.6047 4.98107   1
  -7  -2   3 54.7502  4.6899   1
  -6  -2   3 130.681  8.1279   1
  -6  -2   3 119.956 8.77444   1
  -6  -2   3  127.76 10.7256   1
   5   2  -3 65.7846 49.9024   1
   5   2  -3 123.467 114.709   1
   5   2  -3 54.1146 26.5739   1
  -5  -2   3 65.1286 33.6979   1
  -4  -2   3 454.845 53.1499   1
   3   2  -3 21.1763 12.4878   1
  -3  -2   3 59.4595  22.536   1
  -3  -2   3  23.346 12.2178   1
  -3  -2   3 7.87844  44.262   1
  -3  -2   3 25.2554  22.536   1
  -3  -2   3 15.2072 25.7954   1
   2   2  -3 290.042 27.7471   1
   2   2  -3 249.662 31.7059   1
  -2  -2   3 310.356 22.7853   1
  -2  -2   3 297.467 39.6324   1
  -2  -2   3 272.456 34.9258   1
  -2  -2   3 355.926 40.6265   1
  -2  -2   3 269.729 61.9251   1
  -1  -2   3 135.309 27.3921   1
  -1  -2   3 142.674 19.3322   1
  -1  -2   3 132.546 36.8252   1
  -1  -2   3 143.598 13.1197   1
  -1  -2   3 139.225 24.4003   1
  -1  -2   3 164.083 28.0787   1
  -1  -2   3 138.072 17.7219   1
  -1  -2   3 128.639 14.5012   1
  -1  -2   3  159.48 24.6291   1
   0   2  -3 335.037  27.131   1
   0  -2   3 293.609 41.8835   1
   0  -2   3 312.492 25.1733   1
   0  -2   3 305.108 31.4705   1
   0  -2   3 312.061  27.131   1
   0  -2   3 297.301   24.31   1
   0  -2   3 307.282 20.4022   1
  -1   2  -3 132.884 10.5403   1
  -1   2  -3 111.811 18.0637   1
   1  -2   3 154.607 33.7672   1
   1  -2   3 144.066 17.2082   1
   1  -2   3  131.38 16.1313   1
   1  -2   3 133.098 16.9867   1
  -2   2  -3 4216.35 222.812   1
  -2   2  -3 4309.19 229.719   1
  -2   2  -3 4192.15 235.252   1
   2  -2   3 4031.08 256.686   1
   2  -2   3 4115.65 231.102   1
   2  -2   3 4397.68 230.873   1
  -3   2  -3 567.307 35.3913   1
  -3   2  -3 607.617 43.6588   1
  -3   2  -3 504.269 49.8617   1
   3  -2   3 538.119  48.054   1
   3  -2   3 596.248 43.6588   1
   3  -2   3 595.991  70.278   1
  -4   2  -3 2131.04 122.942   1
  -4   2  -3 2019.82 143.723   1
  -4   2  -3 2316.89 142.548   1
   4  -2   3 2048.50 139.918   1
   4  -2   3 2530.84 181.741   1
   4  -2   3 2247.23 133.182   1
  -5   2  -3 308.473 45.7735   1
  -5   2  -3 371.661 27.0771   1
   5  -2   3 333.947 77.6936   1
   5  -2   3 353.926 52.8719   1
   5  -2   3 237.557 37.3927   1
  -6   2  -3 1.97956 1.65159   1
  -6   2  -3 0.98393 2.96349   1
   6  -2   3-1.65159 5.28274   1
  -7   2  -3 218.948 14.6645   1
   7  -2   3 238.179  18.938   1
  -8   2  -3 7.57813 2.34672   1
   8  -2   3 7.83785 4.18328   1
   8  -2   3  10.973 1.56757   1
  -9   2  -3 1.30814  1.0914   1
  -8  -1   3 693.808 35.4271   1
  -8  -1   3 641.334 35.6934   1
  -7  -1   3 -1.2325  1.2325   1
  -7  -1   3 2.75948 1.84329   1
  -6  -1   3 24.2109 3.32238   1
  -6  -1   3 37.8185  4.6419   1
   5   1  -3 194.084 39.6008   1
  -5  -1   3 195.053 54.2076   1
  -5  -1   3 243.427  66.866   1
   4   1  -3 35.2565 16.7367   1
  -4  -1   3 104.294 79.4916   1
  -4  -1   3  37.655  14.646   1
  -4  -1   3 72.6143 37.9522   1
   3   1  -3 29.0225 9.21824   1
   3   1  -3 33.0874 13.8322   1
   3   1  -3 42.3057 20.8831   1
  -3  -1   3 66.9936 38.7802   1
  -3  -1   3 17.3576 14.3716   1
  -3  -1   3 49.6359 18.1668   1
  -3  -1   3 29.2922 20.3437   1
   2   1  -3 54.5996 10.2652   1
   2   1  -3 73.1374 15.5313   1
   2   1  -3 49.0933 6.26231   1
   2   1  -3 70.3799 22.5408   1
  -2  -1   3 41.0786 14.5261   1
  -2  -1   3 93.4188 23.5459   1
  -2  -1   3 83.4026   52.10   1
  -2  -1   3  66.626 21.5356   1
  -1  -1   3 442.364 37.6178   1
  -1  -1   3 431.247 30.2824   1
  -1  -1   3 487.552 36.6683   1
  -1  -1   3 434.323 30.2824   1
  -1  -1   3 448.044 46.3731   1
  -1  -1   3 368.792 56.3048   1
  -1  -1   3 495.358 38.5673   1
  -1  -1   3 474.066 34.3072   1
   0   1  -3 430.072 31.9318   1
   0   1  -3 452.629 25.2377   1
   0  -1   3  434.76 30.5914   1
   0  -1   3 456.198 46.6763   1
   0  -1   3  436.10 30.1473   1
   0  -1   3  403.05 40.8705   1
   0  -1   3 445.483 29.9252   1
  -1   1  -3 659.379 36.3549   1
  -1   1  -3 625.685 44.7784   1
  -1   1  -3 632.558 41.4483   1
   1  -1   3 653.616 43.8888   1
   1  -1   3 637.651 42.1175   1
   1  -1   3 654.718 61.8458   1
  -2   1  -3 347.693 28.6403   1
  -2   1  -3 371.061 22.4359   1
  -2   1  -3 381.088 34.1243   1
   2  -1   3  305.22 39.6167   1
   2  -1   3 370.349 48.9233   1
   2  -1   3 332.182 28.8776   1
   2  -1   3 344.353 30.3101   1
  -3   1  -3 5653.31 284.591   1
  -3   1  -3 4814.50  286.46   1
  -3   1  -3 4936.11 267.753   1
   3  -1   3 4949.97 312.657   1
   3  -1   3 4961.73 279.778   1
   3  -1   3 5103.11 309.714   1
   3  -1   3 4776.02 274.435   1
  -4   1  -3 118.421 34.0518   1
  -4   1  -3 137.395 37.0589   1
  -4   1  -3 99.7368 15.3672   1
   4  -1   3 128.663 45.8019   1
   4  -1   3 59.9598 18.0746   1
   4  -1   3  92.203 23.7999   1
  -5   1  -3  298.31 27.9253   1
  -5   1  -3 256.253 53.5634   1
   5  -1   3 286.162 46.9818   1
  -6   1  -3 161.351 12.5652   1
  -6   1  -3 177.192 10.2518   1
   6  -1   3 167.939 16.2055   1
  -7   1  -3 48.8852 6.29437   1
   7  -1   3 49.7798 8.39249   1
  -8   1  -3  89.966 6.78315   1
   8  -1   3 86.4495  5.2748   1
   8  -1   3 83.1829 9.54997   1
  -9   0   3 3.12502 0.66625   1
  -9   0   3  3.7992 0.89626   1
   8   0  -3 56.1431 7.90843   1
  -8   0   3 54.5072 4.36561   1
  -8   0   3 60.5087 4.63664   1
  -7   0   3 13.6289 6.33615   1
  -7   0   3  15.846 2.53221   1
  -7   0   3 19.0085 3.48882   1
  -6   0   3 55.5461 10.1026   1
  -6   0   3 61.2729 5.39201   1
  -6   0   3 72.7145 6.39629   1
   5   0  -3 1804.40 122.487   1
  -5   0   3 1673.46 143.715   1
  -5   0   3 2104.25 240.693   1
  -5   0   3 1384.10 130.653   1
   4   0  -3 9.31984  8.1135   1
   4   0  -3-0.59784 12.3197   1
   4   0  -3 4.50513 25.2479   1
  -4   0   3 19.5364 59.8157   1
  -4   0   3 7.21674 19.8354   1
  -4   0   3 6.91782 5.41256   1
   3   0  -3 107.904 17.0251   1
   3   0  -3 108.996 33.2214   1
   3   0  -3 116.689   21.14   1
  -3   0   3 126.021 29.6526   1
  -3   0   3 143.836 32.1196   1
  -3   0   3 179.807 77.6954   1
  -3   0   3 60.6801 16.1963   1
   2   0  -3 3439.69 214.942   1
   2   0  -3 3436.61 195.654   1
   2   0  -3 3397.27 190.001   1
  -2   0   3 3765.95 202.084   1
  -2   0   3 3808.38 203.627   1
  -2   0   3 3747.18 207.746   1
  -2   0   3 3711.98 262.258   1
   1   0  -3 2754.17 150.788   1
   1   0  -3 2831.93  149.05   1
  -1   0   3 2860.23 170.422   1
  -1   0   3 2724.85 155.262   1
  -1   0   3 2772.05 191.292   1
  -1   0   3 2753.18  156.26   1
  -1   0   3 2850.32 150.788   1
  -1   0   3 2681.87 150.541   1
   0   0  -3 1815.52  99.977   1
   0   0  -3 1820.02 99.2702   1
   0   0  -3 1810.79 92.8671   1
   0   0   3 1652.08 99.2702   1
   0   0   3 1786.62 122.224   1
   0   0   3 1671.74 113.246   1
   0   0   3 1690.93  97.133   1
  -1   0  -3 540.297 38.7991   1
  -1   0  -3 521.959 27.7423   1
  -1   0  -3 502.918 37.3877   1
   1   0   3 426.021 35.2749   1
   1   0   3 456.829 49.8475   1
   1   0   3 376.408 31.5086   1
   1   0   3 448.594  51.025   1
  -2   0  -3 1106.44 58.0786   1
  -2   0  -3 1120.77 73.6698   1
   2   0   3 1087.84 97.0476   1
   2   0   3 1144.38 86.2427   1
   2   0   3 865.097 67.6333   1
   2   0   3 872.134 60.8468   1
   2   0   3 1054.15 67.8833   1
  -3   0  -3  300.67 25.6822   1
  -3   0  -3 306.253 42.1624   1
  -3   0  -3 371.311 42.4401   1
   3   0   3 394.197 55.5588   1
   3   0   3 366.284 66.1688   1
   3   0   3 423.211 39.3661   1
  -4   0  -3 35.4885 30.8231   1
  -4   0  -3  40.154 23.9686   1
  -4   0  -3 29.8833 13.0788   1
   4   0   3 15.2568  25.837   1
   4   0   3 52.2931 13.0788   1
   4   0   3 45.7592 20.8509   1
  -5   0  -3 41.0155  39.689   1
  -5   0  -3 22.6811 14.0114   1
   5   0   3 19.3411 24.3393   1
  -6   0  -3 223.891 15.0571   1
  -6   0  -3 204.253 12.1154   1
  -7   0  -3 23.1418 4.63247   1
  -8   0  -3 36.5215 4.03455   1
   8   0   3 37.7092 2.84693   1
   9  -1  -3 192.615 12.9395   1
  -9   1   3 200.375 11.0517   1
  -9   1   3 196.841 10.8178   1
   8  -1  -3-2.82247 3.94345   1
  -8   1   3 1.41123 1.13099   1
  -8   1   3 3.10271 1.69148   1
  -7   1   3 85.2871 6.13866   1
  -7   1   3 101.764 7.43523   1
  -7   1   3 66.8712  11.956   1
   6  -1  -3  30.985 24.5147   1
  -6   1   3 108.629 98.7481   1
  -6   1   3  101.82 53.1172   1
  -6   1   3 73.5562 37.1167   1
   5  -1  -3 5.28519 13.1954   1
   5  -1  -3 1.65235 10.2305   1
   5  -1  -3-14.5196 30.6916   1
  -5   1   3 14.5196  71.602   1
  -5   1   3 3.96096 13.1954   1
  -5   1   3-8.25005 30.6916   1
   4  -1  -3 265.518 30.4561   1
   4  -1  -3  315.15  59.993   1
   4  -1  -3 273.435 29.5368   1
  -4   1   3 237.495 32.5868   1
  -4   1   3 273.435 48.7233   1
  -4   1   3 286.532 91.0548   1
   3  -1  -3 13.4156 20.9569   1
   3  -1  -3 20.6791 10.8952   1
   3  -1  -3 15.6482 11.4509   1
  -3   1   3 17.0473 12.2943   1
  -3   1   3 40.2368  52.809   1
  -3   1   3 8.66258 19.5578   1
   2  -1  -3 833.629 73.3098   1
   2  -1  -3 930.818 49.1314   1
   2  -1  -3 920.572 55.7009   1
  -2   1   3 845.452 101.688   1
  -2   1   3 887.491 56.2328   1
  -2   1   3 805.251 61.4866   1
  -2   1   3 858.059 64.3701   1
   1  -1  -3 223.034 18.0365   1
   1  -1  -3 253.261 34.5482   1
   1  -1  -3  261.39 15.2395   1
   1  -1  -3 262.662  20.581   1
   1  -1  -3 254.785 26.6714   1
  -1   1   3 175.015 25.4082   1
  -1   1   3 235.991 18.2892   1
  -1   1   3 187.466 23.6307   1
  -1   1   3  254.28 49.7968   1
   0  -1  -3 673.201 38.6803   1
   0  -1  -3 796.372 53.9477   1
   0  -1  -3 785.042  48.532   1
   0   1   3 694.881   56.66   1
   0   1   3 768.042 79.0755   1
   0   1   3  596.12 45.3297   1
   0   1   3 621.956 41.3838   1
  -1  -1  -3 1427.78  79.124   1
  -1  -1  -3 1497.70 92.5558   1
  -1  -1  -3 1557.67 96.7886   1
   1   1   3 1454.90  122.91   1
   1   1   3 1326.80 94.8003   1
   1   1   3 1395.19 86.8384   1
  -2  -1  -3 1814.94 111.291   1
  -2  -1  -3 1485.09  91.104   1
  -2  -1  -3 1916.40  115.80   1
  -2  -1  -3 1737.38 109.432   1
   2   1   3 1387.64 108.895   1
   2   1   3 1412.88 105.706   1
   2   1   3 1960.49 158.276   1
   2   1   3 1705.27 102.791   1
  -3  -1  -3 80.1264 31.0016   1
  -3  -1  -3 82.1724  14.914   1
  -3  -1  -3 58.1916 22.5164   1
   3   1   3   91.53 23.3992   1
   3   1   3 71.6412 28.0728   1
   3   1   3 101.178 70.1872   1
  -4  -1  -3 670.173  52.327   1
  -4  -1  -3 512.565  83.461   1
  -4  -1  -3 677.549 77.0427   1
   4   1   3 779.946 65.8021   1
   4   1   3 674.665 67.0903   1
   4   1   3 753.942 112.988   1
  -5  -1  -3 234.336 13.4083   1
  -5  -1  -3 230.645 16.0995   1
  -6  -1  -3 186.386 13.7053   1
  -6  -1  -3 182.244 10.8307   1
  -7  -1  -3  35.495 4.91694   1
   7   1   3 27.3098 2.73486   1
  -8  -1  -3-0.21782 1.31472   1
   8   1   3 0.65347 0.65347   1
   9  -2  -3 79.2557 7.53789   1
  -9   2   3 68.7994 4.37767   1
  -9   2   3 68.0741 4.61944   1
   8  -2  -3 28.6828 6.88551   1
  -8   2   3 28.3976 2.87236   1
  -8   2   3 31.8302 3.72795   1
  -7   2   3  58.666 4.88498   1
  -7   2   3 46.9398 11.4021   1
  -7   2   3 60.9465 5.86892   1
   6  -2  -3 314.249 69.9929   1
   6  -2  -3 475.498 97.7878   1
   6  -2  -3 527.969 55.5776   1
  -6   2   3 661.423 150.282   1
  -6   2   3 620.602 75.4763   1
  -6   2   3 470.015 75.4763   1
   5  -2  -3 568.988 65.7509   1
   5  -2  -3 535.608 91.1172   1
   5  -2  -3 550.959 53.3996   1
  -5   2   3 690.473 144.185   1
  -5   2   3 597.685  75.767   1
  -5   2   3 576.325 57.4061   1
   4  -2  -3 636.989 86.0591   1
   4  -2  -3 498.314 47.3611   1
   4  -2  -3 633.581 55.1007   1
  -4   2   3  580.03 63.7638   1
  -4   2   3 655.865  122.58   1
  -4   2   3 517.817 48.9112   1
   3  -2  -3 4387.29  273.53   1
   3  -2  -3 4148.75 237.094   1
   3  -2  -3 4243.54 239.369   1
  -3   2   3 4425.12 251.036   1
  -3   2   3 4443.05 327.617   1
  -3   2   3 4022.67 236.518   1
   2  -2  -3 7173.57 362.011   1
   2  -2  -3 5688.50 368.142   1
   2  -2  -3 7328.04  390.02   1
  -2   2   3 6840.11 429.484   1
  -2   2   3 6959.63  360.41   1
  -2   2   3 6545.06 371.344   1
   1  -2  -3 228.696 32.1271   1
   1  -2  -3 198.367 32.8938   1
   1  -2  -3 240.771 14.9044   1
   1  -2  -3  218.93 25.1814   1
   1  -2  -3 235.888 20.0429   1
  -1   2   3 185.771 28.7866   1
  -1   2   3 218.154 20.5632   1
  -1   2   3 229.462   52.17   1
   0  -2  -3 668.445 52.4207   1
   0  -2  -3 737.414 58.5304   1
   0  -2  -3  631.57 38.1767   1
   0  -2  -3 644.268 50.3871   1
   0   2   3 683.972  85.762   1
   0   2   3 522.905 51.6615   1
  -1  -2  -3 2711.91 159.532   1
  -1  -2  -3 3004.01 166.865   1
  -1  -2  -3 2411.43 138.829   1
   1   2   3 3040.66 214.552   1
   1   2   3 2182.21 155.336   1
   1   2   3 2264.19 143.547   1
  -2  -2  -3 25.4993 19.0598   1
  -2  -2  -3 44.8377 24.9419   1
  -2  -2  -3 33.9095 19.8958   1
  -2  -2  -3 37.2736 10.0922   1
   2   2   3 35.5915 15.6957   1
   2   2   3 39.2343  25.778   1
   2   2   3 48.7592 70.9044   1
  -3  -2  -3-9.47717 18.6504   1
  -3  -2  -3  9.1732 11.0078   1
  -3  -2  -3-10.3891 24.1434   1
   3   2   3 27.8127 60.5214   1
   3   2   3 1.22671 17.7276   1
   3   2   3 3.97324 15.2851   1
  -4  -2  -3 268.679 65.3702   1
  -4  -2  -3 100.849 39.4228   1
  -4  -2  -3 234.192 30.5559   1
   4   2   3 244.704 39.7494   1
   4   2   3 179.007 88.0391   1
   4   2   3 190.825 44.0196   1
  -5  -2  -3 76.3264 5.64551   1
  -5  -2  -3 75.3364  9.2874   1
  -6  -2  -3  51.263 6.98159   1
  -7  -2  -3 3.52119 2.01083   1
   7   2   3 4.28084 1.00989   1
   9  -3  -3 16.5767 4.94841   1
  -9   3   3  17.816 2.22371   1
  -8   3   3 590.137 32.5197   1
   7  -3  -3 15.2802  3.5804   1
  -7   3   3 18.5373  9.4361   1
  -7   3   3 35.1226 4.22719   1
   6  -3  -3 11.3303 36.0521   1
   6  -3  -3 86.5323 29.1856   1
   6  -3  -3 61.1276 61.8106   1
  -6   3   3 146.977 39.8329   1
  -6   3   3 83.4467  100.96   1
  -6   3   3 111.266 54.2611   1
   5  -3  -3 1119.28 85.2296   1
   5  -3  -3 876.402 84.5476   1
   5  -3  -3 1046.51 128.347   1
  -5   3   3 1104.80 82.8727   1
  -5   3   3 1541.63 203.431   1
  -5   3   3 983.191 99.0357   1
   4  -3  -3 197.846 29.6209   1
   4  -3  -3 253.294 65.2174   1
   4  -3  -3 209.181 37.1744   1
  -4   3   3  223.36 42.8479   1
  -4   3   3 218.011 30.5609   1
  -4   3   3 297.719 93.2605   1
   3  -3  -3 12.8185 13.3979   1
   3  -3  -3 13.1082 11.9391   1
   3  -3  -3 9.61128 33.4998   1
  -3   3   3 9.90096 13.6875   1
  -3   3   3 11.3597 40.2039   1
  -3   3   3-1.16908 17.7741   1
   2  -3  -3 2422.80 157.074   1
   2  -3  -3 2675.67 172.675   1
   2  -3  -3 2376.82 139.285   1
  -2   3   3 2384.75 151.329   1
  -2   3   3 2336.30 137.098   1
  -2   3   3 2306.50 201.137   1
   1  -3  -3 330.106 47.9921   1
   1  -3  -3 310.753 37.3879   1
   1  -3  -3 326.132 43.7542   1
  -1   3   3  281.85 39.2432   1
  -1   3   3  291.39 29.1663   1
  -1   3   3 302.004 68.1458   1
   0  -3  -3 489.028 52.9515   1
   0  -3  -3 496.485 47.8954   1
   0  -3  -3 652.684  61.731   1
   0  -3  -3 461.093 34.0598   1
   0   3   3 433.951 44.9657   1
   0   3   3 515.377 51.3543   1
   0   3   3 560.078 82.4939   1
  -1  -3  -3 100.909 32.0685   1
  -1  -3  -3 89.5777 38.1562   1
  -1  -3  -3 83.7649 15.2094   1
   1   3   3 132.977 74.0933   1
   1   3   3 106.996 35.3873   1
   1   3   3 52.2561 23.2217   1
  -2  -3  -3 172.359 19.7719   1
  -2  -3  -3 241.425 52.5433   1
  -2  -3  -3 123.087 43.9783   1
   2   3   3 327.327 97.4128   1
   2   3   3 101.543 34.5327   1
   2   3   3  204.24 47.8153   1
  -3  -3  -3 95.2082 17.7748   1
  -3  -3  -3 72.0458 26.6565   1
   3   3   3 101.238 43.8001   1
   3   3   3 59.0275 87.5889   1
  -4  -3  -3 12.2603 4.63586   1
  -4  -3  -3 13.9194 2.31793   1
  -5  -3  -3 712.547 40.7678   1
  -6  -3  -3  4.5016 3.09423   1
   6   3   3 5.61952 1.40737   1
  -7  -3  -3 2.71089 1.35545   1
   7   3   3-0.67371 0.67371   1
   9  -4  -3 63.2235 8.21233   1
  -9   4   3 53.7647 4.23435   1
   8  -4  -3 120.831 14.5345   1
   8  -4  -3 133.371  8.5527   1
  -8   4   3 125.396  8.5527   1
   7  -4  -3 65.0604 6.08945   1
  -7   4   3 61.8507 11.2114   1
  -7   4   3  69.545 6.08945   1
   6  -4  -3 36.7565 61.9457   1
   6  -4  -3 198.383 37.4334   1
   6  -4  -3 87.7998 29.9515   1
   5  -4  -3  432.63 57.8032   1
   5  -4  -3  507.30 97.6833   1
   5  -4  -3 658.729  62.197   1
  -5   4   3 926.401 159.208   1
  -5   4   3  681.37 54.4179   1
  -5   4   3 591.118  71.993   1
   4  -4  -3  71.158 23.7231   1
   4  -4  -3 46.4787 15.3904   1
  -4   4   3 77.2481 79.1719   1
  -4   4   3 48.4025 27.5593   1
  -4   4   3  71.158 23.7231   1
   3  -4  -3 763.877 78.8529   1
   3  -4  -3 853.528 109.137   1
   3  -4  -3 658.062 61.4637   1
  -3   4   3 855.626 71.6544   1
  -3   4   3 800.753 58.4715   1
  -3   4   3 770.469 117.837   1
   2  -4  -3 623.434 60.2987   1
   2  -4  -3 646.759 74.5223   1
   2  -4  -3 693.976 81.3513   1
  -2   4   3 673.782 108.657   1
  -2   4   3 649.881 52.6212   1
  -2   4   3 765.336 69.1178   1
   1  -4  -3 1546.45 125.897   1
   1  -4  -3 1457.27 110.894   1
  -1   4   3 1558.68 174.223   1
  -1   4   3 1507.57 101.162   1
  -1   4   3 1491.73 114.221   1
   0  -4  -3 245.886 24.9855   1
   0  -4  -3  214.45 47.4385   1
   0  -4  -3 229.894 57.8275   1
   0   4   3 269.476 79.1638   1
   0   4   3 214.171 39.3027   1
   0   4   3 205.467 40.7086   1
  -1  -4  -3 257.501 27.1594   1
  -1  -4  -3 121.465 59.2757   1
  -1  -4  -3 198.526 49.9322   1
   1   4   3 371.085 75.6295   1
   1   4   3 296.047 43.5028   1
   1   4   3 180.129 41.4598   1
  -2  -4  -3 805.598 60.8841   1
  -2  -4  -3 722.191 90.8597   1
  -2  -4  -3 956.727 104.152   1
   2   4   3 974.958 166.232   1
   2   4   3 841.138 91.4744   1
  -3  -4  -3  302.06 28.9104   1
  -3  -4  -3 333.889 68.8613   1
   3   4   3 279.968 76.0139   1
   3   4   3 85.7507 126.359   1
  -4  -4  -3 43.3946 4.88986   1
  -4  -4  -3 54.4837 7.83305   1
  -5  -4  -3 109.327 9.63734   1
   5   4   3  106.31 6.93119   1
  -6  -4  -3 2.01714 2.01714   1
   6   4   3-0.75306 0.75306   1
   9  -5  -3 178.744 13.4036   1
   9  -5  -3 182.721 10.1761   1
  -9   5   3 162.113 9.92922   1
   8  -5  -3 33.4891 4.18242   1
   8  -5  -3 43.8163 8.92976   1
  -8   5   3 35.9965 3.90491   1
   7  -5  -3-0.62003 2.80119   1
  -7   5   3 5.61345 2.18116   1
   6  -5  -3 379.265 21.6433   1
  -6   5   3 349.627  26.646   1
  -6   5   3  378.26 21.3121   1
   5  -5  -3 303.195 106.785   1
   5  -5  -3 404.601 54.7403   1
  -5   5   3 372.031 37.2687   1
  -5   5   3 497.612 128.944   1
  -5   5   3 288.084 59.7731   1
   4  -5  -3 32.7608 78.8149   1
   4  -5  -3 6.48536  23.027   1
  -4   5   3 29.5124 25.6189   1
  -4   5   3 28.8673 21.0803   1
  -4   5   3 43.4622 68.1135   1
   3  -5  -3 741.257 88.2686   1
   3  -5  -3 594.654 58.3342   1
  -3   5   3 847.391 137.034   1
  -3   5   3  820.23 77.4611   1
  -3   5   3 778.875 61.4142   1
   2  -5  -3 372.899 53.6958   1
   2  -5  -3 256.309  59.333   1
   2  -5  -3 226.047 45.3928   1
   2  -5  -3 215.658  23.434   1
   2  -5  -3 158.401 23.1389   1
  -2   5   3 339.371 52.8107   1
  -2   5   3 256.003 37.9748   1
  -2   5   3 372.899 132.027   1
   1  -5  -3 1731.23 111.068   1
   1  -5  -3 1779.17 156.045   1
   1  -5  -3 1836.16 141.751   1
  -1   5   3 1910.66  128.89   1
  -1   5   3 1982.56 221.512   1
  -1   5   3 2163.18 147.855   1
   0  -5  -3 39.6572 15.0935   1
   0  -5  -3 38.7743 37.5866   1
   0  -5  -3 48.2445 32.5519   1
   0   5   3 55.6336 29.3041   1
   0   5   3  110.09 91.4438   1
   0   5   3   52.68 31.3747   1
  -1  -5  -3 1085.38 121.258   1
  -1  -5  -3 1406.26 144.226   1
  -1  -5  -3 1184.90 88.1865   1
   1   5   3 1512.21  119.42   1
   1   5   3 1499.65 186.139   1
   1   5   3 1338.00 108.708   1
  -2  -5  -3 1074.19 121.738   1
  -2  -5  -3 979.216  113.77   1
  -2  -5  -3 1231.58 83.1774   1
   2   5   3 1242.42 121.738   1
   2   5   3 1281.30 202.335   1
   2   5   3 1134.70 104.852   1
  -3  -5  -3  71.665 8.42982   1
  -3  -5  -3  86.256 6.48359   1
   3   5   3 70.6862 6.80605   1
  -4  -5  -3 1068.00 59.3395   1
  -4  -5  -3 1117.69 57.7838   1
   4   5   3 1062.73 57.4748   1
  -5  -5  -3 33.7873 4.36495   1
  -5  -5  -3 34.6099  3.2713   1
   5   5   3 33.5163  3.0003   1
  -6  -5  -3 47.6426 3.51666   1
   6   5   3 49.1787 3.07221   1
   9  -6  -3 43.2145  3.9557   1
   9  -6  -3 44.6968 6.42033   1
  -9   6   3 38.7764 3.45575   1
   8  -6  -3 38.2176 7.86492   1
   8  -6  -3 37.4089 4.06242   1
  -8   6   3 39.3054 3.79288   1
   7  -6  -3 19.7744 3.59728   1
   7  -6  -3 29.6723 8.69521   1
  -7   6   3 20.9771 3.00128   1
   6  -6  -3 186.945 12.2089   1
  -6   6   3  193.38 11.8894   1
   5  -6  -3 238.772 48.6796   1
  -5   6   3 228.901 26.3199   1
   4  -6  -3 -44.103 81.3987   1
   4  -6  -3 59.6755 27.5629   1
  -4   6   3 82.3777 84.9693   1
  -4   6   3 19.4541 32.1126   1
  -4   6   3 51.5667 26.9179   1
   3  -6  -3 90.3173 39.3413   1
   3  -6  -3-5.35355 5.35355   1
   3  -6  -3-2.51471 39.0172   1
  -3   6   3 0.31294 23.2918   1
  -3   6   3-21.0789 22.9677   1
  -3   6   3 28.0083 61.3702   1
   2  -6  -3 1224.17 132.286   1
  -2   6   3 1286.16 102.201   1
  -2   6   3 1275.42 187.801   1
  -2   6   3 1499.44  123.38   1
   1  -6  -3 79.7949 40.2057   1
   1  -6  -3 146.491  47.507   1
   1  -6  -3 124.868  22.542   1
  -1   6   3 191.845 49.9516   1
  -1   6   3 284.123 130.049   1
  -1   6   3 209.812 47.8207   1
   0  -6  -3 25.2651 31.4255   1
   0  -6  -3 42.8271   15.10   1
   0  -6  -3 31.7319 53.2986   1
   0   6   3 36.3494 32.0383   1
   0   6   3 16.9492 77.0209   1
   0   6   3 22.8032 23.4159   1
  -1  -6  -3 1044.25 81.9369   1
  -1  -6  -3 906.857  119.43   1
  -1  -6  -3 1037.31 148.115   1
   1   6   3 1262.61 115.334   1
   1   6   3 1381.72 223.393   1
   1   6   3 1253.78 112.816   1
  -2  -6  -3 469.577 25.5799   1
  -2  -6  -3  445.61 26.5336   1
  -3  -6  -3  29.645  4.6767   1
  -3  -6  -3 27.1515 3.12519   1
  -4  -6  -3 307.684 16.4635   1
  -4  -6  -3  273.90 17.3204   1
  -5  -6  -3 48.4223 3.80196   1
   9  -7  -3 3.20913 3.45464   1
   9  -7  -3 1.97283 1.48181   1
   8  -7  -3 18.9094 2.89192   1
   8  -7  -3 13.3961 5.77451   1
  -8   7   3 18.6482 2.36018   1
   7  -7  -3 61.4426 5.99811   1
  -7   7   3 69.4401 5.42976   1
   6  -7  -3 204.404 12.5429   1
  -6   7   3 181.144 11.9343   1
   5  -7  -3 1.90318 2.53382   1
  -5   7   3-0.31532  2.2185   1
  -4   7   3 152.618 10.1956   1
   3  -7  -3 1.57786 44.1129   1
  -3   7   3-22.3698 33.4036   1
  -3   7   3 9.14262 22.9964   1
  -3   7   3 7.56476  71.205   1
   2  -7  -3 6.84874 34.5756   1
  -2   7   3 25.8571 34.2658   1
  -2   7   3 53.8937 75.0817   1
  -2   7   3 79.7508  38.946   1
   1  -7  -3 243.029 59.6754   1
   1  -7  -3 176.818 31.0851   1
   1  -7  -3 227.795 78.0107   1
  -1   7   3 367.347 149.818   1
  -1   7   3 315.752 57.5007   1
  -1   7   3 293.994 68.3739   1
   0  -7  -3 20.0214 3.13321   1
   0  -7  -3 18.1437 5.32201   1
  -1  -7  -3 119.417 9.43062   1
  -1  -7  -3 163.691 11.9417   1
  -1  -7  -3 130.098 8.79447   1
  -2  -7  -3  1.2371 1.54363   1
  -2  -7  -3 1.85017 2.46324   1
  -3  -7  -3 71.4768 5.73976   1
  -3  -7  -3 71.7623 5.16884   1
  -4  -7  -3 50.9093 3.97784   1
  -4  -7  -3  55.628 3.72206   1
   9  -8  -3 45.1937 3.51348   1
   8  -8  -3 -1.0285 1.53819   1
  -8   8   3 0.76455 1.28335   1
   7  -8  -3  111.92  8.1725   1
  -7   8   3 109.744 7.35042   1
   6  -8  -3 10.7079 2.89791   1
  -6   8   3 14.7567 2.89791   1
  -5   8   3 2.40905 2.10926   1
   4  -8  -3  14.748 4.60329   1
  -4   8   3 21.5002 3.38156   1
   3  -8  -3 582.425 35.7677   1
  -3   8   3 632.999 33.6103   1
   2  -8  -3  20.024 3.08566   1
   2  -8  -3 18.1748 4.93487   1
   1  -8  -3 7.08644 4.30873   1
   1  -8  -3 13.5495 2.76677   1
   0  -8  -3 263.815 15.9518   1
   0  -8  -3 288.353 18.7194   1
  -1  -8  -3 3.31069 2.10389   1
  -1  -8  -3 7.51847 3.60972   1
  -1  -8  -3 4.81652 1.80486   1
  -2  -8  -3 1.98513 1.70298   1
  -2  -8  -3 2.54943 1.42083   1
  -3  -8  -3  0.7521 1.01175   1
  -3  -8  -3  2.7756 1.26245   1
   8  -9  -3 70.1892  4.8497   1
  -8   9   3 65.0857 4.34207   1
   7  -9  -3 290.307 16.0024   1
  -7   9   3 268.269 15.7323   1
   6  -9  -3 4.10828 1.91785   1
  -6   9   3 0.27259 1.37267   1
  -5   9   3-1.14293 1.70934   1
   4  -9  -3 56.6176 6.71699   1
  -4   9   3 59.2505 5.25542   1
   3  -9  -3 0.58764 3.25303   1
  -3   9   3 1.77342 1.77342   1
   2  -9  -3 661.299 38.2556   1
   1  -9  -3 1.77198 3.25038   1
   1  -9  -3    0.00 1.77198   1
   0  -9  -3  600.25 34.1496   1
   0  -9  -3  600.25 32.7104   1
  -1  -9  -3 82.8951 6.61205   1
  -1  -9  -3 67.7539 5.23291   1
  -1  -9  -3 80.9683 5.23291   1
  -2  -9  -3 4.24676 1.25009   1
  -2  -9  -3 5.48799 1.25009   1
  -7  10   3 11.9371 1.81591   1
  -6  10   3 97.6469 6.33609   1
  -5  10   3 19.2155 2.71074   1
   4 -10  -3 343.705 19.8918   1
  -4  10   3  327.68 18.7927   1
   3 -10  -3 15.3769 3.91124   1
  -3  10   3 12.5775 2.23357   1
   2 -10  -3  7.8234 3.07773   1
  -2  10   3 5.58956 1.67786   1
   1 -10  -3 99.0316 7.98232   1
  -1  10   3 99.8621 6.60471   1
   0 -10  -3 28.7461 3.69044   1
  -6  11   3 0.26214 0.78642   1
  -5  11   3 86.3997  5.5292   1
   4 -11  -3 19.3237 2.91501   1
  -4  11   3 18.2705 2.37902   1
   3 -11  -3 131.818 8.47009   1
  -3  11   3 125.998 7.68043   1
   2 -11  -3 34.4678 3.91321   1
  -2  11   3 43.8614 3.13428   1
   1 -11  -3 244.433  13.591   1
  -1  11   3 230.842 12.8399   1
   2 -12   4 12.0673 1.64599   1
   2 -12   4 15.3593 1.64599   1
   3 -12   4 6.46002 1.40565   1
   3 -12   4 5.61264 1.40565   1
   4 -12   4  18.125 1.98148   1
   4 -12   4 13.5988 1.69985   1
  -1 -11   4  122.22 7.02372   1
   0 -11   4 74.5687 5.24786   1
   0 -11   4 75.1278 4.97321   1
   1 -11   4 159.597 10.3952   1
   1 -11   4 184.704 10.0979   1
   2 -11   4 113.473 7.89375   1
   2 -11   4 113.763  7.3121   1
   3 -11   4 78.4341 5.83026   1
   3 -11   4 89.2247 6.41018   1
   4 -11   4  12.402 2.30426   1
   4 -11   4 14.4195 2.30426   1
   5 -11   4 70.1763 4.83314   1
  -2 -10   4 56.0158 3.92278   1
  -2 -10   4 56.0158  3.6625   1
  -1 -10   4 163.388 9.52603   1
  -1 -10   4 170.894 9.81314   1
   0 -10   4 2.09748 1.79936   1
   0 -10   4    0.00 2.09748   1
   0 -10   4    0.00 2.09748   1
   1 -10   4 20.7839 3.61552   1
   1 -10   4 19.2756  3.0165   1
   2 -10   4 1203.31 65.1614   1
   2 -10   4 1230.21 64.5669   1
   3 -10   4 69.5248 5.62124   1
   3 -10   4 66.5618 5.91544   1
   4 -10   4 24.5347 3.50644   1
   4 -10   4 22.7815 3.21597   1
   5 -10   4 316.432 17.7753   1
   6 -10   4 43.5831 4.47541   1
   7 -10   4 72.7177 5.19412   1
  -3  -9   4 4.27319 1.07067   1
  -3  -9   4 4.53849 1.33597   1
  -2  -9   4 73.8171 5.63288   1
  -2  -9   4 74.7015 5.04327   1
  -1  -9   4 4.90118 2.44516   1
  -1  -9   4 1.83658 1.83658   1
  -1  -9   4    0.00 2.44516   1
   0  -9   4-1.52088 1.82289   1
   0  -9   4 2.42693 2.42693   1
   0  -9   4 2.42693 2.42693   1
   1  -9   4 6.56069 3.28564   1
   1  -9   4 11.9343 2.98887   1
   2  -9   4 -1.7699 2.06313   1
   2  -9   4 0.58647 2.35637   1
   3  -9   4 180.712 11.7524   1
   3  -9   4 182.173 11.4602   1
   4  -9   4 12.6246 2.93982   1
   4  -9   4 5.57732  2.6375   1
   5  -9   4 129.898 8.13279   1
   5  -9   4 122.343 9.29904   1
   6  -9   4  77.221 6.50959   1
  -7   9  -4 76.1065  5.4348   1
   7  -9   4 87.7966 5.97538   1
   8  -9   4  52.314 3.95991   1
  -4  -8   4  12.995 2.11874   1
  -4  -8   4 12.7313 1.59141   1
  -3  -8   4 107.886 7.19524   1
  -3  -8   4 97.6999 6.58854   1
  -2  -8   4  353.81  20.718   1
  -2  -8   4 368.662 20.4104   1
  -1  -8   4 6.05906 3.03491   1
  -1  -8   4 13.3342 3.03491   1
   0  -8   4 340.706 19.6073   1
   0  -8   4 348.014  20.491   1
   1  -8   4 572.151 31.6904   1
   1  -8   4 555.591 30.8386   1
   2  -8   4  2.5515 2.26912   1
   2  -8   4 0.84714  2.5515   1
   3  -8   4 949.731 51.1564   1
   3  -8   4 944.566 50.5848   1
   4  -8   4 18.4394  3.8043   1
   4  -8   4 24.8735  3.8043   1
   4  -8   4 20.4871 3.51326   1
   5  -8   4 266.076 15.0291   1
   5  -8   4 244.558 15.9082   1
   6  -8   4 63.5404  6.0627   1
  -7   8  -4 19.8056 3.02898   1
   7  -8   4 24.7595 3.30257   1
  -8   8  -4 51.7418 4.16483   1
   8  -8   4 55.6481 4.16483   1
   8  -8   4 49.1469 6.75978   1
  -5  -7   4  174.34 9.98463   1
  -5  -7   4 185.607 10.2392   1
  -4  -7   4    0.00 1.49365   1
  -4  -7   4 1.79026 1.79026   1
  -3  -7   4 119.775 9.05073   1
  -3  -7   4 131.319 8.41928   1
  -2  -7   4 10.3192 2.42615   1
  -2  -7   4 15.7862 3.04078   1
  -1  -7   4 201.507 12.3827   1
  -1  -7   4 198.624  12.669   1
   0   7  -4 317.076  46.161   1
   0  -7   4 309.659 66.2259   1
   0  -7   4 326.143 25.5593   1
   0  -7   4 562.979 51.6554   1
  -1   7  -4 41.0828 19.0632   1
   1  -7   4 22.0195 11.5486   1
  -2   7  -4 536.455 42.4163   1
  -2   7  -4 550.232 54.8409   1
  -2   7  -4  440.55 68.3496   1
   2  -7   4 537.798  58.621   1
  -3   7  -4-14.4868 19.7809   1
  -3   7  -4 10.8651 10.0339   1
   3  -7   4 65.2006 43.4605   1
   3  -7   4 10.0339 21.1761   1
   3  -7   4 23.9567 11.1422   1
   4  -7   4  5.2269 2.60829   1
   4  -7   4 2.31963 2.31963   1
   5  -7   4 216.353 12.8364   1
   5  -7   4 209.187 13.7268   1
   6  -7   4 5.03449 6.81075   1
   6  -7   4 15.9758 3.25823   1
  -7   7  -4 7.85966 2.24419   1
   7  -7   4 4.20911 2.24419   1
   7  -7   4 9.54529 6.46327   1
  -8   7  -4 209.747 12.9984   1
   8  -7   4 224.038 16.1188   1
   8  -7   4 237.821 12.9984   1
  -6  -6   4 66.7526 4.07007   1
  -6  -6   4 63.4048 4.30799   1
  -5  -6   4 14.5231 2.90875   1
  -5  -6   4 18.0095 2.60962   1
  -4  -6   4 262.127 15.6813   1
  -4  -6   4 274.991  16.305   1
  -3  -6   4  196.72 12.3135   1
  -3  -6   4 207.197 12.9368   1
   2   6  -4-2.01931 27.7065   1
   2   6  -4-5.77091 32.0321   1
   2   6  -4-1.15828 58.8776   1
  -2  -6   4 12.1261 13.8584   1
  -2  -6   4-20.4903 34.9227   1
  -2  -6   4 7.79022 2.59332   1
   1   6  -4 738.171 73.2367   1
  -1  -6   4 748.135 84.2715   1
  -1  -6   4 642.616 72.1562   1
  -1  -6   4 616.502 48.4611   1
   0   6  -4 620.955 60.4613   1
   0  -6   4 629.407 62.5085   1
   0  -6   4 608.662   40.99   1
   0  -6   4 600.974 66.3573   1
  -1   6  -4 860.865 68.4761   1
   1  -6   4 883.753 69.2272   1
  -2   6  -4 16.6737 18.2135   1
  -2   6  -4 37.7118 16.1635   1
  -2   6  -4 35.1424 9.23888   1
   2  -6   4 63.3692 23.3432   1
   2  -6   4 39.7618 50.2854   1
   2  -6   4 27.9626 20.2636   1
  -3   6  -4 12.6755  10.788   1
  -3   6  -4 0.53653  10.788   1
  -3   6  -4-2.42395 17.8012   1
   3  -6   4 62.0455 49.3701   1
   3  -6   4 5.39401 17.2647   1
   3  -6   4 2.42395 14.5629   1
  -4   6  -4 909.305 85.1257   1
  -4   6  -4 968.834 58.3848   1
   4  -6   4  867.60 74.7787   1
   4  -6   4 858.111 130.569   1
   5  -6   4 83.9812 6.34043   1
   5  -6   4  96.662 13.8932   1
   5  -6   4 66.7622 6.95194   1
  -6   6  -4  122.23 8.48833   1
   6  -6   4 125.871 16.3734   1
   6  -6   4 113.128 8.80072   1
  -7   6  -4 0.57141 1.72444   1
   7  -6   4 1.43873 5.74473   1
   7  -6   4 2.58156 2.01014   1
  -8   6  -4 53.3259 4.70686   1
   8  -6   4 58.2927 4.70686   1
   8  -6   4 59.0725 8.36466   1
   9  -6   4 72.9955 6.69777   1
  -7  -5   4 51.2417 3.24052   1
  -6  -5   4 256.336 14.5132   1
  -6  -5   4 254.964 14.5132   1
  -5  -5   4 70.2568  6.5255   1
  -5  -5   4 68.0816 5.59802   1
  -4  -5   4 538.134 30.8582   1
  -4  -5   4 588.207 31.8089   1
   3   5  -4 300.835 55.7222   1
   3   5  -4 206.277 96.3375   1
  -3  -5   4 247.481 28.7507   1
  -3  -5   4 86.8522 46.2369   1
   2   5  -4 284.554 47.1114   1
   2   5  -4 255.413 49.5681   1
   2   5  -4 274.476 96.6795   1
  -2  -5   4 294.081 29.6828   1
  -2  -5   4 197.411 50.6513   1
   1   5  -4 1045.90 82.0545   1
   1   5  -4 848.485 116.639   1
   1   5  -4 1011.05 84.3231   1
  -1  -5   4 968.388 90.1335   1
  -1  -5   4 1027.21 62.8657   1
  -1  -5   4 965.609 77.7594   1
   0   5  -4 25.9668 16.8302   1
   0  -5   4 29.8093 8.65845   1
   0  -5   4 26.6841 16.8302   1
   0  -5   4 31.7391 21.1594   1
  -1   5  -4 219.339 27.5672   1
   1  -5   4 218.149 30.6565   1
   1  -5   4 320.103 70.8256   1
   1  -5   4 180.124   29.23   1
  -2   5  -4 1291.25 75.2844   1
  -2   5  -4 1270.90 96.6226   1
  -2   5  -4 1313.08 83.6194   1
   2  -5   4 1266.00 126.757   1
   2  -5   4 1321.67 90.0034   1
   2  -5   4 1298.12 86.0754   1
  -3   5  -4 644.824 67.2448   1
  -3   5  -4  608.31  48.857   1
  -3   5  -4 703.374 44.9201   1
   3  -5   4  735.42 57.2626   1
   3  -5   4 724.654 55.4247   1
   3  -5   4 600.436 93.2546   1
  -4   5  -4 1513.47 112.979   1
  -4   5  -4 1530.34 89.5236   1
   4  -5   4 1551.51 144.987   1
   4  -5   4 1632.43 102.678   1
  -5   5  -4 -6.1199  6.1199   1
  -5   5  -4 15.0008 4.28285   1
   5  -5   4 1.83706 46.5243   1
   5  -5   4 12.8594 19.2837   1
  -6   5  -4 68.9215 6.20745   1
   6  -5   4 85.3718 12.7236   1
   6  -5   4 68.9215 6.51617   1
  -7   5  -4 362.975 22.2856   1
   7  -5   4 400.506 27.5655   1
   7  -5   4 401.683 21.9941   1
  -8   5  -4 2.62993 1.83722   1
   8  -5   4 1.31496 1.57609   1
   8  -5   4-0.78338 3.93557   1
  -9   5  -4 5.62059 1.40515   1
   9  -5   4 6.55181  3.0431   1
  -7  -4   4 0.99764 1.24484   1
  -7  -4   4-0.74161 0.74161   1
  -6  -4   4 161.273 10.1525   1
  -6  -4   4 165.452 10.4495   1
  -6  -4   4 150.515 9.26134   1
  -5  -4   4 57.8598 5.43855   1
  -5  -4   4 63.2983 6.71019   1
  -5  -4   4 51.7854 4.47346   1
  -4  -4   4 103.691 8.98171   1
  -4  -4   4 100.602 7.43163   1
   3   4  -4 175.241 41.8246   1
   3   4  -4 120.351 67.9966   1
  -3  -4   4 73.1198 34.7107   1
  -3  -4   4 68.5725 34.4277   1
  -3  -4   4  151.05 20.4828   1
   2   4  -4 1239.45 90.7657   1
   2   4  -4 944.627 123.176   1
  -2  -4   4 1075.59 67.1694   1
  -2  -4   4 1003.23 76.2414   1
  -2  -4   4 1084.92 93.8787   1
  -2  -4   4 1091.66 99.5798   1
   1   4  -4 6.97089 12.4913   1
   1   4  -4-1.20305 12.4913   1
   1   4  -4-1.91977 22.0986   1
  -1  -4   4-12.0135 12.0135   1
  -1  -4   4 5.52893 15.6141   1
  -1  -4   4-16.5783 16.5783   1
  -1  -4   4-3.12282 8.16541   1
   0   4  -4 219.209 44.2112   1
   0   4  -4 320.462 33.2194   1
   0  -4   4 265.715 38.9472   1
   0  -4   4 255.179 24.5139   1
   0  -4   4  247.62   43.30   1
   0  -4   4 277.626 21.9917   1
   0  -4   4 280.148   35.05   1
  -1   4  -4 155.848 23.2096   1
  -1   4  -4 144.696 12.9705   1
  -1   4  -4 159.032 19.5649   1
   1  -4   4 237.987 60.3029   1
   1  -4   4 143.557 25.2541   1
   1  -4   4 150.612 23.8884   1
  -2   4  -4 208.123 35.6465   1
  -2   4  -4 176.764 19.0131   1
  -2   4  -4 177.954  16.397   1
   2  -4   4 187.929 24.4732   1
   2  -4   4 192.444 27.0893   1
   2  -4   4 198.857 25.4268   1
   2  -4   4 253.508 60.1197   1
  -3   4  -4 884.591 59.0322   1
  -3   4  -4 903.487 54.3703   1
  -3   4  -4  897.28 73.7902   1
   3  -4   4 851.709 89.0632   1
   3  -4   4 863.874 68.8709   1
   3  -4   4 953.949 61.8735   1
  -4   4  -4 6.01999  6.3052   1
  -4   4  -4 39.5832 21.2279   1
   4  -4   4 13.7716 36.4255   1
   4  -4   4-0.85563 12.0502   1
   4  -4   4 19.7916 23.5197   1
  -5   4  -4 1367.91 109.157   1
  -5   4  -4 1434.75 87.0782   1
   5  -4   4 1614.49 105.733   1
   5  -4   4 1648.40  165.10   1
   5  -4   4 1512.80 121.903   1
  -6   4  -4 22.8179 4.12005   1
   6  -4   4 20.2851 7.60971   1
   6  -4   4 21.2306 3.48966   1
  -7   4  -4 217.422 13.9771   1
   7  -4   4  210.28 18.7418   1
   7  -4   4 240.918 13.6813   1
  -8   4  -4  144.66 9.96051   1
   8  -4   4  183.19 13.6282   1
  -9   4  -4 12.5592 2.05131   1
   9  -4   4  17.578 3.42155   1
  -8  -3   4 11.1419 1.09402   1
  -8  -3   4 12.0187 1.31127   1
  -7  -3   4-0.27289 1.37418   1
  -7  -3   4-0.81866  1.1013   1
  -6  -3   4 57.2231 8.48577   1
  -6  -3   4 56.2741 5.34827   1
  -6  -3   4 53.4492  4.3992   1
  -5  -3   4  153.94 10.3054   1
  -5  -3   4 151.367 11.5978   1
  -5  -3   4 155.553 9.66487   1
   4   3  -4 659.082 135.953   1
   4   3  -4 966.156  98.629   1
   3   3  -4 5.52186 12.7013   1
  -3  -3   4 6.63015 17.1246   1
  -3  -3   4 7.45402 6.90478   1
  -3  -3   4  7.1794 24.8533   1
   2   3  -4 11.5782 30.7112   1
   2   3  -4  17.622 11.0775   1
  -2  -3   4 8.55621 24.9266   1
  -2  -3   4 7.04524 7.55486   1
  -2  -3   4 8.30587 18.6323   1
  -1  -3   4 799.078 61.4892   1
  -1  -3   4  717.95 51.4334   1
  -1  -3   4 736.883   62.66   1
  -1  -3   4 711.872 69.2034   1
  -1  -3   4 859.612 57.7525   1
  -1  -3   4 746.938 46.0609   1
  -1  -3   4 741.093   49.10   1
   0   3  -4 6.02053 14.4968   1
   0   3  -4 2.67755 8.47627   1
   0  -3   4  9.1417 8.47627   1
   0  -3   4 6.02053 11.8193   1
   0  -3   4 11.1538 10.4805   1
   0  -3   4 9.81505 19.1786   1
   0  -3   4 7.58112  5.3551   1
  -1   3  -4 335.277 34.0213   1
  -1   3  -4 336.611 22.6808   1
   1  -3   4 341.721 30.4596   1
   1  -3   4 367.071 30.6886   1
   1  -3   4 339.273 28.6827   1
   1  -3   4 351.506 55.1463   1
  -2   3  -4 341.629  36.185   1
  -2   3  -4  331.29 22.5572   1
   2  -3   4 325.415 31.4866   1
   2  -3   4 322.594 30.0763   1
   2  -3   4 312.496 27.4892   1
   2  -3   4 327.059 46.0574   1
  -3   3  -4 2970.85 179.386   1
  -3   3  -4 2981.50 169.528   1
  -3   3  -4 2935.02 159.394   1
   3  -3   4 3176.99 214.704   1
   3  -3   4 3121.94 170.561   1
   3  -3   4 2594.14 172.636   1
  -4   3  -4 24.4257 19.7781   1
  -4   3  -4 26.7495 8.72714   1
   4  -3   4  37.222 29.6619   1
   4  -3   4 21.5235  14.831   1
   4  -3   4 22.6802 36.9328   1
  -5   3  -4    0.00 14.8965   1
  -5   3  -4    0.00 6.33919   1
   5  -3   4 18.7023 45.6579   1
   5  -3   4 12.9936 17.4412   1
   5  -3   4  25.368  35.513   1
  -6   3  -4 345.434 20.9451   1
   6  -3   4 344.472  26.107   1
  -7   3  -4 116.311 8.67578   1
   7  -3   4 101.656 12.5624   1
  -8   3  -4 62.1322 5.43358   1
   8  -3   4 72.4845  8.5411   1
  -9   3  -4  0.4391  1.1056   1
   9  -3   4-0.65865 1.76425   1
  -8  -2   4 33.8558 2.66243   1
  -8  -2   4 39.1721 3.14338   1
  -7  -2   4 876.535 47.5236   1
  -7  -2   4 894.133 46.9401   1
  -6  -2   4 11.9883 2.91079   1
  -6  -2   4 11.3325  2.2665   1
   5   2  -4 1.61589 23.2298   1
   5   2  -4  6.1312 10.3256   1
  -5  -2   4  38.724 34.2087   1
   4   2  -4 570.477 55.5234   1
  -4  -2   4 723.243 75.3281   1
  -4  -2   4 558.176 106.549   1
   3   2  -4 87.8983 19.3811   1
   3   2  -4 76.4384 38.7621   1
  -3  -2   4 25.6637 16.6567   1
  -3  -2   4 150.395 46.9547   1
  -3  -2   4 54.5947 31.9366   1
  -3  -2   4 135.677 93.9094   1
   2   2  -4 2.50887 2.75798   1
   2   2  -4 1.25444 5.00885   1
   2   2  -4-3.75441 10.5248   1
  -2  -2   4-5.00885 14.2792   1
  -2  -2   4 2.25087 18.0336   1
  -2  -2   4-2.75798 40.8359   1
  -2  -2   4 3.50531 5.25796   1
  -2  -2   4-0.49822 11.7704   1
  -1  -2   4 283.346  32.321   1
  -1  -2   4  244.47 46.1361   1
  -1  -2   4 252.197   25.06   1
  -1  -2   4 274.446 19.6704   1
  -1  -2   4 269.996 30.6825   1
  -1  -2   4 280.301 29.2769   1
  -1  -2   4 266.012 23.8873   1
  -1  -2   4  281.00 27.1643   1
  -1  -2   4 303.956 42.8591   1
   0   2  -4 5002.97 257.883   1
   0   2  -4 4789.11 269.281   1
   0  -2   4 4969.22 265.035   1
   0  -2   4 5279.16 294.982   1
   0  -2   4 4465.75 280.902   1
   0  -2   4 4833.79 264.138   1
   0  -2   4 4998.50 264.138   1
  -1   2  -4 3.12734 3.34959   1
  -1   2  -4-4.69101 5.58793   1
   1  -2   4 4.02427 8.27078   1
   1  -2   4 0.44449  18.772   1
   1  -2   4 0.66674 7.81835   1
   1  -2   4 0.44449 7.37385   1
  -2   2  -4 67.9681 17.8877   1
  -2   2  -4 65.8168 13.3565   1
  -2   2  -4 59.8543 7.63106   1
   2  -2   4 81.5617 16.9306   1
   2  -2   4 69.3994 16.9306   1
   2  -2   4 102.066 36.0125   1
  -3   2  -4 139.621 13.8037   1
  -3   2  -4 152.095 20.9695   1
  -3   2  -4 183.418 32.3878   1
   3  -2   4 131.418 28.1448   1
   3  -2   4  142.27  22.827   1
   3  -2   4 191.385 52.8293   1
  -4   2  -4 859.857 55.1437   1
  -4   2  -4 764.168 76.6021   1
   4  -2   4 912.608 65.2748   1
   4  -2   4 997.267 108.202   1
   4  -2   4 832.132 73.9238   1
  -5   2  -4 242.802 47.5945   1
  -5   2  -4 185.491 23.3085   1
   5  -2   4 184.525 37.2339   1
  -6   2  -4 720.167 39.7043   1
   6  -2   4 680.787 43.9348   1
  -7   2  -4 171.235 12.4705   1
   7  -2   4 185.771  10.689   1
   7  -2   4 186.372 15.7278   1
  -8   2  -4 28.7408 3.77839   1
   8  -2   4 24.7028 4.79014   1
  -8  -1   4 121.111 7.54115   1
  -8  -1   4 125.274 7.27347   1
  -7  -1   4 73.6126 5.52258   1
  -7  -1   4 73.9176 6.13257   1
  -6  -1   4 536.303 30.7394   1
  -6  -1   4 526.714 35.3639   1
  -6  -1   4 559.096 29.7418   1
   5   1  -4 998.089 82.0777   1
  -5  -1   4 643.867 95.0506   1
  -5  -1   4 913.742 108.024   1
  -5  -1   4 1084.05 182.278   1
   4   1  -4 555.164 84.5159   1
   4   1  -4 623.433 54.1363   1
   4   1  -4 413.532 46.6162   1
  -4  -1   4  677.27 120.311   1
  -4  -1   4 399.688 65.8651   1
  -4  -1   4 666.449 68.5783   1
   3   1  -4 504.655 56.9611   1
   3   1  -4 436.132 35.2244   1
   3   1  -4 531.347 43.4832   1
  -3  -1   4 538.502 107.599   1
  -3  -1   4 349.468 39.3489   1
  -3  -1   4  401.21 53.9411   1
   2   1  -4 23.5161 18.9218   1
   2   1  -4  22.245 8.43493   1
   2   1  -4 23.2619 4.85757   1
  -2  -1   4 23.5161 44.2266   1
  -2  -1   4 12.5298 12.2756   1
  -2  -1   4 43.9724 19.4303   1
  -2  -1   4 47.2955 21.7274   1
  -2  -1   4 33.7488 14.3185   1
   1   1  -4 352.219  27.359   1
  -1  -1   4 367.446 35.1058   1
  -1  -1   4 409.327 29.5343   1
  -1  -1   4 430.392  34.375   1
  -1  -1   4 325.591 57.3747   1
  -1  -1   4 391.176 48.1748   1
   0   1  -4 930.091 50.0435   1
   0   1  -4 931.942 59.3083   1
   0   1  -4 926.619 56.5272   1
   0  -1   4 933.563 57.2266   1
   0  -1   4  905.30 78.3071   1
   0  -1   4  926.38 58.1482   1
   0  -1   4 797.363 73.6747   1
  -1   1  -4 41.7637 12.9955   1
  -1   1  -4 33.6466 5.80142   1
  -1   1  -4  39.448 12.2951   1
   1  -1   4 27.3755 25.2906   1
   1  -1   4 32.2539 11.6028   1
   1  -1   4 27.3755 11.8336   1
   1  -1   4 19.0277 14.8497   1
  -2   1  -4 978.902 55.3407   1
  -2   1  -4 992.555  66.014   1
  -2   1  -4 962.271 69.4866   1
   2  -1   4 998.504 66.5076   1
   2  -1   4 981.379 90.5776   1
   2  -1   4 923.068  63.035   1
  -3   1  -4 2194.25 126.057   1
  -3   1  -4 2368.00  145.61   1
  -3   1  -4 2098.55  145.61   1
   3  -1   4 2504.25 174.567   1
   3  -1   4 2246.12 138.988   1
   3  -1   4 2282.79 133.776   1
  -4   1  -4 172.931 43.3939   1
  -4   1  -4 136.336 20.0027   1
   4  -1   4 118.486 48.9356   1
   4  -1   4 154.163 32.3104   1
  -5   1  -4 21.1238 13.8676   1
  -5   1  -4 10.5619 33.0104   1
   5  -1   4 28.0518 24.4296   1
  -6   1  -4 126.542 10.4094   1
  -6   1  -4 120.038 7.80996   1
   6  -1   4 121.667 13.6674   1
  -7   1  -4  125.59 9.56964   1
   7  -1   4 116.597 12.4745   1
   7  -1   4 126.167 7.54034   1
  -8   1  -4 3.86658   1.929   1
   8  -1   4  5.3069 0.96879   1
  -9   0   4 1.12715 0.67149   1
  -9   0   4 4.94828 1.12715   1
   8   0  -4 306.153 21.2831   1
  -8   0   4 339.987 18.0073   1
  -8   0   4 337.535 18.5597   1
  -7   0   4 60.6467 10.4219   1
  -7   0   4 73.2787 6.31596   1
  -7   0   4 67.6021  5.0595   1
  -6   0   4 271.698 23.8463   1
  -6   0   4 281.432 16.7962   1
  -6   0   4  273.38 16.1282   1
   5   0  -4  371.45 114.532   1
   5   0  -4 394.748 50.2089   1
  -5   0   4 328.456 66.6189   1
  -5   0   4 491.553 129.625   1
  -5   0   4 341.579 62.6796   1
   4   0  -4 1.22455 9.46043   1
   4   0  -4-3.96623 13.7301   1
   4   0  -4-2.13483 27.4602   1
  -4   0   4 8.85357 22.8871   1
  -4   0   4 13.4267 24.1008   1
  -4   0   4 7.93246 57.9763   1
   3   0  -4 7633.20 395.562   1
   3   0  -4 7255.66 389.652   1
   3   0  -4 7211.17 420.621   1
  -3   0   4 6253.98 399.512   1
  -3   0   4 7703.60 407.951   1
  -3   0   4 7159.11  484.23   1
   2   0  -4 2212.67 150.536   1
   2   0  -4 2226.45 127.236   1
   2   0  -4 2263.00 119.553   1
  -2   0   4 2089.93 187.384   1
  -2   0   4 2346.50 134.372   1
  -2   0   4 2217.70 138.608   1
  -2   0   4 2215.31 130.945   1
   1   0  -4 1474.89 84.5063   1
   1   0  -4 1490.68 81.1977   1
  -1   0   4 1332.12  87.815   1
  -1   0   4 1440.53 82.7254   1
  -1   0   4 1454.02 106.392   1
  -1   0   4 1392.19 88.8365   1
  -1   0   4 1342.56 123.198   1
   0   0  -4 568.118  40.427   1
   0   0  -4 545.086 38.2168   1
   0   0  -4 521.566 29.6459   1
   0   0   4 492.407 54.3928   1
   0   0   4 515.927 63.4598   1
   0   0   4 473.542 39.2001   1
   0   0   4 476.971 36.0153   1
  -1   0  -4 1072.97 71.2878   1
  -1   0  -4 1072.22 58.5058   1
  -1   0  -4 1183.07 73.0165   1
   1   0   4 940.703 67.1145   1
   1   0   4 1061.16 87.0209   1
   1   0   4 995.279 63.9189   1
   1   0   4 1050.59 91.9452   1
  -2   0  -4 88.3099 21.7494   1
  -2   0  -4 108.486  24.895   1
  -2   0  -4 77.8307 9.16696   1
   2   0   4  46.905 13.6248   1
   2   0   4 93.8101 20.6978   1
   2   0   4 92.7584 34.3319   1
   2   0   4 80.7064 37.7381   1
  -3   0  -4-0.28742 15.0278   1
  -3   0  -4 2.89469 6.35396   1
  -3   0  -4 2.89469 14.4529   1
   3   0   4 13.0056 25.4364   1
   3   0   4-1.73476 13.5804   1
   3   0   4 -8.3864 28.6185   1
  -4   0  -4 753.587 53.1486   1
  -4   0  -4 629.148 79.5647   1
   4   0   4 892.958 71.9236   1
  -5   0  -4 365.894  22.384   1
  -5   0  -4 282.684 57.4792   1
  -5   0  -4 352.863 20.0459   1
  -5   0  -4 420.027 35.4275   1
   5   0   4 359.545 65.8346   1
  -6   0  -4 173.309 12.8133   1
  -7   0  -4 62.2971 6.67716   1
   7   0   4 62.5737 4.45473   1
  -8   0  -4 3.63209 1.81202   1
   8   0   4 7.70712 1.13553   1
   9  -1  -4 38.5114  5.4369   1
  -9   1   4 43.2351 2.83591   1
  -9   1   4  42.287 3.07084   1
  -8   1   4  13.509 2.52794   1
  -8   1   4 13.2192 1.96839   1
  -7   1   4 27.6697 3.22299   1
  -7   1   4 17.7036 7.40602   1
  -7   1   4 28.6412 3.86302   1
   6  -1  -4-12.6065 24.8622   1
  -6   1   4-11.2394 11.2394   1
  -6   1   4 38.1583 99.4729   1
  -6   1   4 10.5619 3.41174   1
  -6   1   4 9.19477  7.4889   1
  -6   1   4-6.13388 37.8075   1
   5  -1  -4 460.217 83.3776   1
   5  -1  -4 371.178 44.3599   1
   5  -1  -4 423.201 43.0214   1
  -5   1   4 495.575 128.069   1
  -5   1   4 423.201 69.0332   1
  -5   1   4 367.506 63.0396   1
   4  -1  -4 1505.67  98.243   1
   4  -1  -4 1437.06 95.7506   1
   4  -1  -4 1578.97 138.165   1
  -4   1   4 1650.39 197.394   1
  -4   1   4 1281.77 111.657   1
  -4   1   4 1227.18 102.618   1
   3  -1  -4 248.578 27.2391   1
   3  -1  -4 279.872  35.348   1
   3  -1  -4 258.427 49.2609   1
  -3   1   4 241.334 31.0054   1
  -3   1   4 257.264  73.598   1
  -3   1   4 233.215 38.8262   1
   2  -1  -4 849.433 54.3116   1
   2  -1  -4 841.473 46.9076   1
   2  -1  -4 863.695  76.533   1
  -2   1   4 683.507 59.7963   1
  -2   1   4 848.887  108.35   1
  -2   1   4 855.736 65.0083   1
  -2   1   4 872.745 55.6852   1
   1  -1  -4 836.162 52.0683   1
   1  -1  -4 936.309 63.6984   1
  -1   1   4 843.568 63.4356   1
  -1   1   4 741.018 58.1415   1
  -1   1   4 873.427 99.1146   1
   0  -1  -4 22.1224 16.2103   1
   0  -1  -4 13.1217 9.52148   1
   0  -1  -4 11.5775  4.1211   1
   0   1   4   12.61 12.3542   1
   0   1   4 24.1875 33.1881   1
   0   1   4 15.1777  19.043   1
   0   1   4  3.3444 7.97721   1
   0   1   4 10.8099 10.2891   1
  -1  -1  -4 654.089 39.3886   1
  -1  -1  -4 768.587 60.2501   1
  -1  -1  -4 661.908 53.4692   1
   1   1   4 702.075 61.8156   1
   1   1   4 712.246 83.4645   1
   1   1   4 532.561 51.3849   1
   1   1   4 678.601 49.3006   1
  -2  -1  -4 1293.99  96.045   1
  -2  -1  -4 1122.76 70.2345   1
  -2  -1  -4 1134.96 89.3804   1
   2   1   4 1047.52   85.22   1
   2   1   4 1367.29 132.138   1
   2   1   4 1297.89 113.535   1
   2   1   4 1350.91   85.22   1
  -3  -1  -4 622.575 63.3578   1
  -3  -1  -4 604.693 40.9215   1
  -3  -1  -4 505.872 60.9247   1
   3   1   4  517.09 55.7786   1
   3   1   4 744.134 109.124   1
   3   1   4 657.134 56.6829   1
  -4  -1  -4 21.2861 32.0919   1
  -4  -1  -4 10.1545 12.1203   1
   4   1   4 2.94283 19.9833   1
  -5  -1  -4 182.015 10.6886   1
  -5  -1  -4 166.344 13.0256   1
  -6  -1  -4 173.617 12.6863   1
  -7  -1  -4 81.9314 6.78359   1
   7   1   4 87.4083 5.47692   1
  -8  -1  -4 1.87456 1.04472   1
   8   1   4 0.20746 0.62238   1
   9  -2  -4 45.2799 6.57107   1
  -9   2   4  46.499 3.16449   1
  -9   2   4 44.5536 3.40658   1
  -8   2   4 43.7071 3.71328   1
  -8   2   4 37.7111 4.28143   1
  -7   2   4 102.241 6.81298   1
  -7   2   4 74.9774 12.6576   1
  -7   2   4 101.272 7.79285   1
   6  -2  -4 51.9655 22.3652   1
   6  -2  -4-5.85406 39.2308   1
   6  -2  -4   17.55 57.4651   1
  -6   2   4 83.2768 52.3077   1
  -6   2   4 50.9267 105.984   1
  -6   2   4 69.1611   17.55   1
   5  -2  -4 235.357 41.3784   1
   5  -2  -4 240.778 36.9695   1
   5  -2  -4 297.081 81.4077   1
  -5   2   4  219.42 55.9663   1
  -5   2   4 269.954 134.652   1
  -5   2   4 249.258 49.8589   1
   4  -2  -4 5077.36 332.568   1
   4  -2  -4 4980.56 284.331   1
   4  -2  -4 4535.87 277.942   1
  -4   2   4 4471.97 280.813   1
  -4   2   4 5073.21 298.061   1
  -4   2   4 5543.17 414.689   1
   3  -2  -4 1703.19  114.45   1
   3  -2  -4 1758.92 109.083   1
   3  -2  -4 1775.32 140.384   1
  -3   2   4 1974.69 197.874   1
  -3   2   4 1647.45 109.083   1
  -3   2   4 1863.54  124.58   1
   2  -2  -4 58.6482 22.5601   1
   2  -2  -4 117.567 38.0607   1
   2  -2  -4 103.758 17.4833   1
   2  -2  -4 102.907 10.4339   1
  -2   2   4 85.1435 23.6816   1
  -2   2   4 131.385 64.2857   1
  -2   2   4 101.786 16.3518   1
  -2   2   4 61.7423 18.8852   1
   1  -2  -4 405.533 48.6884   1
   1  -2  -4 380.503 45.1527   1
   1  -2  -4 393.023 22.5763   1
   1  -2  -4 351.126 33.4539   1
   1  -2  -4  397.10 29.3772   1
  -1   2   4 405.804 71.5352   1
  -1   2   4  316.31 39.1729   1
  -1   2   4 289.928 32.0918   1
  -1   2   4 371.529 29.1067   1
   0  -2  -4  20.169 14.7925   1
   0  -2  -4 31.4568 18.0108   1
   0  -2  -4 21.5155   6.723   1
   0  -2  -4 18.2877 19.6247   1
   0   2   4 25.8129 14.7925   1
   0   2   4 37.1102 46.2493   1
   0   2   4 19.6247 10.4856   1
  -1  -2  -4 314.578 24.8361   1
  -1  -2  -4 388.812 51.0542   1
  -1  -2  -4 387.979 42.7722   1
   1   2   4 290.291 44.9873   1
   1   2   4  408.13 81.4084   1
   1   2   4 321.203  32.285   1
  -2  -2  -4 128.515 34.9188   1
  -2  -2  -4  151.95 16.7247   1
  -2  -2  -4 107.976 34.6166   1
   2   2   4 130.859 33.1577   1
   2   2   4 157.817 26.9888   1
   2   2   4 208.877  75.996   1
  -3  -2  -4 983.799 93.6096   1
  -3  -2  -4 1071.40 68.6291   1
   3   2   4 1117.54 84.4441   1
   3   2   4 1268.72  173.28   1
   3   2   4 1057.17 99.3043   1
  -4  -2  -4 119.895 21.9776   1
  -4  -2  -4 96.2497 43.9671   1
   4   2   4 110.243 24.3079   1
   4   2   4 6.99073 55.2871   1
   4   2   4 92.5947 38.9636   1
  -5  -2  -4 103.481 10.1527   1
  -6  -2  -4  138.98 10.8049   1
   6   2   4 149.163  8.7621   1
  -7  -2  -4 2.39385 1.90999   1
   7   2   4 0.23769 0.71306   1
   9  -3  -4 5.93469 3.95939   1
  -9   3   4 9.14785 1.72949   1
   8  -3  -4 15.1602  3.1499   1
  -8   3   4 21.1755 2.57073   1
  -8   3   4 16.3084  2.8654   1
   7  -3  -4 36.5866 4.20826   1
  -7   3   4 40.4729 9.71579   1
  -7   3   4 36.5866 4.85215   1
  -7   3   4 37.5524 4.20826   1
   6  -3  -4 529.438 116.595   1
   6  -3  -4 791.945 74.8551   1
  -6   3   4 762.971 97.6179   1
  -6   3   4 880.215  78.653   1
  -6   3   4 853.348 173.478   1
   5  -3  -4 385.697 52.2119   1
   5  -3  -4 435.506 49.1133   1
   5  -3  -4 354.443 93.4325   1
  -5   3   4 596.216 142.546   1
  -5   3   4 447.876 68.0097   1
  -5   3   4 444.436 56.6768   1
   4  -3  -4 115.657 54.8869   1
   4  -3  -4 163.338 36.2625   1
   4  -3  -4 166.599 25.1575   1
  -4   3   4  228.03 44.7566   1
  -4   3   4 150.945 30.0543   1
  -4   3   4 320.816 134.281   1
   3  -3  -4 1331.33 132.138   1
   3  -3  -4 1342.98 91.3624   1
   3  -3  -4 1224.34 90.4369   1
  -3   3   4 1414.38 102.392   1
  -3   3   4 1456.69 167.971   1
  -3   3   4 1359.84 87.6822   1
   2  -3  -4 1388.83 107.294   1
   2  -3  -4 1510.66  119.50   1
   2  -3  -4 1212.37 84.3169   1
  -2   3   4 1343.47 99.7346   1
  -2   3   4 1334.75 83.1603   1
  -2   3   4 1333.30 150.294   1
   1  -3  -4 138.301 18.3439   1
   1  -3  -4 147.864 29.6309   1
   1  -3  -4 181.174  40.928   1
   1  -3  -4 195.568 37.2592   1
  -1   3   4 139.714 23.7067   1
  -1   3   4  200.36 46.5715   1
  -1   3   4  163.11 22.0127   1
   0  -3  -4 228.615 20.8926   1
   0  -3  -4 295.513 42.6272   1
   0  -3  -4 216.194 33.5945   1
   0   3   4 211.963 29.6345   1
   0   3   4 351.123 90.0465   1
   0   3   4 222.971 38.1059   1
  -1  -3  -4 107.003 48.3965   1
  -1  -3  -4 107.292 15.4488   1
  -1  -3  -4 148.658 38.4874   1
   1   3   4  135.86 37.3173   1
   1   3   4 238.452 72.8847   1
  -2  -3  -4 312.592 28.6772   1
  -2  -3  -4 419.888 73.3739   1
   2   3   4 303.657 57.9567   1
   2   3   4  359.15 134.112   1
  -3  -3  -4 370.393  30.979   1
  -3  -3  -4 320.502 50.5392   1
   3   3   4  379.53 109.891   1
   3   3   4 397.458 60.9736   1
  -4  -3  -4 596.382 35.2069   1
  -5  -3  -4 131.049 11.2633   1
   5   3   4 138.869  8.7529   1
  -6  -3  -4 178.944 12.0558   1
   6   3   4 187.783 10.7142   1
  -7  -3  -4 2.56337 1.28169   1
   7   3   4 1.49404 0.63705   1
   9  -4  -4 95.5287 6.45083   1
   9  -4  -4 108.686   9.923   1
  -9   4   4 98.7541 6.20408   1
   8  -4  -4 2.83314 2.26049   1
  -8   4   4 3.67706 1.97918   1
   7  -4  -4 223.396 14.0252   1
  -7   4   4 244.428 20.7152   1
  -7   4   4 223.396 14.0252   1
   6  -4  -4 128.835 110.386   1
   6  -4  -4 187.918 35.8771   1
  -6   4   4 259.344 15.0378   1
  -6   4   4 283.606  14.698   1
  -6   4   4 265.838 22.2108   1
  -6   4   4 113.117 56.0489   1
  -6   4   4  120.29 125.424   1
   5  -4  -4 172.319 49.9843   1
   5  -4  -4 182.309 33.7758   1
   5  -4  -4 267.109 35.5019   1
  -5   4   4 225.058  42.737   1
  -5   4   4 359.133 145.117   1
  -5   4   4 222.634 54.1221   1
   4  -4  -4-45.2022 45.2022   1
   4  -4  -4 18.9474 17.2828   1
   4  -4  -4 19.2779  19.939   1
  -4   4   4 29.9144 27.2583   1
  -4   4   4 57.1727 76.1201   1
  -4   4   4 25.9243 16.9523   1
   3  -4  -4 252.543 37.8405   1
   3  -4  -4 311.191 81.6724   1
   3  -4  -4 260.427   52.97   1
  -3   4   4 364.788 49.1849   1
  -3   4   4 301.414  88.918   1
  -3   4   4 294.796  35.948   1
   2  -4  -4 147.176 27.1429   1
   2  -4  -4 185.148 57.3064   1
   2  -4  -4 210.791 51.2758   1
  -2   4   4 239.444 104.351   1
  -2   4   4  201.14 42.5246   1
  -2   4   4 182.738 31.6631   1
   1  -4  -4 41.0223 32.1659   1
   1  -4  -4 28.6234 10.6277   1
   1  -4  -4 44.2714 24.2004   1
  -1   4   4 69.3522 20.9514   1
  -1   4   4 110.961 75.8399   1
  -1   4   4 51.9434 28.6234   1
   0  -4  -4  693.62 49.5895   1
   0  -4  -4 726.293 77.5059   1
   0  -4  -4 542.172 79.2883   1
   0   4   4 642.248 63.8483   1
   0   4   4 827.518 124.121   1
   0   4   4  783.57 63.2471   1
  -1  -4  -4 177.698 23.2896   1
  -1  -4  -4 69.8689 57.6038   1
  -1  -4  -4 186.589 52.4017   1
   1   4   4 168.817 39.8318   1
   1   4   4 264.109 115.218   1
   1   4   4 242.049 64.3513   1
  -2  -4  -4 205.434 26.8812   1
  -2  -4  -4  214.39 61.1277   1
   2   4   4  197.75 106.252   1
   2   4   4 227.189 69.7661   1
  -3  -4  -4 134.407 11.1967   1
   3   4   4 130.125 8.56425   1
  -4  -4  -4  196.04 14.4872   1
   4   4   4 205.051 11.9145   1
  -5  -4  -4 104.488 8.97373   1
   5   4   4 112.012 6.94873   1
  -6  -4  -4    0.00  1.6704   1
   6   4   4    0.00 0.95815   1
   9  -5  -4 22.2482 5.43475   1
   9  -5  -4  18.789 2.47593   1
  -9   5   4 24.2237 2.47593   1
   8  -5  -4 20.4702 3.04499   1
  -8   5   4 19.3602 2.76995   1
   7  -5  -4 245.056 15.1669   1
  -7   5   4 256.815 15.1669   1
  -7   5   4 260.838 20.4204   1
  -6   5   4 213.407 13.0055   1
  -6   5   4 204.736 18.3475   1
   5  -5  -4    0.00 20.4654   1
  -5   5   4 8.19102 32.4127   1
  -5   5   4-4.43478 24.5609   1
  -5   5   4  45.717 92.4519   1
   4  -5  -4-1.67609 59.9114   1
   4  -5  -4 0.66568   17.07   1
  -4   5   4 26.7818 27.4475   1
  -4   5   4 18.4132 69.2785   1
  -4   5   4 38.4907   17.07   1
   3  -5  -4 1650.68 167.015   1
   3  -5  -4 1503.63 145.448   1
   3  -5  -4 1644.23 116.093   1
  -3   5   4 2333.65 238.611   1
  -3   5   4 1817.38  114.81   1
   2  -5  -4 47.4517 9.98926   1
   2  -5  -4 45.8885  37.152   1
  -2   5   4 49.3254 31.2206   1
  -2   5   4 52.1304  74.925   1
  -2   5   4 35.5888 23.7259   1
   1  -5  -4 94.7865 46.4751   1
   1  -5  -4 121.871 40.0044   1
  -1   5   4 390.513 146.803   1
  -1   5   4 187.081 48.6284   1
  -1   5   4 236.332 38.1572   1
   0  -5  -4 138.327  24.189   1
   0  -5  -4 44.9743 43.7296   1
   0  -5  -4 138.635 48.6974   1
   0   5   4 205.595  107.00   1
   0   5   4 141.741 42.1765   1
   0   5   4 144.837 37.2198   1
  -1  -5  -4 48.5954 35.8938   1
  -1  -5  -4 107.986 22.8651   1
  -1  -5  -4 21.2746 46.3732   1
   1   5   4-0.31585 109.892   1
   1   5   4  118.15 55.2621   1
   1   5   4 69.5542 28.2684   1
  -2  -5  -4 273.294 65.6544   1
  -3  -5  -4 38.4279 6.13517   1
  -3  -5  -4 44.2306 4.19714   1
   3   5   4  36.811 3.87605   1
  -4  -5  -4 310.827 18.6785   1
   4   5   4 294.866 16.8706   1
  -5  -5  -4 113.341 7.76561   1
   5   5   4 107.129 6.46981   1
  -6  -5  -4 32.2498 2.48189   1
   6   5   4 30.5977 2.07069   1
   9  -6  -4 3.68421 3.43976   1
   9  -6  -4 2.46196 1.47543   1
  -9   6   4 0.98653 0.98653   1
   8  -6  -4 81.8355 10.7297   1
   8  -6  -4 77.0043 5.89849   1
  -8   6   4 60.6334 5.09804   1
   7  -6  -4 284.828 16.3237   1
  -7   6   4  260.20 15.7231   1
   6  -6  -4-1.28547 1.92252   1
  -6   6   4 3.20799 1.92252   1
   5  -6  -4 216.008 42.1479   1
  -5   6   4 177.844 185.481   1
  -5   6   4 213.356 12.2814   1
  -5   6   4 94.2553 50.7755   1
   4  -6  -4 40.1161 22.5484   1
  -4   6   4  11.598 31.1674   1
  -4   6   4 40.1161 76.9118   1
  -4   6   4 47.0749 29.5072   1
   3  -6  -4-15.6101 38.3555   1
  -3   6   4-7.48175 29.5806   1
  -3   6   4 12.3541 68.5942   1
  -3   6   4-1.62797 29.5806   1
   2  -6  -4 56.1115 45.5821   1
  -2   6   4 174.664 109.981   1
  -2   6   4 129.432 46.2275   1
   1  -6  -4 38.8913 36.6789   1
   1  -6  -4 108.464 43.6418   1
   1  -6  -4   72.10 20.2374   1
  -1   6   4 103.399 94.8643   1
  -1   6   4 170.412 57.8709   1
  -1   6   4  168.20 31.9396   1
   0  -6  -4  964.25 71.1964   1
   0  -6  -4 767.221 103.617   1
   0   6   4 949.315 179.554   1
   0   6   4 1037.35 93.1299   1
   0   6   4 981.736 103.617   1
  -1  -6  -4  44.621 6.73761   1
  -1  -6  -4 35.3069 3.85332   1
  -2  -6  -4 84.6473 7.98602   1
  -2  -6  -4 87.5173 6.38655   1
  -3  -6  -4 234.396 15.2242   1
  -3  -6  -4 260.271 14.3051   1
  -4  -6  -4 264.964 16.2535   1
  -4  -6  -4 296.403 15.7146   1
  -5  -6  -4 16.3286  1.7878   1
   9  -7  -4 131.603 7.38363   1
   9  -7  -4 108.989 9.83901   1
  -9   7   4 119.082 7.13896   1
   8  -7  -4 22.3465 3.11983   1
  -8   7   4 25.2079 2.86138   1
   7  -7  -4 106.134 7.61893   1
  -7   7   4 90.3245 6.77684   1
   6  -7  -4 177.512 11.8348   1
  -6   7   4 178.417 11.2312   1
   5  -7  -4 11.0922 2.84907   1
  -5   7   4  4.7522 2.53376   1
  -4   7   4  577.11 31.8566   1
   3  -7  -4 339.203 81.4443   1
  -3   7   4 247.499 61.5615   1
  -3   7   4 296.557  127.94   1
  -3   7   4 282.128 56.1068   1
  -3   7   4 299.119 17.6394   1
   2  -7  -4  16.856 42.3095   1
   2  -7  -4 109.429 8.58618   1
  -2   7   4  84.619 98.6168   1
  -2   7   4 129.471 49.3027   1
  -2   7   4 32.4467 27.9955   1
   1  -7  -4 9.81956 4.43174   1
   1  -7  -4 8.86347 2.21587   1
   0  -7  -4  81.574 6.32243   1
   0  -7  -4 86.0098 9.48927   1
  -1  -7  -4 75.7772 5.94963   1
  -1  -7  -4 82.3496  8.7632   1
  -2  -7  -4 14.4699 3.01813   1
  -2  -7  -4 15.6686 2.40808   1
  -3  -7  -4 51.7214 4.68063   1
  -3  -7  -4 65.4799 4.40702   1
  -4  -7  -4 26.0505 2.35079   1
   9  -8  -4  75.346 4.77212   1
  -9   8   4 66.3012 4.52236   1
   8  -8  -4 76.9176  5.3286   1
  -8   8   4 62.4555 4.57124   1
   7  -8  -4 39.2203 4.30269   1
  -7   8   4 30.8916 3.49176   1
   6  -8  -4 242.433  14.565   1
  -6   8   4 232.158  14.281   1
  -5   8   4 73.5181 6.27244   1
   4  -8  -4 46.2394 6.73147   1
  -4   8   4 58.7889 5.20901   1
   3  -8  -4 196.038 14.5079   1
  -3   8   4 192.025 12.0406   1
   2  -8  -4 87.0713 9.57345   1
   1  -8  -4 615.938   33.81   1
   1  -8  -4 616.561 36.2663   1
   0  -8  -4 178.103 13.0519   1
   0  -8  -4 165.051 10.6161   1
  -1  -8  -4 101.213 7.04342   1
  -1  -8  -4 118.227 9.38775   1
  -2  -8  -4 4.08426 1.36464   1
  -2  -8  -4 2.72929 1.36464   1
  -3  -8  -4 18.4072 1.91034   1
  -3  -8  -4 12.1922 1.67261   1
   8  -9  -4  44.173 3.80506   1
  -8   9   4 45.6968 3.30013   1
   7  -9  -4  111.62 7.51431   1
  -7   9   4 114.205 7.24758   1
  -6   9   4 99.8595 7.01643   1
  -5   9   4 63.6736 5.32938   1
   4  -9  -4 126.401 10.3689   1
  -4   9   4 133.886 8.64077   1
   3  -9  -4 166.848 13.1277   1
  -3   9   4 181.136 11.0866   1
   2  -9  -4 269.217 17.5366   1
  -2   9   4 252.563 15.2005   1
   1  -9  -4 25.1888 4.92467   1
   0  -9  -4 88.6044  5.9043   1
   0  -9  -4 77.9147 7.59266   1
  -1  -9  -4 48.4452 5.02972   1
  -1  -9  -4 56.3799 3.96737   1
  -2  -9  -4  42.289 2.85189   1
  -7  10   4 20.6137 2.31481   1
  -6  10   4 134.004  8.0691   1
  -5  10   4   55.86 4.52511   1
   4 -10  -4 13.8223 3.25344   1
  -4  10   4 16.2576 2.43527   1
   3 -10  -4 0.81618 2.74002   1
  -3  10   4 1.91413 1.37001   1
   2 -10  -4 123.773 9.26629   1
  -2  10   4 118.864 7.62993   1
   1 -10  -4 121.923 8.53687   1
  -1  10   4 111.245 6.93561   1
   0 -10  -4 223.181 12.4455   1
   0  10   4 194.232 11.4265   1
   1  10   4 99.8421 5.57473   1
  -6  11   4 0.26061 0.78184   1
  -5  11   4 43.9419 3.38015   1
   4 -11  -4 21.5841  2.8631   1
  -4  11   4 18.9796 2.07806   1
   3 -11  -4 159.941  9.8366   1
  -3  11   4 157.615 9.05519   1
   2 -11  -4-1.27273 1.27273   1
  -2  11   4 1.27273 0.75822   1
   1 -11  -4 1.70614 1.22114   1
  -1  11   4 1.22114 0.72749   1
   2 -12   5 61.6266 4.12342   1
   3 -12   5 21.7067 2.53312   1
   3 -12   5 20.8657 2.25277   1
   0 -11   5 237.551 13.6031   1
   0 -11   5 251.154 13.6031   1
   1 -11   5 176.445  11.319   1
   1 -11   5 201.124 11.0304   1
   2 -11   5 48.8363 4.71227   1
   2 -11   5  50.017 4.40927   1
   3 -11   5 66.8888 4.99061   1
   3 -11   5 66.2949 5.28234   1
   4 -11   5 0.86544 1.74119   1
   4 -11   5-0.57696 1.45271   1
   5 -11   5 10.5782  1.9999   1
  -6  11  -5 55.1779 3.67785   1
  -2 -10   5 26.0646 2.36526   1
  -2 -10   5 32.1133 2.63638   1
  -1 -10   5 41.8081 3.48487   1
  -1 -10   5 29.3224 3.77355   1
   0 -10   5  6.3254 2.10847   1
   0 -10   5 3.61757 2.10847   1
   1 -10   5 421.376 23.9121   1
   1 -10   5 420.774   23.31   1
   2 -10   5 203.059 12.6225   1
   2 -10   5 217.484   13.22   1
   3 -10   5 185.161 11.5917   1
   3 -10   5 183.082 11.2961   1
   4 -10   5 290.047 17.0107   1
   4 -10   5 308.235 17.0107   1
   5 -10   5 261.417 14.9545   1
  -6  10  -5 17.1038 2.24002   1
   6 -10   5  9.2488 2.24002   1
  -7  10  -5 119.807 7.41718   1
   7 -10   5 140.663 7.69045   1
  -3  -9   5 27.6476 2.68849   1
  -3  -9   5 30.0692 2.68849   1
  -2  -9   5 178.967  10.123   1
  -2  -9   5 166.167 10.4192   1
  -1  -9   5   62.03 5.52905   1
  -1  -9   5 67.2428  5.2237   1
  -1  -9   5 66.6321  5.8344   1
   0  -9   5 27.1135 3.95991   1
   0  -9   5 35.3363 3.95991   1
   1  -9   5  779.46 42.2094   1
   1  -9   5 790.231 43.1132   1
   2  -9   5 416.213 23.6716   1
   2  -9   5 412.063 23.0728   1
   3  -9   5 74.2667 6.78292   1
   3  -9   5 84.8807 6.47936   1
   4  -9   5 171.699  10.882   1
   4  -9   5 177.286 11.1744   1
   5  -9   5 50.8544 5.23304   1
   5  -9   5 54.3431 4.94403   1
   6  -9   5 84.1836 6.50113   1
  -7   9  -5 13.8508 2.44029   1
   7  -9   5 18.7411 2.44029   1
  -4  -8   5 8.00704 1.60141   1
  -4  -8   5 11.7405 1.60141   1
  -3  -8   5 137.134 9.02551   1
  -3  -8   5 169.893 9.62366   1
  -2  -8   5  64.741 5.88554   1
  -1  -8   5 2.42329 1.82016   1
  -1  -8   5 6.97908 2.42329   1
  -1  -8   5 2.12173 2.42329   1
   0  -8   5 159.099 10.8453   1
   1  -8   5 2.00177  2.5708   1
   1  -8   5 2.00177 2.00177   1
   2  -8   5 135.523 8.82726   1
   2  -8   5  125.27 9.11038   1
   3  -8   5 24.1943 3.74423   1
   3  -8   5 18.4347 3.45779   1
   4  -8   5 156.633 10.2439   1
   4  -8   5 169.518 10.2439   1
   4  -8   5 139.088 10.8367   1
   5  -8   5 95.2478 7.05772   1
   5  -8   5 95.2478 7.93471   1
   6  -8   5 68.9447   6.315   1
  -7   8  -5 22.1379 3.00865   1
   7  -8   5 30.0574 3.55215   1
   7  -8   5 24.8651 6.83255   1
  -8   8  -5 79.2529 5.96052   1
   8  -8   5 91.9466 8.28771   1
   8  -8   5 103.343 5.96052   1
  -5  -7   5 22.6808 2.31568   1
  -5  -7   5 21.3903  2.0594   1
  -4  -7   5 2.38987 1.49765   1
  -4  -7   5 5.38518 2.09247   1
  -3  -7   5 363.261 20.2673   1
  -3  -7   5 334.566 19.6471   1
  -2  -7   5 69.1419 5.76182   1
  -2  -7   5 63.0785 5.76182   1
  -1  -7   5 2.88216  2.2996   1
  -1  -7   5 5.46793 2.01343   1
  -1  -7   5 4.60941 2.01343   1
   0   7  -5 1859.67 134.541   1
   0  -7   5 1887.45 141.938   1
   0  -7   5 1914.69 118.027   1
   0  -7   5 2084.42 103.722   1
  -1   7  -5 255.322 20.7395   1
  -1   7  -5  270.13 34.7444   1
  -1   7  -5 258.278 41.2112   1
   1  -7   5 235.921 33.9408   1
  -2   7  -5 213.772 50.1933   1
  -2   7  -5 202.643 23.6079   1
   2  -7   5 213.502  36.626   1
  -3   7  -5 9.22899  29.654   1
  -3   7  -5  3.3578 13.9875   1
   3  -7   5 15.1002  26.018   1
   3  -7   5 9.22899 2.80148   1
   3  -7   5 30.4884 66.8481   1
   3  -7   5  3.3578 19.8587   1
   4  -7   5 20.0566 3.77803   1
   4  -7   5 24.1237 4.65544   1
   4  -7   5 26.1572 3.77803   1
   5  -7   5 3.57024  2.6724   1
   5  -7   5 0.59152 2.08088   1
  -6   7  -5 58.9552  5.2819   1
   6  -7   5 56.0277  5.8653   1
   6  -7   5 64.2371 10.5638   1
  -7   7  -5 61.5941 5.27161   1
   7  -7   5 64.3629 9.42977   1
   7  -7   5 69.9104 5.54751   1
  -8   7  -5 23.9131 3.08615   1
   8  -7   5 33.1624 3.34181   1
   8  -7   5 30.5967  5.3962   1
  -6  -6   5 132.753 7.71082   1
  -6  -6   5 132.992 7.71082   1
  -5  -6   5 0.86866 1.74766   1
  -5  -6   5-1.16856 1.16856   1
  -4  -6   5 8.76462 2.50259   1
  -4  -6   5 10.6443 3.13658   1
  -3  -6   5 340.222 20.5693   1
  -3  -6   5 391.198  21.191   1
  -2  -6   5 108.054 8.06392   1
  -2  -6   5 101.423 7.49085   1
   1   6  -5 68.1764 28.8343   1
  -1  -6   5 40.4235 36.6434   1
  -1  -6   5  71.679 19.1304   1
  -1  -6   5 60.6257 37.9928   1
   0   6  -5 266.436 38.5843   1
   0  -6   5 285.208  47.326   1
   0  -6   5 259.741 27.7781   1
   0  -6   5 261.549 52.9803   1
  -1   6  -5 969.995 85.1752   1
  -1   6  -5 1067.59 63.6226   1
  -1   6  -5 1068.35 77.5679   1
   1  -6   5 1050.61 77.3158   1
   1  -6   5 982.923 107.223   1
   1  -6   5 1025.00 70.2126   1
  -2   6  -5 707.194 70.1275   1
  -2   6  -5 612.757 43.9974   1
   2  -6   5 707.709 63.9236   1
   2  -6   5 621.038 109.722   1
   2  -6   5 662.425 58.4825   1
  -3   6  -5 539.188 67.9816   1
  -3   6  -5 573.995 42.4173   1
   3  -6   5 606.899 58.1982   1
   3  -6   5 463.866 106.874   1
   3  -6   5 573.724 53.0312   1
  -4   6  -5  220.30 22.2341   1
  -4   6  -5 215.674 44.4681   1
   4  -6   5 39.8531 76.8141   1
   4  -6   5 202.968 42.1606   1
   5  -6   5 233.075 15.6596   1
   5  -6   5 287.295 15.3601   1
   5  -6   5 255.366 22.8903   1
  -6   6  -5  9.8964 2.69514   1
   6  -6   5 9.00156 2.69514   1
   6  -6   5 9.59812 7.20125   1
  -7   6  -5 96.8843 7.34306   1
   7  -6   5 102.813 7.34306   1
   7  -6   5 98.0078 12.7099   1
  -8   6  -5 46.4849 4.36936   1
   8  -6   5 54.7037 4.11395   1
   8  -6   5 52.3958 7.70795   1
  -7  -5   5 36.6205 2.61686   1
  -6  -5   5 87.3812 5.76751   1
  -6  -5   5 71.9914 5.49426   1
  -5  -5   5 283.666 16.4476   1
  -5  -5   5 265.047 16.1389   1
  -4  -5   5 266.042 15.6902   1
  -4  -5   5 266.666 16.3142   1
   3   5  -5 438.441  74.806   1
   3   5  -5 496.656 110.875   1
  -3  -5   5 352.105 21.8832   1
   2   5  -5 21.5215 51.5007   1
   2   5  -5 20.4377 25.6149   1
   2   5  -5  3.2708  22.344   1
  -2  -5   5-7.35447 17.1669   1
  -2  -5   5 26.1568 10.0834   1
   1   5  -5  294.70  43.374   1
  -1  -5   5  311.95 37.5367   1
  -1  -5   5  289.88 30.9428   1
  -1  -5   5 267.558 58.0842   1
   0   5  -5 296.978 35.1865   1
   0  -5   5 307.897 53.1374   1
   0  -5   5 247.719 37.8494   1
   0  -5   5 272.228 25.2329   1
   0  -5   5 263.981 35.1865   1
   0  -5   5 231.707 21.8375   1
  -1   5  -5 1392.89 104.065   1
  -1   5  -5 1420.36 84.0718   1
  -1   5  -5 1549.47 95.3903   1
   1  -5   5 1469.74 95.1507   1
   1  -5   5 1507.08 99.0006   1
   1  -5   5 1411.20 136.558   1
  -2   5  -5 116.574 16.1896   1
  -2   5  -5 75.7286 25.9034   1
   2  -5   5 129.508 31.3884   1
   2  -5   5 107.612 21.6747   1
   2  -5   5 103.375 64.0154   1
  -3   5  -5  270.65 44.2253   1
  -3   5  -5  234.42 23.4468   1
   3  -5   5 252.275 38.8982   1
   3  -5   5 190.999 73.2641   1
   3  -5   5 257.602 32.2369   1
  -4   5  -5 790.191 51.9139   1
  -4   5  -5  733.37 74.4085   1
   4  -5   5 894.019  67.781   1
   4  -5   5 824.804 113.354   1
   5  -5   5 16.5011 3.36536   1
   5  -5   5 24.7625 8.55452   1
  -6   5  -5 500.206 28.8174   1
   6  -5   5 525.343 34.9467   1
   6  -5   5  510.94 28.5126   1
  -7   5  -5 193.988 13.2003   1
   7  -5   5 212.927 18.0829   1
   7  -5   5  224.70 12.9149   1
  -8   5  -5 78.7253 6.15667   1
   8  -5   5  94.627 9.49002   1
  -7  -4   5 77.6696 4.74515   1
  -7  -4   5 84.6587 5.24184   1
  -6  -4   5  2.3845 1.79102   1
  -6  -4   5 0.89021 1.19755   1
  -5  -4   5 68.7629 5.41556   1
  -5  -4   5 79.8993 6.99839   1
  -5  -4   5 72.5843 6.36526   1
  -4  -4   5 595.283 33.3153   1
  -4  -4   5 600.213 33.0086   1
   3   4  -5 299.334 82.5195   1
  -3  -4   5 164.453 38.4148   1
   2   4  -5 173.029 33.6191   1
   2   4  -5 119.888 59.1666   1
  -2  -4   5 157.395 22.1505   1
  -2  -4   5 132.893 34.4059   1
  -2  -4   5 175.639 23.7148   1
   1   4  -5 50.5036 38.1213   1
   1   4  -5 41.5187 18.2113   1
   1   4  -5 63.8517 20.8757   1
  -1  -4   5 46.3733 13.1066   1
  -1  -4   5 34.9654 28.4034   1
  -1  -4   5 63.6102 22.0916   1
  -1  -4   5 109.501 23.7902   1
  -1  -4   5 58.7556 11.1665   1
   0   4  -5  748.77 55.6817   1
   0  -4   5 662.794 54.5233   1
   0  -4   5 663.961 42.4088   1
   0  -4   5 642.297   73.63   1
   0  -4   5  619.93 47.2993   1
  -1   4  -5 46.0875 16.5254   1
  -1   4  -5 66.3412 10.7055   1
   1  -4   5 83.7924 23.9737   1
   1  -4   5 65.1755 48.6502   1
   1  -4   5 77.5096 19.7825   1
  -2   4  -5 810.895 48.9462   1
  -2   4  -5 832.328  64.783   1
   2  -4   5 825.019 61.1244   1
   2  -4   5 835.493 60.8822   1
   2  -4   5 824.535 99.3628   1
   2  -4   5 849.618 62.3439   1
  -3   4  -5  234.32 31.7418   1
  -3   4  -5 207.604 18.5152   1
  -3   4  -5 271.876 46.2834   1
   3  -4   5 158.671 36.5044   1
   3  -4   5 276.902 69.0353   1
   3  -4   5 221.093 28.8297   1
  -4   4  -5 1157.28 99.1089   1
  -4   4  -5 1217.73 75.2839   1
   4  -4   5 1467.95 92.7191   1
   4  -4   5 1360.71 142.712   1
   4  -4   5 1139.54 97.9527   1
  -5   4  -5 77.4934 7.16242   1
  -5   4  -5 62.5495 31.1256   1
  -5   4  -5 88.0712 14.6233   1
   5  -4   5 70.0214 13.6948   1
   5  -4   5 47.9263 23.0347   1
   5  -4   5 98.9695 44.1903   1
   5  -4   5  30.186 51.0433   1
  -6   4  -5 28.4388  4.3735   1
   6  -4   5 31.5691 8.43619   1
   6  -4   5  22.811 3.44108   1
  -7   4  -5 11.0183 3.19222   1
   7  -4   5 13.0469  4.0572   1
   7  -4   5 8.70136 5.79748   1
  -8   4  -5 11.1989  2.5489   1
   8  -4   5 14.2539 4.83567   1
  -8  -3   5 0.65605 0.65605   1
  -8  -3   5 2.20245 0.88254   1
  -7  -3   5 13.7282 1.92078   1
  -7  -3   5  15.376 2.19379   1
  -6  -3   5 316.149 17.5336   1
  -6  -3   5 310.201 18.4675   1
  -5  -3   5 0.31879 1.28654   1
  -5  -3   5    0.00 1.92411   1
   4   3  -5 407.824 111.896   1
   4   3  -5 455.706 70.9611   1
   3   3  -5 119.345 24.1508   1
  -3  -3   5 76.8785 33.3084   1
   2   3  -5 23.1641 11.9618   1
  -2  -3   5 9.92748 8.65264   1
  -2  -3   5 62.8831 32.5853   1
  -2  -3   5 18.5801 25.4606   1
  -2  -3   5 15.5332  18.327   1
  -2  -3   5 44.5471 11.4555   1
  -1  -3   5 1528.85 107.126   1
  -1  -3   5 1566.68 87.6051   1
  -1  -3   5 1456.25 119.715   1
  -1  -3   5 1594.76 98.0801   1
  -1  -3   5 1647.14 97.5982   1
  -1  -3   5 1528.37 93.0751   1
   0   3  -5 6.87484 4.58051   1
   0   3  -5 11.6832 10.3082   1
   0   3  -5  17.183 16.2637   1
   0  -3   5 10.9997 9.38883   1
   0  -3   5 8.93322 8.70542   1
   0  -3   5    0.00 18.7858   1
   0  -3   5 9.85258 9.38883   1
  -1   3  -5 343.414 36.5759   1
  -1   3  -5 337.892 23.4634   1
   1  -3   5 347.761 31.2819   1
   1  -3   5 378.585 35.6527   1
   1  -3   5 343.414 62.1062   1
   1  -3   5 355.816 31.2819   1
  -2   3  -5  240.44 26.7434   1
  -2   3  -5 248.704 17.9959   1
  -2   3  -5 265.724 29.4203   1
   2  -3   5 273.997 55.1966   1
   2  -3   5 225.363  32.339   1
   2  -3   5 274.239 28.6863   1
  -3   3  -5 35.5272 17.3604   1
  -3   3  -5 42.2057 9.61938   1
  -3   3  -5 25.1109 17.8917   1
   3  -3   5 44.0746 16.5635   1
   3  -3   5 50.2124 40.8681   1
   3  -3   5 34.9959  24.039   1
  -4   3  -5 236.794 24.5698   1
  -4   3  -5 235.311 48.8453   1
   4  -3   5 248.337 51.5052   1
   4  -3   5 248.032 68.0848   1
   4  -3   5 307.244 36.1136   1
  -5   3  -5 291.659 59.0991   1
  -5   3  -5  230.02 24.7817   1
   5  -3   5 196.651 68.9508   1
   5  -3   5 242.095 57.8352   1
   5  -3   5 219.209 36.8565   1
  -6   3  -5 131.318 9.83449   1
   6  -3   5 119.264 14.5884   1
  -7   3  -5 212.072 13.3447   1
   7  -3   5 197.852 16.8277   1
  -8   3  -5 174.959 11.2484   1
   8  -3   5 198.707  13.752   1
  -8  -2   5 179.181 9.93871   1
  -8  -2   5 167.787 9.45641   1
  -7  -2   5 161.969 10.2295   1
  -7  -2   5 167.525 9.93874   1
  -6  -2   5 100.176 6.76074   1
  -6  -2   5 100.176  7.7331   1
   5   2  -5 742.658 71.1228   1
  -5  -2   5 546.033 112.953   1
  -5  -2   5 665.421 38.2987   1
  -5  -2   5 726.566 37.9672   1
   4   2  -5 14.1587 15.9673   1
  -4  -2   5 11.4511 33.4436   1
  -4  -2   5 23.2018 47.3133   1
  -4  -2   5-9.64245 91.2983   1
   3   2  -5 268.962 32.5831   1
   3   2  -5 234.712 17.3999   1
   3   2  -5 234.996 24.3049   1
   3   2  -5 225.875  42.254   1
  -3  -2   5 183.621   45.02   1
  -3  -2   5  357.06 55.7895   1
  -3  -2   5 438.224 109.637   1
  -3  -2   5 286.362 34.5251   1
  -2  -2   5 1504.25 98.9857   1
  -2  -2   5 1626.70 108.164   1
  -2  -2   5 1374.67 98.9857   1
  -2  -2   5 1348.91 150.232   1
  -2  -2   5 1619.81 109.441   1
  -1  -2   5 15.3703 11.2846   1
  -1  -2   5 30.7406 22.5778   1
  -1  -2   5 25.2134 11.0458   1
  -1  -2   5 18.0144 10.3293   1
  -1  -2   5 27.6187 14.8926   1
  -1  -2   5 30.9794 30.7406   1
   0   2  -5 1280.74 79.7225   1
   0   2  -5 1251.10 65.8209   1
   0  -2   5 1233.26 74.1586   1
   0  -2   5 977.659 85.7474   1
   0  -2   5 1187.37 74.1586   1
   0  -2   5 1217.26  102.90   1
  -1   2  -5 30.6066 6.77843   1
  -1   2  -5 30.6066 12.3787   1
  -1   2  -5 34.8048 12.1464   1
   1  -2   5 29.2045 28.4993   1
   1  -2   5 31.3035 13.0839   1
   1  -2   5 25.2303 12.1464   1
  -2   2  -5 630.688 50.9672   1
  -2   2  -5 595.156 36.3005   1
  -2   2  -5 596.401 47.9827   1
   2  -2   5  566.82 49.7222   1
   2  -2   5 614.556 46.7376   1
   2  -2   5 623.483 79.0645   1
  -3   2  -5 2293.80 153.167   1
  -3   2  -5 2353.62 147.395   1
  -3   2  -5 2320.15 132.048   1
   3  -2   5 2201.00 147.668   1
   3  -2   5 2891.66  198.74   1
   3  -2   5 2564.18 144.382   1
  -4   2  -5 117.168 34.6965   1
  -4   2  -5 139.089 19.4776   1
   4  -2   5  121.74 51.7421   1
   4  -2   5 127.523 26.1683   1
   4  -2   5 107.429 35.9071   1
  -5   2  -5 30.5083 8.11403   1
  -5   2  -5 17.1962 15.9053   1
  -6   2  -5 16.9223 4.15119   1
   6  -2   5 14.3704 6.38557   1
   6  -2   5 18.5216 2.55196   1
  -7   2  -5 0.57001 2.57524   1
   7  -2   5 1.15021 4.29547   1
   7  -2   5-1.15021 1.15021   1
  -8   2  -5 39.7169 4.11961   1
   8  -2   5 33.1719 4.84205   1
  -8  -1   5 78.6627 5.19132   1
  -8  -1   5 83.0795  5.4495   1
  -7  -1   5 648.405 36.5867   1
  -7  -1   5 669.432 35.9696   1
  -7  -1   5  694.13 41.4592   1
  -6  -1   5 325.342 19.3884   1
  -6  -1   5 334.552 18.4079   1
  -6  -1   5 306.281 25.3065   1
   5   1  -5 2671.99 175.306   1
  -5  -1   5 2822.30 298.684   1
  -5  -1   5 2688.23 204.205   1
   4   1  -5 1182.01 112.742   1
   4   1  -5 1315.42 91.1673   1
   4   1  -5 1130.36 80.5363   1
  -4  -1   5 1357.36 107.885   1
  -4  -1   5 1319.68 179.269   1
  -4  -1   5 999.106 109.396   1
   3   1  -5 48.2523 7.85108   1
   3   1  -5 84.7179 20.7635   1
   3   1  -5 57.5082 29.1725   1
   3   1  -5 43.7588 12.6235   1
  -3  -1   5 131.854 42.6429   1
  -3  -1   5 68.7268 29.1725   1
  -3  -1   5 132.691 91.7321   1
   2   1  -5 2417.38 145.438   1
   2   1  -5 2458.00 137.312   1
  -2  -1   5 2659.54 159.066   1
  -2  -1   5 2465.61 214.369   1
  -2  -1   5 2707.50  161.43   1
  -2  -1   5 2711.95 154.086   1
   1   1  -5 32.3898 5.23016   1
   1   1  -5  28.903  10.717   1
   1   1  -5 34.8854 10.9647   1
  -1  -1   5 26.6641 13.7081   1
  -1  -1   5 28.6552 21.6817   1
  -1  -1   5 40.1156 14.4515   1
  -1  -1   5 51.3281 40.1156   1
  -1  -1   5 47.8413 12.4603   1
   0   1  -5 1711.56 100.362   1
   0   1  -5 1715.42  102.29   1
   0   1  -5 1726.76 91.1938   1
   0  -1   5 1605.89 126.153   1
   0  -1   5 1654.14 98.9139   1
   0  -1   5 1729.17  101.09   1
   0  -1   5 1645.21 125.913   1
  -1   1  -5 584.022  47.519   1
  -1   1  -5 607.414 45.5632   1
  -1   1  -5 632.978 35.8188   1
   1  -1   5 585.242 46.2988   1
   1  -1   5 620.057 70.6597   1
   1  -1   5 600.595 44.5939   1
  -2   1  -5 652.758 56.8675   1
  -2   1  -5 659.519 41.8067   1
  -2   1  -5 745.733 58.6843   1
   2  -1   5 718.978 83.6134   1
   2  -1   5 690.157 52.7172   1
   2  -1   5 703.659 52.7172   1
  -3   1  -5 233.105 34.8972   1
  -3   1  -5 217.084 41.7649   1
  -3   1  -5 218.801  20.024   1
   3  -1   5 216.515 28.6086   1
   3  -1   5 262.283 34.3283   1
   3  -1   5 246.262 57.4915   1
  -4   1  -5 248.445 24.2178   1
  -4   1  -5 222.339 48.4356   1
   4  -1   5 283.989 43.4088   1
  -5   1  -5 422.852 25.0902   1
   5  -1   5 429.452 33.0159   1
  -6   1  -5 396.744 22.8693   1
   6  -1   5  357.03 26.0509   1
   6  -1   5 373.874 20.9626   1
  -7   1  -5 319.406  19.218   1
   7  -1   5 314.668 17.5464   1
   7  -1   5 319.683 21.4434   1
  -8   1  -5 0.45891 1.61438   1
   8  -1   5 1.38492 0.68836   1
  -9   0   5  17.829 1.80374   1
  -9   0   5 16.9311 1.57928   1
  -8   0   5 123.349 8.15381   1
  -8   0   5 127.971 7.60379   1
  -7   0   5 6.26817  2.1933   1
  -7   0   5 0.31174 5.33296   1
  -7   0   5 3.76313 1.56983   1
  -6   0   5 626.508 34.1222   1
  -6   0   5 640.551 41.1438   1
  -6   0   5 610.445 34.7875   1
   5   0  -5 706.158 102.636   1
   5   0  -5  835.81 75.2454   1
   5   0  -5 704.834 62.0364   1
  -5   0   5 689.656 94.7131   1
  -5   0   5  965.18 170.251   1
  -5   0   5 792.292 91.0797   1
   4   0  -5 890.824 100.924   1
   4   0  -5 982.429 76.0762   1
   4   0  -5  874.06 67.6944   1
  -4   0   5 791.455 89.7408   1
  -4   0   5 997.648 86.6418   1
  -4   0   5 964.728 140.054   1
   3   0  -5 4097.42  267.41   1
   3   0  -5 4321.12 234.413   1
   3   0  -5 4312.73  240.20   1
   3   0  -5 4318.81 223.126   1
  -3   0   5 4504.02 256.411   1
  -3   0   5 3595.31 243.962   1
  -3   0   5 4138.81 336.005   1
   2   0  -5 1724.09 130.763   1
   2   0  -5 1762.93 94.1057   1
   2   0  -5 1778.22 103.132   1
   2   0  -5 1497.88 95.2035   1
  -2   0   5 1776.07 115.713   1
  -2   0   5 1790.81 174.231   1
  -2   0   5 1801.47 110.787   1
  -2   0   5 1743.51 106.415   1
   1   0  -5 2732.20  149.31   1
   1   0  -5 2547.17 142.486   1
  -1   0   5 2572.10 151.677   1
  -1   0   5 2736.66 175.559   1
  -1   0   5 2545.59 197.865   1
  -1   0   5 2556.35 144.062   1
  -1   0   5 2342.47 150.363   1
   0   0  -5 10.7231  12.255   1
   0   0  -5 9.69885 4.08802   1
   0   0  -5  6.8889 8.67458   1
   0   0   5  16.334 10.4603   1
   0   0   5 2.55615 18.6272   1
   0   0   5 8.67458 9.44505   1
   0   0   5 2.03948 28.8427   1
  -1   0  -5  46.489 21.4374   1
  -1   0  -5 40.0312 7.49438   1
  -1   0  -5 30.9957 13.4293   1
   1   0   5 24.5379 12.1359   1
   1   0   5 30.9957  13.943   1
   1   0   5 32.8028  26.345   1
   1   0   5 27.8952  32.546   1
  -2   0  -5 4949.79 274.274   1
  -2   0  -5 4997.85 299.258   1
  -2   0  -5 4975.06 295.416   1
   2   0   5 4754.88 280.311   1
   2   0   5 5556.27  320.40   1
   2   0   5 5789.63 291.018   1
  -3   0  -5 19.7944 12.2943   1
  -3   0  -5 18.6012 5.40139   1
  -3   0  -5 10.4938 19.1978   1
   3   0   5 15.5969 19.1978   1
  -4   0  -5 66.5578 32.7946   1
  -4   0  -5 33.4403 11.6926   1
   4   0   5 37.3379 26.3026   1
  -5   0  -5 127.699 10.6416   1
  -6   0  -5 1.24725 3.11261   1
   6   0   5 2.48346  1.5563   1
  -7   0  -5 93.9526 7.42798   1
   7   0   5 95.0178 5.83492   1
  -8   0  -5 68.8489 4.74476   1
   8   0   5 69.7151 4.10089   1
   9  -1  -5 5.90495 2.83504   1
  -9   1   5 4.95713 0.94781   1
  -9   1   5 5.90495 1.18267   1
  -8   1   5-0.55559 1.67669   1
  -8   1   5  0.2778  1.1211   1
  -8   1   5 1.67669 4.47449   1
  -7   1   5 1.59793 1.59793   1
  -7   1   5 2.54989 5.42843   1
  -7   1   5-1.91525 1.91525   1
  -6   1   5 367.786 29.2292   1
  -6   1   5 369.138 21.0798   1
  -6   1   5 369.826 21.7559   1
   5  -1  -5 606.603 101.448   1
   5  -1  -5 607.621 57.9718   1
   5  -1  -5  646.38 57.9718   1
  -5   1   5  625.48 84.2584   1
  -5   1   5 605.263 83.5881   1
  -5   1   5 869.134 165.153   1
   4  -1  -5 10.5499 5.75759   1
   4  -1  -5 5.12164  32.297   1
   4  -1  -5 5.43961 12.1511   1
  -4   1   5  13.105 59.7903   1
  -4   1   5 11.8331 22.0651   1
  -4   1   5 5.12164 27.1754   1
   3  -1  -5 188.078 16.2219   1
   3  -1  -5 191.686 52.2837   1
   3  -1  -5 183.874 25.2401   1
  -3   1   5 184.172 28.5485   1
  -3   1   5 169.754 82.6359   1
  -3   1   5 153.521  29.445   1
   2  -1  -5 3132.36 163.437   1
   2  -1  -5 3080.35 172.866   1
   2  -1  -5 3187.52 204.877   1
   2  -1  -5 2960.93 180.864   1
  -2   1   5 3176.66 253.737   1
  -2   1   5 3314.37 187.725   1
  -2   1   5 2651.74 179.443   1
  -2   1   5 3016.62 170.867   1
   1  -1  -5 2555.53  145.92   1
   1  -1  -5 2086.87 130.526   1
  -1   1   5 2081.64 138.214   1
  -1   1   5 2606.21 201.824   1
  -1   1   5 2389.48 144.541   1
   0  -1  -5 752.999 52.8883   1
   0  -1  -5 809.663 62.0592   1
   0  -1  -5 631.066 39.6638   1
   0   1   5 561.177 56.1273   1
   0   1   5 634.573 51.0004   1
   0   1   5 839.341 74.4691   1
   0   1   5  772.96 47.4931   1
  -1  -1  -5 443.443 43.1184   1
  -1  -1  -5  411.59 27.7378   1
  -1  -1  -5 429.438 49.4286   1
   1   1   5 334.999 39.2659   1
   1   1   5  607.12 85.4077   1
   1   1   5  411.59 40.6411   1
   1   1   5 471.181 55.4755   1
  -2  -1  -5 452.226 30.8547   1
  -2  -1  -5 339.619 52.3858   1
  -2  -1  -5 437.961 49.4813   1
   2   1   5 487.443 45.3983   1
   2   1   5 416.451 81.7831   1
   2   1   5 392.294 45.3983   1
  -3  -1  -5  191.87 31.7236   1
  -3  -1  -5 136.621 26.3806   1
  -3  -1  -5 236.778 19.1636   1
   3   1   5 208.512 28.2657   1
   3   1   5 258.451 57.1672   1
   3   1   5 303.683 39.8888   1
  -4  -1  -5 265.165   64.81   1
  -4  -1  -5 277.133 32.5643   1
   4   1   5 341.601 46.5272   1
  -5  -1  -5 540.538 31.6449   1
   5   1   5 530.985 29.3385   1
  -6  -1  -5 125.628  10.721   1
   6   1   5 150.602 8.63815   1
  -7  -1  -5 8.16676 2.47904   1
   7   1   5 7.42833 1.23952   1
   9  -2  -5-2.43092 2.67229   1
  -9   2   5 0.24137  0.7241   1
  -9   2   5 2.43092 1.21546   1
  -8   2   5 31.4127 7.63957   1
  -8   2   5 31.1312 3.11614   1
  -8   2   5 31.7042 3.67906   1
  -7   2   5 0.63974 1.93063   1
  -7   2   5 1.29089 1.61076   1
  -7   2   5 4.50099 6.11176   1
   6  -2  -5 7.56127 55.3719   1
   6  -2  -5 69.1264 41.2755   1
   6  -2  -5 37.1467 23.0381   1
  -6   2   5  22.012 41.2755   1
  -6   2   5  44.366 51.2432   1
  -6   2   5 47.4687 10.3219   1
  -6   2   5 52.6235 113.163   1
  -6   2   5 38.8691 5.15486   1
   5  -2  -5 6.53836 48.5183   1
   5  -2  -5 13.0767 16.5231   1
   5  -2  -5 24.4303 18.9307   1
  -5   2   5 13.4189 36.8226   1
  -5   2   5 12.7345 25.8113   1
  -5   2   5 32.3496 89.8139   1
   4  -2  -5  123.25 28.0065   1
   4  -2  -5 96.8818 33.9402   1
   4  -2  -5  98.532 54.7023   1
  -4   2   5  121.60 43.8297   1
  -4   2   5 171.656 106.444   1
  -4   2   5 135.433 36.9129   1
   3  -2  -5  368.86  55.459   1
   3  -2  -5 418.709 36.7588   1
  -3   2   5 416.529  42.059   1
  -3   2   5 500.614 107.178   1
  -3   2   5 508.714  55.459   1
   2  -2  -5 1360.15 76.2951   1
   2  -2  -5 1407.36 86.9865   1
   2  -2  -5 1352.73 101.537   1
   2  -2  -5 1552.83 120.537   1
  -2   2   5 1499.69 84.3189   1
  -2   2   5 1232.22  95.896   1
  -2   2   5 1489.88  153.75   1
  -2   2   5 1145.84 90.2551   1
   1  -2  -5 915.896 63.4624   1
   1  -2  -5 844.397 57.1396   1
   1  -2  -5 951.793 78.1068   1
   1  -2  -5 845.835 49.1035   1
   1  -2  -5 920.495  83.267   1
  -1   2   5 710.334 60.8721   1
  -1   2   5 1053.12 128.067   1
   0  -2  -5 175.081 15.6384   1
   0  -2  -5 190.992 30.4187   1
   0  -2  -5 192.699 28.7125   1
   0   2   5  288.78 94.9409   1
   0   2   5 130.478 29.8432   1
   0   2   5 120.816 23.3112   1
  -1  -2  -5 2685.00 196.518   1
  -1  -2  -5 3087.06 166.238   1
  -1  -2  -5 3324.08 192.443   1
   1   2   5 3258.57 179.341   1
   1   2   5 2932.47 191.275   1
  -2  -2  -5 12.2827 19.0458   1
  -2  -2  -5 4.29785 6.44678   1
  -2  -2  -5-2.45436 15.9697   1
   2   2   5 10.4392 79.5539   1
   2   2   5 3.68699 15.9697   1
   2   2   5 3.38156 28.5687   1
  -3  -2  -5 3.91154 7.16344   1
  -3  -2  -5 6.51538 20.8538   1
   3   2   5 16.9423 21.5019   1
   3   2   5 10.4269 18.8981   1
   3   2   5-20.8538 50.1788   1
  -4  -2  -5 8.70111 4.01773   1
   4   2   5 9.03394 2.00886   1
  -5  -2  -5 55.9041 7.35251   1
   5   2   5 59.1038 4.78821   1
  -6  -2  -5 90.1458 7.78635   1
   6   2   5 87.0827 5.83977   1
  -7  -2  -5 2.70818 1.80278   1
   7   2   5 1.57843  0.9054   1
   9  -3  -5 24.3522 5.16217   1
  -9   3   5  21.889 2.46317   1
   8  -3  -5 301.883 17.5462   1
  -8   3   5 284.066 17.8276   1
  -8   3   5 317.168 17.2648   1
  -8   3   5 353.105 23.7668   1
  -7   3   5 34.6191 3.84783   1
  -7   3   5 33.9816 8.97068   1
  -7   3   5 28.2098 4.16658   1
   6  -3  -5 320.373 50.0127   1
   6  -3  -5 95.5299 43.8024   1
   6  -3  -5 116.231 84.8488   1
  -6   3   5 254.154 22.0727   1
  -6   3   5 274.843 14.8335   1
  -6   3   5 235.181 14.8335   1
  -6   3   5 206.212 131.064   1
  -6   3   5 173.446 63.1191   1
   5  -3  -5 900.453 92.8519   1
   5  -3  -5 862.791 130.898   1
   5  -3  -5 1208.31  91.451   1
  -5   3   5 1548.61 221.617   1
  -5   3   5 1212.50 98.4304   1
  -5   3   5 1106.73 108.211   1
   4  -3  -5  580.21 58.1302   1
   4  -3  -5 516.678 77.0588   1
   4  -3  -5 623.132 54.0732   1
  -4   3   5 770.144 151.069   1
  -4   3   5 769.472 77.0588   1
  -4   3   5 580.894 63.1955   1
   3  -3  -5  718.74 60.8168   1
   3  -3  -5 749.628 68.2104   1
   3  -3  -5 662.117 93.9564   1
  -3   3   5 865.114 136.101   1
  -3   3   5 843.231 74.9754   1
  -3   3   5 782.128 59.5255   1
   2  -3  -5 534.282 73.2542   1
   2  -3  -5 366.566 38.7861   1
   2  -3  -5 426.276 59.4036   1
  -2   3   5 410.578 35.3973   1
  -2   3   5 474.573 48.3296   1
  -2   3   5 458.601 87.4219   1
   1  -3  -5 300.134 29.6623   1
   1  -3  -5 325.604 54.2177   1
   1  -3  -5 438.231 47.0362   1
   1  -3  -5 292.941 21.8637   1
   1  -3  -5 345.074 53.9198   1
  -1   3   5 534.367 112.042   1
  -1   3   5  360.65 32.9498   1
  -1   3   5 355.256  55.122   1
   0  -3  -5 25.4171 20.3401   1
   0  -3  -5  31.705 15.2524   1
   0  -3  -5 27.2122 8.97513   1
   0   3   5  42.762 22.4325   1
   0   3   5 -7.1801 56.2193   1
   0   3   5   26.32 13.4574   1
  -1  -3  -5  206.27 66.9248   1
  -1  -3  -5  438.37 54.6477   1
  -1  -3  -5 345.037  26.397   1
   1   3   5 326.011 61.7021   1
   1   3   5 211.187 27.6291   1
   1   3   5 524.299 132.629   1
  -2  -3  -5 66.7125 14.7503   1
  -2  -3  -5 103.594 37.8383   1
  -2  -3  -5 27.5757 43.6131   1
   2   3   5 18.9191 70.8813   1
   2   3   5 78.5697 35.2755   1
  -3  -3  -5  442.61 70.4479   1
  -3  -3  -5 450.258 39.2073   1
   3   3   5 468.858 61.4782   1
   3   3   5 372.492 114.317   1
  -4  -3  -5 403.051 25.3361   1
   4   3   5 415.228 22.7066   1
  -5  -3  -5 69.8557 7.52884   1
   5   3   5 72.8715 5.42205   1
  -6  -3  -5 24.8059 3.54242   1
   6   3   5 26.8378 2.53543   1
   9  -4  -5 125.711 11.0939   1
   9  -4  -5 125.711 7.64405   1
  -9   4   5 123.023 7.64405   1
   8  -4  -5 45.2512 4.47452   1
  -8   4   5 37.4332  4.1868   1
  -8   4   5 41.9077 8.10573   1
   7  -4  -5 83.5067 6.92719   1
  -7   4   5  97.999 13.2389   1
  -7   4   5 81.2909 6.61384   1
  -6   4   5 137.475 8.86861   1
  -6   4   5 123.833 9.20784   1
  -6   4   5 132.702 15.6897   1
   5  -4  -5  350.35 77.2857   1
   5  -4  -5 605.941  54.906   1
  -5   4   5 585.312 64.3447   1
  -5   4   5 527.264 76.5778   1
  -5   4   5 771.342 164.358   1
   4  -4  -5 648.243 59.3733   1
   4  -4  -5 493.843 50.7922   1
   4  -4  -5 635.201 109.824   1
  -4   4   5 864.089 156.155   1
  -4   4   5 625.596  59.032   1
   3  -4  -5 2.31075 35.9985   1
   3  -4  -5 19.1546   15.19   1
   3  -4  -5 14.8615 32.7024   1
  -3   4   5 17.5007 25.1016   1
  -3   4   5 35.3416 63.7392   1
  -3   4   5  19.483 13.2076   1
   2  -4  -5 1491.47 141.099   1
   2  -4  -5 1328.73 100.013   1
   2  -4  -5 1603.90 137.287   1
  -2   4   5 1615.69 125.499   1
  -2   4   5 1860.60 210.829   1
  -2   4   5 1601.99 99.6959   1
   1  -4  -5 5.93237 28.4088   1
   1  -4  -5 13.7387  22.166   1
   1  -4  -5 5.00093 8.42729   1
  -1   4   5-19.3606 19.3606   1
  -1   4   5-1.25301 13.4282   1
  -1   4   5 13.7387 19.3606   1
   0  -4  -5 35.9916 12.5159   1
   0  -4  -5  50.386 28.4776   1
   0  -4  -5 35.9916 17.5289   1
   0   4   5 57.2775 39.1261   1
   0   4   5 43.8168 12.5159   1
   0   4   5 56.0215 82.9429   1
  -1  -4  -5 147.173 23.0328   1
  -1  -4  -5 130.538 42.2362   1
  -1  -4  -5 41.5885  55.031   1
   1   4   5 127.015 52.1561   1
   1   4   5  151.65 116.141   1
   1   4   5 104.619 21.7601   1
  -2  -4  -5 104.863 45.3681   1
  -2  -4  -5 89.4169 19.3918   1
  -2  -4  -5 17.4187   31.23   1
   2   4   5 116.362 85.7977   1
   2   4   5 78.8979 40.4297   1
  -3  -4  -5 165.432 12.8789   1
   3   4   5 182.932 10.8966   1
  -4  -4  -5 182.171 12.8531   1
   4   4   5 174.019  10.659   1
  -5  -4  -5 181.264 11.8322   1
   5   4   5  176.32  10.181   1
  -6  -4  -5 1.12305 1.34607   1
   6   4   5 1.12305 0.66905   1
   9  -5  -5 141.395 8.34503   1
   9  -5  -5 138.456 11.2924   1
  -9   5   5 134.767 8.10087   1
  -8   5   5 12.5472 2.45131   1
   7  -5  -5 10.3766 2.74324   1
  -7   5   5 10.3766 2.43964   1
  -7   5   5 7.32975 5.49732   1
  -6   5   5 372.171  26.874   1
  -6   5   5 374.822 20.9007   1
  -6   5   5 378.804 21.5604   1
   5  -5  -5 328.066 115.326   1
   5  -5  -5 124.974 38.5644   1
  -5   5   5 56.1226 37.1827   1
  -5   5   5 162.156 118.432   1
  -5   5   5 119.814  44.409   1
   4  -5  -5 131.785 76.8747   1
   4  -5  -5 291.336 40.4912   1
  -4   5   5  254.27 54.5692   1
  -4   5   5 298.893 131.103   1
  -4   5   5 259.073 42.9045   1
   3  -5  -5 81.3983  55.939   1
   3  -5  -5 35.5121 18.4282   1
  -3   5   5 37.1777 72.0236   1
  -3   5   5 12.7296 18.7613   1
  -3   5   5 50.2523 31.8241   1
   2  -5  -5 84.5838 45.3943   1
  -2   5   5 169.457 32.6598   1
  -2   5   5 146.296 48.0039   1
  -2   5   5 129.317 102.862   1
   1  -5  -5 2.25382 12.5619   1
   1  -5  -5 2.57416 30.2836   1
   1  -5  -5-10.9488 41.5527   1
  -1   5   5 7.41359 20.2959   1
  -1   5   5-5.48011  26.737   1
  -1   5   5  26.737  67.649   1
   0  -5  -5 458.329 70.6867   1
   0  -5  -5 406.683 39.3787   1
   0   5   5 440.892 117.173   1
   0   5   5 433.475 67.1443   1
   0   5   5  453.80 51.0031   1
  -1  -5  -5 473.087 43.7532   1
  -1  -5  -5 360.439 73.4632   1
   1   5   5  415.29 67.2591   1
   1   5   5 711.091  169.76   1
  -2  -5  -5 527.751 30.4747   1
  -3  -5  -5 21.5797  4.4399   1
   3   5   5 21.5797 2.53548   1
  -4  -5  -5 21.0553    3.75   1
   4   5   5 20.4816 2.30533   1
  -5  -5  -5 21.4383 2.92419   1
   5   5   5 25.8246 2.18882   1
   9  -6  -5 6.83896 1.70974   1
   9  -6  -5 3.41948 3.41948   1
  -9   6   5 6.83896 1.46673   1
   8  -6  -5 14.5533 2.91254   1
   8  -6  -5 16.9303 6.35122   1
  -8   6   5 15.8687 2.37701   1
   7  -6  -5 145.749 9.34658   1
  -7   6   5  129.69 9.05612   1
   6  -6  -5 41.2121 5.07832   1
  -6   6   5 39.3091 4.43649   1
  -5   6   5 254.413 15.2778   1
   4  -6  -5-0.33431 13.1096   1
   4  -6  -5 108.244 59.8408   1
  -4   6   5 2.01778 20.5121   1
  -4   6   5-9.40834 32.2725   1
  -4   6   5 1.34917   86.06   1
   3  -6  -5 73.9566 48.6379   1
  -3   6   5 199.509 113.591   1
  -3   6   5 135.585 29.6489   1
  -3   6   5 284.788 59.9604   1
  -2   6   5 289.946 63.3775   1
  -2   6   5 285.677 135.304   1
  -2   6   5 249.545  52.869   1
   1  -6  -5-3.90638 29.2863   1
  -1   6   5 16.2727 79.3989   1
  -1   6   5 23.7503 37.4226   1
  -1   6   5 12.3663   12.69   1
   0  -6  -5 158.405 29.5367   1
   0  -6  -5 45.4463 65.2412   1
   0  -6  -5 115.564 48.0403   1
   0   6   5  127.90 33.1106   1
   0   6   5 158.739 103.228   1
   0   6   5 220.706 30.8394   1
  -1  -6  -5   76.90 8.72168   1
  -1  -6  -5 74.3179 5.81828   1
  -2  -6  -5 57.0036 6.29769   1
  -2  -6  -5  57.328 4.72047   1
  -3  -6  -5 9.96944  2.9377   1
  -4  -6  -5 76.5882 5.63108   1
  -5  -6  -5 55.5771  3.5676   1
   9  -7  -5-1.22848 1.22848   1
  -9   7   5 0.98452 0.98452   1
   8  -7  -5 64.1153 5.12813   1
  -8   7   5 61.0366 4.61805   1
   7  -7  -5 70.4697  6.0991   1
  -7   7   5 67.6911 5.54732   1
   6  -7  -5 271.389  14.948   1
  -6   7   5 225.961 14.6507   1
   5  -7  -5 68.5609 6.28866   1
  -5   7   5 66.0476  5.9759   1
  -4   7   5 2.25267 1.93249   1
   3  -7  -5 342.549 22.9453   1
  -3   7   5 368.731  20.684   1
   2  -7  -5 18.3293 5.15048   1
   1  -7  -5 188.633 14.3646   1
   1  -7  -5 183.202 11.4962   1
   0  -7  -5 520.096 28.7372   1
   0  -7  -5 518.212 31.5863   1
  -1  -7  -5 333.664 19.4129   1
  -1  -7  -5 353.076 21.8751   1
  -2  -7  -5 12.5186 2.03646   1
  -2  -7  -5 9.02452 2.91514   1
  -3  -7  -5 23.2436 2.34662   1
  -3  -7  -5 20.1086 2.34662   1
  -4  -7  -5 5.51313 1.10419   1
   9  -8  -5  14.868 1.76339   1
  -9   8   5  18.905 1.76339   1
   8  -8  -5 323.665  17.842   1
  -8   8   5 316.123 17.5921   1
   7  -8  -5 152.883 9.77324   1
  -7   8   5 151.823 9.51062   1
   6  -8  -5 139.331 9.80715   1
  -6   8   5 156.407 9.80715   1
  -5   8   5 129.701 8.82637   1
   4  -8  -5 144.985 12.1045   1
  -4   8   5 154.037 9.98674   1
   3  -8  -5  363.20 23.2772   1
  -3   8   5 361.971 20.8298   1
   2  -8  -5 181.301 14.3923   1
  -2   8   5 191.103   11.64   1
   1  -8  -5 331.737 19.1246   1
   1  -8  -5  341.45  21.852   1
   0  -8  -5 83.7073 6.23061   1
   0  -8  -5 95.5782  8.9084   1
  -1  -8  -5  17.561 3.68117   1
  -1  -8  -5 16.4245 2.26302   1
  -2  -8  -5 21.2763 2.33127   1
   8  -9  -5 14.6797 2.02262   1
  -8   9   5 17.9699 2.02262   1
   7  -9  -5 89.1655  6.1337   1
  -7   9   5 87.8861 5.87964   1
  -6   9   5 37.3461 3.96978   1
  -5   9   5 68.1608 5.49542   1
   4  -9  -5 281.022 18.0593   1
  -4   9   5 288.077 16.3656   1
   3  -9  -5 23.1584 4.86316   1
  -3   9   5 19.7268 2.86307   1
   2  -9  -5  10.576 4.28319   1
  -2   9   5 10.8602 2.28369   1
   1  -9  -5 429.107 25.6067   1
  -1   9   5 425.169 23.6377   1
   0  -9  -5 192.765 12.7405   1
  -1  -9  -5 128.104 8.33805   1
   2   9   5 113.644 6.29937   1
  -7  10   5 24.6145 2.30391   1
  -6  10   5 8.97787 1.79557   1
  -5  10   5 44.3554 3.91017   1
   4 -10  -5 299.335 18.0181   1
  -4  10   5 306.223 16.9549   1
   3 -10  -5 71.1829  6.6657   1
  -3  10   5 69.5827 5.06555   1
   2 -10  -5 1.58812 2.37748   1
  -2  10   5 1.06188   1.325   1
   1 -10  -5 7.72746 2.31367   1
  -1  10   5 3.34704 1.03338   1
   0 -10  -5 34.3398 3.40803   1
   0  10   5 34.3398 2.43925   1
  -6  11   5 8.63779 1.31101   1
  -5  11   5 16.4672 1.80025   1
   4 -11  -5 22.2432 2.81445   1
  -4  11   5 24.7944 2.29696   1
   3 -11  -5 -1.5192  1.5192   1
  -3  11   5  1.5192  1.0158   1
   2 -11  -5 32.4014 3.21467   1
  -2  11   5 29.6786 2.22216   1
   0 -11   6 5.26978 1.38886   1
   0 -11   6 4.99398 1.38886   1
   1 -11   6 4.35704 1.74488   1
   1 -11   6 6.39101 1.74488   1
   2 -11   6 334.915 18.8865   1
   2 -11   6  336.98  18.593   1
   3 -11   6 33.8651 3.53502   1
   3 -11   6 31.8047 3.53502   1
   4 -11   6 30.8767 3.20663   1
   4 -11   6 35.8211 3.49626   1
   5 -11   6 52.2501 3.73142   1
  -2 -10   6 2.10091 1.05512   1
  -1 -10   6 544.746 29.3487   1
   0 -10   6 170.737 10.2725   1
   0 -10   6 155.623 9.97199   1
   1 -10   6 621.155  34.061   1
   1 -10   6 641.835 34.6658   1
   2 -10   6 127.423 8.45057   1
   2 -10   6 134.072 9.06184   1
   3 -10   6   11.35 2.38669   1
   3 -10   6 14.9354 2.99132   1
   4 -10   6 276.383 15.3058   1
   4 -10   6  261.37 15.3058   1
   5 -10   6 110.984 6.92113   1
   5 -10   6 90.5173 6.92113   1
  -6  10  -6 3.09253  1.4066   1
   6 -10   6 3.93051 1.68593   1
  -3  -9   6 39.9734 3.22074   1
  -3  -9   6 35.9522 2.95393   1
  -2  -9   6 323.407 17.2889   1
  -2  -9   6 296.579 17.2889   1
  -1  -9   6 111.457 7.69802   1
   0  -9   6 232.522 14.0734   1
   0  -9   6  238.64 14.3777   1
   1  -9   6 800.757 43.9578   1
   1  -9   6 829.061 44.5566   1
   2  -9   6 562.445 30.3573   1
   2  -9   6 543.989 30.9492   1
   3  -9   6  98.347 7.11196   1
   3  -9   6 94.4964 7.40653   1
   4  -9   6 26.2444 3.83298   1
   4  -9   6 38.9268 4.41945   1
   4  -9   6 35.9735 4.12622   1
   5  -9   6  341.97 18.8848   1
   5  -9   6 322.497 19.4627   1
  -6   9  -6 343.195 19.1654   1
   6  -9   6 331.646 19.1654   1
  -7   9  -6 13.5554 2.16616   1
   7  -9   6 12.1979 2.16616   1
  -4  -8   6  61.068  3.9967   1
  -4  -8   6  63.199 4.27135   1
  -3  -8   6 37.2852 3.90901   1
  -3  -8   6 36.6871 3.31091   1
  -2  -8   6 425.254 23.5762   1
  -1  -8   6  136.96 9.43617   1
  -1  -8   6 135.133 8.83088   1
   0  -8   6 608.004 33.0161   1
   0  -8   6 590.909 32.7126   1
   1  -8   6 3.17308 2.58964   1
   1  -8   6 6.33592 2.30304   1
   2  -8   6 3.15874 2.29263   1
   2  -8   6 4.59546 2.29263   1
   3  -8   6  20.291 3.47964   1
   3  -8   6 16.5231 3.19139   1
   3  -8   6 21.7426 4.05615   1
   4  -8   6 36.1175 4.10924   1
   4  -8   6 24.6659 4.40127   1
   4  -8   6 34.0629 4.10924   1
   5  -8   6 5.86576 2.93809   1
   5  -8   6  7.3348 2.34422   1
  -6   8  -6 37.0911 4.27663   1
   6  -8   6   38.52 4.57052   1
  -7   8  -6 63.6884 5.14935   1
   7  -8   6 67.4806 5.14935   1
   7  -8   6 59.8961 8.94159   1
  -8   8  -6 258.861  15.211   1
   8  -8   6 310.172  15.211   1
   8  -8   6 252.927 16.5022   1
  -5  -7   6 2.31423 1.28975   1
  -5  -7   6 4.38148 1.03363   1
  -4  -7   6  4.4763 1.49564   1
  -4  -7   6 3.88229 1.79264   1
  -3  -7   6 11.2263 2.49105   1
  -3  -7   6 13.4074 2.80105   1
  -2  -7   6 247.038 14.8941   1
  -2  -7   6 258.586 14.8941   1
  -1  -7   6   98.64 7.52052   1
  -1  -7   6 108.482 7.23285   1
   0  -7   6 1064.51 56.5877   1
   0  -7   6 1062.01 56.8636   1
  -1   7  -6 327.126 64.2324   1
  -1   7  -6  382.92 36.4709   1
   1  -7   6 420.174 23.4021   1
   1  -7   6 449.569 24.2237   1
   1  -7   6 349.436 47.9061   1
  -2   7  -6 354.962 88.8867   1
   2  -7   6 316.555 47.4588   1
   2  -7   6 311.342 17.8299   1
   2  -7   6  312.17 18.1028   1
   3  -7   6 141.697 9.87624   1
   4  -7   6 101.007 7.00894   1
   4  -7   6 92.2567 8.17018   1
   4  -7   6 106.554 7.58956   1
   5  -7   6 360.614 26.6911   1
   5  -7   6 332.143 18.9808   1
   5  -7   6 329.468 19.8656   1
  -6   7  -6  6.9712  2.3203   1
   6  -7   6    0.00  6.3834   1
   6  -7   6 3.19685  2.3203   1
  -7   7  -6 14.4922 2.73915   1
   7  -7   6 18.8729 6.01253   1
   7  -7   6 16.9594 2.73915   1
  -8   7  -6 35.5507 3.55327   1
   8  -7   6 33.2691 5.07739   1
   8  -7   6  45.958 3.30075   1
  -6  -6   6 16.6231 1.92495   1
  -5  -6   6 2.03226 1.74341   1
  -5  -6   6  0.5777 1.74341   1
  -4  -6   6 380.524   21.25   1
  -4  -6   6 371.148   21.25   1
  -3  -6   6 116.721 8.59593   1
  -3  -6   6 149.578 9.21772   1
  -2  -6   6 8.68285   2.312   1
  -2  -6   6 7.80943 2.59972   1
   1   6  -6 1024.28 88.0402   1
  -1  -6   6 941.441 98.6363   1
  -1  -6   6 930.295 78.7952   1
  -1  -6   6 954.179 64.1266   1
   0  -6   6 103.377 32.8129   1
  -1   6  -6 194.079 39.1321   1
  -1   6  -6 209.275 20.0781   1
   1  -6   6 183.272 23.1684   1
   1  -6   6 228.575 26.0027   1
   1  -6   6 221.883 46.3368   1
  -2   6  -6 403.773 44.4557   1
  -2   6  -6 356.711 26.3109   1
   2  -6   6 327.765 39.9896   1
   2  -6   6 383.545 92.3405   1
   2  -6   6 366.437 46.3057   1
  -3   6  -6 370.057 31.1654   1
  -3   6  -6 387.706 53.2221   1
   3  -6   6 327.589 108.099   1
   3  -6   6 415.542 61.4982   1
   4  -6   6  186.17 12.2239   1
   4  -6   6 189.962 11.3456   1
   5  -6   6  102.15 6.91455   1
   5  -6   6 104.252  15.323   1
   5  -6   6 84.4258 7.51211   1
  -6   6  -6 550.348 30.4943   1
   6  -6   6 528.434 30.1998   1
   6  -6   6 558.339 36.4144   1
  -7   6  -6 721.504  39.877   1
   7  -6   6 746.699 39.5919   1
   7  -6   6 733.413 43.7517   1
  -8   6  -6 88.3931 6.29655   1
   8  -6   6 94.6897 5.79568   1
   8  -6   6 98.7144 9.06917   1
  -7  -5   6 68.0659 4.14517   1
  -6  -5   6-0.27248 1.37212   1
  -5  -5   6 230.235 13.9081   1
  -4  -5   6 19.1025 3.13557   1
  -4  -5   6 25.0512 3.44691   1
  -3  -5   6 148.735 9.48277   1
  -3  -5   6 140.463 9.18807   1
   2   5  -6 9.05911 22.2431   1
  -2  -5   6 28.8253  13.457   1
  -2  -5   6 9.33215 31.8483   1
   1   5  -6 1340.60 101.002   1
  -1  -5   6 1338.54 80.6937   1
  -1  -5   6 1392.26 94.5762   1
  -1  -5   6 1333.92 110.248   1
   0   5  -6  105.78 13.0963   1
   0  -5   6 124.047 42.5104   1
   0  -5   6 102.813 17.0551   1
   0  -5   6 141.347 26.2015   1
  -1   5  -6 449.565 48.7802   1
  -1   5  -6  430.84 30.5456   1
   1  -5   6 446.362 39.9079   1
   1  -5   6 507.217  76.867   1
   1  -5   6 424.934 40.4066   1
  -2   5  -6 170.351 22.1929   1
  -2   5  -6 193.051 15.0459   1
   2  -5   6 178.512 28.0536   1
   2  -5   6 174.427 36.9851   1
   2  -5   6 195.343 76.0084   1
  -3   5  -6 534.133 49.2018   1
  -3   5  -6 543.102 63.0663   1
  -3   5  -6 590.412  39.962   1
   3  -5   6 518.917 101.677   1
   3  -5   6 618.141 57.0899   1
  -4   5  -6 690.598 49.0168   1
  -4   5  -6 730.838 77.0279   1
   4  -5   6 812.539 65.3592   1
   4  -5   6 755.636 113.506   1
   5  -5   6 454.174 27.1676   1
   5  -5   6 531.676 33.8782   1
  -6   5  -6 415.612 24.1527   1
   6  -5   6 409.877  29.888   1
   6  -5   6 432.518 23.8418   1
  -7   5  -6 110.556 8.12125   1
   7  -5   6 117.276 7.55466   1
   7  -5   6  110.00 12.3161   1
  -8   5  -6  51.442 4.49674   1
   8  -5   6 58.1916 7.24623   1
  -7  -4   6 0.74348 0.74348   1
  -7  -4   6 0.49566 1.00016   1
  -6  -4   6 16.3261 2.97221   1
  -6  -4   6  13.649 1.78122   1
  -5  -4   6 568.863 30.4097   1
  -5  -4   6 561.888  31.366   1
  -4  -4   6 734.407 40.0801   1
   3   4  -6 34.6391  28.915   1
   3   4  -6 10.8787 45.2331   1
  -3  -4   6 20.3239 25.1939   1
   2   4  -6 310.895 74.1662   1
   2   4  -6  513.83 55.6903   1
  -2  -4   6 434.649 38.0111   1
  -2  -4   6 396.384 31.6744   1
  -2  -4   6  432.54 55.9528   1
   1   4  -6 244.023 33.6587   1
  -1  -4   6 191.298 21.5367   1
  -1  -4   6 229.915 30.1953   1
  -1  -4   6 213.327 20.0511   1
  -1  -4   6 203.675 21.0356   1
  -1  -4   6 291.044 43.0645   1
  -1  -4   6 210.611 40.3483   1
   0   4  -6 26.0645 15.3041   1
   0   4  -6  34.914 8.12764   1
   0  -4   6 38.0224 13.3932   1
   0  -4   6 36.5871 33.7165   1
   0  -4   6 48.0609 15.7797   1
   0  -4   6 42.8039 18.4125   1
  -1   4  -6 966.492 57.1525   1
  -1   4  -6 981.862 75.6433   1
   1  -4   6 948.002 66.5173   1
   1  -4   6 1026.78 71.0803   1
   1  -4   6 988.352 111.192   1
   1  -4   6 979.704 68.6837   1
  -2   4  -6 464.869 30.9252   1
  -2   4  -6 436.453 46.5173   1
   2  -4   6 438.972 83.7293   1
   2  -4   6 466.878 49.0356   1
   2  -4   6 499.322 48.2765   1
  -3   4  -6 4.35176 6.79299   1
  -3   4  -6 9.23422 14.3965   1
  -3   4  -6 7.88334 13.8562   1
   3  -4   6-5.43246 32.6044   1
   3  -4   6 14.9465 14.1263   1
   3  -4   6-2.44123 20.1088   1
  -4   4  -6 75.5854 36.6077   1
  -4   4  -6 71.1602 15.9392   1
   4  -4   6 83.8591 53.7424   1
   4  -4   6 68.8007 35.7269   1
   4  -4   6 68.8007  23.028   1
  -5   4  -6 480.219 26.1277   1
   5  -4   6 430.173  25.509   1
   5  -4   6 450.081 31.7288   1
  -6   4  -6 992.317 51.8715   1
   6  -4   6 908.209  56.483   1
   6  -4   6 946.278  51.261   1
  -7   4  -6  265.78 16.0337   1
   7  -4   6 251.435 19.4103   1
  -8   4  -6 64.5229 5.16918   1
   8  -4   6 70.4355 7.63569   1
  -8  -3   6 38.9299 2.64011   1
  -7  -3   6-0.27155 1.36745   1
  -7  -3   6-0.81465 0.81465   1
  -6  -3   6 131.759 8.38805   1
  -6  -3   6 140.467 9.32619   1
  -5  -3   6  430.98 24.5827   1
  -5  -3   6 428.747 23.6303   1
  -4  -3   6  51.392 26.4629   1
   3   3  -6 51.3521 18.5159   1
  -3  -3   6 178.711 57.7997   1
  -3  -3   6 38.1578 34.2314   1
  -2  -3   6 121.096 13.7406   1
  -2  -3   6 75.7204 26.4496   1
  -2  -3   6 186.418 45.3751   1
  -2  -3   6 134.818 29.5624   1
  -2  -3   6 205.869 91.0173   1
  -2  -3   6 91.0173 26.7075   1
  -1  -3   6 1623.83 137.524   1
  -1  -3   6 1723.27 104.083   1
  -1  -3   6 1613.56 146.809   1
  -1  -3   6 1776.03 106.521   1
  -1  -3   6 1768.21 107.987   1
   0   3  -6  102.43 24.1845   1
   0   3  -6 93.6558 10.6691   1
   0  -3   6 116.417 45.5227   1
   0  -3   6 100.527 21.1025   1
   0  -3   6 89.1507 18.7278   1
   0  -3   6 106.455 21.3382   1
  -1   3  -6 31.8616 14.1314   1
  -1   3  -6  32.338 8.14193   1
  -1   3  -6 31.8616 7.42728   1
   1  -3   6 42.4027 16.5306   1
   1  -3   6 15.5692 11.9789   1
   1  -3   6 27.3099 33.2994   1
  -2   3  -6 272.022 35.6812   1
  -2   3  -6 293.026 33.1556   1
  -2   3  -6 282.897 21.5076   1
   2  -3   6 313.015 64.7834   1
   2  -3   6 274.296 39.2223   1
   2  -3   6 303.398 34.4139   1
  -3   3  -6 45.2596 20.9735   1
  -3   3  -6 47.1903 11.8686   1
  -3   3  -6   54.09 23.1786   1
   3  -3   6 35.3217 27.0401   1
   3  -3   6 52.4337 19.5916   1
   3  -3   6 43.3289 43.3289   1
  -4   3  -6-6.94205 19.9048   1
  -4   3  -6 23.2259 9.65246   1
   4  -3   6  22.626 31.0678   1
   4  -3   6 7.54199 44.3413   1
   4  -3   6 4.83158 17.1944   1
  -5   3  -6  7.6236 2.85321   1
   5  -3   6    0.00 2.22167   1
   5  -3   6 5.40193  5.7177   1
  -6   3  -6 58.9909 6.20783   1
   6  -3   6 51.2283 9.31725   1
  -7   3  -6 1.12354 2.23715   1
   7  -3   6    0.00 4.19589   1
  -8   3  -6 4.32992 1.68243   1
   8  -3   6 3.12574 3.12574   1
  -8  -2   6 22.7241 2.42093   1
  -8  -2   6 17.6419 1.69122   1
  -7  -2   6 14.7904 2.02905   1
  -7  -2   6 15.3672 2.60583   1
  -6  -2   6 81.1606 7.02439   1
  -6  -2   6 100.327 6.70665   1
  -5  -2   6 1112.58 58.4659   1
  -5  -2   6 1083.99 59.4242   1
   4   2  -6 159.659  32.184   1
  -4  -2   6 270.766  78.018   1
  -4  -2   6 167.853 126.892   1
  -4  -2   6 111.722 40.0764   1
   3   2  -6  10.391 7.85808   1
   3   2  -6 13.7616 4.49745   1
   3   2  -6 9.54337 13.4824   1
   3   2  -6 23.5842 24.4318   1
  -3  -2   6 25.5487 37.0666   1
  -3  -2   6-0.55844 21.6197   1
  -3  -2   6-12.0763 75.5293   1
   2   2  -6 8.10333 8.10333   1
  -2  -2   6 4.44616  18.555   1
  -2  -2   6 13.0693 41.2963   1
  -2  -2   6 11.5006  19.344   1
  -2  -2   6-3.39727 15.6776   1
   1   2  -6 590.223 34.2151   1
   1   2  -6 567.666 42.8877   1
   1   2  -6 521.062 45.8637   1
  -1  -2   6 504.695 70.9043   1
  -1  -2   6 597.663 49.3328   1
  -1  -2   6 556.757 44.6222   1
  -1  -2   6 524.038 74.1268   1
   0   2  -6 209.417 26.8109   1
   0   2  -6 190.096 21.7404   1
   0   2  -6 190.336 14.4908   1
   0  -2   6 184.296 21.5002   1
   0  -2   6 164.006 38.4104   1
   0  -2   6 129.216  34.541   1
   0  -2   6 162.067 24.4001   1
  -1   2  -6 1001.87 58.0874   1
  -1   2  -6 1010.69 69.6126   1
  -1   2  -6 1031.77 73.7736   1
   1  -2   6 1010.21  68.629   1
   1  -2   6 1024.42  71.815   1
   1  -2   6 1001.62 102.204   1
  -2   2  -6 16.3982 12.4974   1
  -2   2  -6 27.0654 7.28399   1
  -2   2  -6 25.5032 18.7369   1
   2  -2   6 18.9957 15.8806   1
   2  -2   6 17.7016 35.1351   1
   2  -2   6 29.6721 19.7814   1
  -3   2  -6-4.55968 6.25818   1
  -3   2  -6-2.55787 21.6357   1
  -3   2  -6-0.28308  1.9917   1
   3  -2   6-1.14245 15.6606   1
   3  -2   6 27.3277 18.5016   1
   3  -2   6-16.2268 35.2945   1
  -4   2  -6 104.631 14.2793   1
  -4   2  -6 106.185 34.4579   1
   4  -2   6  69.853 24.2142   1
   4  -2   6  72.345 54.3277   1
   4  -2   6 92.2148 33.8404   1
  -5   2  -6 11.3223 3.56337   1
   5  -2   6 7.44859 6.14968   1
  -6   2  -6 137.507 9.95531   1
   6  -2   6 114.492 8.39738   1
   6  -2   6 121.022 13.6899   1
  -7   2  -6 92.9291 7.42105   1
   7  -2   6 83.3013 10.1747   1
  -8   2  -6 -0.4608 1.39063   1
   8  -2   6  0.6912 2.32045   1
  -8  -1   6 89.7629  5.4138   1
  -8  -1   6 87.4361 5.93595   1
  -7  -1   6 435.595 24.7396   1
  -7  -1   6 433.795 29.2611   1
  -7  -1   6  447.37 24.1396   1
  -6  -1   6 15.6608 6.52149   1
  -6  -1   6 11.7456 2.28194   1
  -6  -1   6 10.1124 2.93062   1
   5   1  -6 342.658 50.7162   1
  -5  -1   6 268.535 57.8756   1
  -5  -1   6 462.636 108.592   1
  -5  -1   6 365.095 54.2959   1
   4   1  -6 767.525 90.7909   1
   4   1  -6 915.539 71.0937   1
   4   1  -6 722.589 59.0917   1
  -4  -1   6 966.935 99.4153   1
  -4  -1   6 621.949 79.4011   1
  -4  -1   6  912.15 173.559   1
   3   1  -6  513.53 66.2764   1
   3   1  -6 508.078 31.5587   1
   3   1  -6 498.611 40.4547   1
  -3  -1   6 416.581 57.6657   1
  -3  -1   6 596.161 121.649   1
  -3  -1   6 582.384 69.4353   1
   2   1  -6 6801.25 369.869   1
   2   1  -6 6725.71 369.332   1
  -2  -1   6 7143.84 386.599   1
  -2  -1   6 6643.15 457.526   1
  -2  -1   6 6496.68  380.39   1
  -2  -1   6 7191.60 378.771   1
   1   1  -6 951.773 60.6225   1
   1   1  -6 849.649 59.0741   1
  -1  -1   6 870.281 85.3863   1
  -1  -1   6 799.855 101.117   1
  -1  -1   6 849.392 63.7191   1
  -1  -1   6 941.971 65.5239   1
  -1  -1   6 827.716 57.0128   1
   0   1  -6 1933.80 114.786   1
   0   1  -6 1868.48 101.167   1
   0   1  -6 1921.43 113.531   1
   0  -1   6 1731.49 142.266   1
   0  -1   6 1848.80 144.533   1
   0  -1   6 1888.92 114.033   1
   0  -1   6 1872.51 111.005   1
  -1   1  -6 156.193 24.6246   1
  -1   1  -6 163.627 13.8474   1
  -1   1  -6 157.987 24.8797   1
   1  -1   6 185.172 20.7802   1
   1  -1   6 155.929 22.8299   1
   1  -1   6 183.632 47.7096   1
  -2   1  -6 2234.97 128.358   1
  -2   1  -6 2177.19 147.947   1
  -2   1  -6 2387.00 149.854   1
   2  -1   6 2396.00 140.049   1
   2  -1   6 2437.15 144.134   1
   2  -1   6 2602.27 187.736   1
  -3   1  -6 987.146 59.9798   1
  -3   1  -6 944.386 78.9818   1
  -3   1  -6 933.694 83.7271   1
   3  -1   6 1105.58 115.794   1
   3  -1   6 964.274 70.3666   1
   3  -1   6 1073.51 78.6866   1
  -4   1  -6 10.8889 9.93317   1
  -4   1  -6 25.3051  27.228   1
   4  -1   6 5.45016 21.7893   1
  -5   1  -6  331.32 20.3234   1
   5  -1   6 313.616 23.9202   1
   5  -1   6 330.331 18.3563   1
  -6   1  -6  0.6116 2.76313   1
   6  -1   6    0.00 1.23413   1
   6  -1   6 2.45733 5.23139   1
  -7   1  -6 8.49699 2.65943   1
   7  -1   6 9.56265 5.04538   1
   7  -1   6 3.97972 1.32972   1
  -8   1  -6 34.0555 3.29318   1
   8  -1   6 37.1302 2.41916   1
  -9   0   6 3.60935 1.12842   1
  -9   0   6 3.83344 0.67225   1
  -8   0   6 55.4316 8.07581   1
  -8   0   6 57.0468 4.57789   1
  -7   0   6 46.7707 4.96086   1
  -7   0   6 41.8098 4.02588   1
  -7   0   6 52.3365 9.29473   1
  -6   0   6 1075.18 58.1452   1
  -6   0   6 1082.16 64.8011   1
  -6   0   6 1068.53 57.4843   1
   5   0  -6 894.997 80.5881   1
   5   0  -6 882.736 73.2973   1
   5   0  -6 908.271 116.736   1
  -5   0   6 843.596 95.8412   1
  -5   0   6 1015.73 169.433   1
  -5   0   6 829.332 95.8412   1
   4   0  -6 3239.81 229.555   1
   4   0  -6 3036.80 188.763   1
   4   0  -6 2986.86 179.587   1
  -4   0   6 2644.73 198.568   1
  -4   0   6 3298.32 317.147   1
  -4   0   6 3132.30 210.585   1
   3   0  -6 685.202   51.52   1
   3   0  -6 655.121  40.795   1
   3   0  -6 627.727 78.3218   1
  -3   0   6 850.751 62.2449   1
  -3   0   6 654.233 72.6631   1
  -3   0   6 722.728 131.333   1
  -3   0   6 549.701 61.3459   1
   2   0  -6 1651.16 100.981   1
   2   0  -6 1658.51 104.658   1
   2   0  -6 1680.85 90.5132   1
   2   0  -6 1493.35 128.135   1
  -2   0   6 1775.33 110.595   1
  -2   0   6 1560.07  175.34   1
  -2   0   6 1594.59 114.553   1
   1   0  -6 2566.26 143.481   1
   1   0  -6 2643.83 152.195   1
  -1   0   6 2572.78 208.017   1
  -1   0   6 2567.61 153.558   1
  -1   0   6 2511.79 179.419   1
  -1   0   6 2391.43 152.195   1
  -1   0   6 2492.19 144.564   1
   0   0  -6 1204.41 83.3866   1
   0   0  -6 1255.99 79.9126   1
   0   0  -6 1216.70 66.8137   1
   0   0   6 1217.25 76.1728   1
   0   0   6 1238.62 124.012   1
   0   0   6 1088.98 79.6468   1
   0   0   6 1214.57 107.173   1
  -1   0  -6 792.246 48.4331   1
  -1   0  -6 788.709 71.2871   1
  -1   0  -6 793.329 63.9429   1
   1   0   6 800.412 98.2287   1
   1   0   6 907.338 65.3054   1
   1   0   6 782.998 56.5987   1
   1   0   6 884.754 89.7925   1
  -2   0  -6 420.946 30.8336   1
  -2   0  -6 388.096 52.4468   1
  -2   0  -6 479.983 50.7173   1
   2   0   6  456.65 39.1842   1
   2   0   6 521.193 70.3043   1
   2   0   6 534.732 48.6911   1
  -3   0  -6 1069.10 66.8278   1
  -3   0  -6 1042.98 91.6868   1
   3   0   6 1148.02 86.4103   1
  -4   0  -6 90.8413 17.1138   1
  -4   0  -6 91.5076  34.555   1
   4   0   6 117.506 35.5486   1
  -5   0  -6 355.203  20.973   1
   5   0   6 322.103 18.6802   1
  -6   0  -6 448.568 26.2691   1
   6   0   6 440.236 24.1808   1
  -7   0  -6 56.0957 5.27991   1
   7   0   6 50.5567 3.51994   1
   9  -1  -6 1.17741 2.35482   1
  -9   1   6-0.46763 0.70144   1
  -9   1   6 1.41122  0.9436   1
  -8   1   6 7.44878 1.38194   1
  -8   1   6 7.72321 2.20523   1
  -8   1   6 6.06683 4.96912   1
  -7   1   6 2.20307 2.20307   1
  -7   1   6 4.09301 1.57681   1
  -7   1   6 9.44971  6.6092   1
  -6   1   6 12.8437 2.70077   1
  -6   1   6 16.9008  8.7865   1
  -6   1   6   14.20 3.03687   1
  -6   1   6 12.5076 2.36467   1
   5  -1  -6  30.581  48.249   1
   5  -1  -6 18.6938 18.6938   1
   5  -1  -6 12.5751 12.2372   1
  -5   1   6-14.2768 76.7905   1
  -5   1   6 16.9921 36.3617   1
  -5   1   6 8.83398 28.2036   1
   4  -1  -6 1365.67 141.069   1
   4  -1  -6 1360.43 106.697   1
   4  -1  -6 1530.59 100.152   1
  -4   1   6 1347.01 109.638   1
  -4   1   6 1471.38 115.205   1
  -4   1   6 1733.51 199.293   1
   3  -1  -6 4018.23 219.307   1
   3  -1  -6 4009.52 232.677   1
   3  -1  -6 4083.87 274.056   1
  -3   1   6 3990.23 245.438   1
  -3   1   6 4454.38 361.169   1
  -3   1   6 4389.67 254.775   1
  -3   1   6 3880.75  237.35   1
   2  -1  -6 255.185  18.149   1
   2  -1  -6 379.217 51.1616   1
   2  -1  -6 264.999 35.6958   1
   2  -1  -6 242.392 25.2797   1
  -2   1   6 280.464 41.3476   1
  -2   1   6 290.278 84.4805   1
  -2   1   6 214.724 33.9105   1
   1  -1  -6 1055.28 67.3136   1
   1  -1  -6 1098.42 80.8295   1
  -1   1   6 1185.29 136.344   1
  -1   1   6 919.241 74.5057   1
  -1   1   6 988.853 78.8169   1
   0  -1  -6 1052.78 60.4294   1
   0  -1  -6 1077.47 84.5528   1
   0  -1  -6 1143.29 75.7559   1
   0   1   6 868.674 78.3053   1
   0   1   6 1266.15 104.132   1
   0   1   6 1045.69 75.4738   1
   0   1   6 1198.34 70.0828   1
  -1  -1  -6 977.427 91.1767   1
  -1  -1  -6 1148.47 85.9748   1
  -1  -1  -6 1192.17 66.8636   1
   1   1   6 1352.51 85.6767   1
   1   1   6 1390.43 142.702   1
   1   1   6 1167.00 72.9393   1
   1   1   6 932.266 81.3383   1
   1   1   6 1229.51 104.202   1
  -2  -1  -6 43.2826 10.9776   1
  -2  -1  -6 61.5787 26.5239   1
  -2  -1  -6 30.4862 28.3535   1
   2   1   6 46.6387 23.4709   1
   2   1   6 34.1454 12.4933   1
   2   1   6 1.22335 26.5239   1
  -3  -1  -6 0.64395 16.5128   1
  -3  -1  -6  9.3948  12.948   1
  -3  -1  -6 1.62138 4.85264   1
   3   1   6-4.20869 19.4221   1
  -4  -1  -6 50.4418 7.01108   1
   4   1   6 44.0951 4.34189   1
   4   1   6 48.7691 29.3967   1
  -5  -1  -6 9.96818 4.49881   1
   5   1   6 18.3264 2.56912   1
  -6  -1  -6 20.1226   4.248   1
   6   1   6 31.4573 3.12057   1
  -7  -1  -6  123.89 7.93166   1
   7   1   6 114.582 6.77133   1
   9  -2  -6 38.3342 5.54848   1
  -9   2   6 39.7813 2.89412   1
  -9   2   6 41.2283 3.13387   1
  -8   2   6 1.67461 1.11971   1
  -8   2   6-1.39716 4.74638   1
  -8   2   6 1.11971 1.67461   1
  -7   2   6 39.6323 4.75137   1
  -7   2   6 37.0877 9.19874   1
  -7   2   6  40.578 4.12086   1
  -6   2   6 89.9511 7.17908   1
  -6   2   6 105.342 7.17908   1
  -6   2   6 93.0366  14.018   1
  -6   2   6 93.0366 7.51921   1
   5  -2  -6 580.414 59.4413   1
   5  -2  -6 421.249 72.3048   1
   5  -2  -6 565.464 103.933   1
  -5   2   6 784.798 165.102   1
  -5   2   6 624.214 70.5642   1
  -5   2   6 537.317 79.6007   1
   4  -2  -6 910.224 73.4624   1
   4  -2  -6 766.041 80.5681   1
   4  -2  -6 772.473 108.667   1
  -4   2   6 1084.23 178.714   1
  -4   2   6 884.157 77.1896   1
  -4   2   6 1009.08  95.465   1
   3  -2  -6 4.21551  2.5915   1
   3  -2  -6    0.00 5.19452   1
   3  -2  -6 59.3512 33.0791   1
  -3   2   6-3.24802 9.07602   1
  -3   2   6    0.00 35.3481   1
  -3   2   6   2.269  14.593   1
  -3   2   6 9.73253 21.0776   1
   2  -2  -6 272.686 64.4398   1
   2  -2  -6 249.035 44.2056   1
   2  -2  -6 216.649 28.9581   1
   2  -2  -6 241.561  19.615   1
  -2   2   6 214.471 33.3145   1
  -2   2   6 318.141 122.975   1
  -2   2   6 244.988 28.0183   1
  -2   2   6 253.701 46.3838   1
   1  -2  -6 738.961 57.1546   1
   1  -2  -6 637.968 49.2934   1
   1  -2  -6 794.268 81.3395   1
   1  -2  -6  660.65 40.2187   1
   1  -2  -6 698.742 69.8484   1
  -1   2   6 647.043 70.1491   1
  -1   2   6 592.004  55.941   1
  -1   2   6 867.446 133.651   1
   0  -2  -6 429.108 42.9097   1
   0  -2  -6 343.885 23.7037   1
   0  -2  -6 240.352 40.2132   1
   0   2   6 459.388  104.13   1
   0   2   6 279.062 34.2127   1
   0   2   6 269.459 47.7166   1
  -1  -2  -6 164.606 17.1716   1
  -1  -2  -6 125.395 45.6784   1
  -1  -2  -6 194.038 39.8529   1
   1   2   6 177.182 30.3579   1
   1   2   6  131.83 32.8079   1
   1   2   6 174.111 71.1255   1
  -2  -2  -6 133.115 39.6741   1
  -2  -2  -6 62.4035 33.9236   1
  -2  -2  -6 171.164  19.195   1
   2   2   6  142.40 66.8812   1
   2   2   6 133.751 32.6394   1
   2   2   6 149.116 29.7641   1
  -3  -2  -6 705.354 85.8427   1
  -3  -2  -6 723.647 52.9072   1
   3   2   6 737.297 75.1951   1
  -4  -2  -6 44.1809 6.97221   1
   4   2   6 45.5022 4.31782   1
  -5  -2  -6 32.6269 5.54166   1
   5   2   6 37.2395 3.69444   1
  -6  -2  -6 94.2921 7.35083   1
   6   2   6 94.8238 5.77432   1
  -7  -2  -6 2.96564 1.48282   1
   7   2   6 1.90433 0.63227   1
   9  -3  -6  -1.949 2.92784   1
  -9   3   6 0.97883 0.72763   1
  -9   3   6 0.72763 0.97883   1
   8  -3  -6 53.1824 4.45989   1
  -8   3   6 54.0131 4.17311   1
  -8   3   6 62.0923 9.74055   1
  -8   3   6 54.8536 4.73677   1
  -7   3   6 57.7279 4.72757   1
  -7   3   6 54.8824 5.36613   1
  -7   3   6 52.3618 5.05245   1
  -7   3   6 48.5752 10.4074   1
  -6   3   6 153.816 9.58766   1
  -6   3   6 157.247 10.2812   1
  -6   3   6  138.06 10.2812   1
  -6   3   6 169.585 18.8468   1
   5  -3  -6 724.877 68.0155   1
   5  -3  -6 580.022 66.9641   1
   5  -3  -6 513.809 107.143   1
  -5   3   6 1028.98 189.214   1
  -5   3   6 674.823 85.2885   1
  -5   3   6 853.861 78.5921   1
   4  -3  -6 85.1045 22.5777   1
   4  -3  -6 91.0142 26.7478   1
   4  -3  -6 22.5777 55.9262   1
  -4   3   6 118.108 102.476   1
  -4   3   6 94.4934 38.9127   1
  -4   3   6 109.422  28.142   1
   3  -3  -6 512.959 93.9498   1
   3  -3  -6 473.062 68.4485   1
   3  -3  -6 535.433 54.3513   1
  -3   3   6 677.371 66.7683   1
  -3   3   6 597.173 54.0176   1
  -3   3   6  682.40  126.16   1
   2  -3  -6 74.7931 34.3262   1
   2  -3  -6 124.977  25.253   1
   2  -3  -6 147.321 52.4494   1
  -2   3   6 129.197 41.4444   1
  -2   3   6 185.821 93.5718   1
  -2   3   6 158.004 23.6316   1
  -2   3   6 129.519 25.9085   1
   1  -3  -6 896.747 99.2953   1
   1  -3  -6 1181.32 76.2151   1
   1  -3  -6 1185.75 66.0958   1
   1  -3  -6 1352.72 109.415   1
  -1   3   6 1291.69  104.99   1
   0  -3  -6 1258.62 75.6806   1
   0  -3  -6 1518.09 107.843   1
   0   3   6 1166.55  110.99   1
  -1  -3  -6 76.4771  46.918   1
  -1  -3  -6 162.244 43.0604   1
  -1  -3  -6 140.103  17.998   1
   1   3   6 154.563 43.0604   1
   1   3   6 148.458 93.5164   1
  -2  -3  -6 87.9521 54.5562   1
  -2  -3  -6 240.665 53.2292   1
  -2  -3  -6 259.512  25.458   1
   2   3   6 188.093 52.2429   1
   2   3   6 273.074 140.853   1
  -3  -3  -6 78.9299 8.69476   1
   3   3   6 77.9321 6.02219   1
  -4  -3  -6 67.1813 8.03665   1
   4   3   6  59.784 4.81742   1
  -5  -3  -6 71.0304 7.44584   1
   5   3   6 82.7688 5.44197   1
  -6  -3  -6  138.39 8.78588   1
   6   3   6 135.304  7.8331   1
   9  -4  -6 71.1046 7.81855   1
   9  -4  -6  66.705 4.64254   1
  -9   4   6 67.4339 4.64254   1
   8  -4  -6 52.1632 4.67031   1
  -8   4   6 52.1632 4.67031   1
  -8   4   6 48.3216 8.51186   1
  -7   4   6 416.218 29.0939   1
  -7   4   6 412.503 23.5213   1
  -6   4   6 1158.56 61.1556   1
  -6   4   6 1152.48 61.5036   1
  -6   4   6 1117.00  66.904   1
   5  -4  -6 155.141 24.9759   1
   5  -4  -6 154.441 38.6945   1
   5  -4  -6 224.408 92.5196   1
  -5   4   6 104.839 47.8403   1
  -5   4   6 147.044 113.985   1
  -5   4   6 197.671 41.8681   1
   4  -4  -6 578.972 60.0847   1
   4  -4  -6 656.614 129.653   1
   4  -4  -6 809.104 73.7863   1
  -4   4   6 945.745 170.758   1
  -4   4   6 951.722 91.0068   1
  -4   4   6 796.101 65.0013   1
   3  -4  -6 1237.38 125.884   1
   3  -4  -6 1443.86  101.18   1
   3  -4  -6 981.541 133.083   1
  -3   4   6 1653.74 209.194   1
  -3   4   6 1271.68 93.2985   1
  -3   4   6 1553.25 117.308   1
   2  -4  -6 336.896 59.3818   1
   2  -4  -6 232.824 60.7206   1
   2  -4  -6 313.887 32.3567   1
  -2   4   6 381.942 86.4069   1
  -2   4   6 290.867 33.3638   1
  -2   4   6  370.26  46.041   1
   1  -4  -6 63.2404 41.2913   1
  -1   4   6 80.6157 44.5615   1
  -1   4   6 120.266 86.5045   1
  -1   4   6 96.9903 15.7344   1
   0  -4  -6  183.80 47.1089   1
   0  -4  -6 138.039 46.4467   1
   0  -4  -6 185.764 23.2234   1
   0   4   6 217.828 66.0803   1
   0   4   6 207.361 119.718   1
  -1  -4  -6 58.8659 15.5386   1
  -1  -4  -6 8.26848 55.8827   1
  -1  -4  -6 64.8206 36.0454   1
   1   4   6 59.8525 40.3441   1
   1   4   6 38.0303 117.732   1
  -2  -4  -6 906.263 113.665   1
  -2  -4  -6 1101.59  70.666   1
   2   4   6 1023.27 222.641   1
   2   4   6 802.626  101.34   1
  -3  -4  -6 209.073 15.0033   1
   3   4   6 228.317 13.0454   1
  -4  -4  -6 27.4073 4.82463   1
   4   4   6 31.9324 3.01673   1
  -5  -4  -6 109.759 8.02641   1
   5   4   6 120.378 6.98748   1
  -6  -4  -6 4.60808  1.2581   1
   6   4   6 6.91584 0.84122   1
   9  -5  -6 18.7465 2.18767   1
   9  -5  -6 10.2293 4.14188   1
  -9   5   6 15.0975 1.94556   1
   8  -5  -6 9.91563 2.40754   1
  -8   5   6 9.64918 4.82459   1
  -8   5   6 7.77454 1.87464   1
   7  -5  -6 413.203  22.742   1
  -7   5   6 394.946 27.2267   1
  -7   5   6 390.759  22.742   1
  -6   5   6 321.922 18.3255   1
  -6   5   6 327.814 24.5425   1
  -6   5   6 322.585 18.6509   1
   5  -5  -6 -26.148  26.148   1
  -5   5   6-5.51062 94.9513   1
  -5   5   6 33.0271 36.8149   1
  -5   5   6  2.7492 21.3338   1
  -5   5   6 6.87912  2.7492   1
   4  -5  -6 1958.76 134.781   1
  -4   5   6 2166.32 265.691   1
  -4   5   6 2148.91 157.416   1
  -4   5   6 1631.43 127.818   1
   3  -5  -6   81.59 22.0329   1
   3  -5  -6 28.2319 46.4744   1
   3  -5  -6 251.629  70.916   1
  -3   5   6 113.612 100.187   1
  -3   5   6 58.5301 34.7733   1
  -3   5   6 61.2812 26.5079   1
  -2   5   6 336.606 38.5331   1
  -2   5   6 455.579 136.546   1
  -2   5   6  436.66 68.9514   1
   1  -5  -6 89.7173 49.0282   1
  -1   5   6 215.765 40.6891   1
  -1   5   6  184.41 26.0126   1
  -1   5   6 325.157 74.3775   1
   0  -5  -6 262.571 61.4186   1
   0  -5  -6 107.238 66.3943   1
   0  -5  -6 299.087  32.531   1
   0   5   6 304.735  148.40   1
   0   5   6  285.81  71.712   1
  -1  -5  -6 270.187 20.5348   1
  -1  -5  -6 249.323 67.5556   1
  -1  -5  -6 234.093 31.7902   1
   2   5   6 1491.44 78.7289   1
  -3  -5  -6 103.518 8.29106   1
   3   5   6   99.22 6.75285   1
  -4  -5  -6 34.1353 4.09235   1
   4   5   6 35.4929 3.00623   1
  -5  -5  -6 33.9305  3.1868   1
   5   5   6 39.1717 2.50738   1
   9  -6  -6 105.904 6.55646   1
   9  -6  -6 94.2492 8.98926   1
  -9   6   6 105.663 6.31491   1
   8  -6  -6-0.51703 1.56033   1
  -8   6   6  1.0433 1.30181   1
   7  -6  -6 76.3138 6.28336   1
  -7   6   6 78.0293 5.99913   1
  -6   6   6 108.932 7.78164   1
  -5   6   6 7.90169    2.63   1
  -5   6   6 8.55627 1.97542   1
   4  -6  -6 131.429 23.5904   1
  -4   6   6 95.3669 51.5613   1
  -4   6   6 91.6686  39.425   1
  -4   6   6 189.022 10.4487   1
  -4   6   6 216.993 160.752   1
  -3   6   6 518.932 76.2086   1
  -3   6   6 340.226 44.1825   1
  -3   6   6  556.36 152.764   1
   2  -6  -6-9.69262 36.4096   1
  -2   6   6-8.01984 8.01984   1
  -2   6   6-5.00647 32.0675   1
  -2   6   6 -20.714 87.5183   1
   1  -6  -6-2.31219 37.0185   1
  -1   6   6 46.9245 91.5368   1
  -1   6   6 4.95301 19.4951   1
   0  -6  -6 6.53545 2.28683   1
   0  -6  -6 9.80898 4.24862   1
  -1  -6  -6 424.499 24.3514   1
  -1  -6  -6  462.62 27.2303   1
  -3  -6  -6 13.1138 2.79523   1
  -4  -6  -6 0.96392 1.44161   1
   9  -7  -6 2.20252 1.22749   1
  -9   7   6 4.41374 1.22749   1
   8  -7  -6 191.239 11.1179   1
  -8   7   6 181.387 10.8667   1
   7  -7  -6 78.7082 6.51644   1
  -7   7   6 85.7742 6.24653   1
   6  -7  -6  32.443 4.09041   1
  -6   7   6 25.1342 3.50904   1
   5  -7  -6 297.559 18.2297   1
  -5   7   6 330.934 18.5371   1
  -4   7   6   32.50 3.82486   1
   3  -7  -6 174.042 14.4787   1
  -3   7   6 187.561 11.5876   1
   2  -7  -6 45.2288 7.05205   1
  -2   7   6 40.4211 4.48871   1
   1  -7  -6 135.821 12.0594   1
   1  -7  -6 145.344 9.20798   1
   0  -7  -6 630.643 34.2073   1
   0  -7  -6 628.467 37.0128   1
  -1  -7  -6 656.612 35.8861   1
  -1  -7  -6 677.853 38.2756   1
  -2  -7  -6 3.88746  1.3912   1
   8  -8  -6 39.8349 3.73148   1
  -8   8   6 43.5663 3.48389   1
   7  -8  -6  30.041 3.36651   1
  -7   8   6 29.2684 3.36651   1
   6  -8  -6 79.9444  6.5729   1
  -6   8   6 91.9915  6.5729   1
  -5   8   6 109.177 7.75461   1
   4  -8  -6 265.858  18.086   1
  -4   8   6 283.639 16.3069   1
   3  -8  -6 67.9162  8.4108   1
  -3   8   6 62.5153 5.41152   1
   2  -8  -6   1.504 3.60533   1
  -2   8   6 6.60266 1.80266   1
   1  -8  -6 57.7587 7.69976   1
   0  -8  -6 208.917 14.0671   1
   0  -8  -6 197.439 11.7634   1
  -1  -8  -6 160.191 11.3708   1
  -1  -8  -6 171.283  9.7464   1
   8  -9  -6 22.8126 2.27766   1
  -8   9   6 26.6117 2.27766   1
   7  -9  -6 210.553 12.3602   1
  -7   9   6 219.635 12.3602   1
  -6   9   6 132.253 8.29977   1
  -5   9   6 108.043 7.23652   1
   4  -9  -6 120.094 9.61413   1
  -4   9   6 118.171 7.97436   1
   3  -9  -6 206.816 14.7316   1
  -3   9   6 218.773 12.7865   1
   2  -9  -6 16.0706 4.43836   1
  -2   9   6 12.1932 2.21426   1
   1  -9  -6 142.724 10.5829   1
  -1   9   6 137.288 8.41426   1
   0  -9  -6 0.25809 2.33204   1
   0   9   6 0.25809 1.04159   1
  -1  -9  -6 2.15703 1.44086   1
   1   9   6-0.23872 0.71617   1
  -7  10   6 0.51021 1.02954   1
  -6  10   6 49.1845 3.80005   1
  -5  10   6 15.8607  2.0439   1
   4 -10  -6 2.58816   2.322   1
  -4  10   6 1.80804 1.29408   1
   3 -10  -6 10.0993 2.85135   1
  -3  10   6 11.3962 1.81198   1
   2 -10  -6 151.472  9.7249   1
  -2  10   6 138.166  8.4434   1
   1 -10  -6 35.9306 3.71362   1
  -1  10   6 29.2337 2.48161   1
   0 -10  -6 31.2477 2.79929   1
   0  10   6  29.848 2.09532   1
  -5  11   6 17.4047 2.04494   1
   4 -11  -6 146.706 8.56918   1
  -4  11   6 141.414 8.06775   1
   3 -11  -6 2.97809 1.48905   1
  -3  11   6 2.48468 0.74012   1
   0 -11   7 173.706 9.35807   1
   0 -11   7 158.012 9.35807   1
   1 -11   7  142.83 8.40659   1
   1 -11   7 143.992  8.6947   1
   2 -11   7 212.585 12.0861   1
   2 -11   7 206.102 11.7928   1
   3 -11   7 29.1769  3.2442   1
   3 -11   7 32.4106  3.2442   1
   4 -11   7 1.17015  1.4601   1
   4 -11   7 0.86985 1.17015   1
  -2 -10   7 0.25915 1.04587   1
  -1 -10   7 80.1298  5.2091   1
   0 -10   7 27.4964 3.32705   1
   0 -10   7 21.4541  2.7153   1
   1 -10   7 182.024 10.9819   1
   1 -10   7 171.345 10.6678   1
   2 -10   7 289.557 16.6818   1
   2 -10   7 295.017 16.9834   1
   3 -10   7 127.437 8.70023   1
   3 -10   7 140.024 8.70023   1
   4 -10   7  290.31 15.9286   1
   4 -10   7 273.197 15.9286   1
   5 -10   7 4.03638 1.73134   1
   5 -10   7 0.86055 1.44449   1
  -6  10  -7  157.90 9.55123   1
   6 -10   7 164.646 9.55123   1
  -3  -9   7 152.802 8.78478   1
  -2  -9   7 189.512 10.9944   1
  -1  -9   7 270.945  15.109   1
  -1  -9   7 251.828  15.109   1
   0  -9   7 674.733 36.9099   1
   0  -9   7 690.113 37.2157   1
   1  -9   7 323.309 18.8091   1
   1  -9   7 322.706 18.5074   1
   2  -9   7 2.69541  2.0988   1
   2  -9   7-0.59661  2.0988   1
   3  -9   7 180.614 11.0316   1
   3  -9   7 171.975 11.0316   1
   4  -9   7 661.489 41.4028   1
   4  -9   7 822.626 41.1087   1
   4  -9   7 793.943 41.1087   1
   5  -9   7 -0.2886  2.0305   1
   5  -9   7  0.8658  1.7419   1
  -6   9  -7 1.12638 1.40548   1
   6  -9   7-1.12638 1.68458   1
  -7   9  -7 71.3545 5.13583   1
   7  -9   7 72.4392 4.86704   1
  -4  -8   7 21.4398 1.85166   1
  -4  -8   7 14.5595 1.85166   1
  -3  -8   7 92.2531 5.98921   1
  -3  -8   7 77.8811 5.69135   1
  -2  -8   7 8.38111 2.48125   1
  -1  -8   7 117.244 8.26272   1
  -1  -8   7 124.593 8.26272   1
   0  -8   7 1419.29 76.4744   1
   0  -8   7 1469.59 76.7703   1
   1  -8   7  595.65 33.2424   1
   1  -8   7 609.071 32.9524   1
   2  -8   7 20.3191 3.48445   1
   2  -8   7 22.0613  3.1958   1
   3  -8   7 582.332 33.9297   1
   3  -8   7 617.727 33.6389   1
   3  -8   7 635.284  33.348   1
   4  -8   7 33.0244 3.83225   1
   4  -8   7 29.1921 4.41861   1
   4  -8   7 30.9512 4.12543   1
   5  -8   7  86.013 6.43175   1
   5  -8   7 83.0932 7.31495   1
  -6   8  -7 90.8291  6.5122   1
   6  -8   7 88.8494 6.79359   1
  -7   8  -7 56.0849  4.2981   1
   7  -8   7 53.6643  4.2981   1
   7  -8   7 42.3996 6.44238   1
  -5  -7   7-0.50821 0.76232   1
  -4  -7   7 58.5119 4.75732   1
  -4  -7   7 59.6933 4.45142   1
  -3  -7   7 188.113 12.4568   1
  -3  -7   7 230.782 12.7665   1
  -2  -7   7 609.206 33.2874   1
  -1  -7   7 232.299 13.4406   1
  -1  -7   7 223.239 13.7312   1
   0  -7   7 185.948 11.5312   1
   0  -7   7 204.514 12.1008   1
   1  -7   7 3.59675 2.21111   1
   1  -7   7 3.32158 1.93595   1
   2  -7   7 89.2358 6.13063   1
   2  -7   7 80.3122 6.41785   1
   2  -7   7  73.617 6.97247   1
   3  -7   7 400.086 24.3071   1
   3  -7   7 422.971 23.4538   1
   3  -7   7 447.248 24.0226   1
   4  -7   7 11.1605 2.63889   1
   4  -7   7 8.81369 2.94138   1
   4  -7   7 14.9781 2.94138   1
   5  -7   7 76.2482 12.4176   1
   5  -7   7 73.2986 5.61575   1
   5  -7   7 77.7283 6.80188   1
  -6   7  -7 8.32223 2.29192   1
   6  -7   7 3.44298 6.30534   1
   6  -7   7 3.15776 2.29192   1
  -7   7  -7 58.1063 4.84379   1
   7  -7   7 57.2943 8.07298   1
   7  -7   7 65.6348 4.84379   1
  -8   7  -7 33.0861 3.00864   1
   8  -7   7 31.0744 4.26372   1
   8  -7   7  34.083  2.7594   1
  -6  -6   7   40.39 2.86924   1
  -5  -6   7 0.28669  1.4437   1
  -4  -6   7 203.568 12.4494   1
  -4  -6   7 202.628 12.4494   1
  -3  -6   7 82.5265 6.15722   1
  -3  -6   7 65.9031   5.851   1
  -2  -6   7  128.18 8.47205   1
  -1  -6   7 832.605 70.0588   1
   0   6  -7 788.615 76.4782   1
   0   6  -7 790.473 51.2496   1
   0  -6   7 774.006 70.3762   1
  -1   6  -7 606.535 41.3383   1
  -1   6  -7 659.169 65.5559   1
   1  -6   7 638.392 52.6523   1
   1  -6   7 589.424 51.0721   1
   1  -6   7 669.174 91.8868   1
  -2   6  -7 266.029 37.6628   1
  -2   6  -7  204.69 19.0989   1
   2  -6   7 243.433 31.2042   1
   2  -6   7 277.064 75.8607   1
  -3   6  -7 428.983 44.6454   1
  -3   6  -7 508.441 69.3564   1
  -3   6  -7 455.658 37.0665   1
   3  -6   7 478.115 113.433   1
   3  -6   7 470.257 58.6862   1
   4  -6   7 164.949 17.9117   1
   4  -6   7 166.419 9.97761   1
   4  -6   7 153.501 10.8638   1
   5  -6   7 184.387 18.8619   1
   5  -6   7 169.714 11.3767   1
  -6   6  -7 104.905 7.86583   1
   6  -6   7 112.781 14.5725   1
   6  -6   7 110.442 7.86583   1
  -7   6  -7 106.632 7.57401   1
   7  -6   7 113.399 11.6397   1
   7  -6   7 113.399 7.30488   1
  -8   6  -7 64.8449 4.68494   1
   8  -6   7 71.2549 4.19456   1
   8  -6   7 60.9043 6.65525   1
  -6  -5   7 1.63016 1.36008   1
  -5  -5   7 10.4315 2.45254   1
  -4  -5   7 169.757 10.6279   1
  -3  -5   7 1381.00 73.3715   1
  -1  -5   7-0.26084  23.084   1
   0   5  -7 138.975 15.4767   1
   0   5  -7 108.814  27.395   1
   0  -5   7 138.723  22.071   1
   0  -5   7 152.929 29.6742   1
   0  -5   7 152.677 52.7631   1
  -1   5  -7 582.033 55.5664   1
  -1   5  -7 522.402  33.749   1
   1  -5   7 361.299 83.4848   1
   1  -5   7  475.46 43.1392   1
   1  -5   7 495.763 47.4468   1
  -2   5  -7 147.308 24.6897   1
  -2   5  -7 149.407 32.3009   1
  -2   5  -7 160.441 16.2857   1
   2  -5   7 138.643 68.0249   1
   2  -5   7 164.377 35.1924   1
  -3   5  -7  605.69 42.0383   1
  -3   5  -7 622.675 54.5648   1
  -3   5  -7  515.78 65.6972   1
   3  -5   7  761.00 97.7104   1
   3  -5   7 627.965 53.4476   1
   4  -5   7 368.922 20.0906   1
   4  -5   7 331.993 20.3844   1
   4  -5   7 356.217 26.5846   1
  -5   5  -7 4.87184 2.43052   1
   5  -5   7 3.04625 2.43052   1
   5  -5   7 2.43052 6.38416   1
  -6   5  -7 360.264 20.7238   1
   6  -5   7 350.496  26.349   1
   6  -5   7  354.05 20.4294   1
  -7   5  -7  95.974 7.06842   1
   7  -5   7 81.5668 10.6026   1
   7  -5   7 106.857 6.52766   1
  -8   5  -7 70.1381 5.09421   1
   8  -5   7 81.7918 7.52495   1
  -7  -4   7 40.0255 2.72043   1
  -7  -4   7 28.6611 2.22022   1
  -6  -4   7  9.4026 1.47144   1
  -6  -4   7  9.1104 2.05584   1
  -5  -4   7 221.011 13.2296   1
  -5  -4   7 208.419  12.279   1
  -4  -4   7  146.73 9.57794   1
   3   4  -7 60.4803 63.9539   1
   3   4  -7 242.456  52.084   1
   1   4  -7 205.828 18.2956   1
   1   4  -7 189.057 31.0041   1
  -1  -4   7  267.33 54.3903   1
  -1  -4   7 233.023 31.0041   1
  -1  -4   7 226.921 25.6698   1
  -1  -4   7 225.649 24.1444   1
   0   4  -7 4651.94 275.567   1
   0   4  -7 4753.28 253.814   1
   0  -4   7 4651.45 265.182   1
   0  -4   7 4762.18 314.867   1
   0  -4   7 4935.17 268.395   1
  -1   4  -7 546.854 36.1471   1
  -1   4  -7 568.792  54.588   1
   1  -4   7 588.985 86.2465   1
   1  -4   7 598.706 50.6041   1
   1  -4   7  518.94 47.8597   1
  -2   4  -7 24.7775 8.34561   1
  -2   4  -7 23.7308 16.4319   1
  -2   4  -7 17.9972 15.1258   1
   2  -4   7 9.39229  18.516   1
   2  -4   7 28.1676 9.91099   1
   2  -4   7 39.3846 24.2588   1
  -3   4  -7 40.5665 8.11728   1
  -3   4  -7 44.7593 13.4328   1
  -3   4  -7 36.3638  22.941   1
   3  -4   7 17.6255  45.882   1
   3  -4   7  42.802  27.412   1
   3  -4   7 44.7593 21.5401   1
  -4   4  -7 338.991 55.1571   1
  -4   4  -7 425.022 33.2689   1
   4  -4   7 280.842 62.0451   1
   4  -4   7  408.84 95.3246   1
   4  -4   7 537.699 53.9541   1
  -5   4  -7 54.2034 5.57766   1
   5  -4   7 54.2034 5.57766   1
   5  -4   7 65.3587 11.1553   1
  -6   4  -7 59.6723 5.99599   1
   6  -4   7 61.7704 5.69778   1
   6  -4   7 54.5816 9.59571   1
  -7   4  -7 8.69042 2.71997   1
   7  -4   7 9.23055 4.89017   1
  -8   4  -7 9.03359 1.89959   1
   8  -4   7 9.98761 3.32639   1
  -8  -3   7 29.2933 1.96427   1
  -8  -3   7 37.8181 2.40682   1
  -7  -3   7 17.2872 1.88989   1
  -7  -3   7 21.3356 2.42711   1
  -6  -3   7-0.30577 1.84556   1
  -6  -3   7 0.91732 1.23401   1
  -5  -3   7  104.27  7.9487   1
  -5  -3   7 103.006 6.98898   1
  -4  -3   7 535.113 63.6132   1
   3   3  -7 63.2656 22.8023   1
  -3  -3   7 213.125 64.6927   1
  -3  -3   7 146.449 115.125   1
  -3  -3   7 22.8023 21.3753   1
   2   3  -7 184.613 24.4377   1
  -2  -3   7 171.592 25.5039   1
  -2  -3   7 250.236 36.3923   1
  -2  -3   7 206.663 55.2631   1
  -2  -3   7 221.279 39.3173   1
   1   3  -7 21.6973 13.3715   1
   1   3  -7 9.58945 11.6059   1
   1   3  -7 17.6643 6.30932   1
  -1  -3   7 24.7264 13.1205   1
  -1  -3   7 23.2119  11.355   1
  -1  -3   7 20.4426 30.7848   1
   0   3  -7 54.0427 19.2471   1
   0   3  -7 27.1441  15.303   1
   0   3  -7 45.4096 8.88734   1
   0  -3   7 44.6646  33.069   1
   0  -3   7 30.1065 16.2847   1
   0  -3   7 39.4847 14.0672   1
  -1   3  -7 17.5358 8.51433   1
  -1   3  -7 14.7778 12.5268   1
  -1   3  -7 24.2974 7.26877   1
   1  -3   7 10.7741 8.51433   1
   1  -3   7 16.7796 15.0269   1
   1  -3   7  51.602 26.0501   1
  -2   3  -7 15.0572 14.7946   1
  -2   3  -7 34.0734  20.339   1
  -2   3  -7 20.8644 8.19001   1
   2  -3   7 33.8108 18.7535   1
   2  -3   7 25.3581 38.5672   1
   2  -3   7 19.0162 23.2472   1
  -3   3  -7-0.56749 17.9771   1
  -3   3  -7 1.14511 3.70893   1
  -3   3  -7 4.27641 1.99633   1
   3  -3   7 22.2536 46.2197   1
   3  -3   7 2.56382 17.6934   1
   3  -3   7-15.1194 27.6751   1
  -4   3  -7  265.82 26.3653   1
  -4   3  -7 292.196 57.3371   1
   4  -3   7 249.572 54.8868   1
   4  -3   7 181.192 67.1492   1
   4  -3   7 327.459 42.0037   1
  -5   3  -7  21.775 3.78792   1
   5  -3   7 12.3051 6.93705   1
   5  -3   7  17.987 3.47413   1
  -6   3  -7 0.60024 2.41168   1
   6  -3   7 3.32275 5.13419   1
  -7   3  -7 34.9175 4.30268   1
   7  -3   7 30.3572 6.18212   1
  -8   3  -7 5.99733 1.61404   1
   8  -3   7  4.3833 2.53985   1
  -8  -2   7 25.4018 2.15298   1
  -8  -2   7 28.5163 2.39976   1
  -7  -2   7 8.87466 2.28728   1
  -7  -2   7  10.308   1.718   1
  -6  -2   7 4.42324 1.58294   1
  -6  -2   7  2.8403 2.21162   1
  -5  -2   7 58.9866 10.8956   1
  -5  -2   7 26.9259  3.5294   1
  -5  -2   7 31.0929 4.48576   1
   4   2  -7 77.2261 25.4373   1
  -4  -2   7 96.2306 57.9277   1
  -4  -2   7 51.7888 106.342   1
  -4  -2   7 45.9765 30.9558   1
   3   2  -7 12.0369 8.59778   1
   3   2  -7 3.43911 14.3262   1
   3   2  -7 8.01781 25.2134   1
   3   2  -7 14.0413 5.15867   1
  -3  -2   7 -0.2849  11.172   1
  -3  -2   7 16.0458 26.9329   1
  -3  -2   7  53.001 63.6032   1
   2   2  -7 107.054 18.0174   1
  -2  -2   7  103.29 88.2243   1
  -2  -2   7 104.369  30.131   1
  -2  -2   7 105.172 22.3259   1
  -2  -2   7 143.079 41.9579   1
   1   2  -7 7258.80 395.024   1
   1   2  -7 7794.78 400.678   1
   1   2  -7 7534.25 381.934   1
  -1  -2   7 7247.74 441.064   1
  -1  -2   7 7253.39  393.48   1
  -1  -2   7 7244.14 399.144   1
  -1  -2   7 6470.27  445.44   1
   0   2  -7 197.882 28.8152   1
   0   2  -7 204.705 25.5297   1
   0   2  -7 202.936 16.4274   1
   0  -2   7 216.078 39.9374   1
   0  -2   7 201.922 21.4813   1
   0  -2   7 199.148 28.3125   1
  -1   2  -7 1111.76 77.5579   1
  -1   2  -7 1031.36 80.1386   1
  -1   2  -7 1111.24 63.3916   1
   1  -2   7 1096.55 79.8824   1
   1  -2   7 1136.49 116.982   1
   1  -2   7 1103.25 75.7551   1
  -2   2  -7  322.08 25.6405   1
  -2   2  -7 340.359 45.0041   1
  -2   2  -7 355.635 42.5437   1
   2  -2   7 405.269 49.0918   1
   2  -2   7 443.154 78.8201   1
   2  -2   7 413.425 41.1876   1
  -3   2  -7 275.956 40.3902   1
  -3   2  -7 231.723 41.2803   1
  -3   2  -7 276.836 22.1167   1
   3  -2   7 234.383 45.6995   1
   3  -2   7 368.832 79.3144   1
   3  -2   7 334.337 38.9242   1
  -4   2  -7-3.47083 6.61697   1
  -4   2  -7 7.88215 18.5969   1
   4  -2   7-11.0283 11.0283   1
   4  -2   7 9.46082 22.0678   1
   4  -2   7 13.5586 52.9582   1
  -5   2  -7 139.953 9.93001   1
   5  -2   7 117.863 14.7301   1
  -6   2  -7 18.9364 3.90684   1
   6  -2   7 13.8234  6.0097   1
  -7   2  -7 4.45957 2.35547   1
   7  -2   7 8.12778 4.19889   1
  -8   2  -7 13.2624 1.98661   1
  -8  -1   7 0.25351 0.76055   1
  -8  -1   7-0.50703 1.02311   1
  -7  -1   7 35.9594 3.27192   1
  -7  -1   7 30.0172 3.86298   1
  -7  -1   7  27.938 6.83937   1
  -6  -1   7  562.11 38.4077   1
  -6  -1   7 598.902 32.2758   1
  -6  -1   7 597.286 33.2386   1
   5   1  -7 568.817 64.0785   1
  -5  -1   7  465.75 84.8951   1
  -5  -1   7 653.065 102.131   1
  -5  -1   7 919.752  200.01   1
   4   1  -7 371.765 46.4706   1
   4   1  -7 319.368 36.7999   1
   4   1  -7 322.481  65.502   1
  -4  -1   7 386.421 75.1728   1
  -4  -1   7 310.938 54.9007   1
  -4  -1   7 429.468 171.515   1
   3   1  -7 712.256 44.1023   1
   3   1  -7 740.739 55.2636   1
   3   1  -7 716.965 85.2498   1
  -3  -1   7 558.211 62.0293   1
  -3  -1   7 830.698 85.2498   1
  -3  -1   7 923.893 74.3809   1
  -3  -1   7 767.791 146.402   1
   2   1  -7 133.722  21.451   1
  -2  -1   7 225.077 93.3236   1
  -2  -1   7 161.555  32.592   1
  -2  -1   7 128.706 29.5347   1
   1   1  -7 14.2141  10.994   1
   1   1  -7 10.7273 10.1938   1
  -1  -1   7 3.48684 13.9474   1
  -1  -1   7 3.22009 12.0706   1
  -1  -1   7    0.00 10.1938   1
  -1  -1   7-6.70693 35.6782   1
  -1  -1   7 11.2703 6.70693   1
   0   1  -7 1334.68 86.5162   1
   0   1  -7 1310.08 87.3149   1
   0   1  -7 1296.85 70.9081   1
   0  -1   7 1256.89 119.593   1
   0  -1   7 1014.31  121.97   1
   0  -1   7 1305.32 82.8138   1
   0  -1   7 1278.59 84.9281   1
  -1   1  -7 699.004 44.3206   1
  -1   1  -7 690.894 62.9682   1
  -1   1  -7 711.701 61.0679   1
   1  -1   7  776.56 57.0179   1
   1  -1   7 830.065 61.0679   1
   1  -1   7 759.266 91.6067   1
  -2   1  -7 356.953 26.5849   1
  -2   1  -7 296.078 49.4445   1
  -2   1  -7 388.674 45.1609   1
   2  -1   7 406.682  74.314   1
   2  -1   7 407.829 39.7302   1
   2  -1   7 383.243 44.2981   1
  -3   1  -7 382.976 50.0686   1
  -3   1  -7 309.564 50.0686   1
  -3   1  -7 411.534 29.7903   1
   3  -1   7 451.152 50.9849   1
   3  -1   7 428.736 78.9317   1
  -4   1  -7 75.4832 16.5209   1
  -4   1  -7 71.9167 36.6084   1
   4  -1   7 55.7179 29.4754   1
  -5   1  -7  374.27 21.5765   1
   5  -1   7  350.12 19.6545   1
   5  -1   7 318.865 24.8026   1
  -6   1  -7 100.852 8.55619   1
   6  -1   7 100.852 12.3892   1
   6  -1   7 99.0822  6.4826   1
  -7   1  -7 2.77038 2.26099   1
   7  -1   7 1.76053 1.00985   1
  -9   0   7 42.3558 2.91286   1
  -8   0   7 5.30366 1.32827   1
  -8   0   7 5.30366 1.59204   1
  -8   0   7 7.42324 4.24858   1
  -7   0   7 54.2148 4.87846   1
  -7   0   7 67.0005 5.78709   1
  -7   0   7 68.8285 10.3519   1
  -6   0   7 272.244 23.6729   1
  -6   0   7 276.518 16.7707   1
  -6   0   7 259.421 15.7897   1
   5   0  -7 199.769 73.1349   1
   5   0  -7 241.662 38.8935   1
   5   0  -7 250.635  45.541   1
  -5   0   7  330.76 71.8125   1
  -5   0   7 290.863 158.254   1
  -5   0   7 269.586 65.8261   1
   4   0  -7 383.291 73.3232   1
   4   0  -7 365.931 47.5916   1
   4   0  -7 387.471 41.4813   1
  -4   0   7  375.25 73.3232   1
  -4   0   7  375.25 159.187   1
  -4   0   7 321.868 55.3122   1
   3   0  -7 761.605 47.1625   1
   3   0  -7 762.834 58.4963   1
   3   0  -7  794.04 91.8777   1
  -3   0   7 696.072 64.9246   1
  -3   0   7 1007.20 74.7248   1
  -3   0   7 788.221 85.4495   1
  -3   0   7  864.48 160.142   1
   2   0  -7 7721.80 445.975   1
   2   0  -7 8597.09 457.104   1
   2   0  -7 7887.83 433.701   1
   2   0  -7 8082.55 488.152   1
  -2   0   7 8957.55 457.978   1
  -2   0   7 8238.65 558.433   1
   1   0  -7 965.374 65.7974   1
   1   0  -7 986.075 74.8732   1
  -1   0   7 977.855 66.6536   1
  -1   0   7 1121.91 79.4162   1
  -1   0   7 934.178 74.8732   1
  -1   0   7 944.956  126.78   1
  -1   0   7 1037.39 104.377   1
   0   0  -7 174.478 25.2486   1
   0   0  -7 169.148 29.4534   1
   0   0  -7 154.271 12.9033   1
   0   0   7 135.509 27.4905   1
   0   0   7 180.088 24.9696   1
   0   0   7 112.503  53.865   1
   0   0   7 188.498 52.7391   1
  -1   0  -7 2407.11 132.964   1
  -1   0  -7 2253.80 163.017   1
  -1   0  -7 2413.69 153.277   1
   1   0   7 2482.73 142.988   1
   1   0   7 2505.94 184.511   1
   1   0   7 2453.21 152.127   1
  -2   0  -7 565.987 59.7112   1
  -2   0  -7 482.455 62.7315   1
  -2   0  -7 599.168 38.9006   1
   2   0   7 595.848 48.2509   1
   2   0   7 547.897 79.6113   1
   2   0   7  704.11 61.5212   1
  -3   0  -7 45.1207 24.6402   1
  -3   0  -7 52.4855 27.8453   1
  -3   0  -7 46.0868 11.8428   1
   3   0   7 53.4402 26.8792   1
  -4   0  -7 34.0135 5.28969   1
   4   0   7 26.7534 3.30752   1
  -5   0  -7 185.996 13.0774   1
   5   0   7 171.627 10.5276   1
  -6   0  -7 118.367 8.80113   1
   6   0   7 109.566 6.81508   1
  -7   0  -7 9.71667  2.6102   1
   7   0   7 13.9856 1.42298   1
   9  -1  -7 0.69597 2.33646   1
  -9   1   7 1.63221 0.69597   1
  -9   1   7 0.46398 0.93624   1
  -8   1   7 13.8386 5.15576   1
  -8   1   7   12.21 1.62864   1
  -8   1   7 10.8512 2.43814   1
  -7   1   7 175.548 11.4397   1
  -7   1   7 164.427 10.5065   1
  -7   1   7 179.259 18.2355   1
  -6   1   7 63.8604 5.68782   1
  -6   1   7  98.961 14.7123   1
  -6   1   7 77.5634 5.68782   1
  -6   1   7 78.2402 6.68527   1
   5  -1  -7 305.876 43.9908   1
   5  -1  -7  270.40 87.3033   1
   5  -1  -7 259.839 35.1248   1
  -5   1   7 314.052 48.0846   1
  -5   1   7 246.879 96.8597   1
  -5   1   7  303.49 68.8931   1
   4  -1  -7 74.0748 23.6883   1
   4  -1  -7 72.7358 47.3766   1
   4  -1  -7 71.7404 34.3652   1
  -4   1   7 26.6982 46.3812   1
  -4   1   7 249.883 143.813   1
  -4   1   7 79.0756 30.6917   1
   3  -1  -7 363.338 26.6425   1
   3  -1  -7 364.934 65.4832   1
   3  -1  -7 361.731 37.5525   1
  -3   1   7 349.852 48.1548   1
  -3   1   7 430.737  145.73   1
  -3   1   7  440.37 57.1382   1
  -3   1   7 364.296 39.4792   1
   2  -1  -7 2825.45 163.171   1
   2  -1  -7 3243.90 221.901   1
   2  -1  -7 2937.62 188.518   1
   2  -1  -7 2885.73 176.158   1
  -2   1   7 3398.76 199.024   1
  -2   1   7 3393.19  297.01   1
  -2   1   7 2732.11 183.875   1
   1  -1  -7 800.797 74.2596   1
   1  -1  -7 945.398 64.3405   1
  -1   1   7 998.015  76.064   1
  -1   1   7 1246.30 151.786   1
  -1   1   7 798.395 74.8575   1
   0  -1  -7 82.0078 20.5787   1
   0  -1  -7 107.353  35.184   1
   0  -1  -7 81.7112 10.1358   1
   0   1   7  103.18 41.1575   1
   0   1   7 85.2911 33.7013   1
   0   1   7 96.6237 25.9485   1
   0   1   7 114.809 85.5876   1
   0   1   7 76.0449  17.592   1
  -1  -1  -7 37.1189 9.43372   1
  -1  -1  -7 26.1615 30.1274   1
  -1  -1  -7 18.5649 16.1227   1
   1   1   7  97.968 56.8941   1
   1   1   7 38.9451 22.2065   1
   1   1   7 23.4276 16.1227   1
   1   1   7 25.2538 12.7836   1
   1   1   7 25.2538 27.6852   1
  -2  -1  -7 285.314  24.755   1
  -2  -1  -7 303.407 55.8678   1
  -2  -1  -7 194.219 59.9937   1
   2   1   7 340.855 46.9736   1
  -3  -1  -7 38.9934  19.168   1
  -3  -1  -7 59.4878 31.0703   1
  -3  -1  -7  53.877 12.2309   1
   3   1   7 76.6721 31.0703   1
  -4  -1  -7 277.617 18.2277   1
   4   1   7 276.629 15.9096   1
  -5  -1  -7 258.077 16.7068   1
   5   1   7 248.789 14.5415   1
  -6  -1  -7 5.07966  2.6775   1
   6   1   7 6.41841 1.33875   1
  -7  -1  -7 22.5617 2.62961   1
   7   1   7 19.9321 1.75048   1
   9  -2  -7 3.34138 2.86646   1
  -9   2   7 9.07429 1.43323   1
  -9   2   7 8.35344 1.19577   1
  -8   2   7 9.30435 2.18754   1
  -8   2   7 9.85852 1.64309   1
  -8   2   7  10.403 4.92926   1
  -7   2   7 32.9317 8.07571   1
  -7   2   7 23.6093 4.03785   1
  -7   2   7 21.4359 2.79119   1
  -7   2   7 19.2625 2.79119   1
  -6   2   7 182.435 10.8127   1
  -6   2   7  165.91 11.1487   1
  -6   2   7 171.286 11.8207   1
  -6   2   7 198.648 19.9332   1
   5  -2  -7  798.11 73.2287   1
   5  -2  -7 674.316  84.387   1
   5  -2  -7 635.962 114.729   1
  -5   2   7 842.396  172.96   1
  -5   2   7 744.758 92.7588   1
  -5   2   7 837.864 89.2664   1
   4  -2  -7 128.134 26.5934   1
   4  -2  -7 148.864 61.8223   1
   4  -2  -7 110.863 45.2505   1
  -4   2   7 23.8335 58.0197   1
  -4   2   7 154.384 29.3533   1
  -4   2   7 157.487 35.2289   1
   3  -2  -7 281.963 74.4414   1
   3  -2  -7 229.314  33.535   1
   3  -2  -7 224.956 21.4595   1
  -3   2   7  402.67 156.588   1
  -3   2   7 270.566 57.6739   1
  -3   2   7 235.019 31.1889   1
  -3   2   7 213.893  40.573   1
   2  -2  -7 1431.83 113.624   1
   2  -2  -7 1364.30 91.8674   1
   2  -2  -7 1446.44 136.994   1
   2  -2  -7 1322.75 78.5623   1
  -2   2   7 1384.43 99.3385   1
  -2   2   7 1397.09 111.352   1
   1  -2  -7 329.024 53.8954   1
   1  -2  -7 297.004 29.8018   1
   1  -2  -7 237.086 44.3818   1
   1  -2  -7 258.961 19.9729   1
  -1   2   7 233.922 48.8177   1
  -1   2   7 406.687 116.347   1
  -1   2   7  297.32 40.2611   1
   0  -2  -7 954.603  64.006   1
   0  -2  -7 1081.04 79.4476   1
   0  -2  -7 888.704 53.6033   1
   0  -2  -7 1011.04 57.0634   1
   0   2   7 902.265 72.2027   1
   0   2   7 848.348 81.0265   1
  -1  -2  -7 918.296 55.7934   1
  -1  -2  -7 862.183 78.8897   1
   1   2   7 959.671 147.507   1
   1   2   7  920.22 72.4665   1
   1   2   7 750.301 77.9217   1
  -2  -2  -7-2.96614 18.1603   1
  -2  -2  -7-6.27227 16.1789   1
  -2  -2  -7   5.944 7.25708   1
   2   2   7 -4.6192 20.4699   1
   3   2   7  3.3575 1.67875   1
  -4  -2  -7 23.6992 4.86669   1
   4   2   7 20.4585  2.5948   1
  -5  -2  -7 13.1697 3.80435   1
   5   2   7 17.5562 2.33874   1
  -6  -2  -7-0.48933 1.96607   1
   6   2   7 1.47673   0.734   1
  -9   3   7 89.7731 5.55404   1
  -9   3   7 89.0532 5.30548   1
   8  -3  -7 324.259 18.5499   1
  -8   3   7 321.266 18.8211   1
  -8   3   7 347.991 23.4513   1
  -8   3   7 333.539 18.2689   1
  -7   3   7 361.127 19.1249   1
  -7   3   7 333.984 19.1249   1
  -7   3   7 308.999 19.4316   1
  -7   3   7 354.336 26.2118   1
  -6   3   7 304.456 25.3204   1
  -6   3   7 322.008  18.223   1
  -6   3   7 316.937 17.8873   1
  -6   3   7 292.971 18.5707   1
   5  -3  -7 41.5979 19.3965   1
   5  -3  -7 22.2139 34.1975   1
   5  -3  -7 34.5481  52.179   1
  -5   3   7 61.6957 33.8468   1
  -5   3   7 29.6144 93.7894   1
  -5   3   7 47.5959 39.1311   1
   4  -3  -7 29.3478 18.7364   1
   4  -3  -7-42.7848 54.0995   1
   4  -3  -7 31.1185 43.1364   1
  -4   3   7 25.8065  90.869   1
  -4   3   7  19.088  22.981   1
  -4   3   7 41.0141 32.1734   1
   3  -3  -7 981.027 143.086   1
   3  -3  -7 1249.84  94.238   1
  -3   3   7 1484.72 113.285   1
  -3   3   7 1147.68 97.0064   1
  -3   3   7 1310.47 89.3778   1
  -3   3   7 1420.63 187.738   1
   2  -3  -7  34.751 29.0111   1
   2  -3  -7 98.8606 21.5935   1
   2  -3  -7 116.404 11.4678   1
   2  -3  -7 105.272 44.8767   1
  -2   3   7 91.7785 38.4657   1
  -2   3   7 122.479 105.943   1
  -2   3   7 64.4451 22.6001   1
   1  -3  -7  7.9438 4.62997   1
   1  -3  -7 18.2026 26.1346   1
   1  -3  -7 4.30094 7.61477   1
  -1   3   7 12.9028 38.3794   1
  -1   3   7 16.2166 83.0457   1
  -1   3   7 -0.9871 14.2307   1
   0  -3  -7 7.24129 8.89076   1
   0  -3  -7-3.62649 19.1034   1
   0  -3  -7 5.27596 8.56321   1
   0   3   7 28.9886 54.6782   1
   0   3   7 1.32192 27.6666   1
  -1  -3  -7 202.888 74.8438   1
  -1  -3  -7  292.70 57.2168   1
  -1  -3  -7 328.627 27.6101   1
   1   3   7 481.647 145.033   1
   1   3   7 224.177 59.2134   1
  -2  -3  -7 136.133 72.9431   1
  -2  -3  -7 355.272 72.6088   1
  -2  -3  -7  301.49 28.5684   1
   2   3   7 236.605 36.3044   1
   2   3   7 343.167  84.368   1
  -3  -3  -7 14.9031 4.96377   1
   3   3   7 12.9152 2.31721   1
  -4  -3  -7 619.192 35.8611   1
   4   3   7 637.123 34.0055   1
  -5  -3  -7 39.0644 4.85076   1
   5   3   7 45.5225 3.50173   1
  -6  -3  -7  1.9897 1.32909   1
   6   3   7 2.65818 0.88868   1
   9  -4  -7 34.0933 2.90266   1
   9  -4  -7 33.8529 5.31581   1
  -9   4   7 29.7394 2.90266   1
   8  -4  -7 5.37181 1.87966   1
  -8   4   7 7.79532 1.87966   1
  -8   4   7 11.2875 5.10465   1
  -7   4   7 96.0125 6.63745   1
  -7   4   7  102.35 12.6851   1
  -7   4   7 92.6884 6.94842   1
  -6   4   7 2302.22 124.049   1
  -6   4   7 2389.77 123.378   1
  -6   4   7 2343.68  129.35   1
   5  -4  -7 685.648 72.4522   1
   5  -4  -7  680.75 150.163   1
  -5   4   7 802.569 178.831   1
  -5   4   7 637.699 87.8551   1
  -5   4   7 834.767  78.407   1
   4  -4  -7 1055.96 93.8047   1
  -4   4   7 1098.95 192.203   1
  -4   4   7 971.036 79.9479   1
  -4   4   7 1100.38 104.822   1
   3  -4  -7 971.344 76.6732   1
   3  -4  -7  781.81 137.869   1
   3  -4  -7 686.487 99.8951   1
  -3   4   7 1007.57 86.8788   1
  -3   4   7 1028.68 165.313   1
  -3   4   7 853.911 65.7681   1
   2  -4  -7 57.9574  40.705   1
   2  -4  -7 152.491 22.0802   1
   2  -4  -7 74.1806 30.0202   1
  -2   4   7 97.2901  108.33   1
  -2   4   7 144.563 47.9589   1
  -1   4   7 1056.09 175.205   1
  -1   4   7 668.628 86.9391   1
   0  -4  -7 561.296 44.1996   1
   0  -4  -7 551.172  76.921   1
   0   4   7 470.249 84.3376   1
   0   4   7  788.68 183.149   1
  -1  -4  -7 36.3667 64.3143   1
  -1  -4  -7 95.9692 18.5242   1
  -1  -4  -7  112.46 41.0784   1
   1   4   7 102.702  81.822   1
   1   4   7 100.011 52.8698   1
   2   4   7 277.841 16.2908   1
  -3  -4  -7 37.3792 6.01984   1
   3   4   7 44.0404 4.11824   1
  -4  -4  -7   77.33 7.13504   1
   4   4   7 83.0462 5.42222   1
  -5  -4  -7 71.5172 5.31187   1
   5   4   7 71.2769 4.59103   1
   9  -5  -7 35.0034 5.55528   1
   9  -5  -7 39.1013 3.37774   1
  -9   5   7 39.3499  3.1377   1
   8  -5  -7 291.317  15.209   1
  -8   5   7 250.152 14.9482   1
  -8   5   7 242.542 18.0962   1
  -7   5   7 11.3631 2.32851   1
  -7   5   7 7.57541 4.95713   1
  -6   5   7 13.1037 2.87283   1
  -6   5   7  15.352 6.39289   1
  -6   5   7 11.1847 2.23695   1
  -5   5   7  133.52 8.83213   1
  -5   5   7 134.533 9.16997   1
   4  -5  -7 955.375 84.3594   1
  -4   5   7 1033.80 195.869   1
  -4   5   7  891.58 99.0052   1
  -4   5   7 822.596 70.0601   1
   3  -5  -7 51.9471 51.6003   1
   3  -5  -7 181.276 24.0604   1
  -3   5   7 88.5639 38.6972   1
  -3   5   7 137.378 22.3143   1
  -3   5   7 177.784 117.156   1
  -2   5   7 1104.31 177.087   1
  -2   5   7 1169.43 106.473   1
   1  -5  -7 39.4388 38.7626   1
  -1   5   7  69.024 54.0624   1
  -1   5   7 170.314 146.199   1
   0  -5  -7-7.38506 51.3972   1
   0   5   7 24.5174 121.609   1
   0   5   7-13.4339 58.1141   1
  -1  -5  -7 999.422  54.467   1
   1   5   7 951.884 52.1575   1
   2   5   7 97.1496 6.66381   1
   3   5   7 338.905 18.7483   1
  -4  -5  -7 42.4679 4.09778   1
   4   5   7 43.4946 3.07106   1
  -5  -5  -7 2.96614 1.06149   1
   5   5   7 3.81683 0.63237   1
   9  -6  -7 57.5583 6.52803   1
   9  -6  -7   59.01 4.11438   1
  -9   6   7 55.6257 3.87387   1
   8  -6  -7 82.0772 5.86653   1
  -8   6   7 86.9207 5.86653   1
   7  -6  -7 223.064 13.3568   1
  -7   6   7 218.055 13.0703   1
  -6   6   7 46.9477 4.53986   1
  -5   6   7 321.687 18.6958   1
  -5   6   7 344.573 19.3369   1
  -4   6   7 21.3242 3.33708   1
   3  -6  -7 219.168 16.8122   1
  -3   6   7 234.296 14.1256   1
   2  -6  -7 680.655 40.4562   1
  -2   6   7 702.397 37.7845   1
   1  -6  -7 329.016 21.4507   1
   0  -6  -7 12.9375 3.24013   1
   0  -6  -7 12.6158 4.52698   1
  -1  -6  -7 232.082 16.2428   1
   9  -7  -7 123.475   7.383   1
  -9   7   7 131.348   7.383   1
   8  -7  -7 9.70523 1.98878   1
  -8   7   7 9.45774 1.98878   1
   7  -7  -7 15.6086 2.64998   1
  -7   7   7  19.311 2.64998   1
   6  -7  -7 36.3412 4.25526   1
  -6   7   7 42.3005 4.25526   1
   5  -7  -7 10.8286 2.70181   1
  -5   7   7 12.6334 2.70181   1
   4  -7  -7 9.03814 5.29898   1
  -4   7   7 5.91849 2.17933   1
   3  -7  -7 33.4894 6.31643   1
  -3   7   7   47.39 4.42038   1
   2  -7  -7 98.6706 10.4011   1
  -2   7   7 100.876 7.25503   1
   1  -7  -7-0.30891  3.4201   1
   0  -7  -7 459.986 28.3601   1
   0  -7  -7 478.693 25.9387   1
  -1  -7  -7-0.85422 2.86773   1
   8  -8  -7 95.4845 6.43124   1
  -8   8   7 101.925 6.18523   1
   7  -8  -7 58.6161 4.82159   1
  -7   8   7 56.8407 4.56925   1
   6  -8  -7 286.227 17.0416   1
  -6   8   7 310.456 17.0416   1
  -5   8   7  7.5234 2.22732   1
   4  -8  -7 254.245 17.2541   1
  -4   8   7 264.021 15.2416   1
   3  -8  -7 137.414 11.3769   1
  -3   8   7 125.747 8.46533   1
   2  -8  -7 53.2705 6.98833   1
  -2   8   7 57.3436 4.66233   1
   1  -8  -7 24.8546 4.85932   1
  -1   8   7 19.1329 2.56661   1
   0  -8  -7 37.3433 5.21772   1
   0   8   7 42.0148  3.5695   1
  -1  -8  -7 2.04993 2.30503   1
   8  -9  -7 39.1421 3.32544   1
  -8   9   7  42.722 3.07104   1
  -7   9   7-0.49658 1.00202   1
  -6   9   7    0.00 1.27144   1
  -5   9   7 286.818   16.17   1
   4  -9  -7 66.8488 6.65934   1
  -4   9   7 67.9177 5.06072   1
   3  -9  -7 72.5428 7.51957   1
  -3   9   7 81.6846 5.63968   1
   2  -9  -7 1.86711 2.67271   1
  -2   9   7 5.07057 1.60173   1
   1  -9  -7 148.213 10.1413   1
  -1   9   7 142.228 8.58043   1
   0  -9  -7 66.5044  5.4352   1
   0   9   7 65.0205 4.20591   1
  -6  10   7 5.03258 1.26038   1
  -5  10   7 84.9296 5.27407   1
   4 -10  -7 100.855 7.05617   1
  -4  10   7 96.0643 6.05327   1
   3 -10  -7 10.3031 2.51773   1
  -3  10   7 12.5708 1.75884   1
   2 -10  -7 20.2773 2.96827   1
  -2  10   7 17.5549 1.97592   1
   1 -10  -7 9.53272 1.90485   1
  -1  10   7 8.33901 1.19371   1
   0 -11   8 74.5825 4.34414   1
   0 -11   8   61.29 4.34414   1
   1 -11   8 1.15145 1.15145   1
   1 -11   8 6.02216 1.43676   1
   2 -11   8 54.5224 4.10193   1
   2 -11   8 51.8884 3.81043   1
   3 -11   8 74.8469 5.28515   1
   3 -11   8 76.0249 4.99327   1
   4 -11   8 24.1292 2.61219   1
   4 -11   8 28.7857 2.61219   1
  -2 -10   8 238.691 12.8083   1
  -1 -10   8  153.93 8.87293   1
   0 -10   8 106.183 6.92286   1
   0 -10   8 105.285 6.61305   1
   1 -10   8 251.213 14.9441   1
   1 -10   8  259.14 14.6409   1
   2 -10   8 131.555  8.2006   1
   2 -10   8 138.234 8.81564   1
   3 -10   8 5.70673 2.10136   1
   3 -10   8 4.50138 2.10136   1
   4 -10   8 156.624 9.73401   1
   4 -10   8 163.707 9.73401   1
   5 -10   8 1.15536 1.44164   1
  -6  10  -8 24.1243 2.52104   1
   6 -10   8 26.9343 2.52104   1
  -3  -9   8 27.0001 2.35552   1
  -2  -9   8 8.83847 1.76769   1
  -1  -9   8 24.0097 3.08321   1
  -1  -9   8 19.7019 3.08321   1
   0  -9   8  156.60 10.1928   1
   0  -9   8 159.683 9.88556   1
   1  -9   8 357.619 20.7899   1
   1  -9   8 386.964 21.3979   1
   2  -9   8 387.417 22.0746   1
   2  -9   8 392.251 21.7738   1
   3  -9   8 108.561  7.7962   1
   3  -9   8 122.055  7.7962   1
   4  -9   8 239.018 13.3291   1
   4  -9   8  212.36 13.9182   1
   4  -9   8 237.829 13.6236   1
   5  -9   8 48.5947 4.33551   1
   5  -9   8 53.5158 4.92111   1
  -6   9  -8 30.6836 3.34874   1
   6  -9   8 31.2483 3.34874   1
  -3  -8   8 101.247 6.52765   1
  -2  -8   8  398.73  22.031   1
  -1  -8   8 557.457 30.1988   1
  -1  -8   8 556.221 30.5162   1
   0  -8   8 0.59896 1.80756   1
   0  -8   8 0.59896 1.80756   1
   1  -8   8 237.232 14.2051   1
   1  -8   8 230.129 13.6062   1
   2  -8   8 64.1646 5.30001   1
   2  -8   8 68.2833 5.88541   1
   3  -8   8 197.358 11.8167   1
   3  -8   8 190.558 12.1106   1
   3  -8   8 201.493 12.7087   1
   4  -8   8-0.29417 1.77554   1
   4  -8   8-1.48137 2.36388   1
   4  -8   8  1.1872 2.06971   1
   5  -8   8 373.899 21.2549   1
   5  -8   8 371.862 20.6756   1
  -6   8  -8 7.55643  2.2371   1
   6  -8   8 6.15451 4.76254   1
   6  -8   8 4.48415 1.95871   1
  -7   8  -8 1.59236 1.59236   1
   7  -8   8-0.26382 1.32854   1
   7  -8   8 0.26382 3.18473   1
  -5  -7   8 82.7821  4.7807   1
  -4  -7   8 37.3287 3.23599   1
  -3  -7   8 139.868 8.69832   1
  -2  -7   8 577.527  31.354   1
  -1  -7   8 529.668 27.8518   1
  -1  -7   8 488.779 28.1464   1
   0  -7   8 295.499 17.4895   1
   0  -7   8 324.737 18.0596   1
   1  -7   8 341.551 20.0582   1
   1  -7   8 356.241 19.4963   1
   2  -7   8 475.787  25.597   1
   2  -7   8 454.736 25.8799   1
   3  -7   8 0.86579 2.31909   1
   3  -7   8 4.93709 2.60769   1
   3  -7   8  1.4533 2.03049   1
   4  -7   8 167.123 10.6353   1
   4  -7   8 142.937 9.74377   1
   4  -7   8 149.397 9.45009   1
   5  -7   8 131.658 9.40415   1
   5  -7   8 136.073 15.8649   1
  -6   7  -8 3.39101 1.69551   1
   6  -7   8 1.97642 1.97642   1
   6  -7   8 7.62476 5.36743   1
  -7   7  -8 12.4055 2.37232   1
   7  -7   8 12.9399 4.22892   1
   7  -7   8 15.3123 2.10977   1
  -6  -6   8 4.00413 0.94461   1
  -5  -6   8 4.55838 1.70813   1
  -4  -6   8 147.017 9.28885   1
  -2  -6   8 1264.70 66.8297   1
  -1  -6   8 25.6033  3.3778   1
  -1  -6   8 32.0791  3.3778   1
   0   6  -8 59.0866 25.0465   1
   0   6  -8 42.4728  10.889   1
  -1   6  -8 212.928 20.8344   1
  -1   6  -8 212.111 41.1306   1
   1  -6   8  286.79 68.9995   1
   1  -6   8 247.014 28.1379   1
  -2   6  -8 193.501 40.0337   1
  -2   6  -8 211.719 28.4344   1
  -2   6  -8 266.382 69.2918   1
   2  -6   8 220.837 13.2563   1
   2  -6   8  60.732 72.3313   1
   2  -6   8 203.718 37.8178   1
   3  -6   8 122.542 15.1716   1
   3  -6   8 127.413 8.01287   1
   3  -6   8 123.976 8.59248   1
   4  -6   8 210.962 12.7273   1
   4  -6   8  223.69 20.4204   1
   4  -6   8 215.996 13.6101   1
  -5   6  -8 17.8399 3.27434   1
   5  -6   8 17.8399 8.02742   1
   5  -6   8 18.4419 3.57009   1
  -6   6  -8 78.5783  6.2818   1
   6  -6   8 80.0092  6.2818   1
   6  -6   8 92.5829 12.5737   1
  -7   6  -8 11.3437 2.64155   1
   7  -6   8 12.3928 1.84534   1
   7  -6   8 9.22668 3.95295   1
  -6  -5   8-1.07387 1.07387   1
  -5  -5   8 170.062 10.6255   1
  -4  -5   8 294.456   17.18   1
   1   5  -8 939.431  81.296   1
   1   5  -8 945.598 58.1492   1
   0   5  -8  398.89 47.6474   1
   0   5  -8 408.838 29.5832   1
   0  -5   8 406.746 41.3626   1
   0  -5   8 463.291  93.454   1
  -1   5  -8 701.741 59.6052   1
  -1   5  -8  696.23 44.6386   1
  -1   5  -8 688.621 65.8996   1
   1  -5   8  672.34 58.2904   1
   1  -5   8 703.317 106.333   1
  -2   5  -8 244.362 40.4123   1
  -2   5  -8 249.785 22.5133   1
  -2   5  -8 241.106 33.0908   1
   2  -5   8 241.106 34.9886   1
   2  -5   8 367.236 81.9131   1
  -3   5  -8 1051.89 64.7557   1
  -3   5  -8 989.156 84.7234   1
  -3   5  -8 1087.82 86.4254   1
   3  -5   8 1136.88 77.2976   1
   3  -5   8 1125.48 114.954   1
   4  -5   8 304.369 19.0993   1
   4  -5   8 345.249 18.5057   1
   4  -5   8 311.534 25.3632   1
  -5   5  -8 5.13353 2.41136   1
   5  -5   8 5.13353 6.63393   1
   5  -5   8 5.73369 2.71145   1
  -6   5  -8 190.082 11.8416   1
   6  -5   8 181.709 17.0442   1
   6  -5   8 184.592 11.5543   1
  -7   5  -8 264.967 14.7386   1
   7  -5   8 249.444 13.9442   1
   7  -5   8 231.808 17.3648   1
  -8   5  -8 1.41437 1.18004   1
   8  -5   8-0.46867 2.11738   1
  -7  -4   8 0.24209 0.97701   1
  -7  -4   8 0.72627 0.72627   1
  -6  -4   8-1.16218 1.16218   1
  -6  -4   8-0.28797 0.86392   1
  -5  -4   8 314.252  17.808   1
  -5  -4   8 297.698 16.8649   1
  -4  -4   8 53.2863 5.27032   1
   1   4  -8 225.312 19.4158   1
   1   4  -8  241.84  30.428   1
   1   4  -8 210.359 33.8378   1
  -1  -4   8 241.048 31.4807   1
  -1  -4   8  241.84 25.9746   1
  -1  -4   8 270.172 70.8247   1
   0   4  -8 448.164 30.5517   1
   0   4  -8 477.685 44.1545   1
   0   4  -8 412.479 46.9808   1
   0  -4   8 457.664 43.1243   1
   0  -4   8 367.067 81.1247   1
   0  -4   8 438.409 44.6651   1
  -1   4  -8 58.9469 11.1678   1
  -1   4  -8 49.0794   21.81   1
  -1   4  -8 64.3971 21.2936   1
   1  -4   8 58.1631 21.5518   1
   1  -4   8 62.8386 57.9048   1
   1  -4   8 73.7482 25.9691   1
  -2   4  -8 1880.57 132.775   1
  -2   4  -8 1854.83 126.539   1
  -2   4  -8 1802.27 106.493   1
   2  -4   8 1938.83 118.955   1
   2  -4   8 1869.74 165.263   1
   2  -4   8 1985.98 131.418   1
  -3   4  -8 33.9575 18.7062   1
  -3   4  -8  44.895 30.2162   1
  -3   4  -8 39.4262 10.9375   1
   3  -4   8 38.2814   48.35   1
   3  -4   8 36.5538 28.7851   1
   3  -4   8 20.4338 20.1475   1
  -4   4  -8 5.45917 2.42271   1
   4  -4   8 6.36365 6.06216   1
   4  -4   8 2.42271 2.42271   1
  -5   4  -8 661.266 35.8683   1
   5  -4   8 620.498 35.2585   1
   5  -4   8 648.395 41.0841   1
  -6   4  -8 3.78393 2.61567   1
   6  -4   8-0.28948 2.03671   1
   6  -4   8 2.03671 5.24168   1
  -7   4  -8 67.3503 5.47963   1
   7  -4   8 60.3038 8.35389   1
  -8   4  -8 44.9218 3.43486   1
   8  -4   8 46.7532 5.03834   1
  -7  -3   8 0.79285 1.33085   1
  -7  -3   8 0.52856 0.79285   1
  -6  -3   8 15.4594 2.72369   1
  -6  -3   8 13.3386 2.12082   1
  -5  -3   8 104.966 7.59064   1
  -5  -3   8 100.228  6.9506   1
  -4  -3   8 26.7861 3.08313   1
  -4  -3   8 24.9384 3.69539   1
   3   3  -8-11.0299 17.4108   1
  -3  -3   8 -12.772 26.6986   1
  -3  -3   8  156.12 79.5288   1
   2   3  -8 822.765 63.6794   1
  -2  -3   8 902.022 75.1515   1
   1   3  -8 1375.91 94.7572   1
   1   3  -8 1356.28 88.9935   1
   1   3  -8 1248.70  74.073   1
  -1  -3   8 1303.14 87.6828   1
  -1  -3   8 1335.07 90.8249   1
  -1  -3   8 1175.16 131.375   1
   0   3  -8 595.563   37.63   1
   0   3  -8 584.488 50.5182   1
   0   3  -8 592.735 55.4153   1
   0  -3   8 558.968 53.6121   1
   0  -3   8 666.164 97.1644   1
   0  -3   8 565.924 52.0651   1
  -1   3  -8 173.429  23.094   1
  -1   3  -8 178.676 17.3159   1
  -1   3  -8 215.414 33.5879   1
   1  -3   8 198.089 45.9178   1
   1  -3   8 180.251  34.641   1
   1  -3   8  204.92 23.6159   1
  -2   3  -8 1098.68  88.759   1
  -2   3  -8 1123.77 91.2457   1
  -2   3  -8 1179.45 68.3658   1
   2  -3   8 1045.48 92.3422   1
   2  -3   8 1244.76 84.3534   1
   2  -3   8 1243.93 136.173   1
  -3   3  -8 98.8569 14.4195   1
  -3   3  -8 81.1983 27.3656   1
  -3   3  -8 111.207 37.6578   1
   3  -3   8 97.9688 24.7116   1
   3  -3   8 94.7296  55.306   1
   3  -3   8 109.734 43.5405   1
  -4   3  -8 102.877 7.43953   1
   4  -3   8 17.6634 56.0826   1
   4  -3   8 94.5128 13.0192   1
   4  -3   8 94.2047 7.43953   1
   4  -3   8 40.9064 27.8872   1
  -5   3  -8 52.2539   5.601   1
   5  -3   8 51.0166 9.64433   1
   5  -3   8 56.2973 6.52898   1
  -6   3  -8 0.57905 2.32655   1
   6  -3   8-0.86858 4.66344   1
  -7   3  -8 3.33402  2.0496   1
   7  -3   8 3.58908 3.58908   1
  -8  -2   8 2.83669 0.70498   1
  -8  -2   8 3.07168 0.94836   1
  -7  -2   8-0.55922 1.40802   1
  -7  -2   8 1.96724 1.12842   1
  -6  -2   8 197.881 12.1538   1
  -6  -2   8 192.889  11.224   1
  -6  -2   8 165.781 16.8249   1
  -5  -2   8 35.1363  4.7877   1
  -5  -2   8  42.488 4.15237   1
  -5  -2   8  38.971 9.90442   1
   4   2  -8 99.3392 31.2592   1
  -4  -2   8 215.363 60.6609   1
  -4  -2   8 60.3531 76.1366   1
   3   2  -8 139.678 22.8377   1
   3   2  -8 132.066 46.8506   1
   3   2  -8  128.55 14.0604   1
  -3  -2   8 208.462 123.569   1
  -3  -2   8 223.396 64.7172   1
   2   2  -8 38.8677 16.6533   1
  -2  -2   8 33.8687 24.7089   1
  -2  -2   8 36.9253 18.5957   1
  -2  -2   8 43.5906  55.521   1
  -2  -2   8 43.8666 26.3752   1
   1   2  -8 1240.84 85.9233   1
   1   2  -8 1268.41 70.6647   1
   1   2  -8 1298.39  88.338   1
  -1  -2   8 1222.91 84.0504   1
  -1  -2   8 1236.30 91.2757   1
  -1  -2   8 1190.81  129.56   1
   0   2  -8 176.414 15.8914   1
   0   2  -8 182.501 26.7585   1
   0   2  -8 176.141 28.8754   1
   0  -2   8 164.484 22.7786   1
   0  -2   8  207.67 29.4023   1
   0  -2   8 178.267 51.9268   1
  -1   2  -8 1601.40 115.098   1
  -1   2  -8 1812.34 120.243   1
  -1   2  -8 1675.61  97.218   1
   1  -2   8 1784.44 112.386   1
   1  -2   8 1779.84 161.649   1
   1  -2   8 1884.37 120.243   1
  -2   2  -8 311.641 50.7587   1
  -2   2  -8 339.016 45.9076   1
  -2   2  -8 331.319 26.5237   1
   2  -2   8  422.00 52.4702   1
   2  -2   8 417.726 43.0618   1
   2  -2   8 413.736 82.1233   1
  -3   2  -8 20.6653 8.20139   1
  -3   2  -8   17.32 26.4387   1
  -3   2  -8 19.4459 17.9244   1
   3  -2   8-2.12589 42.2372   1
   3  -2   8 12.4532 30.0862   1
   3  -2   8 1.21942 18.8416   1
  -4   2  -8 127.289 9.21043   1
   4  -2   8  122.52 14.9148   1
  -5   2  -8  7.2203 3.45416   1
   5  -2   8 4.70211 5.64922   1
  -6   2  -8 33.3891 4.61068   1
   6  -2   8 22.4502 6.32819   1
  -7   2  -8  54.965 4.97273   1
   7  -2   8 55.7069 6.71274   1
  -8  -1   8 38.6263 2.76156   1
  -8  -1   8 40.3812 3.26043   1
  -7  -1   8 50.7051 4.66789   1
  -7  -1   8 43.1288 3.78813   1
  -7  -1   8 46.6272 8.15587   1
  -6  -1   8 8.27052 2.54217   1
  -6  -1   8 8.27052 6.67743   1
  -6  -1   8 6.99379 1.90945   1
  -5  -1   8 80.8136 6.81227   1
  -5  -1   8 77.5631 6.16678   1
  -5  -1   8 92.8244 13.6361   1
   4   1  -8-2.83654 34.4085   1
   4   1  -8 9.15991  5.6843   1
   4   1  -8-2.20869 11.3686   1
   4   1  -8 4.41739 19.5755   1
  -4  -1   8 -5.6843 12.6243   1
  -4  -1   8-16.7278 104.806   1
  -4  -1   8 20.5173 46.7189   1
   3   1  -8 258.397 58.7373   1
   3   1  -8 327.971 34.3374   1
   3   1  -8 291.825 23.1911   1
  -3  -1   8 373.444 56.3198   1
  -3  -1   8 312.909 91.5665   1
  -3  -1   8 305.079 49.0993   1
   2   1  -8  449.30 45.2276   1
  -2  -1   8 464.849  52.133   1
  -2  -1   8 413.606 57.6062   1
  -2  -1   8 411.878 108.307   1
   1   1  -8 797.086 65.1316   1
   1   1  -8 832.307 61.2104   1
  -1  -1   8 794.574   95.31   1
  -1  -1   8 951.104 67.6432   1
  -1  -1   8 721.342 107.054   1
  -1  -1   8  782.83 58.4209   1
   0   1  -8 338.107 41.0852   1
   0   1  -8 398.902 40.5331   1
   0   1  -8 355.598 24.9844   1
   0  -1   8 377.526 37.4766   1
   0  -1   8 444.681 72.7347   1
   0  -1   8 373.642 36.6484   1
  -1   1  -8 584.628 37.7873   1
  -1   1  -8 503.091 57.6748   1
  -1   1  -8 510.476 54.2644   1
   1  -1   8 678.385 57.9573   1
   1  -1   8 632.354 90.6289   1
   1  -1   8 630.367 51.7116   1
  -2   1  -8 901.671 57.8851   1
  -2   1  -8 759.332  88.322   1
  -2   1  -8 879.892 79.9709   1
   2  -1   8 914.801 112.199   1
   2  -1   8 1183.93 84.4432   1
   2  -1   8 968.511 70.4223   1
  -3   1  -8 739.476 47.6041   1
  -3   1  -8 754.288 75.6605   1
  -3   1  -8  591.95 68.0922   1
   3  -1   8 798.074 73.7684   1
  -4   1  -8 90.0553 7.77688   1
   4  -1   8 71.2574 5.83266   1
   4  -1   8 93.6101 12.6317   1
  -5   1  -8 9.38862 3.75545   1
   5  -1   8  8.1331 1.87772   1
   5  -1   8 11.2663 5.94428   1
  -6   1  -8 73.9625 6.72658   1
   6  -1   8 78.1716  9.8013   1
   6  -1   8  72.848 5.04493   1
  -7   1  -8-1.66067 1.66067   1
   7  -1   8 0.23603  0.7081   1
  -8   0   8 1.56261 3.38412   1
  -8   0   8 0.25889 0.77668   1
  -8   0   8  3.9019 1.30372   1
  -7   0   8 144.575 14.9064   1
  -7   0   8 141.293 9.53884   1
  -7   0   8 141.293 8.64954   1
  -6   0   8 192.029 12.9522   1
  -6   0   8 195.595 12.3081   1
  -6   0   8 233.808 20.4061   1
   5   0  -8 4.97335 16.5935   1
   5   0  -8-3.32342 47.4472   1
   5   0  -8 11.6084 22.5686   1
  -5   0   8 56.4157 56.4157   1
  -5   0   8 136.378 136.048   1
   4   0  -8 473.402 34.8667   1
   4   0  -8 450.918 83.7356   1
   4   0  -8 542.441 51.1602   1
   4   0  -8  501.06 57.6753   1
  -4   0   8 518.013 56.6916   1
  -4   0   8 546.677 90.5863   1
  -4   0   8 684.176 186.345   1
   3   0  -8  170.24 56.8584   1
   3   0  -8  165.22 16.0221   1
   3   0  -8 168.667 25.1377   1
  -3   0   8 180.293 49.3271   1
  -3   0   8 211.713 38.9507   1
  -3   0   8 184.377 127.552   1
   2   0  -8 599.606 59.9972   1
   2   0  -8 523.552 35.4495   1
   2   0  -8 572.034 77.5712   1
   2   0  -8 521.733 46.9646   1
  -2   0   8 543.548  55.757   1
  -2   0   8 574.456 65.7548   1
  -2   0   8 565.674 117.573   1
   1   0  -8 334.254 45.2222   1
  -1   0   8 417.308   72.41   1
  -1   0   8  249.73 97.5405   1
  -1   0   8 413.172 36.9503   1
  -1   0   8  301.45 39.0183   1
  -1   0   8 419.082  49.652   1
   0   0  -8  1.1805  4.4086   1
   0   0  -8 2.94603 16.1823   1
   0   0  -8-4.71156 8.53514   1
   0   0   8 6.46665 12.9437   1
   0   0   8 0.58503 71.4779   1
   0   0   8-0.58503 12.0558   1
   0   0   8 3.53106 30.8811   1
  -1   0  -8 958.317 99.4789   1
  -1   0  -8 1122.08 90.1608   1
  -1   0  -8 1146.73 69.4218   1
   1   0   8 1440.02 94.9746   1
   1   0   8 1247.11 81.4404   1
   1   0   8 1222.46 122.022   1
  -2   0  -8 2.81534 5.01864   1
  -2   0  -8 12.5299 23.1904   1
  -2   0  -8-2.50376 13.4758   1
   2   0   8-3.44962 18.4833   1
   2   0   8-11.9068 19.1176   1
   2   0   8-26.9404 40.7278   1
  -3   0  -8 89.9371 16.6194   1
  -3   0  -8  87.333 36.5026   1
  -3   0  -8 125.456 38.1228   1
   3   0   8  133.28 40.4028   1
  -4   0  -8 319.268 19.2796   1
   4   0   8 298.027  17.318   1
  -5   0  -8 257.245 16.8694   1
   5   0   8 266.132 15.0289   1
  -6   0  -8 68.4963 6.15782   1
   6   0   8 67.9641 4.55185   1
  -7   0  -8 41.6313 3.56614   1
   7   0   8 32.5064 2.22983   1
   9  -1  -8 88.9042  7.1599   1
  -9   1   8 85.6728 4.84708   1
  -9   1   8 84.5164 5.07672   1
  -8   1   8 71.2121 9.29551   1
  -8   1   8 68.8245 4.52035   1
  -8   1   8 60.5859 5.04883   1
  -7   1   8  6.9474  1.8119   1
  -7   1   8 5.73589  1.8119   1
  -7   1   8  5.4357 2.41229   1
  -7   1   8 8.44838  5.4357   1
  -6   1   8 2.29995 2.29995   1
  -6   1   8 0.98069 1.64616   1
  -6   1   8 7.56531 6.57295   1
  -6   1   8  0.3269 1.64616   1
   5  -1  -8 13.5976 54.4023   1
   5  -1  -8 71.0671 32.9795   1
   5  -1  -8 97.9241  29.236   1
  -5   1   8 21.7609 148.933   1
  -5   1   8  75.487 66.9855   1
  -5   1   8 112.548 23.1255   1
   4  -1  -8 317.626 53.0617   1
   4  -1  -8 328.788 75.3618   1
   4  -1  -8 351.424 41.5636   1
  -4   1   8 362.574 45.2843   1
  -4   1   8 309.861 62.5195   1
  -4   1   8 421.721 132.816   1
   3  -1  -8 172.851 26.3504   1
   3  -1  -8 226.534 51.0401   1
   3  -1  -8 212.043 18.1167   1
  -3   1   8 266.709 160.044   1
  -3   1   8 148.196 54.0108   1
  -3   1   8 252.885 42.4788   1
   2  -1  -8 186.802  38.074   1
   2  -1  -8 256.542 21.7582   1
   2  -1  -8 351.233 85.4193   1
   2  -1  -8 233.511  33.586   1
  -2   1   8 328.202  124.13   1
  -2   1   8 267.415 41.9143   1
  -2   1   8 240.226 48.3111   1
   1  -1  -8 527.135 57.9513   1
  -1   1   8 473.567 59.8314   1
   0  -1  -8 227.102 18.4053   1
   0  -1  -8 230.227 33.3866   1
   0  -1  -8  175.31 35.8798   1
   0   1   8 148.827 33.6968   1
   0   1   8  240.21 28.0788   1
   0   1   8 259.868  59.903   1
   0   1   8 245.518 38.0627   1
   0   1   8 364.693 82.6852   1
  -1  -1  -8  41.905 9.84208   1
  -1  -1  -8  40.631 19.9998   1
  -1  -1  -8 25.7157 34.5995   1
   1   1   8 18.0946 15.8736   1
   1   1   8 1.90528 38.0944   1
   1   1   8 58.4099 25.7157   1
  -2  -1  -8 584.435 41.8424   1
  -2  -1  -8 558.277 67.0128   1
   2   1   8 616.142 66.3626   1
  -3  -1  -8-0.66138 32.5845   1
   3   1   8 0.99206 1.66525   1
   3   1   8 8.97581  23.278   1
  -4  -1  -8 3.88374 3.56201   1
   4   1   8 0.32173 1.29841   1
  -5  -1  -8  0.2924 2.94488   1
   5   1   8 -0.2924 1.18004   1
  -6  -1  -8 5.00374 2.50631   1
   6   1   8 5.50145 1.25316   1
  -9   2   8 7.08568 0.94755   1
  -9   2   8 7.32047 1.18234   1
   8  -2  -8 71.4345 5.34951   1
  -8   2   8 84.0054 10.1669   1
  -8   2   8 81.3354 5.61556   1
  -8   2   8 73.5724 5.08346   1
  -7   2   8 540.989 29.6507   1
  -7   2   8  517.99 30.2633   1
  -7   2   8 540.677 29.3498   1
  -7   2   8 568.823 36.3138   1
  -6   2   8 2.97664 6.29447   1
  -6   2   8 0.32943 1.65892   1
  -6   2   8-1.98835 1.98835   1
  -6   2   8 0.65886 1.65892   1
   5  -2  -8 46.7972  45.763   1
   5  -2  -8 12.8289 16.9903   1
   5  -2  -8-7.27627 52.0051   1
  -5   2   8 14.9096 14.2078   1
  -5   2   8 55.8094 41.2568   1
  -5   2   8 39.8656 14.5649   1
   4  -2  -8 0.69403 10.8194   1
   4  -2  -8 20.2384 28.6163   1
   4  -2  -8-35.5938 35.5938   1
  -4   2   8-92.8265 92.8265   1
  -4   2   8 34.5528 13.6079   1
  -4   2   8 13.6079 49.2017   1
   3  -2  -8 35.7129  53.923   1
   3  -2  -8 18.8932 9.61126   1
   3  -2  -8  43.275 19.5762   1
  -3   2   8  21.979 18.8932   1
  -3   2   8 37.7742 38.4694   1
  -3   2   8-8.24519 105.773   1
   2  -2  -8 400.053 92.6344   1
   2  -2  -8  234.25 48.6715   1
   2  -2  -8 337.959 40.6132   1
   2  -2  -8 360.441 27.1907   1
  -2   2   8 335.277 44.6424   1
  -2   2   8 411.795 155.062   1
  -2   2   8 338.293 61.7603   1
   1  -2  -8 180.943 30.6625   1
   1  -2  -8 182.593 18.4631   1
   1  -2  -8 134.826 67.5769   1
   1  -2  -8 136.149 46.4796   1
  -1   2   8 58.0234 71.2063   1
  -1   2   8 131.864 34.2802   1
  -1   2   8 198.422  35.931   1
   0  -2  -8 2358.96 174.557   1
   0  -2  -8 2291.02 137.168   1
   0  -2  -8 2572.89 156.538   1
   0  -2  -8 2339.26 125.688   1
   0  -2  -8 2415.08 129.627   1
   0   2   8 2503.65 258.893   1
   0   2   8 1924.82 158.182   1
   0   2   8 2299.89 150.629   1
  -1  -2  -8 39.4463 23.8608   1
  -1  -2  -8 36.4564 35.7972   1
  -1  -2  -8 61.6474 13.5843   1
   1   2   8 63.6368 26.1798   1
   1   2   8 56.3502 19.2229   1
  -2  -2  -8-0.33363  7.0419   1
  -2  -2  -8-11.0692 17.7775   1
  -2  -2  -8 2.68093 21.8049   1
   2   2   8-0.66725 23.4849   1
   3   2   8 109.891 7.64049   1
  -4  -2  -8 49.0333 6.55478   1
   4   2   8 41.2252 3.74876   1
  -5  -2  -8 72.9038 6.60453   1
   5   2   8 67.9504 4.67983   1
  -6  -2  -8 1.83159 1.60366   1
   6   2   8 0.22793 0.68379   1
  -9   3   8    0.00 0.71175   1
  -9   3   8 0.23725 0.95748   1
   8  -3  -8 5.32229 1.59763   1
  -8   3   8 5.05759 1.86233   1
  -8   3   8 3.72466  4.2635   1
  -8   3   8 3.98935 1.33294   1
  -7   3   8-1.20262  1.7986   1
  -7   3   8 0.89398 1.50061   1
  -7   3   8    0.00 1.50061   1
  -7   3   8 3.00122 5.09781   1
  -6   3   8 613.098 34.6087   1
  -6   3   8 617.056 33.9531   1
  -6   3   8 638.481 34.2809   1
  -6   3   8 629.255 40.8724   1
   5  -3  -8 89.2844 46.7355   1
   5  -3  -8 122.419 31.7351   1
  -5   3   8 122.766 115.099   1
  -5   3   8  142.30 54.0562   1
  -5   3   8 207.839 43.6017   1
   4  -3  -8 143.556 36.9523   1
   4  -3  -8 61.8269 73.5512   1
   4  -3  -8 85.6415 47.9698   1
  -4   3   8 144.982 34.1127   1
   3  -3  -8 518.911 55.4293   1
   3  -3  -8 495.253 101.317   1
  -3   3   8  627.25 179.653   1
  -3   3   8 485.009 58.6013   1
  -3   3   8 492.432 78.3733   1
   2  -3  -8 35.3979 31.5771   1
   2  -3  -8  55.525  11.105   1
   2  -3  -8 74.6167 21.8649   1
   2  -3  -8-48.2408 48.2408   1
  -2   3   8 47.8957 20.8172   1
  -2   3   8 64.2019 45.1102   1
  -2   3   8 36.4333 106.194   1
   1  -3  -8 314.652 21.5277   1
   1  -3  -8 164.346 54.3289   1
   1  -3  -8 324.566 30.0708   1
  -1   3   8 331.058 47.8366   1
  -1   3   8 455.431 127.443   1
  -1   3   8 296.206 55.7002   1
   0  -3  -8 173.321 37.6522   1
   0   3   8 280.193 64.1232   1
   0   3   8 124.511 125.523   1
  -1  -3  -8  63.361 33.5518   1
  -1  -3  -8 37.9564 51.1702   1
  -1  -3  -8  52.518 13.5507   1
   1   3   8  31.855 25.0796   1
   1   3   8 82.0022 70.1363   1
  -2  -3  -8 87.2606 8.05739   1
   2   3   8 94.3048 6.71052   1
   3   3   8 319.421  18.036   1
  -4  -3  -8 18.4569 4.09922   1
   4   3   8 16.9899 2.34092   1
  -5  -3  -8 1.00785 2.00678   1
   5   3   8 3.76383 1.25758   1
  -6  -3  -8 1.03146 1.03146   1
   6   3   8-0.40966 0.40966   1
   9  -4  -8 29.4373 2.63516   1
  -9   4   8 27.7627 2.63516   1
   8  -4  -8 172.159 10.2201   1
  -8   4   8 164.294 13.8874   1
  -8   4   8 164.564 10.2201   1
  -7   4   8 455.679 25.4691   1
  -7   4   8  434.93 30.1471   1
  -7   4   8 465.638 24.8766   1
  -6   4   8 204.405 18.3803   1
  -6   4   8  195.37 11.9329   1
  -6   4   8 205.688 12.5742   1
  -5   4   8 1.02594 5.50831   1
  -5   4   8 5.15412 2.40607   1
  -5   4   8 3.09003 1.72211   1
   4  -4  -8 597.527  65.495   1
   4  -4  -8 495.242 108.333   1
  -4   4   8 538.055 71.5177   1
  -4   4   8 608.856 154.703   1
   3  -4  -8 1963.04 129.886   1
  -3   4   8 1646.16 151.892   1
  -3   4   8 1962.69 268.619   1
   2  -4  -8 15.4421 33.3395   1
  -2   4   8 71.5896 96.1549   1
  -2   4   8-0.34897 30.1738   1
  -1   4   8 811.709 106.917   1
  -1   4   8 1087.46 232.489   1
   0  -4  -8 115.172 24.6025   1
   0   4   8 159.934 40.3204   1
   0   4   8 91.9286 78.6017   1
  -1  -4  -8 184.969 69.6249   1
  -1  -4  -8 165.162 30.2727   1
  -1  -4  -8 285.548 18.1589   1
   1   4   8 308.426 16.4863   1
  -2  -4  -8 40.3085 5.53072   1
   2   4   8 31.2099 3.90268   1
   3   4   8-0.30083 1.51492   1
  -4  -4  -8 659.131 36.3363   1
   4   4   8 671.392 35.5392   1
  -5  -4  -8  24.005 2.69289   1
   5   4   8 28.9366 2.01568   1
   9  -5  -8 2.15425 1.20059   1
   9  -5  -8 2.40118  2.6396   1
  -9   5   8 2.87801 1.20059   1
   8  -5  -8 23.0503 2.81989   1
  -8   5   8 25.8702 2.81989   1
  -8   5   8 18.1837 4.86658   1
  -7   5   8 135.445 12.6977   1
  -7   5   8 128.961 8.74909   1
  -6   5   8 77.0748 15.4787   1
  -6   5   8 127.535 8.35499   1
  -6   5   8 116.079 7.43155   1
  -5   5   8 61.2715  5.6343   1
  -5   5   8   53.32 4.96383   1
   4  -5  -8 1573.62 125.024   1
  -4   5   8 1734.36 90.3308   1
  -4   5   8 1731.96 90.3308   1
  -3   5   8 731.371 133.929   1
  -3   5   8 595.692  68.702   1
  -2   5   8 697.594 191.022   1
  -2   5   8 405.181 86.5578   1
   1  -5  -8 737.845 38.7679   1
  -1   5   8 443.403  227.80   1
  -1   5   8 506.651 99.2989   1
   0  -5  -8 31.0046 5.33908   1
  -1  -5  -8 237.815 16.1378   1
   1   5   8 232.004 13.8799   1
  -2  -5  -8 266.047 16.7482   1
   2   5   8 249.309 14.6182   1
   3   5   8  8.2739 1.38062   1
   4   5   8  5.2314   0.955   1
   9  -6  -8  3.1431 2.42174   1
   9  -6  -8 1.21087 1.21087   1
  -9   6   8 1.45132 0.97041   1
   8  -6  -8 157.141 9.74367   1
  -8   6   8 171.384 9.74367   1
   7  -6  -8 6.74117 2.15449   1
  -7   6   8 8.35944 2.15449   1
  -6   6   8  174.31  10.534   1
  -6   6   8 184.542 11.1158   1
  -5   6   8 16.2286 2.80454   1
  -5   6   8 15.9183 2.49416   1
  -4   6   8 272.674 16.2343   1
   3  -6  -8 196.414 15.1592   1
  -3   6   8 207.617 12.5254   1
   2  -6  -8 0.65368 3.94543   1
  -2   6   8 0.98052 1.64587   1
   1  -6  -8 350.072 22.3284   1
   0  -6  -8 1080.63 60.0587   1
  -1  -6  -8 2.69175  3.2982   1
   3   6   8 246.691 13.7355   1
   8  -7  -8 1.96332 1.47467   1
  -8   7   8 3.93537 1.23035   1
   7  -7  -8 91.6624 6.43758   1
  -7   7   8 101.959 6.69362   1
   6  -7  -8 1.64628 1.64628   1
  -6   7   8-0.27276 1.37353   1
  -5   7   8 21.1661 2.90455   1
   4  -7  -8 118.875 10.5279   1
  -4   7   8 125.192 8.42235   1
   3  -7  -8 9.78741 4.27996   1
  -3   7   8 9.78741 2.13998   1
   2  -7  -8 31.1291 5.79878   1
  -2   7   8 21.3633 3.05655   1
   1  -7  -8 1.20207  3.2977   1
  -1   7   8 1.20207 1.49992   1
   0  -7  -8  288.53 18.7544   1
  -1  -7  -8 17.8868   3.793   1
   8  -8  -8 3.21459 1.23841   1
  -8   8   8 4.94485 1.23841   1
   7  -8  -8 4.97913 1.74225   1
  -7   8   8 7.47312 1.49462   1
  -6   8   8 188.665 11.1169   1
  -5   8   8 2.41761 1.61492   1
   4  -8  -8 156.763 11.9142   1
  -4   8   8  170.34 10.2515   1
   3  -8  -8 17.1203 4.20534   1
  -3   8   8 14.0311 2.52121   1
   2  -8  -8 30.1626 5.30647   1
  -2   8   8 33.5151  3.3525   1
   1  -8  -8 200.498 13.9143   1
  -1   8   8 209.781 12.0055   1
   0  -8  -8 22.9374 3.90621   1
  -1  -8  -8 4.11559 1.93321   1
  -7   9   8 26.8679 2.49153   1
  -6   9   8 30.3966 2.74321   1
  -5   9   8 263.654 14.9566   1
   4  -9  -8 72.3544 6.43801   1
  -4   9   8 71.5862 5.14858   1
   3  -9  -8 86.1477 7.24023   1
  -3   9   8 82.7849 5.68744   1
   2  -9  -8 132.823 9.47243   1
  -2   9   8 139.214 8.19065   1
   1  -9  -8 64.0799 5.46056   1
  -1   9   8 58.3724 3.97853   1
   0  -9  -8 7.52535 1.87925   1
  -5  10   8 20.3584 1.98382   1
   4 -10  -8 36.2948 3.95481   1
  -4  10   8 40.7407 2.96391   1
   3 -10  -8 39.8847 3.91896   1
  -3  10   8 37.6776 2.93705   1
   2 -10  -8 25.3954 2.87559   1
  -2  10   8 22.5198 1.91422   1
   1 -11   9  128.81  7.3274   1
   1 -11   9 117.809 7.04712   1
   2 -11   9 4.04915 1.16131   1
   2 -11   9 8.39634 1.44906   1
   3 -11   9 137.437 7.84294   1
   3 -11   9 129.883 7.55399   1
  -1 -10   9-1.12709 1.12709   1
   0 -10   9 43.4462 3.57208   1
   0 -10   9 32.4341 3.27617   1
   1 -10   9  117.41 7.28357   1
   1 -10   9 101.022 6.66942   1
   2 -10   9   68.50 5.15661   1
   2 -10   9 75.7774 5.45804   1
   3 -10   9 53.3353 4.49072   1
   4 -10   9 243.831 13.8053   1
   4 -10   9 243.831 13.8053   1
  -5  10  -9 3.72126  1.4336   1
   5 -10   9 2.28766  1.4336   1
  -2  -9   9 64.6651 4.64468   1
  -1  -9   9 4.58669 2.14118   1
  -1  -9   9 13.1623 2.14118   1
   0  -9   9  627.50 33.7291   1
   0  -9   9  627.50 34.0368   1
   1  -9   9 2.45716 2.15138   1
   1  -9   9 3.99697 2.15138   1
   2  -9   9 1.22172 1.82717   1
   2  -9   9 0.90818 2.12989   1
   3  -9   9 118.297 7.52585   1
   3  -9   9 104.753 8.73383   1
   3  -9   9 115.881 7.82517   1
   4  -9   9 53.8457 4.43373   1
   4  -9   9 49.4015 4.43373   1
   4  -9   9 52.0701  5.0326   1
   5  -9   9 33.6247 3.45026   1
  -6   9  -9 54.2105 3.87007   1
   6  -9   9 39.8303 3.59504   1
  -2  -8   9 89.3232 6.18028   1
  -1  -8   9  1.5521 1.86031   1
  -1  -8   9 1.86031 1.86031   1
   0  -8   9 12.8083 2.43607   1
   0  -8   9 15.8507 2.73923   1
   1  -8   9 127.329 9.01262   1
   1  -8   9 132.736 8.40467   1
   2  -8   9 18.5079 3.28606   1
   3  -8   9 758.078 40.5436   1
   3  -8   9 755.399 40.8401   1
   4  -8   9 45.8911 4.14324   1
   4  -8   9 43.2306 4.43768   1
   4  -8   9 42.6417 4.74264   1
   5  -8   9    0.00 1.73438   1
  -6   8  -9 21.8142 3.04065   1
   6  -8   9 20.1565 4.97293   1
   6  -8   9 22.0986 2.76601   1
  -7   8  -9 71.5257 4.97805   1
   7  -8   9 71.5257 4.45698   1
  -2  -7   9 441.334 24.1225   1
  -1  -7   9 1415.69 73.6909   1
  -1  -7   9 1370.28 73.6909   1
   0  -7   9 213.922  12.879   1
   0  -7   9  221.24   13.17   1
   1  -7   9 35.5502 4.04469   1
   1  -7   9 33.2404 3.46981   1
   2  -7   9 76.0681 5.80539   1
   2  -7   9  81.296 6.38283   1
   2  -7   9 100.166 7.25931   1
   3  -7   9 65.6144 5.88325   1
   3  -7   9 67.9657 6.17585   1
   3  -7   9 60.9016 5.00547   1
   4  -7   9 277.785 22.8051   1
   4  -7   9 264.163 15.3998   1
   4  -7   9  266.53 16.2939   1
   4  -7   9 269.496 15.6943   1
  -5   7  -9 6.40031 2.32645   1
   5  -7   9 4.95275 2.03693   1
   5  -7   9 11.9321 6.40031   1
  -6   7  -9 105.358 7.20764   1
   6  -7   9 100.641 11.3629   1
   6  -7   9 102.581 6.93194   1
  -7   7  -9 75.7891 5.42925   1
   7  -7   9 80.1894 4.91481   1
   7  -7   9 69.5789   7.239   1
  -5  -6   9 37.1362 3.07402   1
  -1  -6   9  0.5726 1.72802   1
   0  -6   9 608.545 33.3322   1
   0  -6   9  633.75 33.8893   1
   1  -6   9 121.261  8.0887   1
   1  -6   9 135.201 8.64313   1
   1  -6   9 136.597 8.92034   1
   2  -6   9  351.58 19.8495   1
   2  -6   9 363.212 20.4134   1
   3  -6   9 209.035 13.1203   1
   3  -6   9 241.686 13.7003   1
   3  -6   9 235.856 20.1206   1
   3  -6   9 203.785 12.5404   1
   4  -6   9 135.854 10.1035   1
   4  -6   9 146.253 9.21669   1
   4  -6   9 156.927 9.80791   1
   4  -6   9 152.165 16.9448   1
  -5   6  -9 82.9171 6.46419   1
   5  -6   9 74.3956 6.46419   1
   5  -6   9 94.6759 13.2312   1
  -6   6  -9 143.352 8.92608   1
   6  -6   9 132.782 12.8294   1
   6  -6   9 134.733 8.64868   1
  -7   6  -9  45.643 4.10714   1
   7  -6   9 38.4668 5.63707   1
   7  -6   9  48.721 3.33306   1
  -6  -5   9 6.28916 1.57229   1
  -5  -5   9 12.5753 2.09412   1
   1   5  -9  116.43 14.9648   1
   1   5  -9 85.3781 20.7932   1
   1   5  -9  129.18  32.706   1
   0   5  -9  394.54 42.8197   1
   0   5  -9 415.107 49.0468   1
   0   5  -9 385.598 28.7293   1
   0  -5   9 353.077 45.5242   1
   0  -5   9 432.999 108.401   1
  -1   5  -9 670.953 59.3408   1
  -1   5  -9 641.824 65.6055   1
  -1   5  -9 680.998  43.824   1
   1  -5   9 661.962 119.774   1
   1  -5   9 631.209 62.0671   1
  -2   5  -9  14.566 16.5261   1
  -2   5  -9 18.4861 8.68589   1
  -2   5  -9 0.55717 15.9689   1
   2  -5   9 4.48721  27.172   1
   2  -5   9-48.7425 60.2341   1
   3  -5   9 931.179 52.1901   1
   3  -5   9 879.279 46.6501   1
   3  -5   9 812.509 46.0702   1
   3  -5   9 836.129 45.7803   1
   4  -5   9 14.7044 6.90465   1
   4  -5   9 22.2057  3.6015   1
  -5   5  -9  237.69 14.2863   1
   5  -5   9 221.333 13.9799   1
   5  -5   9 243.343 20.5313   1
  -6   5  -9 76.5581 6.16488   1
   6  -5   9 72.3453 10.3777   1
   6  -5   9 82.1653 5.88602   1
  -7   5  -9 1.01906 1.52408   1
   7  -5   9-1.01906 2.79566   1
  -7  -4   9 40.2829 2.62457   1
  -7  -4   9 46.4888 3.09869   1
  -6  -4   9 5.96018 1.70435   1
  -6  -4   9 4.25583 1.13959   1
  -5  -4   9 3.70952 1.54746   1
  -5  -4   9 3.09492 1.85476   1
   1   4  -9 326.655 25.5287   1
   1   4  -9 333.165 37.1984   1
   1   4  -9 342.945 44.2677   1
  -1  -4   9 342.404 35.0284   1
  -1  -4   9 321.495 39.6481   1
  -1  -4   9 553.645 96.6753   1
   0   4  -9 582.211   57.72   1
   0   4  -9 543.196 36.8793   1
   0   4  -9 580.607  52.377   1
   0  -4   9 531.172 50.5074   1
   0  -4   9 526.892 56.1161   1
   0  -4   9 601.714 113.029   1
  -1   4  -9 689.285 44.6598   1
  -1   4  -9 722.573 61.9816   1
  -1   4  -9 660.621 65.7689   1
   1  -4   9 713.643 64.6827   1
   1  -4   9 572.387  113.13   1
   1  -4   9 623.266 62.2507   1
  -2   4  -9 613.822  66.055   1
  -2   4  -9 661.599 64.6475   1
  -2   4  -9 655.978 44.1332   1
   2  -4   9 646.146 72.2343   1
   2  -4   9 696.737 60.4348   1
   2  -4   9 709.356 105.966   1
  -3   4  -9 943.747 90.2267   1
   3  -4   9 816.962 90.5199   1
   3  -4   9 1097.63 58.9678   1
   3  -4   9 1072.87 103.788   1
   3  -4   9 961.444 53.3653   1
   3  -4   9 1087.32 181.605   1
  -4   4  -9 26.4997 3.95873   1
   4  -4   9 17.6629 3.35302   1
   4  -4   9 23.7524 7.91746   1
  -5   4  -9 315.178 18.9682   1
   5  -4   9 325.421 18.3694   1
   5  -4   9 315.477 24.3892   1
  -6   4  -9 112.291  8.1454   1
   6  -4   9  119.31 7.57712   1
   6  -4   9 98.5324 11.5053   1
  -7   4  -9 22.7556 3.00211   1
   7  -4   9 15.7566 4.00577   1
  -7  -3   9 48.6379 3.63976   1
  -7  -3   9 39.5385 3.12243   1
  -6  -3   9 38.9852 3.57197   1
  -6  -3   9 46.4145 4.45968   1
  -5  -3   9 237.684 13.4881   1
  -5  -3   9 226.702 14.1118   1
  -4  -3   9 101.873 6.80694   1
   3   3  -9 215.045 42.8997   1
   2   3  -9-1.41014 16.0516   1
  -2  -3   9    0.00 23.3723   1
   1   3  -9 1014.20 60.3876   1
   1   3  -9 1025.08 82.6936   1
   1   3  -9 1079.76 78.3368   1
  -1  -3   9 1013.93 78.6073   1
  -1  -3   9 979.388 131.653   1
  -1  -3   9 994.893 77.2548   1
   0   3  -9 1280.42 101.282   1
   0   3  -9 1395.17 99.9326   1
   0   3  -9 1430.72 81.6126   1
   0  -3   9 1371.20 97.2444   1
   0  -3   9 1543.56 104.783   1
   0  -3   9 1439.07 148.665   1
  -1   3  -9 2.74959 4.39739   1
  -1   3  -9 -1.3748 11.8076   1
  -1   3  -9-2.19382 5.21642   1
   1  -3   9 21.1387  37.061   1
   1  -3   9 3.84163 14.0015   1
   1  -3   9 10.9789 20.0369   1
  -2   3  -9 431.303 56.1804   1
  -2   3  -9 454.237 55.6001   1
  -2   3  -9 474.586 33.8161   1
   2  -3   9 525.321 96.3077   1
   2  -3   9  520.16 52.4547   1
   2  -3   9 401.813 64.4868   1
  -3   3  -9 373.981  58.773   1
  -3   3  -9 382.715 54.2454   1
  -3   3  -9 373.371 30.1411   1
   3  -3   9  438.17 50.0282   1
   3  -3   9 407.729 93.7307   1
   3  -3   9 340.222 67.8068   1
  -4   3  -9 230.517  14.271   1
   4  -3   9 197.623 19.5496   1
   4  -3   9 229.272 13.6538   1
  -5   3  -9 6.67524 3.04106   1
   5  -3   9 7.89383 6.07134   1
  -6   3  -9 13.9392 3.06899   1
   6  -3   9 6.96958 4.46488   1
  -7   3  -9 57.8329 4.87935   1
   7  -3   9 57.5903  6.5867   1
  -8  -2   9 27.8424 2.08468   1
  -8  -2   9 31.5503 2.32363   1
  -7  -2   9    0.00 1.37672   1
  -7  -2   9 2.75344 1.10333   1
  -6  -2   9 26.3145 3.36948   1
  -6  -2   9 39.7816  4.2825   1
  -6  -2   9 42.8467 8.88021   1
  -5  -2   9 5.39886 1.90482   1
  -5  -2   9 3.49405 5.71446   1
  -5  -2   9 3.80964 2.22041   1
   4   2  -9 7.79984   24.02   1
  -4  -2   9 14.3477 87.9698   1
  -4  -2   9 34.9442 43.9849   1
   3   2  -9 393.025 71.1896   1
   3   2  -9 387.638 28.4185   1
   3   2  -9 401.396 40.3808   1
  -3  -2   9  476.75 61.0227   1
  -3  -2   9 437.591 55.0415   1
  -3  -2   9 298.197 87.9432   1
   2   2  -9 208.644 32.6786   1
  -2  -2   9 312.412 51.0235   1
   1   2  -9 64.6531   22.30   1
  -1  -2   9 72.1854 47.9355   1
  -1  -2   9 52.6766 24.8041   1
  -1  -2   9 56.8535 20.3402   1
   0   2  -9 523.356 52.7041   1
   0   2  -9 551.097 35.7797   1
   0   2  -9  526.41 52.9799   1
   0  -2   9 557.471 49.6502   1
   0  -2   9 539.719 88.2079   1
   0  -2   9 577.725 57.1371   1
  -1   2  -9 1057.60  64.956   1
  -1   2  -9 984.737 84.5295   1
  -1   2  -9 1037.18 86.7961   1
   1  -2   9 1222.12 133.317   1
   1  -2   9 1205.38 81.9707   1
   1  -2   9 1142.13 90.4831   1
  -2   2  -9 842.612 78.5269   1
  -2   2  -9 674.635 80.0002   1
  -2   2  -9 814.167 52.7441   1
   2  -2   9 881.139 78.5269   1
   2  -2   9  924.99 122.968   1
   2  -2   9 962.917 72.0023   1
  -3   2  -9 10.5446 6.82041   1
  -3   2  -9 12.0982 17.9931   1
  -3   2  -9 20.1637 29.7828   1
   3  -2   9 10.2361 43.1262   1
   3  -2   9-6.82041 21.4088   1
   3  -2   9  6.5119 21.1003   1
  -4   2  -9 501.291 27.4886   1
   4  -2   9 444.137 32.5375   1
  -5   2  -9 6.99249 3.34517   1
   5  -2   9 6.99249 5.77312   1
  -6   2  -9 39.6559  4.9242   1
   6  -2   9 35.2755 6.01199   1
  -7   2  -9 0.46772  1.4115   1
   7  -2   9 0.23386 2.11308   1
  -8  -1   9 19.1728 2.20888   1
  -8  -1   9 13.7684 3.68438   1
  -8  -1   9 18.4394 1.71996   1
  -7  -1   9 1.42472 4.55708   1
  -7  -1   9 2.55641 1.70764   1
  -7  -1   9 4.26405 1.42472   1
  -6  -1   9 103.021  7.8053   1
  -6  -1   9 101.768  13.116   1
  -6  -1   9  96.779  6.8629   1
  -5  -1   9 468.841 31.5981   1
  -5  -1   9 424.015 25.1502   1
  -5  -1   9 441.755 24.5089   1
   4   1  -9 62.4059 49.9903   1
   4   1  -9 119.712 27.3754   1
   4   1  -9 128.939 16.2375   1
   4   1  -9 72.2773 30.2475   1
  -4  -1   9 57.6229  121.94   1
  -4  -1   9 198.005 69.7219   1
   3   1  -9    0.00 4.93053   1
   3   1  -9-13.8514 28.6321   1
   3   1  -9-1.54147 8.61477   1
  -3  -1   9 8.00255 32.3163   1
  -3  -1   9-4.00127 26.1613   1
  -3  -1   9-17.2405 81.5779   1
   2   1  -9 598.939  59.184   1
  -2  -1   9 658.714 63.3458   1
  -2  -1   9 584.657 103.802   1
  -2  -1   9 744.643 68.7012   1
   1   1  -9 165.202 32.5858   1
  -1  -1   9 233.855 63.4153   1
  -1  -1   9 214.659 29.0937   1
  -1  -1   9 289.997 32.8751   1
   0   1  -9 172.484 15.9776   1
   0   1  -9 149.544 32.2337   1
   0   1  -9  163.19  31.656   1
   0  -1   9 161.158 55.4729   1
   0  -1   9 201.241 28.4585   1
   0  -1   9  178.59 29.0464   1
  -1   1  -9 325.744 51.0791   1
  -1   1  -9 407.114 29.7003   1
  -1   1  -9 389.595 48.4107   1
   1  -1   9 500.929 52.2709   1
   1  -1   9 476.576 45.7317   1
   1  -1   9 457.275 85.5255   1
  -2   1  -9 772.773 95.7248   1
  -2   1  -9 856.446 82.4446   1
  -2   1  -9 960.505 58.6697   1
   2  -1   9 1005.28 83.3658   1
   2  -1   9 899.368 115.793   1
   2  -1   9 945.065 71.3248   1
  -3   1  -9 35.1567 10.5459   1
  -3   1  -9 57.2134  27.165   1
  -3   1  -9 36.7573 20.7739   1
   3  -1   9  58.814 32.2847   1
  -4   1  -9 92.3008 7.98572   1
   4  -1   9 82.0805  12.455   1
   4  -1   9 95.8173 6.38631   1
  -5   1  -9 138.619 10.4966   1
   5  -1   9 143.723  8.7063   1
   5  -1   9 145.524 14.0985   1
  -6   1  -9 68.6726 6.07839   1
   6  -1   9 63.3916 8.71423   1
   6  -1   9 68.6726 4.49313   1
  -7   1  -9 11.6129 2.00688   1
  -8   0   9 5.09171 3.31006   1
  -8   0   9 0.50646 1.27519   1
  -8   0   9 3.81652 1.02196   1
  -7   0   9 9.87028  2.3206   1
  -7   0   9 7.54968  4.9403   1
  -7   0   9 6.68332 1.74303   1
  -6   0   9 14.9059 2.53502   1
  -6   0   9  8.8782 6.97412   1
  -6   0   9  14.275 2.21955   1
  -6   0   9 16.1791 3.17722   1
  -5   0   9 71.7643 12.5102   1
  -5   0   9  43.131  4.2792   1
  -5   0   9 53.3263 5.60037   1
  -5   0   9  51.023  4.2792   1
   4   0  -9 56.7752 11.8189   1
   4   0  -9   74.83 23.9526   1
   4   0  -9 58.4187 52.1829   1
   4   0  -9 52.1829 25.2697   1
  -4   0   9 83.0357 97.4771   1
  -4   0   9 67.9298 43.9772   1
   3   0  -9 194.267 18.2766   1
   3   0  -9 195.235 28.5365   1
   3   0  -9 216.392 63.8028   1
  -3   0   9 208.376 41.3585   1
  -3   0   9 104.205 116.389   1
  -3   0   9 188.812 57.7107   1
   2   0  -9 272.322 42.4733   1
   2   0  -9 199.543  23.738   1
   2   0  -9 167.375 37.7922   1
   2   0  -9 187.674 15.6183   1
  -2   0   9 167.375 44.0373   1
  -2   0   9 222.039 39.0457   1
  -2   0   9  398.81 113.998   1
   1   0  -9  256.24 44.5052   1
  -1   0   9  242.43 68.7471   1
  -1   0   9  386.06 76.4208   1
  -1   0   9 319.461 35.5998   1
  -1   0   9 350.155  49.105   1
   0   0  -9 24.2247 23.6148   1
   0   0  -9 7.97325 12.8857   1
   0   0  -9 13.4957 6.13243   1
   0   0   9 18.0923 39.5613   1
   0   0   9 16.5565 18.0923   1
   0   0   9 12.2649 15.3365   1
  -1   0  -9 500.181 56.8727   1
  -1   0  -9 588.292 72.4864   1
  -1   0  -9 516.749 37.1865   1
   1   0   9 555.178 86.5464   1
   1   0   9 622.038 62.1772   1
   1   0   9 588.924 50.3033   1
  -2   0  -9  84.255 15.1104   1
  -2   0  -9 73.6446 27.3312   1
  -2   0  -9 81.0342 45.9822   1
   2   0   9 105.807 36.3426   1
  -3   0  -9 245.738  45.756   1
   3   0   9 239.528 14.0565   1
  -4   0  -9 77.3551  7.6428   1
   4   0   9 72.2674 5.41553   1
  -5   0  -9 375.335 21.5369   1
   5   0   9 348.569 19.7904   1
  -6   0  -9 13.7802 2.75782   1
   6   0   9 17.0362 1.75255   1
   9  -1  -9 32.8878 4.33909   1
  -9   1   9 25.8074 2.05194   1
  -9   1   9 26.9429 1.82485   1
  -8   1   9 3.37163 1.04097   1
  -8   1   9 1.81478 3.37163   1
  -8   1   9 6.74325 1.81478   1
  -7   1   9 118.789 7.91716   1
  -7   1   9 119.382 7.62548   1
  -7   1   9 136.102 14.6676   1
  -7   1   9 139.915 8.80264   1
  -6   1   9 197.702  11.879   1
  -6   1   9 201.225 19.9048   1
  -6   1   9 192.561 12.1982   1
  -6   1   9 199.948 12.8366   1
  -5   1   9  7.3912 2.01795   1
  -5   1   9 9.75542 6.72253   1
  -5   1   9 8.07181 3.02096   1
  -5   1   9 8.40614 2.01795   1
   4  -1  -9-6.10871 34.2666   1
   4  -1  -9 7.80758 6.78344   1
   4  -1  -9-2.71097  11.868   1
   4  -1  -9-21.7118 37.6523   1
  -4   1   9-2.03624 64.1234   1
  -4   1   9-21.7118 174.683   1
   3  -1  -9 49.5784 12.0644   1
   3  -1  -9 108.877 23.7839   1
   3  -1  -9  59.299 6.03222   1
  -3   1   9 9.04239 31.8268   1
  -3   1   9-80.0608 86.7712   1
  -3   1   9 33.8376 22.4394   1
   2  -1  -9 340.459 38.7755   1
   2  -1  -9 238.244 45.6855   1
   2  -1  -9 349.003 25.6324   1
   2  -1  -9 349.983 72.6369   1
  -2   1   9 260.258 62.1202   1
  -2   1   9  336.84 49.6308   1
  -2   1   9 387.125 168.899   1
   1  -1  -9 11.6664 19.7661   1
  -1   1   9 9.72197 16.8437   1
  -1   1   9 22.0326 48.2647   1
  -1   1   9 25.5878 19.7661   1
   0  -1  -9 92.7956 27.8008   1
   0  -1  -9 97.6415 39.7663   1
   0  -1  -9 115.429 15.5253   1
   0   1   9 74.0436 19.7281   1
   0   1   9 49.4696 38.1471   1
   0   1   9 151.635 38.1471   1
  -1  -1  -9 1017.61 62.4631   1
  -1  -1  -9 894.971 84.3681   1
   1   1   9 1077.13 87.6434   1
  -2  -1  -9 0.32955 29.1652   1
  -2  -1  -9 23.8571 9.94534   1
  -2  -1  -9 25.5166  23.198   1
   2   1   9 28.8356 26.1757   1
   3   1   9-0.32685 1.64591   1
  -4  -1  -9  78.296 7.76891   1
   4   1   9 72.0831 5.28595   1
  -5  -1  -9 0.27462 2.20677   1
   5   1   9    0.00 1.10829   1
  -6  -1  -9 75.9847 5.36421   1
   6   1   9 65.2646   4.197   1
  -9   2   9 16.3402 1.63319   1
  -9   2   9 20.7755 1.86532   1
   8  -2  -9 5.21321 1.56489   1
  -8   2   9 5.21321 3.90759   1
  -8   2   9 4.17612 1.30562   1
  -8   2   9 2.08343 1.56489   1
  -7   2   9  11.141 5.57049   1
  -7   2   9 11.4325 2.05119   1
  -7   2   9 9.38133 2.05119   1
  -7   2   9 12.9006 2.63427   1
  -6   2   9 100.831 14.8163   1
  -6   2   9 92.4558 7.41386   1
  -6   2   9 86.9755 7.08206   1
  -6   2   9 100.831 6.76171   1
  -5   2   9 13.2979 2.38588   1
  -5   2   9 19.7773 3.75443   1
  -5   2   9 16.3741 7.15763   1
  -5   2   9 16.7133 2.72499   1
   4  -2  -9 60.9555 11.8397   1
   4  -2  -9 48.0765 22.2939   1
   4  -2  -9 44.5877 36.9296   1
  -4   2   9 44.2413 159.199   1
  -4   2   9 65.8423 62.6999   1
   3  -2  -9 159.119 66.7025   1
   3  -2  -9 206.326  19.458   1
   3  -2  -9 189.657 30.5751   1
  -3   2   9 157.033 37.8672   1
  -3   2   9  159.81 53.8457   1
  -3   2   9 160.858  165.72   1
   2  -2  -9 946.142 117.939   1
   2  -2  -9 1083.96 77.8305   1
   2  -2  -9 1149.79 62.7441   1
  -2   2   9 794.645 89.1422   1
  -2   2   9 1201.87 91.5409   1
  -2   2   9 995.517 185.785   1
   1  -2  -9 366.243 25.7283   1
   1  -2  -9 306.996 72.4479   1
   1  -2  -9 386.212  38.929   1
  -1   2   9 354.389 51.1199   1
  -1   2   9 256.561 134.388   1
  -1   2   9 256.898 54.1616   1
   0  -2  -9 192.233 60.6058   1
   0   2   9 238.692  40.073   1
   0   2   9 296.272  80.134   1
   0   2   9 151.861 30.3029   1
  -1  -2  -9 287.319 25.6033   1
  -1  -2  -9 208.152 45.4757   1
  -1  -2  -9  189.62 62.9912   1
   1   2   9 246.892 45.1407   1
   2   2   9 62.5569 5.35862   1
   3   2   9 0.32076 1.61526   1
  -4  -2  -9 102.013 9.16793   1
   4   2   9 101.425 6.80506   1
  -5  -2  -9-0.50958 2.04743   1
   5   2   9 0.50958 1.02826   1
  -6  -2  -9 130.553 7.67116   1
   6   2   9 129.275 7.23994   1
  -9   3   9 15.1092 1.88655   1
  -9   3   9 17.7084 1.65178   1
   8  -3  -9  223.11 13.2172   1
  -8   3   9 236.842 12.9595   1
  -8   3   9  230.63 13.4749   1
  -8   3   9 240.211 17.1014   1
  -7   3   9 30.9841 3.47582   1
  -7   3   9 29.2462 4.05169   1
  -7   3   9 28.9583 3.18788   1
  -7   3   9 37.9358 7.52751   1
  -6   3   9 373.263 21.6994   1
  -6   3   9 369.433  27.433   1
  -6   3   9 366.555 21.0535   1
  -6   3   9 378.045 20.7362   1
  -5   3   9 354.371  26.239   1
  -5   3   9 353.693 20.4417   1
  -5   3   9 345.173 19.7639   1
  -5   3   9 343.128 19.7639   1
   4  -3  -9 72.4801 78.4659   1
   4  -3  -9 30.2542 32.7285   1
   4  -3  -9-4.92365 13.7212   1
  -4   3   9  40.114 59.4587   1
  -4   3   9-11.6093 149.184   1
   3  -3  -9 243.154 36.1066   1
   3  -3  -9 235.724 81.4158   1
  -3   3   9 107.968 55.2159   1
  -3   3   9 203.502 43.1846   1
  -3   3   9 181.564 167.081   1
   2  -3  -9 8.42844 12.6427   1
   2  -3  -9 9.47575 25.6219   1
   2  -3  -9 4.21422 6.67043   1
  -2   3   9 -1.4089 23.1657   1
  -2   3   9-31.2451 108.123   1
  -2   3   9 8.07933  17.206   1
   1  -3  -9  28.438  28.438   1
  -1   3   9-6.58915  129.00   1
  -1   3   9 28.7829 40.2246   1
   0  -3  -9 193.043 45.2735   1
   0   3   9  303.48  52.472   1
  -1  -3  -9  272.61 17.5885   1
   1   3   9 297.647 16.5793   1
  -2  -3  -9 32.8289 4.91967   1
   2   3   9  31.838 3.61398   1
   3   3   9 32.5936 3.38493   1
   4   3   9  10.415 1.64499   1
  -5  -3  -9  133.82 8.61436   1
   5   3   9 142.666 7.91165   1
   9  -4  -9 1.89777  0.9531   1
  -9   4   9 3.55938  0.9531   1
   8  -4  -9 4.59686 1.78616   1
  -8   4   9  7.9153 1.78616   1
  -8   4   9 7.14463 3.82618   1
  -7   4   9 294.153 22.0193   1
  -7   4   9 330.581 17.7879   1
  -7   4   9  307.99 18.0687   1
  -7   4   9 314.207 17.5072   1
  -6   4   9  126.13 8.69408   1
  -6   4   9 122.401  7.7673   1
  -6   4   9 117.425 8.07623   1
  -6   4   9 122.401   13.67   1
  -5   4   9 569.501 38.6805   1
  -5   4   9 601.182 32.6759   1
  -5   4   9 610.846 33.0194   1
  -5   4   9 608.845  33.351   1
   4  -4  -9  278.26 48.9257   1
  -4   4   9 375.077 20.1249   1
   3  -4  -9 440.092 87.5341   1
  -3   4   9 538.139 79.8057   1
  -3   4   9 858.048 190.849   1
   2  -4  -9   15.75 34.2969   1
  -2   4   9  25.906 46.9019   1
  -2   4   9  57.406 169.061   1
   1  -4  -9 175.791  67.009   1
  -1   4   9 203.419 108.463   1
  -1   4   9 311.196 54.9248   1
   0  -4  -9 93.8868 8.47497   1
   0   4   9  98.979 6.77757   1
   0   4   9 63.7188 29.8309   1
  -1  -4  -9 366.466 22.7026   1
   1   4   9 377.648 21.0551   1
  -2  -4  -9 81.3972 7.79748   1
   2   4   9 92.6282 6.23576   1
   3   4   9 97.8898 6.25581   1
   4   4   9 221.267  12.159   1
   5   4   9 6.23921 0.83436   1
   9  -5  -9 99.0288 7.89206   1
   9  -5  -9 104.049 5.98063   1
  -9   5   9 94.4838 5.98063   1
   8  -5  -9 90.8043 5.75689   1
  -8   5   9 75.5414 8.50207   1
  -8   5   9 90.8043 5.75689   1
  -7   5   9  148.32 8.98057   1
  -7   5   9 136.342 12.5187   1
  -7   5   9 132.012 8.16855   1
  -6   5   9 99.2842 6.84136   1
  -6   5   9 107.614 7.43259   1
  -5   5   9 110.344 7.33967   1
  -5   5   9 104.602 7.65682   1
  -4   5   9 171.491 10.6576   1
  -4   5   9  158.87 9.99518   1
   3  -5  -9 27.7943 5.42886   1
  -3   5   9  32.537 3.73159   1
   2  -5  -9 586.157 33.8311   1
   1  -5  -9 365.381 22.3121   1
   0  -5  -9 522.543  29.803   1
   0   5   9 491.117 27.8584   1
  -1  -5  -9 70.2689 7.73926   1
   1   5   9 73.6659 5.57359   1
  -2  -5  -9 71.2821 6.90057   1
   2   5   9 76.1717 5.17543   1
   3   5   9 2.57294   1.031   1
   4   5   9 187.237 10.1444   1
   8  -6  -9 253.522 14.4792   1
  -8   6   9 267.269 14.7233   1
   7  -6  -9 128.318  8.3458   1
  -7   6   9 129.365  8.3458   1
  -6   6   9 63.1708 5.33487   1
  -6   6   9 64.0184 4.77645   1
  -5   6   9 3.59145 1.49821   1
  -5   6   9 0.89255 1.79572   1
  -4   6   9-0.31029 1.87281   1
   3  -6  -9 196.113 14.6209   1
  -3   6   9 198.337 12.0806   1
   2  -6  -9 391.643  24.439   1
   1  -6  -9  8.0995 4.04975   1
   0  -6  -9 333.795 21.0336   1
  -1  -6  -9 131.691  10.199   1
   2   6   9 33.9065 2.84928   1
   8  -7  -9 67.8006 4.63379   1
  -8   7   9 71.6982 4.63379   1
   7  -7  -9 1.00642  1.2558   1
  -7   7   9 1.00642  1.2558   1
   6  -7  -9 80.8434 5.80804   1
  -6   7   9 81.9037 5.80804   1
  -5   7   9 25.2845  3.0594   1
   4  -7  -9 67.0986 7.48608   1
  -4   7   9 58.7432 5.18503   1
   3  -7  -9 9.94581 4.09472   1
  -3   7   9 12.2946 2.33836   1
   2  -7  -9 72.0331 7.87134   1
  -2   7   9 77.8641 5.54101   1
   1  -7  -9 112.062 9.40767   1
   0  -7  -9 3.54834 3.00542   1
  -1  -7  -9 81.4748 6.87246   1
   8  -8  -9 29.2297 2.75082   1
  -8   8   9 33.7286 2.50236   1
   7  -8  -9 26.7687 2.70391   1
  -7   8   9 29.4726 2.70391   1
  -6   8   9-1.00803 1.00803   1
  -5   8   9 47.1746 4.15137   1
   4  -8  -9 369.868 22.0399   1
  -4   8   9 369.868 20.4461   1
   3  -8  -9   10.99 3.48558   1
  -3   8   9 15.2851 2.14277   1
   2  -8  -9 1.06793 2.66509   1
  -2   8   9-1.33255 1.33255   1
   1  -8  -9 90.1258 7.51432   1
   0  -8  -9 4.92549 2.46712   1
  -1  -8  -9 40.1189  3.4161   1
  -7   9   9 58.6606 3.75698   1
  -6   9   9 49.2208 3.44397   1
  -5   9   9 92.0112 5.93848   1
   4  -9  -9 110.663 7.72745   1
  -4   9   9 106.919 6.72722   1
   3  -9  -9 75.4711 6.22807   1
  -3   9   9 70.9947 4.73298   1
   2  -9  -9 140.629 9.32818   1
  -2   9   9 138.667 8.09895   1
   1  -9  -9 7.12547 1.89731   1
   0  -9  -9 12.7882 1.79273   1
  -5  10   9 121.505 6.93964   1
   4 -10  -9 5.61221 1.46368   1
  -4  10   9 6.09722 0.97867   1
   3 -10  -9 17.5093 2.40274   1
  -3  10   9 22.3148 1.91708   1
  -1 -10  10 220.235 12.0102   1
   0 -10  10 27.7297 2.62266   1
   1 -10  10 198.333 11.3868   1
   1 -10  10 189.947 11.0889   1
   2 -10  10 67.5946 4.50275   1
   2 -10  10 66.9971 4.81218   1
   3 -10  10 8.91594 1.78319   1
   3 -10  10 8.01907 1.78319   1
   4 -10  10 38.9884 3.20339   1
   4 -10  10  35.785 2.91406   1
   5 -10  10 43.3533 3.11967   1
  -2  -9  10 0.28149 1.69899   1
  -1  -9  10 16.0108 2.11403   1
  -1  -9  10 14.1973 2.11403   1
   0  -9  10 119.629 7.70883   1
   0  -9  10 119.323 7.70883   1
   1  -9  10 43.1098 3.69637   1
   1  -9  10 46.1937 4.30879   1
   2  -9  10 91.2166 6.40326   1
   2  -9  10 81.1513 5.79652   1
   3  -9  10 134.725 8.72606   1
   3  -9  10 153.641 9.02512   1
   3  -9  10  143.75 9.02512   1
   4  -9  10  13.816 2.05726   1
   4  -9  10 6.76702 2.05726   1
   4  -9  10 8.22903 1.76486   1
  -5   9 -10 2.55498 1.42392   1
   5  -9  10 1.70669 1.42392   1
  -1  -8  10 115.832 7.76479   1
  -1  -8  10 118.016 7.45597   1
   0  -8  10 266.545 16.0051   1
   0  -8  10 284.703  15.699   1
   1  -8  10 12.4666 2.73315   1
   1  -8  10 11.8617 2.43067   1
   2  -8  10 3.92312 2.11162   1
   2  -8  10 2.11162 2.11162   1
   2  -8  10 5.13436 2.11162   1
   3  -8  10 43.1607 4.49169   1
   3  -8  10  42.852 3.89564   1
   3  -8  10 45.8536 4.80036   1
   4  -8  10 55.4614 4.42182   1
   4  -8  10  52.517 5.01909   1
   4  -8  10 55.7653 4.42182   1
  -5   8 -10  161.25 9.98559   1
   5  -8  10 154.113 9.70174   1
  -6   8 -10  1.6301 1.36003   1
   6  -8  10-0.81023 1.08995   1
   6  -8  10 3.26021 2.99013   1
  -1  -7  10  294.93 17.9937   1
  -1  -7  10 312.317 17.6904   1
   0  -7  10 365.244 20.9071   1
   0  -7  10 370.314 20.3131   1
   1  -7  10 113.741 7.09307   1
   1  -7  10 93.9518 6.49499   1
   1  -7  10 81.5389 6.79928   1
   2  -7  10  555.07 27.8039   1
   2  -7  10 471.081 27.5098   1
   2  -7  10 479.662 27.2052   1
   3  -7  10 1.78397 2.37511   1
   3  -7  10 3.56795 2.07954   1
   3  -7  10 5.64749 1.78397   1
   4  -7  10 135.383 8.27245   1
   4  -7  10 133.021 14.7812   1
   4  -7  10 126.218 8.87084   1
   4  -7  10 129.168 8.27245   1
  -5   7 -10 89.8137 6.30826   1
   5  -7  10 75.7501 6.02291   1
   5  -7  10 82.9246 11.4751   1
  -6   7 -10 26.2929 3.25412   1
   6  -7  10 29.0078 2.98454   1
   6  -7  10 22.7692 5.15074   1
  -1  -6  10 888.491 47.7248   1
   0  -6  10 65.4152 5.47515   1
   1  -6  10 111.362 7.46148   1
   1  -6  10  139.77 8.61332   1
   1  -6  10 107.631  8.0323   1
   2  -6  10 321.051 17.7295   1
   2  -6  10 308.564 18.0185   1
   3  -6  10 2.65653 1.77452   1
   3  -6  10  9.4606 6.49957   1
   3  -6  10 5.02955 2.36252   1
   3  -6  10 2.65653 2.06852   1
   4  -6  10 360.645 20.7797   1
   4  -6  10 369.838 21.0749   1
   4  -6  10 387.065 27.3056   1
  -5   6 -10 5.77722 2.02151   1
   5  -6  10 2.89374 2.02151   1
   5  -6  10 6.93676 5.77722   1
  -6   6 -10 11.9281 2.43567   1
   6  -6  10 14.9125 2.16611   1
   6  -6  10 11.6585 4.61141   1
  -7   6 -10 33.6026 2.98808   1
   7  -6  10 26.8839 1.98911   1
   7  -6  10 23.4007 3.98705   1
  -1  -5  10 31.1301 3.71249   1
   0   5 -10 120.931 34.5077   1
   0   5 -10 112.511 15.7143   1
   0  -5  10  115.60 88.3767   1
   0  -5  10 113.348 8.14114   1
   0  -5  10 140.004 43.2068   1
   0  -5  10 131.584 8.42015   1
   1  -5  10 238.711 14.0948   1
   2  -5  10 191.729 16.4374   1
   2  -5  10 116.496  8.3672   1
   2  -5  10 101.215 7.20992   1
   2  -5  10 108.139 7.78344   1
   3  -5  10 561.464 32.0034   1
   3  -5  10  560.58 31.7087   1
   3  -5  10 594.362 32.5927   1
   3  -5  10 677.922 38.8229   1
  -4   5 -10 79.9294 6.28336   1
   4  -5  10  73.646  11.376   1
   4  -5  10 64.6622 5.98567   1
  -5   5 -10 204.352 12.5219   1
   5  -5  10 186.008 16.8854   1
   5  -5  10 199.109 11.9325   1
  -6   5 -10 59.8283 5.14352   1
   6  -5  10 60.3667 8.39308   1
   6  -5  10 60.3667 4.33594   1
  -7   5 -10  1.7112 1.22477   1
   7  -5  10 1.95442 2.44954   1
  -7  -4  10  5.3404 0.93127   1
  -6  -4  10 49.0151 3.59943   1
  -6  -4  10 41.5409  3.0487   1
   1   4 -10 409.535  45.535   1
  -1  -4  10 439.306 42.7296   1
  -1  -4  10 384.806 46.9427   1
  -1  -4  10  516.05 98.6674   1
   0   4 -10 56.1405 25.8495   1
   0   4 -10 27.7939 10.5609   1
   0   4 -10 63.6417 25.8495   1
   0  -4  10 43.6352 18.0621   1
   0  -4  10 11.6762 61.1347   1
   0  -4  10 35.5714 28.0702   1
  -1   4 -10  599.24 60.2158   1
  -1   4 -10 601.209 63.8731   1
  -1   4 -10 611.901 40.8001   1
   1  -4  10 663.393 68.3698   1
   1  -4  10 560.699 113.946   1
   1  -4  10 567.164 61.0552   1
  -2   4 -10 153.996 42.9289   1
  -2   4 -10 180.102 25.2402   1
   2  -4  10 124.728 8.70529   1
   2  -4  10 174.013 41.7751   1
   2  -4  10 119.803 8.99374   1
   3  -4  10 642.565 36.8643   1
   3  -4  10 641.373 36.2682   1
   3  -4  10  755.84 42.5595   1
  -4   4 -10 36.6661 4.54156   1
   4  -4  10  34.546 4.24023   1
   4  -4  10 30.6071 7.87778   1
  -5   4 -10 59.7615 5.85754   1
   5  -4  10 58.0032 4.98359   1
   5  -4  10 65.3277 9.66546   1
  -6   4 -10 42.7782  4.5769   1
   6  -4  10 45.1957 6.99434   1
  -7   4 -10 8.36506  1.9108   1
   7  -4  10 11.7196 2.87045   1
  -7  -3  10 49.9016 3.54448   1
  -7  -3  10 43.3164  3.0407   1
  -6  -3  10 18.3148 2.61197   1
  -6  -3  10 9.59101 1.74476   1
  -5  -3  10  126.40 10.2215   1
  -5  -3  10 128.875 8.05401   1
  -4  -3  10 2.17244  1.5549   1
  -4  -3  10 1.24612 5.28224   1
   3   3 -10  24.383 29.1934   1
  -2  -3  10  508.32 64.9232   1
   1   3 -10 126.473 26.2592   1
  -1  -3  10 122.242 32.1848   1
  -1  -3  10 57.0303 58.1533   1
  -1  -3  10 145.644 29.6381   1
   0   3 -10 98.8436 29.2013   1
   0   3 -10 123.557 27.2366   1
   0   3 -10 113.444 14.6007   1
   0  -3  10 172.954 38.1871   1
   0  -3  10 65.4337 61.7735   1
   0  -3  10 128.045 33.9784   1
  -1   3 -10 339.576 47.4535   1
  -1   3 -10 395.039 28.5899   1
  -1   3 -10 345.007 42.5904   1
   1  -3  10 354.733 56.3167   1
   1  -3  10 361.018 89.4753   1
   1  -3  10 358.165 43.7376   1
  -2   3 -10 1540.03 126.009   1
  -2   3 -10 1710.97 97.3195   1
  -2   3 -10 1430.88  129.56   1
   2  -3  10 1591.50 128.373   1
   2  -3  10 1791.71  180.11   1
   2  -3  10 1876.90 117.132   1
  -3   3 -10 68.7526 6.41402   1
   3  -3  10 62.6425 5.80626   1
   3  -3  10 65.3991   10.69   1
   3  -3  10 67.2224 5.50238   1
  -4   3 -10 329.769 18.7368   1
   4  -3  10 314.424 18.1151   1
   4  -3  10  294.15 23.6445   1
  -5   3 -10 562.199 29.9167   1
   5  -3  10 490.042 33.1459   1
  -6   3 -10 43.4838 4.51034   1
   6  -3  10 42.4198 6.36533   1
  -7   3 -10 9.26954 1.85226   1
   7  -3  10 9.50004   2.552   1
  -8  -2  10 26.7743 1.81343   1
  -8  -2  10 25.8716  2.0391   1
  -7  -2  10 72.2549 5.08503   1
  -7  -2  10 71.1904 4.55276   1
  -7  -2  10 79.7542 12.3086   1
  -6  -2  10 110.669 8.07338   1
  -6  -2  10  120.24  7.4785   1
  -6  -2  10 128.919 12.8643   1
  -5  -2  10 183.564 11.3021   1
  -5  -2  10 189.215 17.5773   1
  -5  -2  10 188.579 12.2383   1
  -4  -2  10 200.095 15.9729   1
  -4  -2  10 132.477 9.39909   1
  -4  -2  10 149.395 9.39909   1
   3   2 -10-3.05061  5.7875   1
   3   2 -10-12.7974 33.1997   1
   3   2 -10 4.26219 11.2721   1
  -3  -2  10  7.0099 28.3317   1
   2   2 -10 1171.15 98.2918   1
  -2  -2  10 1428.80 106.857   1
   1   2 -10 149.248 30.3715   1
  -1  -2  10 161.403  41.951   1
  -1  -2  10 172.099 31.5326   1
  -1  -2  10 90.8372 47.7355   1
   0   2 -10  230.66 39.3126   1
   0   2 -10 232.108 42.7829   1
   0   2 -10 252.057 21.0988   1
   0  -2  10 242.806 49.1485   1
   0  -2  10 252.919 35.2674   1
   0  -2  10 248.586 71.4075   1
  -1   2 -10 344.471 26.5445   1
  -1   2 -10 277.523 38.0464   1
  -1   2 -10 297.573 46.0077   1
   1  -2  10 389.599 55.1526   1
   1  -2  10 314.679 41.0004   1
   1  -2  10 328.842 83.7712   1
  -2   2 -10 659.141 93.5615   1
  -2   2 -10 795.955 79.5446   1
  -2   2 -10 819.421 52.7231   1
   2  -2  10  821.25 69.4892   1
   2  -2  10 729.853 118.251   1
   2  -2  10 864.827 82.5861   1
   3  -2  10  127.27 8.75118   1
   3  -2  10 129.457 8.75118   1
   3  -2  10 124.138 15.0147   1
  -4   2 -10 115.975  8.9974   1
   4  -2  10 113.178 13.3364   1
  -5   2 -10 29.9602 4.35973   1
   5  -2  10 26.4683 6.39496   1
  -6   2 -10 66.5947 5.67485   1
   6  -2  10 68.1441 7.74677   1
  -7   2 -10 12.6647 1.99637   1
  -8  -1  10 27.3851  2.4058   1
  -8  -1  10 21.1403 3.84757   1
  -8  -1  10 25.2182 1.91952   1
  -7  -1  10 81.8681 6.08067   1
  -7  -1  10 97.9097  10.236   1
  -7  -1  10 86.0234 5.53057   1
  -6  -1  10 24.3853 3.65833   1
  -6  -1  10 17.9778 2.73833   1
  -6  -1  10   21.03  7.0136   1
  -5  -1  10 41.0908 9.55994   1
  -5  -1  10 26.7565 4.14075   1
  -5  -1  10 27.3901 2.86232   1
  -5  -1  10 26.7565  3.5072   1
   4   1 -10 57.7794 23.9463   1
   4   1 -10 5.74847 69.5939   1
   4   1 -10 40.8629 12.4493   1
  -4  -1  10 79.4921 73.7436   1
  -4  -1  10 45.9764 4.14978   1
  -4  -1  10 51.7135 4.78472   1
  -4  -1  10 54.9109 30.6471   1
  -4  -1  10 70.8751 11.4969   1
   3   1 -10 438.094 45.6911   1
   3   1 -10 483.752  32.854   1
   3   1 -10 435.271 81.3681   1
  -3  -1  10 440.906 55.7051   1
  -3  -1  10 367.051 92.3158   1
  -3  -1  10 557.607 66.9751   1
   2   1 -10 202.609 19.2568   1
   2   1 -10 183.656 48.2941   1
   2   1 -10 193.133 30.2638   1
  -2  -1  10 224.005 41.5639   1
   1   1 -10-0.59905 15.0619   1
  -1  -1  10 4.21477 11.7457   1
  -1  -1  10 13.2541 9.93788   1
  -1  -1  10   16.26 37.0451   1
   0   1 -10 298.927 60.0318   1
   0   1 -10  332.72 28.9606   1
   0   1 -10  360.78 53.0997   1
   0  -1  10 456.373 44.3462   1
   0  -1  10 487.455 88.3924   1
   0  -1  10 551.108 55.2104   1
  -1   1 -10 428.948 52.2434   1
  -1   1 -10 398.216 31.3439   1
  -1   1 -10 344.444 56.2378   1
   1  -1  10 500.825 55.3101   1
   1  -1  10 424.648 90.3428   1
   1  -1  10 427.715 46.4046   1
  -2   1 -10 295.079 80.0853   1
  -2   1 -10 261.027 23.3358   1
  -2   1 -10 264.812 54.5436   1
   2  -1  10 135.569  57.063   1
   2  -1  10 258.822 47.2987   1
   3  -1  10 20.4182 7.01381   1
   3  -1  10 22.3331 2.86671   1
  -4   1 -10 457.021 26.6614   1
   4  -1  10 458.265 30.3836   1
   4  -1  10 462.912 25.1196   1
  -5   1 -10 235.777 14.5069   1
   5  -1  10 229.231 12.7996   1
   5  -1  10 214.441 17.0628   1
  -6   1 -10  7.1841  2.2247   1
   6  -1  10 10.1474 1.23985   1
  -8   0  10  30.807  4.9683   1
  -8   0  10 34.7869 3.22984   1
  -8   0  10 41.2466 2.73565   1
  -7   0  10 3.38181 1.41076   1
  -7   0  10 0.28015 1.97106   1
  -7   0  10 1.41076 3.94211   1
  -6   0  10 201.967 12.3514   1
  -6   0  10 203.195 19.1524   1
  -6   0  10 211.225 13.2838   1
  -6   0  10 208.449 12.0443   1
  -5   0  10 24.3146 3.24656   1
  -5   0  10 33.7089 3.24656   1
  -5   0  10 39.5458 4.85832   1
  -5   0  10 36.3108 9.72816   1
   4   0 -10 3.28377 6.88195   1
   4   0 -10-12.7858 19.0156   1
   4   0 -10-34.0954 42.6192   1
   4   0 -10 4.26192 12.7858   1
  -4   0  10 31.8014 58.3627   1
  -4   0  10 28.5292 146.885   1
   3   0 -10 289.537 24.0272   1
   3   0 -10 336.289 85.3751   1
   3   0 -10 265.845 35.3837   1
  -3   0  10 431.729 54.8568   1
  -3   0  10  445.68 124.656   1
  -3   0  10 236.952 51.9399   1
   2   0 -10 21.0832 3.83538   1
   2   0 -10 113.427 32.9071   1
   2   0 -10 16.9301 25.8831   1
   2   0 -10 31.6362 8.62392   1
  -2   0  10 118.216 60.3901   1
  -2   0  10-7.02396 13.0947   1
  -2   0  10 20.7655 20.7655   1
   1   0 -10 158.655 49.6329   1
  -1   0  10  191.84 42.6724   1
  -1   0  10 84.4017 47.4212   1
  -1   0  10 155.522 29.4025   1
   0   0 -10 299.668 55.0624   1
   0   0  10 476.218 57.2766   1
   0   0  10 375.613 81.3292   1
   0   0  10 448.086 43.6768   1
  -1   0 -10 264.043  46.792   1
  -1   0 -10 228.474  65.379   1
  -1   0 -10 230.397 20.5106   1
   1   0  10 201.236 31.7334   1
   1   0  10 217.581 45.1871   1
   1   0  10 71.4684 48.7155   1
  -2   0 -10 359.678 53.2455   1
  -2   0 -10  280.79 72.7197   1
  -2   0 -10 379.153 30.1971   1
   2   0  10 323.313 55.1941   1
   3   0  10 142.285  9.0093   1
   3   0  10 155.811 18.3502   1
  -4   0 -10 -0.9102 3.35906   1
   4   0  10 -0.6068 1.22443   1
  -5   0 -10 153.223 10.1095   1
   5   0  10 138.748 8.46983   1
  -6   0 -10-1.16965  1.6342   1
  -8   1  10 66.7148 4.55057   1
  -8   1  10 68.7432  5.0532   1
  -8   1  10 76.5698 8.08691   1
  -7   1  10 39.1625 3.40631   1
  -7   1  10 49.3714 4.54511   1
  -7   1  10 36.0384 3.40631   1
  -7   1  10 35.1818 7.37699   1
  -6   1  10  65.983 5.91404   1
  -6   1  10 65.6735 4.98548   1
  -6   1  10 55.4041 4.98548   1
  -6   1  10 67.5417 10.8885   1
  -5   1  10 44.1291 9.55566   1
  -5   1  10 33.2635 3.95326   1
  -5   1  10 39.8484 3.62577   1
  -5   1  10 48.7374 5.27491   1
   4  -1 -10-0.66999 12.8016   1
   4  -1 -10 13.1366 8.08775   1
   4  -1 -10-12.8016 44.1357   1
   4  -1 -10-16.1755 36.3829   1
  -4   1  10-1.68694 38.0698   1
  -4   1  10-73.4358 104.435   1
   3  -1 -10-28.9723  36.727   1
  -3   1  10 290.752 153.645   1
  -3   1  10-20.8945 42.7943   1
  -3   1  10 13.4749 20.2124   1
   2  -1 -10 49.7352 21.6962   1
   2  -1 -10 42.3964 29.0468   1
   2  -1 -10 54.7502 12.0218   1
   2  -1 -10 53.4105  61.757   1
  -2   1  10-39.3851 69.0957   1
  -2   1  10 52.7466 25.3715   1
  -2   1  10 20.3683 22.3601   1
   1  -1 -10 132.709 16.8781   1
   1  -1 -10 137.011 61.8824   1
   1  -1 -10 132.709  27.468   1
   1  -1 -10 102.926 42.0307   1
  -1   1  10 166.101 42.6889   1
   0  -1 -10 24.4429 26.7534   1
   0   1  10  49.871 27.4103   1
  -1  -1 -10 397.982 78.4744   1
  -1  -1 -10  581.39 39.0667   1
  -1  -1 -10 462.215 60.9285   1
   1   1  10 591.986 65.8912   1
   2   1  10 13.5032 3.29975   1
   2   1  10 18.4528 2.63278   1
   3   1  10 181.278 10.8305   1
   4   1  10 169.229 9.98781   1
  -5  -1 -10 5.91777 2.57533   1
   5   1  10  7.1963 1.28766   1
  -6  -1 -10 86.0452  5.4192   1
   6   1  10 79.9794  4.7649   1
  -9   2  10 2.31589   0.928   1
  -9   2  10 6.70952   0.928   1
   8  -2 -10 10.9136 1.77537   1
  -8   2  10 7.36283  1.2707   1
  -8   2  10 11.4183 2.02771   1
  -8   2  10 13.9596 4.06443   1
  -7   2  10 67.5828 5.37328   1
  -7   2  10 59.6685  9.0492   1
  -7   2  10  56.555 4.52962   1
  -7   2  10 63.0632 4.52962   1
  -6   2  10 27.3554 3.42218   1
  -6   2  10 27.0463 4.04038   1
  -6   2  10 25.7988 3.11308   1
  -6   2  10 28.5918 8.08076   1
  -5   2  10 41.1291  4.6419   1
  -5   2  10 48.7635 4.31202   1
  -5   2  10  58.389 5.64332   1
  -5   2  10 52.0859 9.95534   1
   4  -2 -10 298.408 105.309   1
   4  -2 -10 299.773 58.3196   1
  -4   2  10  154.37 170.829   1
  -4   2  10 347.798 85.7555   1
   3  -2 -10 12.8133 64.7426   1
   3  -2 -10 20.0807 20.0807   1
   3  -2 -10 18.6911 11.0794   1
  -3   2  10 17.3139  20.425   1
  -3   2  10 8.31263 20.0807   1
  -3   2  10 40.1613 80.3226   1
   2  -2 -10 44.8134 8.61984   1
   2  -2 -10 6.55059 31.3694   1
   2  -2 -10 35.8507 14.4848   1
   2  -2 -10  86.529 37.2343   1
  -2   2  10 39.3035 22.7495   1
  -2   2  10 -67.918 111.005   1
  -2   2  10 39.3035 35.5079   1
   1  -2 -10 419.027 39.6483   1
   1  -2 -10 283.669 66.6592   1
   1  -2 -10 238.206 54.6894   1
   1  -2 -10  422.45 27.6907   1
  -1   2  10 461.079 101.172   1
  -1   2  10 407.749  57.081   1
   0  -2 -10 164.449 58.6578   1
   0   2  10 271.565 50.1801   1
   1   2  10 68.7555 40.2503   1
   1   2  10 70.1015  5.7058   1
   1   2  10 72.4481 7.03993   1
   2   2  10 120.204 7.84194   1
   3   2  10 35.0659 3.38643   1
   4   2  10 34.5527 3.04299   1
   5   2  10 43.4336 3.08494   1
  -9   3  10  1.1739 0.69934   1
  -9   3  10 4.45415  1.1739   1
  -8   3  10 27.9921 5.29387   1
  -8   3  10 26.7381 2.52601   1
  -8   3  10 30.2673 3.02763   1
  -7   3  10 150.165 9.74779   1
  -7   3  10 154.065  9.1936   1
  -7   3  10 152.392  8.9165   1
  -7   3  10 141.803 13.6568   1
  -6   3  10 128.031 14.3925   1
  -6   3  10 115.782 7.96319   1
  -6   3  10 118.849 7.96319   1
  -6   3  10 136.005 8.88787   1
  -5   3  10 212.127 18.7501   1
  -5   3  10 215.749 12.8272   1
  -5   3  10  206.87 12.8272   1
  -5   3  10 221.999 13.4814   1
   4  -3 -10 112.165 41.1651   1
  -4   3  10 214.353 13.0354   1
  -4   3  10 220.871 12.3532   1
  -4   3  10 217.094 18.5176   1
   3  -3 -10 367.113 41.1371   1
   3  -3 -10 156.202 88.9116   1
  -3   3  10 250.661 49.8549   1
  -3   3  10 425.698 171.198   1
   2  -3 -10 14.2772 26.4759   1
   2  -3 -10-2.43726 8.01699   1
   2  -3 -10 7.31179 32.0432   1
   2  -3 -10 11.8399 4.87453   1
  -2   3  10-28.2203 147.003   1
  -2   3  10-6.61896 33.7876   1
   1  -3 -10  94.136 46.8904   1
  -1   3  10 136.887 42.7512   1
   0   3  10 396.555 22.3869   1
  -1  -3 -10 19.4866 3.96536   1
   1   3  10 19.4866 2.96815   1
  -2  -3 -10 83.9876 7.23915   1
   2   3  10 73.6092 5.97677   1
   3   3  10 186.022 10.9787   1
   4   3  10 29.2236  2.5451   1
   5   3  10 106.619 6.02785   1
   9  -4 -10 56.8646 3.55088   1
  -9   4  10 53.3053 3.55088   1
   8  -4 -10 34.3497  3.2352   1
  -8   4  10 27.3755 4.97656   1
  -8   4  10 30.6107  2.9877   1
  -7   4  10 59.9976 5.15808   1
  -7   4  10 64.3362 4.61817   1
  -7   4  10 58.0983 8.68679   1
  -7   4  10 57.2788 4.34821   1
  -6   4  10 1.48767 1.48767   1
  -6   4  10 0.88627 1.78309   1
  -6   4  10-1.48767 4.15704   1
  -6   4  10 0.88627 1.48767   1
  -5   4  10 176.028 11.1776   1
  -5   4  10 175.699  16.931   1
  -5   4  10 189.441 11.8245   1
  -5   4  10 190.405 11.1776   1
  -4   4  10 57.9041 5.36127   1
  -4   4  10 58.9145 4.68368   1
   3  -4 -10 188.245 13.3247   1
  -3   4  10 184.143 11.6136   1
   2  -4 -10 18.4582 4.10452   1
  -2   4  10 13.3336 2.39228   1
   1  -4 -10  309.70 19.5682   1
  -1   4  10 325.218 18.2141   1
   0  -4 -10 49.9928 6.24909   1
   0   4  10  56.896 4.92919   1
  -1  -4 -10 13.5558 3.78353   1
   1   4  10 20.1714 2.83205   1
  -2  -4 -10 175.833 12.0529   1
   2   4  10  181.42 10.8831   1
   3   4  10 122.022 7.40779   1
   4   4  10 4.58659 0.92058   1
   8  -5 -10 45.8103 3.67179   1
  -8   5  10 40.1808 5.88182   1
  -8   5  10 46.7935 3.67179   1
  -7   5  10 214.158  15.726   1
  -7   5  10 220.452 12.5882   1
  -7   5  10 211.272 12.0575   1
  -6   5  10 294.597  16.744   1
  -6   5  10 280.404 16.1795   1
  -5   5  10 13.0731 2.73121   1
  -5   5  10 13.6776 2.12667   1
  -4   5  10 188.739 11.1362   1
  -4   5  10 192.877 11.7806   1
   3  -5 -10 4.22873 3.58171   1
   2  -5 -10 135.055 10.7374   1
   1  -5 -10-0.31808 2.55597   1
  -1   5  10 2.87405 1.60174   1
   0  -5 -10 747.995 41.4041   1
   0   5  10 726.673 39.5495   1
  -1  -5 -10 5.25919 3.21568   1
   1   5  10 7.88359 1.75306   1
  -2  -5 -10 36.2091 4.56306   1
   2   5  10 34.3325 2.95313   1
   3   5  10 109.756 6.42639   1
   8  -6 -10 67.1619 4.60721   1
  -8   6  10 73.7154 4.84834   1
  -7   6  10 1.01356 1.26471   1
  -6   6  10 37.8806  3.2251   1
  -6   6  10 43.5198 4.02661   1
  -5   6  10 4.26716 1.42576   1
  -5   6  10 6.83554 1.99201   1
  -4   6  10 174.089 10.6824   1
   3  -6 -10 4.53263  3.6304   1
   2  -6 -10 12.3727 3.92411   1
   1  -6 -10  69.728 7.38728   1
   0  -6 -10 77.6199 7.64629   1
  -1  -6 -10 44.7906 5.29994   1
   2   6  10 39.7425  2.8913   1
   8  -7 -10 169.412 9.77745   1
  -8   7  10 179.676 9.77745   1
   7  -7 -10 1.22877 1.22877   1
  -7   7  10 0.73203 0.98476   1
   6  -7 -10 30.5539 3.30948   1
  -6   7  10 34.8761 3.30948   1
  -5   7  10 2.65841 1.59316   1
   4  -7 -10  15.609 3.83174   1
  -4   7  10 15.0644 2.18817   1
   3  -7 -10 57.7517 6.66556   1
  -3   7  10 51.9144 4.44699   1
   2  -7 -10 212.562 14.3551   1
   1  -7 -10 619.913 34.9774   1
   0  -7 -10 16.1637 3.33479   1
  -1  -7 -10 1.90543 1.90543   1
   7  -8 -10 86.0966  5.8724   1
  -7   8  10 113.739 6.11563   1
  -6   8  10 67.2333 4.66232   1
  -5   8  10 137.553 8.25339   1
   4  -8 -10 55.2065 5.59293   1
  -4   8  10 51.1315 4.07498   1
   3  -8 -10 9.97234 3.06981   1
  -3   8  10 13.8051 2.04351   1
   2  -8 -10 31.1072 4.30273   1
   1  -8 -10 75.3507 6.13684   1
   0  -8 -10 11.8827 2.33351   1
  -6   9  10 9.59644 1.47705   1
  -5   9  10 25.5484  2.4373   1
   4  -9 -10 151.675 9.46513   1
  -4   9  10 147.796 8.49103   1
   3  -9 -10 13.0116 2.65368   1
  -3   9  10 11.3252 1.44668   1
   2  -9 -10 221.172 13.0145   1
   1  -9 -10 89.7433 5.70931   1
   0 -10  11  203.34 11.3268   1
   0 -10  11 214.104 11.6085   1
   1 -10  11 169.936  9.9601   1
   1 -10  11 188.108 10.2515   1
   2 -10  11 64.6199 4.42257   1
   2 -10  11  64.033 4.12913   1
   3 -10  11 188.994 10.2201   1
   3 -10  11 171.459 9.92959   1
  -4  10 -11   50.35 3.71834   1
   4 -10  11 56.6387 3.71834   1
  -1  -9  11 12.4164 2.06765   1
   0  -9  11 -0.6059 1.52558   1
   0  -9  11-1.22263 1.22263   1
   1  -9  11 87.5284 5.81494   1
   1  -9  11 82.9308 5.51061   1
   2  -9  11 79.2192 5.46525   1
   2  -9  11 65.5615 4.86159   1
   3  -9  11 86.2223 5.66903   1
   3  -9  11 74.2908 5.07564   1
   3  -9  11 74.2908 5.37233   1
   4  -9  11 84.7871 5.51704   1
   4  -9  11 73.4643  5.2283   1
  -5   9 -11 8.95472 1.67963   1
   5  -9  11 6.15202 1.40135   1
  -1  -8  11  0.6147 1.54774   1
   0  -8  11 399.238 22.5543   1
   0  -8  11 420.245 22.5543   1
   1  -8  11 509.157 27.5737   1
   1  -8  11 492.301 26.9644   1
   2  -8  11 114.683 7.58589   1
   2  -8  11 105.588 6.98247   1
   2  -8  11 125.307  7.8876   1
   3  -8  11 56.2712 4.79469   1
   3  -8  11 49.0951 4.48638   1
   3  -8  11 46.0971 3.89104   1
   4  -8  11 1.17227 1.46275   1
   4  -8  11-1.46275 1.46275   1
  -5   8 -11 67.8707 5.04996   1
   5  -8  11 65.9085 4.77107   1
  -6   8 -11    0.00 1.33335   1
   6  -8  11-0.79434 0.79434   1
  -1  -7  11  1.2358 1.54202   1
   0  -7  11 64.9695 5.16436   1
   1  -7  11 15.9319 2.70159   1
   1  -7  11 19.2421 3.01125   1
   1  -7  11 19.2421  2.4026   1
   2  -7  11 56.3317 4.49121   1
   2  -7  11  69.518 5.69384   1
   2  -7  11 65.3248 5.39584   1
   3  -7  11 499.008 28.3401   1
   3  -7  11 548.824 28.6368   1
   3  -7  11 509.147 28.3401   1
   3  -7  11 547.033 34.0081   1
  -4   7 -11 31.9325 3.80818   1
   4  -7  11 30.7568 3.51684   1
   4  -7  11  28.707 3.51684   1
   4  -7  11 27.5417 6.74235   1
  -5   7 -11 32.8892 3.37479   1
   5  -7  11 30.6427 3.09522   1
   5  -7  11 32.0505 6.18045   1
  -6   7 -11 84.2565 5.54393   1
   6  -7  11 80.0259 5.01862   1
   6  -7  11  75.542 7.39191   1
  -1  -6  11 958.697 51.3982   1
   0  -6  11 16.8457 2.65543   1
   0  -6  11 18.6195 2.65543   1
   1  -6  11 105.057 7.06509   1
   1  -6  11 84.4571 6.46937   1
   2  -6  11-1.77697 1.77697   1
   2  -6  11    0.00 5.91974   1
   2  -6  11    0.00 1.77697   1
   2  -6  11 0.58882 1.48256   1
   3  -6  11 36.0084 4.16416   1
   3  -6  11 39.2848 4.16416   1
   3  -6  11 36.8962  3.5723   1
   3  -6  11 46.1229 9.52262   1
  -4   6 -11 147.593 9.40995   1
   4  -6  11 143.207 9.40995   1
   4  -6  11 149.358 14.9974   1
   4  -6  11 141.442 9.11752   1
  -5   6 -11 11.2752 2.25303   1
   5  -6  11 10.1536 1.97265   1
   5  -6  11  9.3025 4.79644   1
  -6   6 -11 253.931 14.1626   1
   6  -6  11 253.409 13.6409   1
   6  -6  11 239.237 16.5293   1
  -1  -5  11 27.2935 3.52241   1
  -1  -5  11 29.9301 3.23062   1
   0  -5  11 167.307 10.7138   1
   0  -5  11  180.91 10.7138   1
   1  -5  11 175.107 10.4594   1
   1  -5  11 148.968 10.1602   1
   2  -5  11 343.088 19.4513   1
   2  -5  11 337.184 19.4513   1
   3  -5  11 340.252 21.1915   1
   3  -5  11 378.161 21.1915   1
   3  -5  11 428.898 27.4568   1
  -4   5 -11 20.4155 3.25723   1
   4  -5  11 19.2281 6.50395   1
   4  -5  11 18.0513 2.96303   1
  -5   5 -11 4.52659 1.97725   1
   5  -5  11 3.95449 1.41519   1
   5  -5  11 1.97725 4.23552   1
  -6   5 -11 91.3036 5.98651   1
   6  -5  11 79.8572 4.94257   1
   6  -5  11 77.2611 8.06517   1
  -2  -4  11 82.2287 5.93599   1
  -1  -4  11 33.9259 7.82747   1
  -1  -4  11  29.868 3.48117   1
  -1  -4  11 28.7145 3.76955   1
   0  -4  11 16.9737 2.58539   1
   0  -4  11 18.9868 2.88174   1
   0  -4  11 17.5561 6.62187   1
   0  -4  11 49.2042 20.9999   1
   1  -4  11  12.788 2.61127   1
   1  -4  11 11.9107 6.97715   1
   1  -4  11 11.6217 2.32228   1
   2  -4  11 5.93297 2.07601   1
   2  -4  11 8.90473 5.93297   1
   2  -4  11 7.41885 2.37108   1
  -3   4 -11 43.0929 4.82735   1
   3  -4  11 37.9766 8.13478   1
   3  -4  11 40.3849 4.51694   1
   3  -4  11 34.3587 3.91754   1
  -4   4 -11 225.925 13.1172   1
   4  -4  11 211.018 12.5243   1
   4  -4  11 181.206 17.5849   1
  -5   4 -11 53.9473  4.8049   1
   5  -4  11 48.2998 3.95226   1
   5  -4  11  45.471 7.90451   1
  -6   4 -11 49.5225 4.36534   1
   6  -4  11  44.902 6.41587   1
  -7  -3  11 115.399 6.38294   1
  -7  -3  11 110.237  6.6271   1
  -6  -3  11  153.36  9.0395   1
  -5  -3  11 8.21522 1.82681   1
  -5  -3  11 9.43669 6.08575   1
  -4  -3  11 96.6424 6.80952   1
  -4  -3  11 115.531  13.014   1
  -3  -3  11 56.6884 4.26489   1
  -2  -3  11 4.15633   5.053   1
  -2  -3  11-9.20933 37.4281   1
  -2  -3  11 9.20933 2.07816   1
   1   3 -11 57.4465  25.373   1
  -1  -3  11  64.147 28.2831   1
  -1  -3  11-11.9512 65.3173   1
  -1  -3  11 37.9041 16.9119   1
   0   3 -11 86.4038  33.454   1
   0  -3  11 -18.907 28.5051   1
   0  -3  11 73.3032 13.9684   1
   0  -3  11 53.5284 32.2865   1
  -1   3 -11  170.54 57.8422   1
  -1   3 -11 156.076 17.7017   1
  -1   3 -11 105.351 35.4138   1
   1  -3  11 138.102 9.73644   1
   1  -3  11 132.799 9.44298   1
   1  -3  11 177.027 48.1058   1
   1  -3  11 178.211 17.4082   1
   1  -3  11  109.48 66.1009   1
   1  -3  11  156.37 37.7719   1
   2  -3  11 580.646 35.9206   1
   2  -3  11 532.655 30.4858   1
   2  -3  11  550.16 30.1857   1
   3  -3  11 1.53109 1.53109   1
   3  -3  11 0.30405 1.53109   1
   3  -3  11 0.91214 4.89732   1
  -4   3 -11 101.974  7.4992   1
   4  -3  11 80.0838 5.99723   1
   4  -3  11  80.382 11.3979   1
  -5   3 -11 128.472 8.69696   1
   5  -3  11 106.027 11.4963   1
  -6   3 -11 -0.2496 1.75612   1
   6  -3  11 1.00732 2.76343   1
  -7  -2  11  70.315 7.78718   1
  -7  -2  11 87.7048 5.18838   1
  -7  -2  11 67.4674 4.67231   1
  -6  -2  11 128.546 12.7978   1
  -6  -2  11 131.748 8.13934   1
  -6  -2  11 133.783 8.43888   1
  -5  -2  11 180.139 10.7924   1
  -5  -2  11 166.564 16.3474   1
  -4  -2  11 622.382 37.4985   1
  -4  -2  11 579.567  31.872   1
  -4  -2  11 570.501 31.5613   1
  -3  -2  11 4.62012 1.54369   1
  -3  -2  11 0.91965 1.54369   1
  -3  -2  11 4.93762 5.85726   1
   2   2 -11 792.077 67.3745   1
   2   2 -11 802.657 51.3651   1
  -2  -2  11 825.008 84.8968   1
   1   2 -11 58.7604 28.6334   1
  -1  -2  11 36.3876 12.5317   1
  -1  -2  11 117.817 32.8071   1
  -1  -2  11 32.2139 28.6334   1
   0   2 -11 115.893 40.0243   1
   0  -2  11 153.499 47.1954   1
   0  -2  11  142.18 30.1694   1
   0  -2  11 87.5167 54.0588   1
  -1   2 -11 73.3858 31.2326   1
  -1   2 -11 81.5709 14.2485   1
  -1   2 -11 73.3858 27.5924   1
   1  -2  11 39.1161 55.7986   1
   1  -2  11 59.1373 24.8676   1
   1  -2  11 85.2111 36.3913   1
   2  -2  11 59.0335 10.8122   1
   2  -2  11 44.5112 4.63223   1
   2  -2  11 52.5462 4.63223   1
   3  -2  11 566.781 30.7208   1
   3  -2  11 543.201 36.2964   1
   3  -2  11 563.674 30.7208   1
  -4   2 -11 47.0978 5.69947   1
   4  -2  11 29.9994 7.20157   1
  -5   2 -11 162.912  10.477   1
   5  -2  11 141.684 12.6801   1
  -6   2 -11 97.5693 6.55116   1
   6  -2  11 94.8971 7.76658   1
  -8  -1  11 54.3532  3.2785   1
  -8  -1  11 54.1202 3.51149   1
  -8  -1  11 57.1657 5.39205   1
  -7  -1  11 200.933  11.524   1
  -7  -1  11 205.216 14.7405   1
  -7  -1  11 187.801 10.9816   1
  -6  -1  11 75.4573 5.91678   1
  -6  -1  11  75.163 10.9508   1
  -6  -1  11 71.6109 5.32825   1
  -5  -1  11 97.4984 14.0615   1
  -5  -1  11 87.1881 5.93758   1
  -5  -1  11 85.3125 6.24834   1
  -4  -1  11 39.7037 3.81245   1
  -4  -1  11 39.0607 3.81245   1
  -4  -1  11 49.8664 9.84696   1
   3   1 -11 573.932 55.8567   1
   3   1 -11 553.109 41.0184   1
   3   1 -11 573.932 100.349   1
  -3  -1  11 707.107 44.4926   1
  -3  -1  11 699.217 81.0953   1
   2   1 -11 466.246 49.2153   1
   2   1 -11 516.667 87.8331   1
   2   1 -11 478.049 35.5094   1
   2   1 -11 464.376 65.4102   1
  -2  -1  11 632.852 57.6225   1
   1   1 -11 156.615 40.7859   1
  -1  -1  11  184.42 32.4356   1
  -1  -1  11 186.274 27.4978   1
  -1  -1  11 109.366 56.2356   1
   0   1 -11  582.90 77.1295   1
   0  -1  11 698.753 110.892   1
   0  -1  11 698.445 61.9479   1
   0  -1  11 883.024  81.464   1
  -1   1 -11 574.108 38.8586   1
  -1   1 -11 500.777 61.7442   1
  -1   1 -11 467.584 66.1298   1
   1  -1  11 532.111  63.937   1
   1  -1  11 576.624 53.2845   1
   1  -1  11 534.315   98.41   1
   2  -1  11 54.4415 5.06981   1
   2  -1  11 63.2996 4.74381   1
   2  -1  11 51.5974 10.1284   1
   3  -1  11 103.556 7.82229   1
   3  -1  11 107.001 7.20006   1
   3  -1  11 112.945 13.1446   1
   4  -1  11 64.3437 4.74943   1
   4  -1  11  67.008 9.19346   1
  -5   1 -11 21.3769 3.73836   1
   5  -1  11 17.6291 2.13485   1
   5  -1  11  22.174 4.81052   1
  -6   1 -11 42.3722 3.93873   1
   6  -1  11 43.9921 2.77931   1
  -8   0  11 37.5408 5.57435   1
  -8   0  11 41.1796 2.90761   1
  -8   0  11 45.0507 3.14847   1
  -7   0  11 109.226 7.08117   1
  -7   0  11 95.0637 6.26858   1
  -7   0  11 101.874 10.8926   1
  -6   0  11 257.053 14.9484   1
  -6   0  11  269.91 21.8175   1
  -6   0  11 256.151 14.9484   1
  -6   0  11  269.91 15.8402   1
  -5   0  11 163.934 10.1293   1
  -5   0  11 175.019  17.729   1
  -5   0  11 160.134 10.1293   1
  -4   0  11 1.30151 1.30151   1
  -4   0  11 1.30151 1.30151   1
  -4   0  11   4.538 5.19452   1
   3   0 -11 224.644 20.1628   1
   3   0 -11 216.525 31.2143   1
   3   0 -11 234.725 71.8633   1
  -3   0  11 214.897 46.4923   1
   2   0 -11  4.8433  16.481   1
   2   0 -11 26.1791 27.1431   1
   2   0 -11 18.0993 10.0194   1
   2   0 -11 146.068 66.2453   1
  -2   0  11 29.4041 24.2395   1
   1   0 -11 28.2937 27.6428   1
  -1   0  11 32.4726 25.3935   1
   0   0 -11 226.438 47.6092   1
   0   0  11 271.156 35.0642   1
   0   0  11 108.095 53.4018   1
   0   0  11 315.875 54.0416   1
  -1   0 -11 42.9537 50.3745   1
   1   0  11 71.3754 37.7809   1
   1   0  11 63.3008 5.81509   1
   1   0  11 63.6219 7.09969   1
   2   0  11 301.759 23.1376   1
   2   0  11 307.227  18.001   1
   2   0  11  300.80 17.3503   1
   3   0  11 47.3016 10.2671   1
   3   0  11 35.1668 3.42605   1
   4   0  11  195.96 11.2392   1
   5   0  11 76.1116 4.83664   1
   6   0  11 11.1037 1.09027   1
  -8   1  11 84.2009 5.16747   1
  -8   1  11 86.6578  8.1228   1
  -8   1  11 90.3564 5.66585   1
  -7   1  11 43.7839 3.55713   1
  -7   1  11 41.5971   3.285   1
  -7   1  11 39.6825 7.11427   1
  -7   1  11 48.1671 4.38325   1
  -6   1  11 59.6739 4.80331   1
  -6   1  11 53.3795 9.59596   1
  -6   1  11 55.4777 5.39973   1
  -6   1  11  57.874 4.49445   1
  -5   1  11 1.28212 1.59982   1
  -5   1  11-1.91751 5.11715   1
  -5   1  11  0.3177 1.28212   1
  -4   1  11 83.9364 5.62158   1
  -4   1  11 82.9388  6.2788   1
  -4   1  11 82.2816   11.56   1
   3  -1 -11 788.206 122.016   1
   3  -1 -11 670.868 65.1931   1
   3  -1 -11 675.878 47.4671   1
  -3   1  11 681.233 163.131   1
  -3   1  11 713.657 79.5591   1
   2  -1 -11 9.01757 20.7167   1
   2  -1 -11 8.35312 28.3935   1
   2  -1 -11 4.01045  73.161   1
   2  -1 -11 8.35312 11.6873   1
  -2   1  11 17.7029 20.7167   1
   1  -1 -11 103.109 16.3009   1
   1  -1 -11 76.8266 88.1427   1
   1  -1 -11 62.1913 37.9172   1
   1  -1 -11 97.4508 28.2666   1
  -1   1  11 111.413 39.5827   1
   0  -1 -11 13.2408 26.4934   1
   0  -1 -11 9.93651 5.30339   1
   0  -1 -11 14.8989 3.64535   1
   0   1  11 1.65804 25.4939   1
   1   1  11 416.097  23.644   1
   1   1  11 395.731 22.6642   1
   2   1  11 63.1888 4.80722   1
   2   1  11 57.4133 6.09447   1
   3   1  11 20.0161 2.72555   1
   4   1  11 181.438 10.4325   1
   5   1  11 35.2688 2.62379   1
  -8   2  11 35.3408  3.2128   1
  -8   2  11 42.2667 2.96701   1
  -8   2  11  38.062 5.68823   1
  -7   2  11 65.2943 4.35746   1
  -7   2  11 60.3958 4.62799   1
  -7   2  11 69.6421 5.43958   1
  -7   2  11 53.8644 8.16421   1
  -6   2  11 78.6535 6.25376   1
  -6   2  11 79.2566  5.3649   1
  -6   2  11 70.3151 5.66119   1
  -6   2  11 76.5689 11.0261   1
  -5   2  11 316.714 18.8357   1
  -5   2  11 328.201 24.9025   1
  -5   2  11 339.065 18.5181   1
  -4   2  11 0.66248 1.66803   1
  -4   2  11 0.99372 0.99372   1
  -4   2  11 4.66101 4.66101   1
   3  -2 -11 109.297 44.4736   1
   3  -2 -11 87.9225 127.297   1
   3  -2 -11 111.335 26.4744   1
  -3   2  11 134.422  8.8248   1
  -3   2  11 32.5867 145.284   1
  -3   2  11 153.096  8.8248   1
  -3   2  11 87.2353 32.5867   1
   2  -2 -11 1.36631 16.3473   1
   2  -2 -11-10.2171 62.9831   1
   2  -2 -11 2.38197 8.51221   1
   2  -2 -11 2.72052 26.5523   1
  -2   2  11 156.944 88.8583   1
  -2   2  11 11.9098 15.6581   1
  -2   2  11 20.0835 20.4221   1
   1  -2 -11-1.00949 28.0853   1
  -1   2  11 29.0948 28.0853   1
   0   2  11  268.67 73.1884   1
   0   2  11 331.508 18.7185   1
   1   2  11 182.561 11.1019   1
   1   2  11 175.693 12.4128   1
  -2  -2 -11 132.783 9.68657   1
   2   2  11 143.091 8.74343   1
   3   2  11 86.0331 5.77245   1
   4   2  11 65.0548   4.357   1
   5   2  11 41.9402 2.63589   1
  -8   3  11  0.2446  0.7338   1
  -8   3  11 -0.2446 0.98714   1
  -8   3  11-0.98714 2.70809   1
  -7   3  11 24.8963 5.61805   1
  -7   3  11 36.3985 3.74537   1
  -7   3  11 35.0677 3.21303   1
  -7   3  11  32.387 2.94686   1
  -6   3  11 2.33562 1.46366   1
  -6   3  11 2.92732   1.173   1
  -6   3  11  6.7266 4.97228   1
  -6   3  11 4.08994 2.04497   1
  -5   3  11-0.62479 4.08346   1
  -5   3  11 1.26074 1.26074   1
  -5   3  11 1.26074 2.51032   1
  -5   3  11 1.26074 1.57314   1
  -4   3  11 764.717 47.1146   1
  -4   3  11  767.35 41.5208   1
  -4   3  11 780.867 41.8484   1
   3  -3 -11 108.285 10.4595   1
  -3   3  11 122.459 7.76377   1
  -3   3  11 125.826 8.09924   1
  -2   3  11 261.852 15.5821   1
  -1   3  11 7.72213 2.01395   1
   0  -3 -11  201.18 13.4532   1
   0   3  11 210.705 12.4739   1
  -1  -3 -11 163.245 11.3735   1
   1   3  11 163.245 10.4201   1
  -2  -3 -11 6.51071 2.36658   1
   2   3  11 2.66108 1.77756   1
   3   3  11 174.139 10.1981   1
   4   3  11 94.3297 5.63361   1
   8  -4 -11 17.7789  1.9466   1
  -8   4  11 12.9081 3.40871   1
  -8   4  11 15.3478  1.9466   1
  -7   4  11 11.7412 4.17938   1
  -7   4  11 11.4817 2.08506   1
  -7   4  11 14.6139 1.82558   1
  -7   4  11  16.699 2.08506   1
  -6   4  11 251.043 14.9823   1
  -6   4  11 253.313 18.9387   1
  -6   4  11 256.697 14.4199   1
  -6   4  11 261.226 14.7011   1
  -5   4  11 19.1078 2.42348   1
  -5   4  11 12.7421 7.28122   1
  -5   4  11 20.0126 2.72507   1
  -5   4  11 19.1078 3.03743   1
  -4   4  11 12.7344 2.54461   1
  -4   4  11 12.7344 2.22795   1
   3  -4 -11 93.6874 8.48647   1
  -3   4  11 100.539 6.85178   1
   2  -4 -11 9.16722 3.28066   1
  -2   4  11 4.90935 1.96607   1
   1  -4 -11 225.336 15.1707   1
  -1   4  11  239.21 13.8864   1
   0  -4 -11 90.0867 8.13213   1
   0   4  11 89.7756 6.56569   1
  -1  -4 -11 237.064 15.4291   1
   1   4  11 246.865 14.2487   1
  -2  -4 -11 7.11942 2.46067   1
   2   4  11 7.39174 1.64369   1
   3   4  11 28.1444 2.45112   1
   4   4  11 164.485  8.9182   1
   8  -5 -11 74.8721 4.82907   1
  -8   5  11 70.2832 6.75899   1
  -8   5  11 73.4225 4.82907   1
  -7   5  11 4.30356 1.26681   1
  -7   5  11 7.84344 1.76994   1
  -7   5  11  6.0735 3.28831   1
  -6   5  11 40.0091  4.0518   1
  -6   5  11 42.4479 3.51412   1
  -5   5  11 241.071 14.3874   1
  -5   5  11 249.133 13.8152   1
  -4   5  11 0.29926 1.20772   1
   3  -5 -11 15.0873 4.00141   1
  -3   5  11 13.8519 2.45988   1
   2  -5 -11 178.032 13.2496   1
  -2   5  11 207.912 11.7069   1
   1  -5 -11 51.9644 6.04087   1
  -1   5  11 51.6639 4.22754   1
   0  -5 -11 33.0946 4.93841   1
   0   5  11 37.4453 3.48473   1
  -1  -5 -11 13.8954 3.27064   1
   1   5  11 13.6244 1.90626   1
  -2  -5 -11 17.9084 2.98621   1
   2   5  11 19.9051 1.98786   1
   3   5  11 44.1231 2.86789   1
   8  -6 -11 80.5953  4.8395   1
  -8   6  11 76.9678  4.8395   1
   7  -6 -11   11.06 1.96409   1
  -7   6  11  11.802 1.71967   1
  -6   6  11 30.8744 3.08836   1
  -6   6  11 21.3535  2.3117   1
  -5   6  11 44.8336 3.51072   1
  -5   6  11 43.7497 4.04788   1
   3  -6 -11 20.2357 4.27186   1
   2  -6 -11 94.0328 8.24301   1
   1  -6 -11 109.815 8.87384   1
   0  -6 -11 5.82318 2.65289   1
  -1  -6 -11 4.20147 2.21915   1
   1   6  11 2.71911 0.99116   1
   7  -7 -11-0.24104 1.21382   1
  -7   7  11-0.24104 0.97277   1
   6  -7 -11 88.2793 5.92032   1
  -6   7  11 98.6398 6.16554   1
  -5   7  11  89.376 5.84357   1
   4  -7 -11 28.0839 4.16502   1
  -4   7  11 23.6603 2.86287   1
   3  -7 -11 328.927  19.692   1
   2  -7 -11 94.2431 7.81276   1
   1  -7 -11 7.84811 2.78684   1
   0  -7 -11 8.18757 2.41264   1
  -1  -7 -11 1.56659 1.34393   1
  -7   8  11 34.1798 2.48036   1
  -6   8  11 56.7085 3.88155   1
  -5   8  11 29.1843 2.67746   1
   4  -8 -11 0.73063 1.95703   1
  -4   8  11 0.98287 0.98287   1
   3  -8 -11 28.8708 3.66751   1
   2  -8 -11 235.114 13.9869   1
   1  -8 -11 2.09925 1.40227   1
   0  -8 -11 0.89031 1.11092   1
  -5   9  11 70.7512  4.3777   1
   4  -9 -11 123.968 7.65983   1
   3  -9 -11 0.70372 1.41582   1
   1 -10  12 21.5174 2.26235   1
   2 -10  12 2.86995 0.85488   1
   2 -10  12 4.29475 1.15002   1
   0  -9  12 25.2966 2.67449   1
   1  -9  12 614.477 31.9049   1
   1  -9  12 571.445 31.2957   1
   2  -9  12 4.18342 1.49711   1
   2  -9  12 2.99422 1.19981   1
   3  -9  12  3.8121 1.17696   1
   3  -9  12 1.76023  1.4686   1
  -4   9 -12 3.69749 1.42444   1
   4  -9  12 2.84889 1.14158   1
   4  -9  12 3.98036 1.14158   1
  -1  -8  12 7.61447 1.82791   1
   0  -8  12 17.8266 2.45621   1
   1  -8  12  89.007 6.11557   1
   1  -8  12 88.0837 5.81142   1
   2  -8  12 653.135 33.8586   1
   2  -8  12 631.976 33.8586   1
   2  -8  12 599.631 33.5472   1
   3  -8  12 93.3479 5.92568   1
   3  -8  12 79.4231 5.92568   1
  -4   8 -12 46.4771 3.72958   1
   4  -8  12 42.4622 3.44426   1
   4  -8  12 39.3033 3.44426   1
  -5   8 -12 94.5177 5.75046   1
   5  -8  12 87.6677 5.47802   1
  -1  -7  12  144.01 8.94794   1
   0  -7  12 117.576 7.96021   1
   1  -7  12 22.7683 3.04009   1
   1  -7  12  28.234 3.04009   1
   2  -7  12 2.40531 1.50733   1
   2  -7  12 3.31398 1.80665   1
   2  -7  12 0.89798 1.50733   1
   3  -7  12 6.22737 1.78076   1
   3  -7  12-3.26647 4.44662   1
   3  -7  12 1.19068 1.78076   1
  -4   7 -12  9.2138 2.01456   1
   4  -7  12 8.92747 1.72823   1
   4  -7  12 10.3694 2.01456   1
   4  -7  12-0.28633 4.61201   1
  -5   7 -12 154.907 9.30373   1
   5  -7  12 157.366 9.03152   1
   5  -7  12 161.478 12.3175   1
  -1  -6  12 80.3969 6.08953   1
   0  -6  12 24.9816 3.31378   1
   0  -6  12  24.383 3.01447   1
   1  -6  12 647.443 33.2243   1
   1  -6  12 571.415 32.9266   1
   2  -6  12 320.391 17.9299   1
   2  -6  12 300.965 17.6326   1
   3  -6  12 235.746 18.9802   1
   3  -6  12 215.281 13.0502   1
   3  -6  12 214.691 13.0502   1
  -4   6 -12 91.4861 6.34438   1
   4  -6  12  89.754 6.05739   1
   4  -6  12 83.1124 10.6799   1
   4  -6  12 87.1506 6.34438   1
  -5   6 -12 36.0714 3.55182   1
   5  -6  12 34.4313 3.00838   1
   5  -6  12 33.8782  5.4636   1
  -6   6 -12  51.151 3.79496   1
   6  -6  12 47.8597 3.03957   1
   6  -6  12 46.5917 5.31474   1
  -1  -5  12 57.8043 5.09538   1
  -1  -5  12 50.0177 8.38237   1
  -1  -5  12 50.3155 4.48904   1
   0  -5  12 209.057 13.3452   1
   0  -5  12 237.822 13.3452   1
   1  -5  12 26.4053 3.56145   1
   1  -5  12 40.6406 8.60859   1
   1  -5  12 32.3375 3.85648   1
   2  -5  12 -0.5931 1.78989   1
   2  -5  12-1.78989 5.36967   1
   2  -5  12 -0.5931 1.49334   1
  -3   5 -12 16.9448 4.15966   1
   3  -5  12 14.5694 2.67105   1
   3  -5  12 14.2738 2.37544   1
   3  -5  12  8.9211 5.64827   1
  -4   5 -12  132.78 8.96915   1
   4  -5  12  132.78 13.3047   1
   4  -5  12 127.284 8.68148   1
   4  -5  12 153.873 8.96915   1
  -5   5 -12 121.961  7.8993   1
   5  -5  12 120.597 7.34819   1
   5  -5  12 122.782 10.8869   1
  -6   5 -12 18.4481 2.23962   1
   6  -5  12 20.9355 3.48778   1
  -3  -4  12 6.42582 5.20807   1
  -2  -4  12 0.89984 1.51045   1
  -2  -4  12-3.32084 5.43119   1
  -1  -4  12    0.00 1.78283   1
  -1  -4  12-1.19207 5.93925   1
  -1  -4  12 1.19207 1.48745   1
   0  -4  12 82.7191 6.49456   1
   0  -4  12 87.1468 6.20079   1
   1  -4  12 54.6681 5.05424   1
   1  -4  12 50.2048 9.21159   1
   1  -4  12 46.0474  4.4528   1
   2  -4  12 1173.07 63.8573   1
   2  -4  12 1111.61 58.4693   1
   2  -4  12 1018.99 58.4693   1
   3  -4  12 77.1488 11.0668   1
   3  -4  12 80.4412 5.97946   1
   3  -4  12 76.2567 5.97946   1
  -4   4 -12-1.45095 1.73908   1
   4  -4  12-1.73908  3.7663   1
   4  -4  12 0.28813 1.45095   1
  -5   4 -12 69.1497  5.1325   1
   5  -4  12 55.6421 4.04844   1
   5  -4  12  51.325 7.55965   1
  -6   4 -12 6.58895 1.70792   1
   6  -4  12  6.3462  2.6876   1
  -6  -3  12 254.721 13.9254   1
  -5  -3  12 19.0107  2.3737   1
  -5  -3  12 19.8969 6.53031   1
  -4  -3  12 93.5581 6.43838   1
  -4  -3  12 93.8631 11.9617   1
  -3  -3  12 0.60921  1.2293   1
  -3  -3  12 2.75232 5.21091   1
  -2  -3  12 12.6895 2.71382   1
  -2  -3  12 13.2902 6.33941   1
  -2  -3  12 12.6895 2.41348   1
  -1  -3  12 8.06004  5.9708   1
  -1  -3  12 10.1493 2.08925   1
  -1  -3  12 11.0507  2.3862   1
   0  -3  12 396.699 26.5483   1
   0  -3  12 342.406 20.2873   1
   1  -3  12 122.447 8.41958   1
   1  -3  12 123.644 14.7449   1
   1  -3  12 122.746 8.12041   1
   2  -3  12 3.34176 5.16356   1
   2  -3  12 0.30184 1.51996   1
   2  -3  12-1.51996 1.51996   1
   3  -3  12 15.3667 6.32432   1
   3  -3  12 28.3257 3.31732   1
   3  -3  12 24.1095 3.01769   1
   4  -3  12 93.1015 11.2757   1
   4  -3  12 115.078 6.94205   1
  -5   3 -12 19.4209 3.19429   1
   5  -3  12 25.5449 5.05605   1
  -6   3 -12 0.47172 1.18772   1
   6  -3  12 1.89529 1.89529   1
  -7  -2  12 83.7592 5.01451   1
  -6  -2  12 111.138 6.75502   1
  -6  -2  12 99.0371 10.9719   1
  -5  -2  12 5.72274 5.42324   1
  -5  -2  12 9.63774 2.10725   1
  -4  -2  12 139.766 14.5289   1
  -4  -2  12 147.804 8.97215   1
  -4  -2  12 136.361 8.65367   1
  -3  -2  12 167.873 15.7703   1
  -3  -2  12 144.404 8.97239   1
  -3  -2  12 139.154 9.27989   1
  -2  -2  12 624.498 37.9773   1
  -2  -2  12 697.091 37.9773   1
  -2  -2  12 849.903 44.4174   1
  -1  -2  12 4.25733 1.52356   1
  -1  -2  12    0.00 5.17579   1
  -1  -2  12 2.43122 1.82611   1
  -1  -2  12 1.22101 1.52356   1
   0  -2  12  1.2229 1.82894   1
   0  -2  12 4.56693 5.18379   1
   0  -2  12  1.2229 1.52592   1
   1  -2  12 1413.39  82.301   1
   1  -2  12 1447.49 76.7714   1
   1  -2  12 1469.29  76.466   1
   2  -2  12 138.988 8.62449   1
   2  -2  12 118.335 14.7973   1
   2  -2  12 138.057 8.94188   1
   3  -2  12 4.53684 1.51586   1
   3  -2  12 6.96653 5.14964   1
   3  -2  12 3.03173 1.81689   1
   4  -2  12 20.0406 5.43974   1
   5  -2  12 121.646 10.1149   1
  -7  -1  12 66.0218 7.51251   1
  -7  -1  12 71.1987 4.66199   1
  -7  -1  12 64.2104 4.14705   1
  -6  -1  12 94.0582 6.00047   1
  -6  -1  12 112.923 11.7167   1
  -6  -1  12 88.3318 6.00047   1
  -5  -1  12 568.867 30.7303   1
  -5  -1  12 574.043 36.8137   1
  -5  -1  12  560.05 30.4278   1
  -4  -1  12 45.3829 9.39224   1
  -4  -1  12 39.4363  3.7569   1
  -4  -1  12 42.8708 4.06812   1
  -3  -1  12  594.27 33.9989   1
  -3  -1  12 618.822 33.6858   1
  -3  -1  12 685.243 40.2933   1
  -2  -1  12 335.314 23.2181   1
  -2  -1  12 292.967 16.6226   1
  -2  -1  12 267.554 16.6226   1
  -2  -1  12 293.591 17.2576   1
   1   1 -12 8.44101 24.3901   1
  -1  -1  12 5.00907 5.63104   1
  -1  -1  12 1.25504 1.25504   1
  -1  -1  12 3.44304 1.87701   1
   0  -1  12 74.8399 5.63885   1
   0  -1  12 71.7146 5.63885   1
   0  -1  12 76.4081 11.2777   1
   0  -1  12 77.9763 5.95027   1
   1  -1  12 226.055 13.1931   1
   1  -1  12 226.992 13.1931   1
   1  -1  12 217.892 19.4718   1
   1  -1  12 227.628 13.8176   1
   2  -1  12 102.573 13.0984   1
   2  -1  12 110.357 7.17479   1
   2  -1  12 116.601 8.10486   1
   3  -1  12 122.074  8.4359   1
   3  -1  12 121.775 12.6646   1
   3  -1  12 117.856 7.53664   1
   4  -1  12 17.9159 5.04073   1
   4  -1  12 21.2764 2.51539   1
   5  -1  12  27.193 2.24171   1
  -8   0  12  43.486 3.07197   1
  -8   0  12 48.4465 2.83696   1
  -8   0  12 50.5784  5.1955   1
  -7   0  12 206.041 12.0887   1
  -7   0  12 235.483 16.0374   1
  -7   0  12  214.19 12.3501   1
  -6   0  12 0.85876 1.15524   1
  -6   0  12 2.30025 4.61072   1
  -6   0  12 0.85876 1.15524   1
  -5   0  12 121.087 14.7195   1
  -5   0  12 120.478 7.66458   1
  -5   0  12 112.813 7.66458   1
  -4   0  12 82.1758 6.34375   1
  -4   0  12 98.9873  13.003   1
  -4   0  12 95.1788 6.34375   1
  -3   0  12 42.7633 3.85954   1
  -3   0  12 40.5138 8.67826   1
  -3   0  12 48.2329 4.17927   1
  -2   0  12 422.675 24.1666   1
  -2   0  12 457.151 24.1666   1
  -2   0  12 422.354 29.3157   1
  -2   0  12 435.559 24.8074   1
  -1   0  12 114.534 14.4767   1
  -1   0  12 133.193 8.68376   1
  -1   0  12 124.178 8.36384   1
  -1   0  12 130.291 8.04391   1
   0   0  12 800.008 49.7604   1
   0   0  12 834.649   44.31   1
   0   0  12 823.406 44.6292   1
   0   0  12 819.564 43.9793   1
   1   0  12 7.97404 2.23137   1
   1   0  12 5.74267 1.91422   1
   1   0  12 9.57112 5.42552   1
   2   0  12 97.9099 7.48638   1
   2   0  12 89.1832 12.1598   1
   2   0  12 99.4714 6.54505   1
   3   0  12 2.65697 1.18671   1
   3   0  12    0.00 1.77481   1
   4   0  12 169.115 9.69925   1
   5   0  12 26.7195 2.12446   1
  -8   1  12 8.65553 1.20358   1
  -8   1  12 6.00936 2.64617   1
  -8   1  12 7.21294 0.96457   1
  -7   1  12 84.3421 5.53232   1
  -7   1  12 75.3837 5.00811   1
  -7   1  12 85.1378 9.75411   1
  -7   1  12 74.8595 5.00811   1
  -6   1  12 260.142 20.1241   1
  -6   1  12 252.097 14.0899   1
  -6   1  12 233.402 14.0899   1
  -5   1  12 43.3108 8.91308   1
  -5   1  12 49.4529 3.68742   1
  -5   1  12 30.0994 3.68742   1
  -4   1  12 517.677 34.5808   1
  -4   1  12 540.727  28.497   1
  -4   1  12 515.436 28.8154   1
  -3   1  12 0.64988 4.57236   1
  -3   1  12 3.59754  1.6363   1
  -3   1  12 2.93606 1.31136   1
  -2   1  12 377.032 20.7121   1
  -2   1  12 359.613  25.966   1
  -2   1  12 379.005 20.3852   1
  -2   1  12 360.593 21.3659   1
  -1   1  12 93.8092 6.55837   1
  -1   1  12 88.5555 6.88454   1
  -1   1  12 91.8405 5.90603   1
  -1   1  12 80.6924 12.1382   1
   0   1  12 55.9276 4.54997   1
   0   1  12 46.4928 5.20821   1
   0   1  12 50.0727 8.77658   1
   1   1  12 60.5878 6.05878   1
   1   1  12 66.6465 5.10749   1
   2   1  12 166.827 10.1012   1
   2   1  12 159.782 11.0254   1
   3   1  12 111.226 7.11262   1
   4   1  12 59.8138 4.07677   1
   5   1  12 18.5524 1.54538   1
  -8   2  12  56.541 4.11036   1
  -8   2  12  67.173 6.76192   1
  -8   2  12 60.6428 3.87009   1
  -7   2  12 16.7437 2.09064   1
  -7   2  12 15.1734 1.83047   1
  -7   2  12 15.9632 2.35081   1
  -7   2  12 10.9921 4.45074   1
  -6   2  12 16.4902 2.27207   1
  -6   2  12  11.946 5.40248   1
  -6   2  12 16.2074 2.27207   1
  -5   2  12 54.5277 4.87936   1
  -5   2  12 55.7502 9.44497   1
  -5   2  12 64.8815 4.56561   1
  -4   2  12 18.8358 2.86902   1
  -4   2  12 14.6853 2.23398   1
  -4   2  12 18.5182 5.74939   1
  -3   2  12 1564.47 79.2473   1
  -3   2  12 1492.42 79.5729   1
  -3   2  12 1439.73 84.4808   1
  -2   2  12 75.2432 5.61394   1
  -2   2  12 69.6292 10.2317   1
  -2   2  12  80.189 5.28577   1
  -2   2  12 68.6447 6.27026   1
  -1   2  12  198.85 11.8191   1
  -1   2  12 184.082 12.4719   1
   0   2  12   92.22 7.42066   1
   0   2  12 90.6053 6.44727   1
   1   2  12 9.04182 2.18022   1
  -2  -2 -12 10.2758 2.63936   1
   2   2  12 9.98368 2.05516   1
   3   2  12 157.553 9.10883   1
   4   2  12 106.907 6.14882   1
  -8   3  12 35.6952 2.41566   1
  -8   3  12 30.8725 2.65551   1
  -8   3  12 28.9451 4.34305   1
  -7   3  12 63.8357 4.37882   1
  -7   3  12  58.689 4.37882   1
  -7   3  12 67.4375 8.23657   1
  -7   3  12 67.9494 4.89075   1
  -6   3  12 51.7079 8.61963   1
  -6   3  12 50.6021 4.45298   1
  -6   3  12 54.7687 4.45298   1
  -6   3  12 59.4982 4.16665   1
  -5   3  12 292.591 21.7263   1
  -5   3  12 291.999 16.9687   1
  -5   3  12 299.442 16.6727   1
  -4   3  12 173.503 16.2576   1
  -4   3  12  186.64 10.9383   1
  -4   3  12 182.887 11.2604   1
   3  -3 -12 129.148 10.2802   1
  -3   3  12 152.595 9.32182   1
  -3   3  12 149.069 8.67146   1
   2  -3 -12 82.8113 7.44475   1
  -2   3  12 86.6945 6.14651   1
   1  -3 -12 117.156 8.95863   1
  -1   3  12 123.238 8.00365   1
   0  -3 -12 155.679  10.894   1
   0   3  12 163.454 9.96496   1
  -1  -3 -12 97.0358 7.71481   1
   1   3  12 93.4735 6.52386   1
  -2  -3 -12 148.942 9.91644   1
   2   3  12 153.069 9.08518   1
   3   3  12 82.7718 5.20185   1
   4   3  12 42.7419 2.60443   1
   8  -4 -12 149.706 8.40759   1
  -8   4  12 147.299 10.3366   1
  -8   4  12 148.025 8.40759   1
  -7   4  12 24.4038 4.78067   1
  -7   4  12 34.7246 2.77011   1
  -7   4  12 33.9651 2.77011   1
  -7   4  12  36.485 3.27051   1
  -6   4  12  12.095 1.88059   1
  -6   4  12 15.5889 2.14789   1
  -6   4  12  12.095 2.14789   1
  -6   4  12 18.2809 5.10719   1
  -5   4  12 91.3112 6.00812   1
  -5   4  12 91.3112 6.29277   1
  -4   4  12 1172.67 63.2884   1
  -4   4  12 1220.37 63.5867   1
   3  -4 -12 31.3835 4.92826   1
  -3   4  12 33.2302 3.38749   1
   2  -4 -12 65.4824 6.48351   1
  -2   4  12 71.0444 5.25483   1
   1  -4 -12  189.61 12.7688   1
  -1   4  12 195.385 11.5491   1
   0  -4 -12 18.4605 3.51727   1
   0   4  12 14.3605 2.34138   1
  -1  -4 -12 35.6124 4.42213   1
   1   4  12 36.4458 3.31415   1
  -2  -4 -12 40.5364 4.56203   1
   2   4  12 46.6191  3.2933   1
   3   4  12 73.0859 4.29917   1
  -8   5  12 38.5354 2.89122   1
  -7   5  12 140.219 8.59196   1
  -7   5  12 147.093 8.10349   1
  -6   5  12 24.2494 2.83993   1
  -6   5  12 21.9225 2.31775   1
  -5   5  12 69.8221 4.89218   1
  -4   5  12 12.1597 2.25924   1
   3  -5 -12  52.235 6.05786   1
  -3   5  12 52.5322 4.32558   1
   2  -5 -12 12.9799 3.46267   1
  -2   5  12 17.0162 2.30503   1
   1  -5 -12 111.495  8.7516   1
   0  -5 -12 69.4628 6.48934   1
   0   5  12 70.2788 4.86701   1
  -1  -5 -12 3.78963 2.27198   1
   1   5  12 5.30728  1.2662   1
  -2  -5 -12 7.61239 2.76963   1
   2   5  12 9.22665 1.15538   1
   7  -6 -12 50.5072 3.62176   1
  -7   6  12 47.6064 3.62176   1
  -6   6  12 6.44092 1.48704   1
  -6   6  12 4.46113  0.9943   1
   3  -6 -12 116.959 9.09705   1
   2  -6 -12 21.8207 3.72341   1
   1  -6 -12 5.18327 2.59624   1
   0  -6 -12 39.5568 4.45178   1
  -1  -6 -12 0.92533 1.61319   1
   1   6  12 1.38391 0.68786   1
   7  -7 -12  7.3031 1.21862   1
  -7   7  12 8.76372 1.21862   1
  -6   7  12 27.5243 2.65811   1
   4  -7 -12 1.73523 2.22849   1
   3  -7 -12  3.4832 2.23667   1
   2  -7 -12 99.8957 7.38382   1
   1  -7 -12 98.6644 7.16927   1
   0  -7 -12-1.36535 1.36535   1
  -6   8  12 9.26462 1.70573   1
   4  -8 -12  219.59 12.8727   1
   3  -8 -12 18.9254 2.83924   1
   2  -8 -12 33.2108 3.48111   1
   1  -8 -12 48.1313 3.60226   1
   0  -9  13 51.9114 3.72833   1
   1  -9  13-0.29042 0.87127   1
   2  -9  13  0.8677 1.16726   1
  -3   9 -13 390.019  22.237   1
   3  -9  13 441.591  22.237   1
  -1  -8  13 37.0333 3.26146   1
   0  -8  13  154.85 9.36047   1
   1  -8  13 113.706 7.24119   1
   2  -8  13 13.0965 1.78637   1
   2  -8  13 13.9844 2.08233   1
  -3   8 -13-0.28865 1.16493   1
   3  -8  13-0.57731 0.86596   1
   3  -8  13 0.28865 1.16493   1
  -4   8 -13 1.67694 1.12127   1
   4  -8  13 1.67694 0.83351   1
   4  -8  13 2.51045 1.12127   1
  -1  -7  13 83.3472  5.8008   1
   0  -7  13 28.7056 3.05817   1
   0  -7  13 29.0093 3.36182   1
   1  -7  13 35.4418 3.63671   1
   1  -7  13 34.2368 3.63671   1
   2  -7  13 145.845 8.67213   1
   2  -7  13 129.116 8.36431   1
   2  -7  13 128.511 18.2359   1
  -3   7 -13 104.195 7.00715   1
   3  -7  13 125.797 11.6717   1
   3  -7  13 105.947 6.71691   1
   3  -7  13 107.989 6.71691   1
  -4   7 -13 183.944 10.9362   1
   4  -7  13 213.954 14.0239   1
   4  -7  13 192.082 10.6574   1
   4  -7  13 177.779 10.6574   1
  -5   7 -13 26.7712 2.65452   1
   5  -7  13 23.5895  3.7088   1
   5  -7  13 24.1166 2.11797   1
  -1  -6  13 382.613 20.4549   1
  -1  -6  13 367.646 21.0731   1
   0  -6  13 136.161 8.48719   1
   0  -6  13 137.077 8.79953   1
   1  -6  13 19.2676 2.70516   1
   1  -6  13  21.374 3.01524   1
   1  -6  13  23.181 7.22802   1
   2  -6  13 16.4029  2.6791   1
   2  -6  13 14.6133  6.2583   1
   2  -6  13 10.4305  2.0861   1
   3  -6  13 28.0421 3.21607   1
   3  -6  13 26.8698 2.92559   1
   3  -6  13 22.7822 6.13129   1
  -4   6 -13  2.2413 1.40455   1
   4  -6  13-1.96239 3.64585   1
   4  -6  13 0.27892 1.12563   1
   4  -6  13 2.52022 1.12563   1
  -5   6 -13 142.929  8.1628   1
   5  -6  13 137.664 10.5284   1
   5  -6  13 134.504 7.63919   1
  -2  -5  13 60.9582 4.56835   1
  -1  -5  13 0.30094 1.51547   1
  -1  -5  13-0.30094 1.81641   1
  -1  -5  13-0.30094 5.44923   1
   0  -5  13 694.357 38.7604   1
   0  -5  13  732.52 38.4616   1
   1  -5  13 31.7395 3.59395   1
   1  -5  13 35.3228  4.1894   1
   1  -5  13 32.3349 7.78335   1
   2  -5  13 299.205 17.8603   1
   2  -5  13  382.87 23.8243   1
   2  -5  13 309.028 18.1669   1
   3  -5  13 213.898 12.5694   1
   3  -5  13 221.496 12.5694   1
   3  -5  13 212.435 17.5308   1
   4  -5  13-0.27835 3.08169   1
   4  -5  13    0.00 1.12333   1
   4  -5  13 2.23671 1.68002   1
  -5   5 -13 17.9893  2.3424   1
   5  -5  13 14.6007 3.90709   1
   5  -5  13 15.3784 1.56469   1
  -4  -4  13 24.4459 6.86051   1
  -3  -4  13 346.105 21.8962   1
  -3  -4  13  289.22 16.7327   1
  -2  -4  13 6.06641 6.06641   1
  -2  -4  13 8.18912   1.821   1
  -2  -4  13  5.1613  2.1227   1
  -1  -4  13 3.31365 1.80647   1
  -1  -4  13    0.00 5.71872   1
  -1  -4  13 1.50718 1.80647   1
   0  -4  13 21.8714  7.4927   1
   0  -4  13 17.3801 3.00134   1
   0  -4  13 15.2834 2.69269   1
   1  -4  13  90.182 12.2796   1
   1  -4  13 79.0941 5.99085   1
   1  -4  13 84.1911  6.2888   1
   2  -4  13 39.4072 4.17715   1
   2  -4  13 35.8238 3.88029   1
   2  -4  13 35.8238 7.76059   1
   3  -4  13-0.87273 3.80261   1
   3  -4  13 1.17403 1.17403   1
   3  -4  13 1.17403 1.46494   1
   4  -4  13 17.5476 1.94863   1
   4  -4  13 18.1015 4.46108   1
   5  -4  13 57.7874 6.67725   1
  -6  -3  13 53.3085 3.41338   1
  -5  -3  13 25.0464 6.04182   1
  -5  -3  13 15.8355 2.30018   1
  -4  -3  13 81.8979 5.42136   1
  -4  -3  13 92.1311 6.02017   1
  -4  -3  13 92.4305 11.4415   1
  -3  -3  13 17.6756 2.43541   1
  -3  -3  13 20.4141 6.70007   1
  -2  -3  13 77.4596 5.46964   1
  -2  -3  13 77.1575 11.2414   1
  -1  -3  13 36.8546 3.92687   1
  -1  -3  13 40.7815 9.36655   1
   0  -3  13 13.5744 2.71059   1
   0  -3  13 20.8169 7.24254   1
   0  -3  13 14.4851 2.41061   1
   1  -3  13 254.225 14.7999   1
   1  -3  13 256.638 15.1002   1
   1  -3  13 258.451 20.5375   1
   2  -3  13 62.1452 10.2047   1
   2  -3  13 65.7494 5.10768   1
   2  -3  13 63.0516 4.80911   1
   3  -3  13 11.9844 2.33665   1
   3  -3  13 11.1121 4.68369   1
   3  -3  13  6.1376 1.75508   1
   4  -3  13 61.7403 4.41491   1
   4  -3  13 52.0979 7.43977   1
   5  -3  13 -1.7573 2.25684   1
  -7  -2  13 154.308 8.46241   1
  -7  -2  13 160.356  10.404   1
  -6  -2  13 13.5507 1.62647   1
  -6  -2  13 13.5507 4.87941   1
  -5  -2  13 21.6088   2.333   1
  -5  -2  13 32.9938  7.2997   1
  -5  -2  13 24.2321 2.62333   1
  -4  -2  13 441.628 23.9434   1
  -4  -2  13 429.807 23.6419   1
  -4  -2  13 430.722 28.7988   1
  -3  -2  13  249.38 14.4143   1
  -3  -2  13 257.355 20.2433   1
  -3  -2  13 246.003 14.1093   1
  -2  -2  13 105.814 7.66861   1
  -2  -2  13 123.602 7.66861   1
  -2  -2  13 122.382 8.27861   1
  -2  -2  13  128.82 14.4113   1
  -1  -2  13 58.7549 5.20599   1
  -1  -2  13 52.0273 4.90168   1
  -1  -2  13 72.8296 11.0206   1
  -1  -2  13 63.6566 4.90168   1
   0  -2  13 217.506 13.1588   1
   0  -2  13  224.84 13.7673   1
   0  -2  13 230.958 19.8849   1
   0  -2  13  240.14  13.463   1
   1  -2  13 80.0547 6.10964   1
   1  -2  13 69.9733 10.6892   1
   1  -2  13 84.0265 5.80578   1
   2  -2  13 9.65672  1.8113   1
   2  -2  13 10.2569  2.4115   1
   2  -2  13 7.54532 5.13382   1
   3  -2  13 78.7768 5.81275   1
   3  -2  13 63.0833 9.59156   1
   4  -2  13 31.3613   5.675   1
   5  -2  13-0.97592 1.94321   1
  -7  -1  13 21.7479 1.99725   1
  -7  -1  13 22.4935 4.00338   1
  -6  -1  13 48.4181 7.69845   1
  -6  -1  13 46.4838 3.30212   1
  -6  -1  13 43.1914 3.30212   1
  -5  -1  13 81.1604 11.1751   1
  -5  -1  13  69.108 5.00268   1
  -5  -1  13 68.2203 5.00268   1
  -4  -1  13 22.5962 2.43961   1
  -4  -1  13  32.669 8.24045   1
  -4  -1  13 20.1457  2.7432   1
  -3  -1  13 247.181 14.2659   1
  -3  -1  13  249.66 14.5744   1
  -3  -1  13 254.011 20.4681   1
  -2  -1  13 47.0373 4.04883   1
  -2  -1  13 51.3958 9.03797   1
  -2  -1  13 42.6676 4.66833   1
  -2  -1  13 47.0373 4.04883   1
  -1  -1  13 1031.21 55.7544   1
  -1  -1  13 1049.28 55.4446   1
  -1  -1  13 1054.58  61.363   1
  -1  -1  13 1024.98 55.4446   1
   0  -1  13 1245.77 68.3991   1
   0  -1  13 1294.27 73.9978   1
   0  -1  13 1261.63 68.0899   1
   0  -1  13 1324.12 67.7807   1
   1  -1  13 0.61371 1.54522   1
   1  -1  13 2.46578 1.23837   1
   1  -1  13 5.55623 4.62471   1
   1  -1  13 0.92056 1.23837   1
   2  -1  13-1.20941 1.50909   1
   2  -1  13-1.50909 4.21689   1
   2  -1  13 1.50909 1.20941   1
   3  -1  13 74.0887  4.8661   1
   3  -1  13 72.0772 5.71945   1
   3  -1  13   65.22 9.15315   1
   4  -1  13 9.43468 1.31192   1
   4  -1  13 6.81083 3.14489   1
   5  -1  13 14.4294 1.85945   1
  -7   0  13  139.23 10.9096   1
  -7   0  13 126.573 7.36014   1
  -7   0  13 127.312 7.36014   1
  -6   0  13 41.9869 3.59047   1
  -6   0  13 44.1941 3.59047   1
  -6   0  13 53.3077 8.01479   1
  -5   0  13 40.0764 8.55117   1
  -5   0  13 33.0115 3.53769   1
  -5   0  13 38.6111 3.24463   1
  -4   0  13 185.119 16.8914   1
  -4   0  13 192.796 11.0574   1
  -4   0  13 174.367 11.0574   1
  -3   0  13 305.121  23.524   1
  -3   0  13 291.632 17.2531   1
  -3   0  13 310.757 16.9301   1
  -2   0  13  37.625  7.9045   1
  -2   0  13 35.4131 4.42383   1
  -2   0  13 37.9394 3.79506   1
  -2   0  13 37.9394 3.48068   1
  -1   0  13 486.895  32.253   1
  -1   0  13 461.313 26.5594   1
  -1   0  13 479.618 25.9305   1
  -1   0  13 473.329 26.2449   1
   0   0  13 263.871 15.0854   1
   0   0  13 272.351 15.3978   1
   0   0  13 264.808 16.0226   1
   0   0  13 274.549 21.3672   1
   1   0  13  23.767 6.78587   1
   1   0  13 33.3374 3.09146   1
   1   0  13 28.7111 4.01232   1
   2   0  13 326.161 18.1265   1
   2   0  13  308.34 21.9881   1
   2   0  13 331.214 18.7173   1
   3   0  13 61.0041 4.15624   1
   4   0  13 30.2752  2.5059   1
   5   0  13 6.82094 0.88289   1
  -8   1  13 0.23454 1.88472   1
  -8   1  13 2.59673 0.70363   1
  -7   1  13 38.3862 5.85002   1
  -7   1  13 39.3974  3.0514   1
  -7   1  13 40.1647  3.0514   1
  -6   1  13 64.0456 4.67579   1
  -6   1  13 61.8395 4.40246   1
  -6   1  13 56.0704 8.52184   1
  -5   1  13-0.29167 1.17711   1
  -5   1  13 2.93757 4.39594   1
  -5   1  13 0.58335 1.17711   1
  -4   1  13 104.632 7.36706   1
  -4   1  13 113.536 7.06191   1
  -4   1  13 108.315 12.5763   1
  -3   1  13 32.4276  3.1533   1
  -3   1  13 26.7583 6.60852   1
  -3   1  13 27.0714  3.1533   1
  -2   1  13 389.875 20.9864   1
  -2   1  13 374.615 20.6702   1
  -2   1  13 358.712 25.7643   1
  -2   1  13 368.889 21.6302   1
  -1   1  13 89.1822 6.97722   1
  -1   1  13 96.4863 6.66161   1
  -1   1  13 82.8362 11.1027   1
  -1   1  13 89.8134 5.71478   1
   0   1  13 10.3265 2.18979   1
   0   1  13 8.13669 5.01318   1
   0   1  13 10.0152 2.50103   1
   1   1  13 0.60397 1.82269   1
   1   1  13 2.72864  1.5207   1
   2   1  13 8.91849 1.72649   1
   3   1  13 73.4622 4.75796   1
   4   1  13 19.0776 1.64765   1
   8  -2 -13 40.6844 2.85593   1
  -8   2  13  39.493 2.61935   1
  -8   2  13 39.9662 4.99366   1
  -7   2  13 30.2808 5.29623   1
  -7   2  13 31.7953 2.77806   1
  -7   2  13 39.8696 2.77806   1
  -6   2  13 9.20939 4.60951   1
  -6   2  13 6.23583 1.35687   1
  -6   2  13 6.50528 1.62632   1
  -5   2  13 261.453 19.6508   1
  -5   2  13 252.495 14.7355   1
  -5   2  13 258.857 14.4482   1
  -4   2  13 192.959 11.2119   1
  -4   2  13 183.566 16.3552   1
  -4   2  13 198.716 11.8145   1
  -3   2  13 99.0738 6.53927   1
  -3   2  13 101.563 6.84908   1
  -3   2  13 91.9038 10.8988   1
  -2   2  13 228.674 18.8709   1
  -2   2  13 252.584 15.7313   1
  -2   2  13 264.226 14.4688   1
  -2   2  13 275.231 15.1056   1
  -1   2  13-0.93239 1.56508   1
  -1   2  13 2.18667 1.25428   1
   0   2  13 5.49925 1.83308   1
  -1  -2 -13 157.027 10.2317   1
   1   2  13 145.071 9.06826   1
  -2  -2 -13 4.91577 1.91007   1
   2   2  13 1.63859 1.09563   1
   3   2  13 21.5436  1.9785   1
   4   2  13 37.8783 2.41065   1
   8  -3 -13 66.1608 4.06347   1
  -8   3  13 65.4482  5.9722   1
  -8   3  13 66.4068 3.82594   1
  -7   3  13 47.0189 3.48092   1
  -7   3  13  48.512 6.21972   1
  -7   3  13 50.4999 3.48092   1
  -6   3  13 38.6305 2.91303   1
  -6   3  13 29.9008 5.81666   1
  -6   3  13  34.665 3.43925   1
  -5   3  13 76.7152 9.83017   1
  -5   3  13 77.2741 5.05979   1
  -5   3  13 71.0966 5.33923   1
  -4   3  13 86.8153 10.8911   1
  -4   3  13 97.4137 6.77297   1
  -4   3  13 97.7064  6.1772   1
   3  -3 -13 450.775 26.3084   1
  -3   3  13 457.701 24.7943   1
  -3   3  13 470.093 25.3956   1
   2  -3 -13 188.432 12.1757   1
  -2   3  13 188.432 11.2674   1
   1  -3 -13 251.969 15.9349   1
  -1   3  13 270.317 15.0378   1
   0  -3 -13 90.5617 7.28051   1
   0   3  13 85.8976 6.11191   1
  -1  -3 -13 28.9452 3.85806   1
   1   3  13 24.2646 2.76135   1
  -2  -3 -13 55.4813 5.08895   1
   2   3  13 57.7772 4.07658   1
   3   3  13 2.05778 0.68322   1
   8  -4 -13 175.651 9.61047   1
  -7   4  13 46.4584 3.17828   1
  -7   4  13 45.9634 3.17828   1
  -7   4  13 37.1667 5.62711   1
  -6   4  13 309.417 17.1726   1
  -6   4  13 302.752 20.2502   1
  -6   4  13 328.137 17.4367   1
  -5   4  13  60.195 4.32361   1
  -5   4  13 63.1669 4.59204   1
  -4   4  13 44.4289 3.93459   1
  -4   4  13 45.2677 3.65497   1
   3  -4 -13 0.85823 2.29882   1
  -3   4  13 0.28608  1.4406   1
   2  -4 -13 58.8279  6.0528   1
  -2   4  13  67.482 4.90574   1
   1  -4 -13 57.4744 5.94251   1
  -1   4  13 65.1162 4.81635   1
   0  -4 -13  120.53 8.70658   1
   0   4  13 117.273 7.34406   1
  -1  -4 -13 137.998 9.20471   1
   1   4  13 134.676 7.92476   1
  -2  -4 -13 6.56225 2.10692   1
   2   4  13 11.9586 1.40739   1
  -7   5  13 13.0227  2.1676   1
  -6   5  13 50.3108 3.46789   1
  -5   5  13 355.365 19.3028   1
  -5   5  13 349.955 19.0469   1
  -4   5  13 37.1736 3.45143   1
   3  -5 -13  50.717 5.93119   1
  -3   5  13 61.5158 4.32143   1
   2  -5 -13 92.7837 7.52662   1
   1  -5 -13 21.8022 3.41446   1
  -1   5  13 27.8475 2.63082   1
   0  -5 -13 18.3351 3.01571   1
   0   5  13 16.8273 1.75767   1
  -1  -5 -13  33.619  3.5239   1
   1   5  13 26.5712 2.11267   1
   2   5  13 4.30814 0.64278   1
   7  -6 -13  36.256 2.90116   1
   3  -6 -13 47.1391 5.04071   1
   2  -6 -13  46.464 4.99508   1
   1  -6 -13-1.70069 1.70069   1
   0  -6 -13 29.4676 3.47744   1
  -1  -6 -13 1.51976 1.30375   1
   4  -7 -13  124.15  10.052   1
   3  -7 -13 1.19359 1.66764   1
   2  -7 -13 103.767 7.04567   1
   1  -7 -13  1.1412 1.36782   1
   3  -8 -13 63.1016 4.42456   1
   0  -8  14 3.50621 1.17219   1
   1  -8  14 47.4788 3.51849   1
   1  -8  14 43.6688 3.51849   1
   2  -8  14 35.5563 2.89543   1
   2  -8  14 31.7984 2.59767   1
   3  -8  14   30.91  2.5251   1
   3  -8  14 30.3511  2.5251   1
   0  -7  14-1.20457 1.20457   1
   0  -7  14 1.80153 1.20457   1
   1  -7  14 74.2247 4.77469   1
   1  -7  14 62.6003 4.77469   1
   2  -7  14 28.3964 2.93218   1
   2  -7  14 35.4253 6.43624   1
   2  -7  14 32.4931 2.93218   1
   3  -7  14 22.9868 2.54961   1
   3  -7  14 20.1449  5.1093   1
   3  -7  14 20.4271 1.98527   1
   4  -7  14 6.50188 2.98163   1
   4  -7  14  2.4334 0.80793   1
   4  -7  14  2.4334 1.08685   1
  -1  -6  14 0.90116 1.21227   1
  -1  -6  14 0.60077 1.21227   1
   0  -6  14 129.264 11.7503   1
   0  -6  14  81.353 5.72532   1
   0  -6  14  71.711 5.72532   1
   1  -6  14 314.879 17.6087   1
   1  -6  14 304.139 17.3119   1
   2  -6  14 23.4699 2.63555   1
   2  -6  14 28.4493 6.44823   1
   2  -6  14 27.5743 2.93764   1
   3  -6  14 52.0142 3.97702   1
   3  -6  14 52.5794 3.69439   1
   3  -6  14 50.5909 7.10615   1
   4  -6  14  28.915 2.42798   1
   4  -6  14 29.7212 2.70629   1
   4  -6  14 28.0993 4.86556   1
  -2  -5  14 654.811 34.9566   1
  -1  -5  14 48.8731 8.14373   1
  -1  -5  14 38.6184 3.92185   1
  -1  -5  14 38.0184 3.62182   1
   0  -5  14 159.061 14.1044   1
   0  -5  14 93.0589 6.90826   1
   0  -5  14 92.4513 6.59909   1
   1  -5  14 49.1187 8.93356   1
   1  -5  14 39.2971 3.86945   1
   1  -5  14 42.8705 3.86945   1
   2  -5  14 58.0018 4.39045   1
   2  -5  14 53.6114 4.09914   1
   2  -5  14 57.1279 8.19829   1
   3  -5  14 5.67144 1.70244   1
   3  -5  14 5.10731 3.40488   1
   3  -5  14 5.38937 1.13832   1
   4  -5  14 7.51222 2.95532   1
   4  -5  14 8.85642 1.34419   1
   5  -5  14 101.023 5.47002   1
   5  -5  14  97.285 7.46715   1
  -4  -4  14 62.6925 8.95754   1
  -3  -4  14 69.6123 4.78511   1
  -3  -4  14 88.4238 10.4509   1
  -2  -4  14 3.91689 1.80862   1
  -2  -4  14 8.13343 5.42585   1
  -2  -4  14  5.7255 1.50896   1
  -1  -4  14 130.544 8.72784   1
  -1  -4  14 171.726 14.4431   1
   0  -4  14 224.282 14.0715   1
   0  -4  14 291.661 20.6658   1
   0  -4  14 236.556 13.7737   1
   1  -4  14  241.45 13.9737   1
   1  -4  14 244.428   14.28   1
   1  -4  14 235.799 19.3286   1
   2  -4  14 59.6888 8.78082   1
   2  -4  14 69.6334 4.97753   1
   2  -4  14  74.611 5.26849   1
   3  -4  14  3.3895  3.3895   1
   3  -4  14 5.36503 1.69475   1
   3  -4  14 6.77899 1.41396   1
   4  -4  14  25.477 2.12072   1
   4  -4  14 22.5551 4.51479   1
   5  -4  14 38.0035 4.38702   1
  -6  -3  14 28.9236 2.00982   1
  -5  -3  14 68.7006 8.58881   1
  -5  -3  14 56.7865 4.15175   1
  -4  -3  14 35.7105 7.31883   1
  -4  -3  14 18.7337 2.04803   1
  -4  -3  14 18.1515 2.63021   1
  -3  -3  14 448.073 28.1782   1
  -3  -3  14 407.611 22.7811   1
  -2  -3  14 209.207  12.967   1
  -2  -3  14 244.478 18.9955   1
  -2  -3  14 211.017 12.6672   1
  -1  -3  14 37.3386 9.03785   1
  -1  -3  14 37.3386 3.61514   1
  -1  -3  14 38.2477  4.2141   1
   0  -3  14  246.72  20.416   1
   0  -3  14  233.51 14.4138   1
   0  -3  14 246.421 14.1047   1
   1  -3  14 74.4858 10.4232   1
   1  -3  14 77.7662  5.6613   1
   1  -3  14 78.0625 5.36501   1
   2  -3  14 21.6211  2.9257   1
   2  -3  14 23.6649 2.62483   1
   2  -3  14  17.523 5.55052   1
   3  -3  14 14.2787 4.48448   1
   3  -3  14 18.7533 2.51568   1
   3  -3  14 17.6396 1.95885   1
   4  -3  14 126.169  9.9061   1
   5  -3  14 2.12824 1.65716   1
  -6  -2  14-0.77614 2.60563   1
  -6  -2  14 2.33767  1.0441   1
  -5  -2  14  170.93 9.83674   1
  -5  -2  14 162.781 9.55712   1
  -5  -2  14 167.275  14.061   1
  -4  -2  14 20.8976 6.47105   1
  -4  -2  14 18.8382 2.35216   1
  -4  -2  14 16.7787 2.05945   1
  -3  -2  14 20.7499 6.61048   1
  -3  -2  14 12.9326 2.40284   1
  -3  -2  14 16.5422 2.10382   1
  -2  -2  14 293.688 16.9594   1
  -2  -2  14 308.529 17.5617   1
  -2  -2  14 290.354 17.2606   1
  -2  -2  14  321.24 23.0141   1
  -1  -2  14 80.2826 6.05723   1
  -1  -2  14 89.6643 6.35848   1
  -1  -2  14 91.7838  13.029   1
  -1  -2  14 83.3058 5.75599   1
   0  -2  14 360.694 20.5305   1
   0  -2  14 364.928 26.5664   1
   0  -2  14 365.228 20.2196   1
   0  -2  14 369.452 20.8307   1
   1  -2  14 123.903 13.7316   1
   1  -2  14 149.553 10.1476   1
   1  -2  14 136.139 8.35562   1
   1  -2  14 134.358 8.96003   1
   2  -2  14  3.1994 3.77736   1
   2  -2  14-0.28898 1.45521   1
   2  -2  14 0.86693 0.86693   1
   3  -2  14 1.65453  1.3804   1
   3  -2  14-1.10628 2.76081   1
   4  -2  14 14.9695 3.29851   1
  -7  -1  14  0.7207 0.48047   1
  -7  -1  14 1.93044 2.17068   1
  -6  -1  14 34.0677 2.64512   1
  -6  -1  14 30.8973 5.54351   1
  -6  -1  14 32.7451 2.64512   1
  -5  -1  14 1.69589 1.13394   1
  -5  -1  14 0.56195 3.95374   1
  -5  -1  14 3.67276 1.41492   1
  -4  -1  14 158.376 9.43948   1
  -4  -1  14  170.77 15.3378   1
  -4  -1  14 156.312 9.73282   1
  -3  -1  14 372.109 26.2622   1
  -3  -1  14  372.42 20.8276   1
  -3  -1  14 370.908 20.5274   1
  -2  -1  14 153.221 15.2356   1
  -2  -1  14  154.13 10.0524   1
  -2  -1  14 154.747 9.74946   1
  -2  -1  14 158.404 9.44648   1
  -1  -1  14-0.90992 1.22406   1
  -1  -1  14-3.66136 4.26797   1
  -1  -1  14 1.83068 1.52737   1
  -1  -1  14 0.90992 0.90992   1
   0  -1  14 35.4577 4.24115   1
   0  -1  14 36.9755 8.18089   1
   0  -1  14 34.2521 3.33694   1
   0  -1  14 37.8904 3.33694   1
   1  -1  14 164.603 10.1185   1
   1  -1  14 172.934  15.183   1
   1  -1  14 168.176 10.7212   1
   1  -1  14 165.195 9.82244   1
   2  -1  14 30.9628 2.87126   1
   2  -1  14 27.2363 6.01744   1
   2  -1  14 31.8181 3.72653   1
   3  -1  14 56.1265 6.98124   1
   3  -1  14 64.4525 4.83537   1
   4  -1  14 33.7174 2.44681   1
  -7   0  14 0.98519 2.20578   1
  -7   0  14 0.48824 0.48824   1
  -7   0  14 0.48824 0.73235   1
  -6   0  14 117.562 10.8516   1
  -6   0  14 110.942 6.62001   1
  -6   0  14 112.794 6.88331   1
  -5   0  14 0.28028 1.13114   1
  -5   0  14 0.84084 1.13114   1
  -5   0  14-0.56056 3.94396   1
  -4   0  14 18.5506 2.35281   1
  -4   0  14  21.489 6.18005   1
  -4   0  14 20.9034 2.64561   1
  -3   0  14 23.2592  2.4139   1
  -3   0  14 24.1711  6.3405   1
  -3   0  14 21.1457 2.71429   1
  -2   0  14 1.22601 0.91137   1
  -2   0  14 2.44116 3.97096   1
  -2   0  14 0.91137 1.22601   1
  -2   0  14 0.91137 1.83359   1
  -1   0  14 452.317 25.0473   1
  -1   0  14 471.832 25.6548   1
  -1   0  14 437.358 30.2434   1
  -1   0  14  459.01 25.0473   1
   0   0  14 286.738 21.4309   1
   0   0  14 294.586 16.2956   1
   0   0  14 302.433 16.6065   1
   0   0  14 290.662 17.2069   1
   1   0  14 4.99524 4.10882   1
   1   0  14 7.92564 1.76241   1
   1   0  14 6.75765 2.05441   1
   2   0  14 40.2085 4.18445   1
   2   0  14 32.6625 3.07389   1
   2   0  14 39.6433 6.13786   1
  -3   0 -14 6.19736 1.80604   1
   3   0  14 7.74671 1.29265   1
   4   0  14 32.3106 2.32795   1
  -7   1  14 18.7189 1.72319   1
  -7   1  14 13.0508 3.44638   1
  -7   1  14 15.7624 1.72319   1
  -6   1  14 3.67878 1.05508   1
  -6   1  14 5.51817 4.21099   1
  -6   1  14 6.83469 1.31652   1
  -5   1  14 66.6704 4.46847   1
  -5   1  14 59.7051 4.74589   1
  -5   1  14 61.0922 8.92703   1
  -4   1  14 147.273 14.0063   1
  -4   1  14  160.99 9.62415   1
  -4   1  14 154.277 9.04401   1
  -3   1  14 6.59103 1.79949   1
  -3   1  14 7.79424 1.50135   1
  -3   1  14 8.99745 5.10033   1
  -2   1  14 19.7065 2.12141   1
  -2   1  14 18.1882 2.42294   1
  -2   1  14 15.1622 3.03675   1
  -2   1  14 23.0448 6.06272   1
  -1   1  14 118.423 12.0816   1
  -1   1  14  133.23 8.15455   1
  -1   1  14 118.423 8.45498   1
  -1   1  14 122.662 7.55369   1
   0   1  14 1.18923 1.77858   1
   0   1  14-0.29468 3.85184   1
   0   1  14    0.00 1.18923   1
   1   1  14 11.1163 1.71098   1
  -2  -1 -14 2.13868 1.60639   1
   2   1  14 1.07409 1.07409   1
   3   1  14 77.8109 4.64919   1
   4   1  14 7.43672 0.87811   1
  -7   2  14  45.334  3.1853   1
  -7   2  14 45.5777 5.88324   1
  -7   2  14 48.2756  3.1853   1
  -6   2  14 0.25743  1.0389   1
  -6   2  14 1.81117 3.36492   1
  -6   2  14 1.29632 0.77228   1
  -5   2  14 97.3817 10.9389   1
  -5   2  14 114.334 7.11127   1
  -5   2  14 111.876 6.83925   1
  -4   2  14 131.151 8.29082   1
  -4   2  14 135.718 12.2891   1
  -4   2  14  126.29 7.99653   1
   3  -2 -14 2.63755 2.34565   1
  -3   2  14  0.2919 0.87571   1
  -3   2  14 2.34565 3.23178   1
  -3   2  14 1.17804 1.46994   1
  -2   2  14 161.107 9.77329   1
  -2   2  14 166.441 14.2233   1
  -2   2  14 158.445 9.18416   1
  -1   2  14 191.404 11.4498   1
   0   2  14 40.5498 3.71216   1
  -1  -2 -14 1.63163 1.90195   1
   1   2  14 5.43554  1.3613   1
  -2  -2 -14 9.59845 2.26954   1
   2   2  14  13.384 1.51602   1
   3   2  14 8.71002 1.14777   1
  -7   3  14 54.8658 6.07033   1
  -7   3  14  64.342 3.88881   1
  -7   3  14 58.7546 3.63875   1
  -6   3  14 34.6754 3.03871   1
  -6   3  14 22.5296 4.55806   1
  -6   3  14 36.4555 2.78698   1
  -5   3  14 119.493 10.8827   1
  -5   3  14 119.219 7.43116   1
  -5   3  14 114.976 7.16711   1
  -4   3  14 57.1681 4.42396   1
  -4   3  14 48.0554 3.86483   1
  -4   3  14 55.2357 8.01413   1
   3  -3 -14  210.65 13.5786   1
  -3   3  14 215.169 12.4437   1
  -3   3  14 216.585 12.1625   1
   2  -3 -14 0.56518 1.98822   1
  -2   3  14-0.28259 1.42304   1
   1  -3 -14 123.477 8.95973   1
  -1   3  14 127.962 7.83604   1
   0  -3 -14 69.7218 5.94133   1
   0   3  14  71.344 4.86632   1
  -1  -3 -14 12.7603  2.5557   1
   1   3  14 12.7603 1.78536   1
  -2  -3 -14 127.188 7.77252   1
   2   3  14 118.939 7.06973   1
  -7   4  14 24.0901 1.92482   1
  -7   4  14 22.1568 1.92482   1
  -6   4  14   60.19 4.19665   1
  -6   4  14   60.19 3.95134   1
  -5   4  14  242.95 13.8071   1
  -5   4  14  255.74 13.8071   1
  -4   4  14 182.874 10.2919   1
  -4   4  14 173.632 10.0295   1
   3  -4 -14 128.114 8.86143   1
  -3   4  14 115.218 7.51648   1
   2  -4 -14 133.129 9.66584   1
  -2   4  14 152.156 8.58868   1
   1  -4 -14 92.8261 6.83658   1
  -1   4  14 85.4665  5.7812   1
   0  -4 -14 95.9227  6.8132   1
   0   4  14 93.6457 5.80915   1
  -1  -4 -14 19.2227 2.84843   1
   1   4  14 18.7424 1.89615   1
  -2  -4 -14 13.7789 2.40781   1
   2   4  14 20.3421 1.53012   1
  -6   5  14  71.909 4.34488   1
  -5   5  14  46.251 3.19816   1
  -5   5  14 42.8081 2.95349   1
  -4   5  14 14.8032 1.75571   1
   3  -5 -14 22.7916 3.54377   1
  -3   5  14 32.1637 2.78824   1
   2  -5 -14 20.3786 3.26987   1
  -2   5  14 24.1488 2.26032   1
   1  -5 -14   64.29 5.39454   1
  -1   5  14 61.5884 4.17445   1
   0  -5 -14 4.22976 1.87711   1
   0   5  14 6.10687 0.94273   1
  -1  -5 -14 71.9663  4.4141   1
   1   5  14 54.3099 3.53599   1
   3  -6 -14 1.91752 1.91752   1
   2  -6 -14 22.2725 3.07961   1
   1  -6 -14 28.8123 3.45421   1
   0  -6 -14 1.98308 1.10519   1
   3  -7 -14 6.04348 1.85763   1
   2  -7 -14 44.2579  3.6544   1
   0  -8  15 20.5757 1.94502   1
   1  -8  15 16.2614 1.96172   1
   2  -8  15 37.1021 2.77307   1
   2  -8  15 35.1649  2.4879   1
   0  -7  15  17.712   2.031   1
   0  -7  15  17.413 1.74233   1
   1  -7  15 13.5675 1.73311   1
   1  -7  15 13.5675 2.02025   1
   2  -7  15  93.879 5.65403   1
   2  -7  15 87.6626 5.37283   1
   3  -7  15 42.8307 3.00329   1
   3  -7  15  44.468 5.72562   1
   3  -7  15 43.6445 3.00329   1
  -1  -6  15 22.9421 2.35063   1
   0  -6  15 66.5862 5.01254   1
   0  -6  15 71.0127 4.71953   1
   1  -6  15 44.8682  3.7873   1
   1  -6  15 82.1617 9.32339   1
   1  -6  15 45.7477 3.49756   1
   2  -6  15 32.4305 2.84903   1
   2  -6  15 36.9768 3.13191   1
   2  -6  15 31.5717 5.68796   1
   3  -6  15 43.4777  5.7394   1
   3  -6  15 34.4558  2.7386   1
   3  -6  15 37.1847 3.01052   1
   4  -6  15 20.1709 3.36181   1
   4  -6  15 19.1421 1.55231   1
  -2  -5  15 63.7422 4.40249   1
  -2  -5  15 88.1228 9.69173   1
  -1  -5  15 29.6255 6.51214   1
  -1  -5  15 19.5469 2.36709   1
   0  -5  15 172.031 13.5734   1
   0  -5  15 143.428 8.85679   1
   0  -5  15 141.363 9.15027   1
   1  -5  15  130.22 8.15297   1
   1  -5  15 124.974 7.86327   1
   1  -5  15 168.936 13.3986   1
   2  -5  15 107.377 10.5127   1
   2  -5  15 107.377 6.53766   1
   2  -5  15 109.365 6.82016   1
   3  -5  15 20.6898 1.90462   1
   3  -5  15 21.5019 4.36033   1
   3  -5  15 22.3237 2.44604   1
   4  -5  15 1.79034 0.50893   1
   4  -5  15-1.79034 1.79034   1
  -4  -4  15 150.549 12.2027   1
  -3  -4  15 197.668 11.5924   1
  -3  -4  15 238.828 16.2355   1
  -2  -4  15 56.0739 5.02045   1
  -2  -4  15 80.2748 10.0304   1
  -2  -4  15 62.2683 4.42303   1
  -1  -4  15 326.191 21.0165   1
  -1  -4  15 269.061 15.9805   1
   0  -4  15 91.8708 11.4825   1
   0  -4  15 78.9138 5.88768   1
   0  -4  15 83.0341 5.59487   1
   1  -4  15 79.2903 5.51845   1
   1  -4  15 78.7024 10.7481   1
   1  -4  15 73.1839 5.22963   1
   2  -4  15 6.78525 3.67367   1
   2  -4  15 9.60575 1.97736   1
   2  -4  15 10.1779 1.41527   1
   3  -4  15  33.159 2.42253   1
   3  -4  15  28.582 5.12274   1
   3  -4  15 31.5407 2.96831   1
   4  -4  15 12.5835 1.26014   1
   4  -4  15 15.0949   3.271   1
  -5  -3  15 10.0726 3.97255   1
  -5  -3  15  13.518  1.5909   1
  -4  -3  15 123.812 11.8493   1
  -4  -3  15 127.478 7.33194   1
  -3  -3  15 152.908 13.3985   1
  -3  -3  15 149.711 8.74263   1
  -2  -3  15 0.58687 1.47764   1
  -2  -3  15  0.8803 1.18421   1
  -2  -3  15-2.06451 3.83559   1
  -1  -3  15 346.356 19.5027   1
  -1  -3  15 352.266 23.9427   1
  -1  -3  15 342.515 19.2088   1
   0  -3  15 128.967 8.52406   1
   0  -3  15 121.914 13.5112   1
   0  -3  15  136.02 8.22149   1
   1  -3  15 80.3961 5.20705   1
   1  -3  15 70.8447 10.1163   1
   1  -3  15 79.5231 5.78219   1
   2  -3  15 162.748 9.52252   1
   2  -3  15 153.505  8.9653   1
   2  -3  15 149.305 12.8857   1
   3  -3  15 5.83591 1.06536   1
   3  -3  15 7.70264 3.18665   1
   3  -3  15 5.57192 1.59332   1
   4  -3  15 53.0802 5.40227   1
  -6  -2  15 5.23684 2.74691   1
  -6  -2  15 1.99372 0.74432   1
  -5  -2  15 69.5347 8.62484   1
  -5  -2  15 71.1525 4.58523   1
  -5  -2  15 78.1596 4.85326   1
  -4  -2  15 85.3114 5.38544   1
  -4  -2  15 76.8054 5.10358   1
  -4  -2  15 70.2925 9.91524   1
  -3  -2  15 180.024 10.4923   1
  -3  -2  15 174.199 10.1922   1
  -3  -2  15 161.958 15.1486   1
  -2  -2  15 115.549 7.37034   1
  -2  -2  15 112.021  7.0772   1
  -2  -2  15 116.732 13.5577   1
  -2  -2  15 114.963 7.95662   1
  -1  -2  15 2.06508 1.47805   1
  -1  -2  15 6.48875 4.42367   1
  -1  -2  15 2.35859 1.18454   1
  -1  -2  15 1.47805 1.47805   1
   0  -2  15 1189.54 67.3607   1
   0  -2  15 1200.08 62.3783   1
   0  -2  15 1176.65   62.68   1
   0  -2  15 1160.84 62.9712   1
   1  -2  15 92.7224 6.60628   1
   1  -2  15  96.158 6.02517   1
   1  -2  15 94.4453  11.194   1
   2  -2  15-0.27461 1.38288   1
   2  -2  15-0.54923 0.82384   1
   2  -2  15 1.65749 3.04036   1
   3  -2  15 113.332 9.33995   1
   3  -2  15 111.002 7.00036   1
   4  -2  15 45.9291 4.52191   1
  -6  -1  15 36.0205 5.32468   1
  -6  -1  15 36.0205 2.54071   1
  -6  -1  15 37.2908 2.79298   1
  -5  -1  15 0.53801 3.24729   1
  -5  -1  15 1.62365 1.08563   1
  -5  -1  15-0.80702 0.80702   1
  -4  -1  15 53.4708 4.23989   1
  -4  -1  15 55.7314 3.95857   1
  -4  -1  15 54.3148  8.2085   1
  -3  -1  15 54.3164 4.06471   1
  -3  -1  15 56.3488 4.35357   1
  -3  -1  15 49.3852 8.42859   1
  -2  -1  15 225.145 12.9355   1
  -2  -1  15 223.381 13.8125   1
  -2  -1  15 246.903 13.5202   1
  -2  -1  15 221.324 18.8134   1
  -1  -1  15 31.1745 6.46466   1
  -1  -1  15 39.4041 4.11482   1
  -1  -1  15 43.2265 3.52998   1
   0  -1  15 118.616  13.082   1
   0  -1  15 133.443 9.01388   1
   0  -1  15 134.609 8.43567   1
   0  -1  15 147.949 8.13624   1
   1  -1  15 256.662 13.8709   1
   1  -1  15 246.761  18.394   1
   1  -1  15 256.099 14.7152   1
   1  -1  15 250.158 14.1523   1
   2  -1  15 17.2649 1.88745   1
   2  -1  15 12.1391 4.04316   1
   2  -1  15   13.49 2.42398   1
  -3   1 -15 121.935 7.28013   1
   3  -1  15 112.401 6.52271   1
   3  -1  15 106.885 8.77714   1
  -6   0  15 38.4133 2.80059   1
  -6   0  15 36.1186 5.59215   1
  -6   0  15 41.4668 3.05355   1
  -5   0  15 11.8381 4.30912   1
  -5   0  15 6.99397  1.3472   1
  -5   0  15 5.37924 1.07967   1
  -4   0  15 118.421 7.29543   1
  -4   0  15 119.268 7.01637   1
  -4   0  15 106.352 11.7903   1
  -3   0  15 35.1523 3.17241   1
  -3   0  15 33.9959 6.91789   1
  -3   0  15 39.1843 3.45895   1
  -2   0  15 102.905 6.40889   1
  -2   0  15 99.9952 6.11899   1
  -2   0  15  93.576 6.99905   1
  -2   0  15 75.7988 10.7885   1
  -1   0  15  948.51 49.7443   1
  -1   0  15 924.366  54.104   1
  -1   0  15 958.397 50.3228   1
  -1   0  15 933.964 50.6121   1
   0   0  15 33.4545 3.71717   1
   0   0  15 32.8858 6.58122   1
   0   0  15 38.3194 3.14842   1
   0   0  15 33.1702 2.86405   1
   1   0  15 9.65561  2.2056   1
   1   0  15 11.5965 1.65665   1
   1   0  15 8.00876 4.13672   1
   2   0  15  80.227 4.94943   1
  -3   0 -15 47.0614 4.56203   1
   3   0  15 34.8164 2.40466   1
  -7   1  15  48.157 2.89062   1
  -7   1  15 45.5144 2.89062   1
  -7   1  15 46.4722  5.0543   1
  -6   1  15 1.26499 1.01379   1
  -6   1  15 0.75361 3.03239   1
  -6   1  15 1.26499 0.75361   1
  -5   1  15 1.06513 0.79178   1
  -5   1  15-0.79178 0.79178   1
  -5   1  15 1.59298 3.18596   1
  -4   1  15 169.843 9.94691   1
  -4   1  15 170.118 9.94691   1
  -4   1  15 165.144 14.0865   1
  -3   1  15 73.1029 5.10231   1
  -3   1  15 68.5743 8.78564   1
  -3   1  15 64.8909 4.53874   1
  -2   1  15-0.85374 1.14848   1
  -2   1  15 0.28458 0.85374   1
  -2   1  15 0.56916 1.43306   1
  -2   1  15-2.28679 2.86611   1
  -1   1  15 3.69623 1.42396   1
  -1   1  15 3.41346 1.70673   1
  -1   1  15 4.83742 3.69623   1
  -1   1  15 3.69623 1.14119   1
   0   1  15  33.314 3.05633   1
  -1  -1 -15 5.04594 1.85804   1
   1   1  15 2.65973 1.06578   1
  -2  -1 -15 11.9278 2.23205   1
   2   1  15 14.9009 1.49098   1
   3   1  15 3.40959 0.67869   1
  -7   2  15 19.0278  1.4459   1
  -7   2  15 19.2759 1.68546   1
  -7   2  15 12.0464 2.65225   1
  -6   2  15 43.3496 3.23861   1
  -6   2  15 32.3861 5.22956   1
  -6   2  15 40.6154 2.74309   1
  -5   2  15 33.5099 5.71107   1
  -5   2  15 36.1117 3.11848   1
  -5   2  15 37.9293 2.86015   1
  -4   2  15 63.8158 4.31304   1
  -4   2  15 68.6644 4.84859   1
  -4   2  15 65.1642 8.34875   1
   3  -2 -15-1.10545  1.9272   1
  -3   2  15-0.54783 0.82175   1
  -3   2  15 2.47503 3.03264   1
  -3   2  15    0.00 1.10545   1
   2  -2 -15 129.163 8.59381   1
  -2   2  15 129.714 7.75707   1
  -2   2  15 116.691 7.20581   1
   1  -2 -15-1.64426 1.91668   1
  -1   2  15 2.46152 1.37183   1
   0  -2 -15 33.7281 3.98022   1
   0   2  15 31.0683 2.92386   1
  -1  -2 -15 8.82078  2.0149   1
   1   2  15  12.358 1.51341   1
  -2  -2 -15 18.9914 2.34791   1
   2   2  15 19.6908 1.64021   1
  -7   3  15 11.3156 1.20597   1
  -7   3  15  12.761 1.20597   1
  -7   3  15 6.26077 1.92442   1
  -6   3  15  2.6958 0.98266   1
  -6   3  15 0.24349 2.20012   1
  -6   3  15 0.98266 0.73047   1
  -5   3  15 167.719 13.1355   1
  -5   3  15 187.934 10.3541   1
  -5   3  15 190.455 10.6142   1
  -4   3  15 22.8873  2.6046   1
  -4   3  15 26.5263 2.33675   1
   3  -3 -15 197.642 11.9074   1
  -3   3  15 185.735 10.5823   1
  -3   3  15 190.763  11.118   1
   2  -3 -15 136.934 9.26755   1
  -2   3  15 140.114 8.47722   1
   1  -3 -15 14.8423 2.86674   1
  -1   3  15 14.0563 1.82177   1
   0  -3 -15  91.856 6.52485   1
   0   3  15 82.3183 5.26801   1
  -1  -3 -15 20.8736 2.84717   1
   1   3  15 18.2623  1.8953   1
  -2  -3 -15 3.74393 1.32093   1
   2   3  15 3.07956 0.65656   1
  -6   4  15 4.34097 0.96751   1
  -6   4  15  6.0277 0.96751   1
  -5   4  15 136.748 7.84329   1
  -5   4  15 141.649 8.08703   1
  -4   4  15 12.2407 1.49904   1
  -4   4  15  10.236 1.25068   1
   3  -4 -15 2.52611 1.76469   1
  -3   4  15 1.51387 1.01224   1
   2  -4 -15 229.655 14.0587   1
  -2   4  15 244.712 13.3009   1
   1  -4 -15 169.151 10.5605   1
  -1   4  15 166.448  9.5751   1
   0  -4 -15 17.4596 2.36258   1
   0   4  15  11.084 1.41587   1
  -1  -4 -15 30.7375 2.89499   1
   1   4  15 25.8334 2.00118   1
  -5   5  15 21.7699  2.1498   1
  -5   5  15 26.8003  2.1498   1
  -4   5  15 74.5516 4.56927   1
   3  -5 -15 119.578 7.93825   1
  -3   5  15 120.996 6.98122   1
   2  -5 -15 5.71385  1.9018   1
  -2   5  15 6.66052 0.95513   1
   1  -5 -15 19.2602 2.55484   1
  -1   5  15 18.5679 1.62356   1
   0  -5 -15 21.3949 2.45372   1
   0   5  15 18.2763  1.5593   1
   3  -6 -15 57.9888 4.65664   1
   2  -6 -15 33.4388 3.20478   1
   0  -7  16 47.5063 3.31553   1
   0  -7  16 55.7951 3.31553   1
   1  -7  16 116.504 6.61268   1
   1  -7  16 114.851 6.61268   1
  -1  -6  16 27.0642  2.5332   1
  -1  -6  16 27.9152 2.25284   1
   0  -6  16 4.24899 1.13776   1
   0  -6  16 3.96706 3.68514   1
   0  -6  16 3.96706 1.13776   1
   1  -6  16 108.961 6.72486   1
   1  -6  16 107.558 6.44632   1
   1  -6  16 132.766  9.7988   1
   2  -6  16 35.6872 4.90469   1
   2  -6  16 43.5812 2.99892   1
   2  -6  16 38.4056 2.72805   1
  -2  -5  16 0.84205 0.84205   1
  -2  -5  16 1.41344 3.66894   1
  -1  -5  16 47.5326 3.43732   1
  -1  -5  16 61.2819 8.30855   1
  -1  -5  16 50.6852 4.00681   1
   0  -5  16 119.372  7.4246   1
   0  -5  16 138.795 11.1369   1
   0  -5  16 127.375 7.70861   1
   1  -5  16 3.65103 1.12723   1
   1  -5  16 4.20965 3.65103   1
   1  -5  16 4.20965 1.40654   1
   2  -5  16 30.4798 2.72521   1
   2  -5  16 25.8508 2.17437   1
   2  -5  16  23.947 4.62898   1
   3  -5  16 0.51558 0.51558   1
   3  -5  16-0.25779 0.77337   1
   3  -5  16 2.85409 2.07152   1
  -4  -4  16 7.65942 3.43127   1
  -3  -4  16 61.7394 8.34584   1
  -3  -4  16 53.9467 3.61488   1
  -2  -4  16 154.213 8.83965   1
  -2  -4  16 139.126 9.12316   1
  -2  -4  16 185.855 13.3962   1
  -1  -4  16 11.7617 1.72246   1
  -1  -4  16 15.7875 2.29322   1
  -1  -4  16 10.9055 5.16739   1
   0  -4  16 38.4834 2.85512   1
   0  -4  16 29.6447 5.70012   1
   0  -4  16 41.9055  3.4221   1
   1  -4  16 142.827 8.38993   1
   1  -4  16 140.593 8.11192   1
   1  -4  16 132.789 11.7459   1
   2  -4  16 6.47897 2.97113   1
   2  -4  16 8.63544 1.08302   1
   2  -4  16 7.83036 1.61974   1
   3  -4  16 60.6137 4.09662   1
   3  -4  16 57.2892 5.88606   1
   3  -4  16 58.8242 3.57887   1
  -5  -3  16 11.1195 3.28469   1
  -4  -3  16 99.8106 5.93038   1
  -4  -3  16 100.079 9.71472   1
  -3  -3  16 0.55725   3.642   1
  -3  -3  16-0.55725 0.83587   1
  -2  -3  16 154.768 9.40594   1
  -2  -3  16 146.789 8.55546   1
  -2  -3  16  147.64 12.5446   1
  -1  -3  16 105.491 10.8639   1
  -1  -3  16 101.491 6.28481   1
  -1  -3  16 106.629 7.14783   1
   0  -3  16 72.2314 9.34581   1
   0  -3  16 90.0779 5.38214   1
   0  -3  16 80.1587 5.66382   1
   1  -3  16 349.134 22.7066   1
   1  -3  16 354.946 19.1073   1
   1  -3  16 348.574 19.3827   1
   2  -3  16  0.7936 1.06758   1
   2  -3  16  0.7936 2.66423   1
   2  -3  16    0.00 0.52907   1
   3  -3  16 2.50953 2.25146   1
   3  -3  16 2.50953 1.00559   1
  -5  -2  16 74.5094 4.64253   1
  -5  -2  16 87.1458 7.99394   1
  -5  -2  16 76.5788 4.64253   1
  -4  -2  16 2.98709 1.08884   1
  -4  -2  16 2.71729 3.25689   1
  -4  -2  16 4.88534 1.35864   1
  -3  -2  16 60.9684 8.11522   1
  -3  -2  16 66.2825 4.47976   1
  -3  -2  16 60.6903  4.1917   1
  -2  -2  16 380.514  20.414   1
  -2  -2  16 362.658  24.382   1
  -2  -2  16 372.296  20.132   1
  -2  -2  16 362.658  20.696   1
  -1  -2  16 10.7822 1.70298   1
  -1  -2  16 8.79707 1.98513   1
  -1  -2  16 9.07922 3.97027   1
  -1  -2  16 8.23277 1.42083   1
   0  -2  16 110.445 11.2098   1
   0  -2  16 117.732 7.28734   1
   0  -2  16 87.1793 6.45109   1
   0  -2  16 118.847 6.72984   1
   1  -2  16  28.363 3.27415   1
   1  -2  16 29.7289 5.72492   1
   1  -2  16 28.9152 2.45077   1
   2  -2  16 178.874 12.7628   1
   2  -2  16 171.059 9.89581   1
   2  -2  16  195.28 10.6727   1
   3  -2  16 21.1975 3.16664   1
  -6  -1  16 54.5556  3.4233   1
  -6  -1  16 53.0873 3.18002   1
  -6  -1  16 60.6724  5.6302   1
  -5  -1  16 73.5497 4.66296   1
  -5  -1  16 77.4309 8.02912   1
  -5  -1  16  75.619 4.66296   1
  -4  -1  16  25.937 2.15902   1
  -4  -1  16 20.5347  2.4277   1
  -4  -1  16 24.3153 5.40234   1
  -3  -1  16 32.4571 3.05456   1
  -3  -1  16  30.516 2.49291   1
  -3  -1  16 29.6883 5.82336   1
  -2  -1  16 12.6325 1.96417   1
  -2  -1  16 5.89252 3.92835   1
  -2  -1  16 9.26253 1.40583   1
  -2  -1  16   10.11 2.24335   1
  -1  -1  16 171.746  9.5243   1
  -1  -1  16 148.209 13.4554   1
  -1  -1  16  160.54 9.24564   1
  -1  -1  16  164.74 10.0916   1
   0  -1  16 293.599 15.4418   1
   0  -1  16 250.035 18.7514   1
   0  -1  16 279.264 15.9901   1
   0  -1  16 290.016 15.4418   1
   1  -1  16 8.26739 1.86561   1
   1  -1  16 7.19727 1.33528   1
   1  -1  16 6.66694 1.07012   1
   1  -1  16  10.133 3.73122   1
   2  -1  16 6.06852 1.01441   1
   2  -1  16 6.82259  2.7829   1
  -3   1 -16  78.226 5.16445   1
  -6   0  16  2.4638  0.7339   1
  -6   0  16  3.1977  0.7339   1
  -6   0  16  1.9658  2.4638   1
  -5   0  16 13.3827 3.85757   1
  -5   0  16 17.5053 1.80081   1
  -5   0  16 17.2402 1.80081   1
  -4   0  16 11.4837  1.6026   1
  -4   0  16 12.0147 1.86811   1
  -4   0  16 12.8208 4.27675   1
  -3   0  16 396.736  21.326   1
  -3   0  16 380.596 24.8804   1
  -3   0  16 395.367 21.5979   1
  -2   0  16 6.90283 1.38253   1
  -2   0  16 4.97121 1.10798   1
  -2   0  16 4.13777 1.65707   1
  -2   0  16 6.06939 3.58869   1
  -1   0  16 139.492   7.969   1
  -1   0  16  126.88 11.8121   1
  -1   0  16 137.043 8.78833   1
  -1   0  16 136.497 8.24211   1
   0   0  16 0.53457 2.69194   1
   0   0  16 2.14783 0.80185   1
   0   0  16 0.80185 0.80185   1
   0   0  16 0.53457 1.07869   1
   1   0  16 150.236  8.2619   1
   1   0  16 137.591 10.3251   1
  -2   0 -16 26.9785 2.67627   1
   2   0  16 23.5771 1.94246   1
  -6   1  16 16.1732 1.71481   1
  -6   1  16 12.7436 3.18589   1
  -6   1  16 14.9545 1.47108   1
  -5   1  16 96.9736 5.84222   1
  -5   1  16 95.9548 8.88054   1
  -5   1  16 96.9736 5.84222   1
  -4   1  16 25.4056  5.2374   1
  -4   1  16 32.4756 2.62335   1
  -4   1  16 33.0058 2.88382   1
  -3   1  16  2.6777 0.79761   1
  -3   1  16 2.13646  2.6777   1
  -3   1  16 2.40233 1.07298   1
  -2   1  16 142.303 11.8395   1
  -2   1  16 144.453 8.34209   1
  -2   1  16 156.837 8.87721   1
  -1   1  16 152.919 12.2551   1
  -1   1  16 169.707 9.59586   1
  -1   1  16 167.312 9.32142   1
   0  -1 -16 9.33669 2.32957   1
   0   1  16  10.368  1.2983   1
  -1  -1 -16 10.1433 1.97768   1
   1   1  16 11.8836 1.48546   1
  -2  -1 -16 22.4867 2.32195   1
   2   1  16 12.5155 1.39152   1
  -6   2  16 24.5508  3.6429   1
  -6   2  16 34.0292 2.43436   1
  -6   2  16 27.7102 2.18402   1
  -5   2  16 28.3857 2.23725   1
  -5   2  16 24.9016 2.49369   1
  -5   2  16 23.1595 4.23574   1
  -4   2  16  178.34 9.95055   1
  -4   2  16  187.52 10.2043   1
  -4   2  16 155.629 12.5062   1
   3  -2 -16 4.92467 1.81338   1
  -3   2  16 4.15145  1.2979   1
  -3   2  16 5.44015 1.04016   1
  -3   2  16 5.69789 2.85354   1
   2  -2 -16 194.703 11.6831   1
  -2   2  16 179.903 10.3829   1
  -2   2  16 200.152 10.9085   1
   1  -2 -16 9.21365 2.29887   1
  -1   2  16 6.65127 1.28119   1
   0  -2 -16 25.9982 3.21899   1
   0   2  16 21.7941 2.22515   1
  -1  -2 -16 1.64678 1.41272   1
   1   2  16  2.1149 0.70218   1
  -6   3  16 5.30283 0.71961   1
  -6   3  16 5.30283 0.96804   1
  -6   3  16 2.41583 1.68765   1
  -5   3  16  49.712  7.0708   1
  -5   3  16 65.5499 3.90322   1
  -5   3  16 58.2368 3.65224   1
  -4   3  16 15.0967 1.48506   1
  -4   3  16 15.8348 1.73111   1
   3  -3 -16 28.7048 3.49281   1
  -3   3  16  33.944 2.74815   1
  -3   3  16  25.212 2.24284   1
   2  -3 -16 106.675 7.46258   1
  -2   3  16 115.877  6.7119   1
   1  -3 -16 99.7497 7.07672   1
  -1   3  16 102.435 6.09793   1
   0  -3 -16 51.7505 4.23596   1
   0   3  16 48.6926 3.29185   1
  -1  -3 -16 16.0762 2.00655   1
   1   3  16 17.6386 1.34034   1
  -5   4  16 12.6908 1.19933   1
  -5   4  16 12.2145  1.4375   1
  -4   4  16 12.0103 1.44158   1
   3  -4 -16 31.7118 3.84773   1
  -3   4  16 43.4768 2.88367   1
   2  -4 -16 50.1966 4.28374   1
  -2   4  16 49.7235 3.32898   1
   1  -4 -16 47.4324 3.95545   1
  -1   4  16 42.5521 3.02233   1
   0  -4 -16 22.1882 2.46712   1
   0   4  16 20.8432 1.56782   1
  -4   5  16  0.9466 0.70367   1
   3  -5 -16 8.87311 1.86584   1
  -3   5  16 11.9082 1.16926   1
   2  -5 -16 26.8962 2.98847   1
  -2   5  16 21.8419 1.83717   1
  -1  -6  17 15.9761 1.59856   1
   0  -6  17 16.6732 1.34646   1
   0  -6  17 17.7427 1.88123   1
   0  -6  17 18.5544 3.76246   1
   1  -6  17 63.0065 3.98453   1
   1  -6  17 83.2124  6.3828   1
  -2  -5  17 17.1419 3.74802   1
  -2  -5  17 14.4594  1.3413   1
  -1  -5  17 14.1951 1.91014   1
  -1  -5  17 15.8338 4.09177   1
  -1  -5  17 15.2908 1.36716   1
   0  -5  17 25.0774 2.44965   1
   0  -5  17 26.9945 1.90743   1
   0  -5  17 23.7219 4.36676   1
   1  -5  17 3.47851 0.79835   1
   1  -5  17 4.01074 1.07396   1
   1  -5  17 1.87231 2.40454   1
   2  -5  17 4.65416 1.03732   1
   2  -5  17 3.61684  0.7711   1
   2  -5  17 1.03732 1.55139   1
  -3  -4  17  -1.324 2.91092   1
  -3  -4  17 0.26292 0.52584   1
  -2  -4  17 1.63441 0.81237   1
  -2  -4  17 1.63441 2.72725   1
  -1  -4  17 21.4248 1.92199   1
  -1  -4  17 21.9809 2.46834   1
   0  -4  17 62.1497 4.08523   1
   0  -4  17 60.5137 7.08623   1
   0  -4  17  68.142 4.36597   1
   1  -4  17 13.5808 1.33349   1
   1  -4  17 15.4439 1.86311   1
   1  -4  17 10.1194 2.93179   1
   2  -4  17 44.7934  3.0729   1
   2  -4  17 41.4659 2.56378   1
   2  -4  17 37.6293  4.8639   1
  -4  -3  17 107.917 6.16877   1
  -4  -3  17 112.023   8.733   1
  -3  -3  17  12.843 3.74269   1
  -3  -3  17  6.1555 1.07341   1
  -2  -3  17 27.5459 2.73135   1
  -2  -3  17  24.001 4.91061   1
  -2  -3  17 23.7298 2.17927   1
  -1  -3  17 25.7092 4.92429   1
  -1  -3  17 26.2532 2.18533   1
  -1  -3  17 25.9812 2.73895   1
   0  -3  17 59.1716 4.32799   1
   0  -3  17 49.1817 6.75589   1
   0  -3  17 61.6091 3.78099   1
   1  -3  17 47.8497 3.15575   1
   1  -3  17 52.3126 3.67859   1
   1  -3  17 36.2817 5.51789   1
   2  -3  17 31.9447 4.27894   1
   2  -3  17 31.9447 2.76925   1
   2  -3  17 30.6851 2.00994   1
  -4  -2  17 26.4356 2.07103   1
  -4  -2  17   31.36 4.92445   1
  -4  -2  17 29.8045 2.32876   1
  -3  -2  17 3.73657 0.79663   1
  -3  -2  17 4.27714 2.93994   1
  -3  -2  17 3.47103 1.07166   1
  -2  -2  17 26.2521 5.14276   1
  -2  -2  17 29.5012   2.432   1
  -2  -2  17 23.2722 2.16284   1
  -2  -2  17 24.6276 2.97992   1
  -1  -2  17 49.4739 7.56557   1
  -1  -2  17 60.2846 4.59887   1
  -1  -2  17 68.6662 4.05161   1
  -1  -2  17 52.1717 4.33004   1
   0  -2  17  51.351 6.65276   1
   0  -2  17 51.8896 4.26192   1
   0  -2  17   60.13 3.45868   1
   1  -2  17 92.2615 5.66566   1
   1  -2  17 83.2459 4.89682   1
   1  -2  17 78.6053 7.21251   1
   2  -2  17  34.838 4.17394   1
  -5  -1  17 14.4422 1.49463   1
  -5  -1  17 12.9476 1.49463   1
  -5  -1  17 19.9255 3.48452   1
  -4  -1  17 71.0027 4.39239   1
  -4  -1  17 76.9448 8.00534   1
  -4  -1  17 68.6827 4.39239   1
  -3  -1  17 111.785 6.60761   1
  -3  -1  17 102.277 9.78002   1
  -3  -1  17  112.32 6.34481   1
  -2  -1  17 26.6805 2.13179   1
  -2  -1  17 22.4074 2.13179   1
  -2  -1  17 22.1422 4.80363   1
  -2  -1  17 22.1422 2.93713   1
  -1  -1  17 147.322 9.56125   1
  -1  -1  17 167.237 9.02378   1
  -1  -1  17 168.029  9.2878   1
  -1  -1  17 153.169 12.2109   1
   0  -1  17 94.7217 6.24762   1
   0  -1  17 103.566 5.72082   1
   0  -1  17 89.5184 8.32708   1
   0  -1  17 97.5867 5.46205   1
   1  -1  17 91.5453 7.52708   1
   1  -1  17 102.083 5.77225   1
  -2   1 -17 96.0044 5.94172   1
  -5   0  17 66.5104 3.97511   1
  -5   0  17 66.5104  4.2219   1
  -5   0  17 66.7571 6.69863   1
  -4   0  17 9.69239 1.27722   1
  -4   0  17 8.92243 1.27722   1
  -4   0  17  7.9079 3.31534   1
  -3   0  17 107.001 6.23502   1
  -3   0  17 108.292 6.49328   1
  -3   0  17  98.423 9.08506   1
  -2   0  17 13.8383 1.82718   1
  -2   0  17 11.4918 3.65436   1
  -2   0  17 15.9345 1.56748   1
  -1   0  17 89.0562  5.1764   1
  -1   0  17  89.571 5.43384   1
  -1   0  17 78.1793  7.7692   1
   0   0  17 47.9938 5.81309   1
   0   0  17 59.3599  3.5345   1
  -1   0 -17 45.5507  3.3907   1
   1   0  17 33.6833 2.42685   1
  -5   1  17 57.9815 3.68219   1
  -5   1  17 56.5069 3.43788   1
  -5   1  17 59.4561 6.14281   1
  -4   1  17 89.6436 5.25589   1
  -4   1  17 88.8965  5.5049   1
  -4   1  17 87.8916 8.01278   1
  -3   1  17  1.0177 0.75652   1
  -3   1  17 1.77423 0.75652   1
  -3   1  17 1.52205 2.27858   1
   2  -1 -17 122.116 7.36682   1
  -2   1  17 107.139 8.88166   1
  -2   1  17 121.359 6.85285   1
  -2   1  17 110.439 6.60038   1
   1  -1 -17 105.747 6.51463   1
  -1   1  17 87.4581 5.50896   1
   0  -1 -17 19.2289 2.43819   1
   0   1  17  14.119 1.46119   1
  -1  -1 -17 21.6479 2.33093   1
   1   1  17 18.3829 1.62835   1
  -5   2  17-0.48256 1.69757   1
  -5   2  17 1.45629 0.72384   1
  -5   2  17 0.72384 0.48256   1
  -4   2  17 55.6096 5.88112   1
  -4   2  17 65.4057 3.92365   1
  -4   2  17 60.9949 3.67135   1
  -3   2  17 49.2868 3.20351   1
  -3   2  17 42.8798 2.95843   1
   2  -2 -17 145.788 9.08449   1
  -2   2  17  148.49 8.34343   1
   1  -2 -17 39.5691 3.61588   1
  -1   2  17 37.1528 2.65622   1
   0  -2 -17 87.3868 5.60948   1
   0   2  17 74.5331  4.6718   1
  -5   3  17 14.6688 1.44297   1
  -5   3  17   12.50  1.2039   1
  -4   3  17 11.7565 1.20121   1
   3  -3 -17 6.69966 1.67492   1
  -3   3  17 7.89846  1.1988   1
   2  -3 -17 20.1525 2.37484   1
  -2   3  17 21.3399 1.89482   1
   1  -3 -17  172.53 9.75727   1
  -1   3  17 157.428  9.0562   1
  -4   4  17 23.2309 1.89451   1
   3  -4 -17 69.3557 4.91831   1
  -3   4  17 70.7621 4.21926   1
   2  -4 -17 8.31143 1.61474   1
  -2   4  17 9.69666 1.15573   1
  -2  -4  18 3.09901 0.51345   1
  -2  -4  18 3.09901 2.31967   1
  -1  -4  18 14.6064  1.5653   1
  -1  -4  18 11.4758 1.04662   1
  -1  -4  18 10.9571 2.61192   1
   0  -4  18-1.55262 1.55262   1
   0  -4  18-0.51448 0.77172   1
   0  -4  18 0.25724 0.51448   1
  -3  -3  18 0.75946 0.50631   1
  -3  -3  18 2.28741 2.03426   1
  -2  -3  18 30.3661 4.15759   1
  -2  -3  18 28.2919 2.07418   1
  -1  -3  18   10.66 2.86361   1
  -1  -3  18 7.02045 1.30248   1
  -1  -3  18 6.76181 0.77594   1
   0  -3  18  3.8446 2.04984   1
   0  -3  18  3.8446 1.02948   1
   0  -3  18 3.33441 0.76528   1
   1  -3  18  40.356 2.99064   1
   1  -3  18 36.6221 2.23856   1
   1  -3  18 37.1176 4.23822   1
  -3  -2  18  8.9187 1.02316   1
  -3  -2  18 7.90459  2.8069   1
  -2  -2  18 2.83856 0.76916   1
  -2  -2  18 4.38604 2.31663   1
  -1  -2  18 24.1524 2.57309   1
  -1  -2  18 23.3768 3.85051   1
  -1  -2  18 21.8348 1.79751   1
   0  -2  18 44.6515 3.27898   1
   0  -2  18 44.4007 2.77728   1
   0  -2  18 37.5829 4.79305   1
   1  -2  18 28.5455 3.90832   1
   1  -2  18 36.3535 2.19247   1
  -4  -1  18 16.8923 1.49076   1
  -4  -1  18 19.8738  3.2285   1
  -4  -1  18 13.6638 1.49076   1
  -3  -1  18 106.116  6.0658   1
  -3  -1  18 105.604 8.58724   1
  -3  -1  18 103.585  6.0658   1
  -2  -1  18 74.9216 4.32067   1
  -2  -1  18 74.1639 4.32067   1
  -2  -1  18 63.4931 6.60277   1
  -1  -1  18 2.77392 2.01333   1
  -1  -1  18 2.01333 0.75164   1
  -1  -1  18 3.27502 0.75164   1
   0  -1  18 20.9416 1.47895   1
   0  -1  18 27.1024   3.693   1
   0  -1  18 23.1644 1.72399   1
  -1   1 -18 43.4686 3.08743   1
  -4   0  18  30.293 1.96822   1
  -4   0  18 30.0481 4.43505   1
  -4   0  18 26.6015 1.96822   1
  -3   0  18 32.5791 2.49046   1
  -3   0  18 38.7875 4.97208   1
  -3   0  18 39.5382 2.49046   1
   2   0 -18 108.419 6.71213   1
  -2   0  18  99.472 7.95741   1
  -2   0  18 109.664 6.21755   1
  -2   0  18 112.649 6.21755   1
   1   0 -18 59.9406 3.93497   1
  -1   0  18 49.3747 4.91216   1
  -1   0  18 51.1022 3.19334   1
  -1   0  18  45.937 2.94904   1
   0   0 -18 0.23809 0.96086   1
   0   0  18 1.43703 0.47618   1
  -4   1  18  33.572 2.43626   1
  -4   1  18 34.2977 4.13818   1
  -4   1  18 34.2977 2.18572   1
  -3   1  18 24.3806  1.7056   1
  -3   1  18 23.1598 1.94802   1
  -3   1  18 19.0127 3.16878   1
   2  -1 -18 50.1988 3.63484   1
  -2   1  18 47.0463 2.91132   1
  -2   1  18 49.2341  3.1525   1
   1  -1 -18  47.493 3.33968   1
  -1   1  18 37.4739 2.62767   1
  -3   2  18 32.5023 2.14758   1
  -3   2  18 35.1338 2.39375   1
   2  -2 -18 22.9387  2.6038   1
  -2   2  18 25.0721 1.88986   1
   0   0   0    0.00    0.00   1
;
_shelx_hkl_checksum              72251
_olex2_exptl_crystal_mounting_method 'mounted on a cryoloop'
_olex2_submission_original_sample_id ND-ZN-MOF
_olex2_submission_special_instructions 'No special instructions were received'
loop_
_space_group_symop_operation_xyz
'x, y, z'
'-x, -y, -z'
loop_
_atom_site_label
_atom_site_type_symbol
_atom_site_fract_x
_atom_site_fract_y
_atom_site_fract_z
_atom_site_U_iso_or_equiv
_atom_site_adp_type
_atom_site_occupancy
_atom_site_site_symmetry_order
_atom_site_calc_flag
_atom_site_refinement_flags_posn
_atom_site_refinement_flags_adp
_atom_site_refinement_flags_occupancy
_atom_site_disorder_assembly
_atom_site_disorder_group
Zn1 Zn 0.000000 0.500000 0.000000 0.03145(16) Uani 1 2 d S T P . .
O1 O 0.4201(2) 0.65511(18) 0.83353(11) 0.0437(4) Uani 1 1 d . . . . .
O2 O 0.5639(2) 0.87280(17) 0.91148(10) 0.0380(3) Uani 1 1 d . . . . .
H2 H 0.501281 0.838842 0.947522 0.057 Uiso 1 1 calc GR . . . .
O3 O 0.37778(19) 0.78332(16) 0.02541(9) 0.0357(3) Uani 1 1 d . . . . .
O4 O 0.2790(2) 0.57843(16) 0.07568(10) 0.0358(3) Uani 1 1 d . . . . .
N1 N -0.0123(2) 0.70372(19) 0.01690(13) 0.0374(4) Uani 1 1 d . . . . .
H1 H 0.112640 0.773371 0.039472 0.045 Uiso 1 1 calc R . . . .
N2 N -0.0774(2) 0.4823(2) 0.12057(12) 0.0380(4) Uani 1 1 d . . . . .
H2A H -0.209466 0.427501 0.107661 0.046 Uiso 1 1 calc R . . . .
C1 C 0.5257(3) 0.7757(2) 0.84193(14) 0.0351(4) Uani 1 1 d . . . . .
C2 C 0.6285(3) 0.8269(2) 0.77325(13) 0.0333(4) Uani 1 1 d . . . . .
C3 C 0.7371(3) 0.9685(2) 0.77974(13) 0.0347(4) Uani 1 1 d . . . . .
H3 H 0.744390 1.035521 0.827863 0.042 Uiso 1 1 calc R . . . .
C4 C 0.8350(3) 1.0117(2) 0.71548(14) 0.0342(4) Uani 1 1 d . . . . .
H4 H 0.908121 1.108541 0.719873 0.041 Uiso 1 1 calc R . . . .
C5 C 0.8269(3) 0.9144(2) 0.64470(13) 0.0329(4) Uani 1 1 d . . . . .
C6 C 0.7157(3) 0.7725(2) 0.63821(13) 0.0341(4) Uani 1 1 d . . . . .
H6 H 0.707668 0.705350 0.590018 0.041 Uiso 1 1 calc R . . . .
C7 C 0.6176(3) 0.7298(2) 0.70185(14) 0.0350(4) Uani 1 1 d . . . . .
H7 H 0.542016 0.633519 0.696790 0.042 Uiso 1 1 calc R . . . .
C8 C 0.9233(3) 0.9587(2) 0.57319(13) 0.0318(4) Uani 1 1 d . . . . .
C9 C 0.8296(3) 0.9036(2) 0.48610(14) 0.0326(4) Uani 1 1 d . . . . .
H9 H 0.711115 0.836056 0.476586 0.039 Uiso 1 1 calc R . . . .
C10 C 0.8999(3) 0.9421(2) 0.41278(13) 0.0324(4) Uani 1 1 d . . . . .
C11 C 0.7791(3) 0.8806(2) 0.32513(13) 0.0321(4) Uani 1 1 d . . . . .
C12 C 0.7542(3) 0.9659(2) 0.26216(14) 0.0342(4) Uani 1 1 d . . . . .
H12 H 0.822552 1.064580 0.273752 0.041 Uiso 1 1 calc R . . . .
C13 C 0.6314(3) 0.9082(2) 0.18339(13) 0.0334(4) Uani 1 1 d . . . . .
H13 H 0.616451 0.967346 0.141275 0.040 Uiso 1 1 calc R . . . .
C14 C 0.5290(3) 0.7634(2) 0.16527(13) 0.0319(4) Uani 1 1 d . . . . .
C15 C 0.5550(3) 0.6773(2) 0.22686(13) 0.0335(4) Uani 1 1 d . . . . .
H15 H 0.487627 0.578455 0.214691 0.040 Uiso 1 1 calc R . . . .
C16 C 0.6784(3) 0.7350(2) 0.30574(13) 0.0334(4) Uani 1 1 d . . . . .
H16 H 0.694969 0.675270 0.347168 0.040 Uiso 1 1 calc R . . . .
C17 C 0.3865(3) 0.7037(2) 0.08182(13) 0.0321(4) Uani 1 1 d . . . . .
C18 C -0.0486(3) 0.6278(3) 0.15872(15) 0.0440(5) Uani 1 1 d . . . . .
H18A H 0.080313 0.679744 0.184596 0.053 Uiso 1 1 calc R . . . .
H18B H -0.116027 0.625674 0.206074 0.053 Uiso 1 1 calc R . . . .
C19 C -0.1120(3) 0.7027(3) 0.08726(17) 0.0446(5) Uani 1 1 d . . . . .
H19A H -0.241996 0.653065 0.063032 0.053 Uiso 1 1 calc R . . . .
H19B H -0.091560 0.801030 0.112380 0.053 Uiso 1 1 calc R . . . .
C20 C -0.0882(3) 0.7447(2) -0.06506(17) 0.0442(5) Uani 1 1 d . . . . .
H20A H -0.086671 0.842022 -0.052125 0.053 Uiso 1 1 calc R . . . .
H20B H -0.214515 0.680415 -0.086700 0.053 Uiso 1 1 calc R . . . .
C21 C 0.0161(3) 0.7386(3) -0.13658(17) 0.0476(6) Uani 1 1 d . . . . .
H21A H 0.145262 0.789560 -0.110689 0.057 Uiso 1 1 calc R . . . .
H21B H -0.018616 0.790615 -0.182760 0.057 Uiso 1 1 calc R . . . .
C22 C 0.0088(3) 0.4090(3) 0.18057(15) 0.0457(5) Uani 1 1 d . . . . .
H22A H -0.043364 0.400744 0.233608 0.055 Uiso 1 1 calc R . . . .
H22B H 0.138474 0.466022 0.199539 0.055 Uiso 1 1 calc R . . . .
O1A O 0.6965(3) 0.5306(2) 0.46490(12) 0.0514(4) Uani 1 1 d . . . . .
N1A N 0.7436(3) 0.3325(3) 0.4997(2) 0.0593(6) Uani 1 1 d . . . . .
C1A C 0.6871(4) 0.4398(3) 0.51099(18) 0.0474(5) Uani 1 1 d . . . . .
H1A H 0.634184 0.445654 0.560237 0.057 Uiso 1 1 calc R . . . .
C2A C 0.8219(5) 0.3135(5) 0.4257(3) 0.0807(11) Uani 1 1 d . . . . .
H2AA H 0.744537 0.225117 0.386905 0.121 Uiso 1 1 calc GR . . . .
H2AB H 0.940384 0.309363 0.446669 0.121 Uiso 1 1 calc GR . . . .
H2AC H 0.834051 0.393155 0.393076 0.121 Uiso 1 1 calc GR . . . .
C3A C 0.7271(7) 0.2321(5) 0.5628(4) 0.0978(15) Uani 1 1 d . . . . .
H3AA H 0.846083 0.232651 0.588400 0.147 Uiso 1 1 calc GR . . . .
H3AB H 0.650361 0.136781 0.532514 0.147 Uiso 1 1 calc GR . . . .
H3AC H 0.673754 0.259991 0.609686 0.147 Uiso 1 1 calc GR . . . .
loop_
_atom_site_aniso_label
_atom_site_aniso_U_11
_atom_site_aniso_U_22
_atom_site_aniso_U_33
_atom_site_aniso_U_23
_atom_site_aniso_U_13
_atom_site_aniso_U_12
Zn1 0.0384(2) 0.0257(2) 0.0333(2) 0.00949(15) 0.00991(15) 0.01328(16)
O1 0.0498(9) 0.0337(8) 0.0486(8) 0.0102(7) 0.0215(7) 0.0102(7)
O2 0.0480(8) 0.0329(7) 0.0383(7) 0.0128(6) 0.0169(6) 0.0159(6)
O3 0.0379(7) 0.0342(8) 0.0360(7) 0.0144(6) 0.0102(6) 0.0113(6)
O4 0.0370(7) 0.0305(7) 0.0391(7) 0.0093(6) 0.0063(6) 0.0114(6)
N1 0.0370(8) 0.0283(8) 0.0480(9) 0.0101(7) 0.0083(7) 0.0126(7)
N2 0.0389(9) 0.0393(10) 0.0357(8) 0.0107(8) 0.0099(7) 0.0119(7)
C1 0.0408(10) 0.0306(10) 0.0397(9) 0.0144(8) 0.0114(8) 0.0169(8)
C2 0.0363(9) 0.0304(10) 0.0370(9) 0.0127(8) 0.0097(8) 0.0142(8)
C3 0.0423(10) 0.0291(10) 0.0366(9) 0.0106(8) 0.0107(8) 0.0153(8)
C4 0.0389(10) 0.0267(9) 0.0386(9) 0.0124(8) 0.0104(8) 0.0113(8)
C5 0.0366(9) 0.0294(10) 0.0354(9) 0.0113(8) 0.0070(8) 0.0142(8)
C6 0.0404(10) 0.0283(9) 0.0359(9) 0.0090(8) 0.0092(8) 0.0140(8)
C7 0.0387(10) 0.0283(9) 0.0396(9) 0.0123(8) 0.0109(8) 0.0114(8)
C8 0.0390(10) 0.0258(9) 0.0355(9) 0.0118(8) 0.0101(8) 0.0150(8)
C9 0.0368(9) 0.0261(9) 0.0373(9) 0.0106(8) 0.0100(8) 0.0120(7)
C10 0.0391(10) 0.0251(9) 0.0364(9) 0.0109(8) 0.0094(8) 0.0140(8)
C11 0.0372(9) 0.0290(9) 0.0340(9) 0.0101(8) 0.0112(8) 0.0137(8)
C12 0.0392(10) 0.0266(9) 0.0381(9) 0.0100(8) 0.0114(8) 0.0110(8)
C13 0.0387(9) 0.0282(9) 0.0362(9) 0.0123(8) 0.0108(8) 0.0129(8)
C14 0.0361(9) 0.0298(10) 0.0339(9) 0.0102(8) 0.0117(8) 0.0139(8)
C15 0.0369(9) 0.0270(9) 0.0370(9) 0.0093(8) 0.0105(8) 0.0101(7)
C16 0.0391(10) 0.0275(9) 0.0372(9) 0.0118(8) 0.0100(8) 0.0139(8)
C17 0.0353(9) 0.0291(9) 0.0352(9) 0.0100(8) 0.0119(8) 0.0126(8)
C18 0.0432(11) 0.0456(13) 0.0408(10) -0.0014(10) 0.0132(9) 0.0133(9)
C19 0.0417(11) 0.0354(11) 0.0564(12) -0.0009(10) 0.0114(10) 0.0152(9)
C20 0.0415(11) 0.0322(10) 0.0612(13) 0.0206(10) 0.0062(10) 0.0154(9)
C21 0.0419(11) 0.0432(12) 0.0568(13) 0.0281(11) 0.0061(10) 0.0117(9)
C22 0.0435(11) 0.0554(14) 0.0384(10) 0.0221(10) 0.0108(9) 0.0138(10)
O1A 0.0720(12) 0.0394(9) 0.0508(9) 0.0164(8) 0.0155(8) 0.0270(8)
N1A 0.0612(13) 0.0388(11) 0.0825(16) 0.0109(11) 0.0068(12) 0.0277(10)
C1A 0.0566(13) 0.0358(12) 0.0542(12) 0.0109(10) 0.0096(11) 0.0226(10)
C2A 0.076(2) 0.077(2) 0.096(2) -0.014(2) 0.0110(19) 0.0459(19)
C3A 0.103(3) 0.065(2) 0.154(4) 0.058(3) 0.040(3) 0.051(2)
loop_
_atom_type_symbol
_atom_type_description
_atom_type_scat_dispersion_real
_atom_type_scat_dispersion_imag
_atom_type_scat_source
C C 0.0181 0.0091 'International Tables Vol C Tables 4.2.6.8 and 6.1.1.4'
H H 0.0000 0.0000 'International Tables Vol C Tables 4.2.6.8 and 6.1.1.4'
N N 0.0311 0.0180 'International Tables Vol C Tables 4.2.6.8 and 6.1.1.4'
O O 0.0492 0.0322 'International Tables Vol C Tables 4.2.6.8 and 6.1.1.4'
Zn Zn -1.5491 0.6778 'International Tables Vol C Tables 4.2.6.8 and 6.1.1.4'
loop_
_geom_angle_atom_site_label_1
_geom_angle_atom_site_label_2
_geom_angle_atom_site_label_3
_geom_angle
_geom_angle_site_symmetry_1
_geom_angle_site_symmetry_3
_geom_angle_publ_flag
O4 Zn1 O4 180.0 . 2_565 ?
N1 Zn1 O4 91.95(7) 2_565 2_565 ?
N1 Zn1 O4 88.05(7) 2_565 . ?
N1 Zn1 O4 88.05(7) . 2_565 ?
N1 Zn1 O4 91.95(7) . . ?
N1 Zn1 N1 180.0 2_565 . ?
N2 Zn1 O4 93.20(7) . 2_565 ?
N2 Zn1 O4 86.80(7) . . ?
N2 Zn1 O4 93.20(7) 2_565 . ?
N2 Zn1 O4 86.80(7) 2_565 2_565 ?
N2 Zn1 N1 85.37(8) 2_565 2_565 ?
N2 Zn1 N1 94.63(8) . 2_565 ?
N2 Zn1 N1 94.63(8) 2_565 . ?
N2 Zn1 N1 85.37(8) . . ?
N2 Zn1 N2 180.0 2_565 . ?
C1 O2 H2 109.5 . . ?
C17 O4 Zn1 123.51(13) . . ?
Zn1 N1 H1 107.8 . . ?
C19 N1 Zn1 104.68(14) . . ?
C19 N1 H1 107.8 . . ?
C19 N1 C20 114.39(19) . . ?
C20 N1 Zn1 114.00(15) . . ?
C20 N1 H1 107.8 . . ?
Zn1 N2 H2A 107.2 . . ?
C18 N2 Zn1 105.08(14) . . ?
C18 N2 H2A 107.2 . . ?
C18 N2 C22 113.58(19) . . ?
C22 N2 Zn1 115.99(15) . . ?
C22 N2 H2A 107.2 . . ?
O1 C1 O2 124.57(19) . . ?
O1 C1 C2 122.0(2) . . ?
O2 C1 C2 113.47(18) . . ?
C3 C2 C1 121.49(19) . . ?
C3 C2 C7 119.55(19) . . ?
C7 C2 C1 118.94(19) . . ?
C2 C3 H3 120.1 . . ?
C2 C3 C4 119.84(19) . . ?
C4 C3 H3 120.1 . . ?
C3 C4 H4 119.6 . . ?
C3 C4 C5 120.80(19) . . ?
C5 C4 H4 119.6 . . ?
C4 C5 C6 118.94(19) . . ?
C4 C5 C8 121.87(19) . . ?
C6 C5 C8 119.07(19) . . ?
C5 C6 H6 119.9 . . ?
C7 C6 C5 120.21(19) . . ?
C7 C6 H6 119.9 . . ?
C2 C7 H7 119.7 . . ?
C6 C7 C2 120.65(19) . . ?
C6 C7 H7 119.7 . . ?
C9 C8 C5 117.84(19) . . ?
C9 C8 C10 117.98(19) . 2_776 ?
C10 C8 C5 124.10(19) 2_776 . ?
C8 C9 H9 118.0 . . ?
C10 C9 C8 123.91(19) . . ?
C10 C9 H9 118.0 . . ?
C8 C10 C11 124.70(18) 2_776 . ?
C9 C10 C8 118.11(19) . 2_776 ?
C9 C10 C11 117.12(19) . . ?
C12 C11 C10 121.54(18) . . ?
C12 C11 C16 118.39(19) . . ?
C16 C11 C10 119.96(18) . . ?
C11 C12 H12 119.6 . . ?
C13 C12 C11 120.78(19) . . ?
C13 C12 H12 119.6 . . ?
C12 C13 H13 119.8 . . ?
C12 C13 C14 120.48(19) . . ?
C14 C13 H13 119.8 . . ?
C13 C14 C17 119.81(18) . . ?
C15 C14 C13 119.15(19) . . ?
C15 C14 C17 120.98(18) . . ?
C14 C15 H15 119.8 . . ?
C16 C15 C14 120.39(19) . . ?
C16 C15 H15 119.8 . . ?
C11 C16 H16 119.6 . . ?
C15 C16 C11 120.80(19) . . ?
C15 C16 H16 119.6 . . ?
O3 C17 O4 124.56(19) . . ?
O3 C17 C14 118.37(18) . . ?
O4 C17 C14 116.98(17) . . ?
N2 C18 H18A 109.8 . . ?
N2 C18 H18B 109.8 . . ?
N2 C18 C19 109.46(18) . . ?
H18A C18 H18B 108.2 . . ?
C19 C18 H18A 109.8 . . ?
C19 C18 H18B 109.8 . . ?
N1 C19 C18 109.24(19) . . ?
N1 C19 H19A 109.8 . . ?
N1 C19 H19B 109.8 . . ?
C18 C19 H19A 109.8 . . ?
C18 C19 H19B 109.8 . . ?
H19A C19 H19B 108.3 . . ?
N1 C20 H20A 109.2 . . ?
N1 C20 H20B 109.2 . . ?
N1 C20 C21 112.08(19) . . ?
H20A C20 H20B 107.9 . . ?
C21 C20 H20A 109.2 . . ?
C21 C20 H20B 109.2 . . ?
C20 C21 H21A 108.2 . . ?
C20 C21 H21B 108.2 . . ?
C20 C21 C22 116.37(19) . 2_565 ?
H21A C21 H21B 107.3 . . ?
C22 C21 H21A 108.2 2_565 . ?
C22 C21 H21B 108.2 2_565 . ?
N2 C22 C21 111.78(19) . 2_565 ?
N2 C22 H22A 109.3 . . ?
N2 C22 H22B 109.3 . . ?
C21 C22 H22A 109.3 2_565 . ?
C21 C22 H22B 109.3 2_565 . ?
H22A C22 H22B 107.9 . . ?
C1A N1A C2A 120.5(3) . . ?
C1A N1A C3A 120.3(3) . . ?
C2A N1A C3A 119.2(3) . . ?
O1A C1A N1A 126.6(3) . . ?
O1A C1A H1A 116.7 . . ?
N1A C1A H1A 116.7 . . ?
N1A C2A H2AA 109.5 . . ?
N1A C2A H2AB 109.5 . . ?
N1A C2A H2AC 109.5 . . ?
H2AA C2A H2AB 109.5 . . ?
H2AA C2A H2AC 109.5 . . ?
H2AB C2A H2AC 109.5 . . ?
N1A C3A H3AA 109.5 . . ?
N1A C3A H3AB 109.5 . . ?
N1A C3A H3AC 109.5 . . ?
H3AA C3A H3AB 109.5 . . ?
H3AA C3A H3AC 109.5 . . ?
H3AB C3A H3AC 109.5 . . ?
loop_
_geom_bond_atom_site_label_1
_geom_bond_atom_site_label_2
_geom_bond_distance
_geom_bond_site_symmetry_2
_geom_bond_publ_flag
Zn1 O4 2.2046(15) 2_565 ?
Zn1 O4 2.2046(15) . ?
Zn1 N1 2.1080(18) . ?
Zn1 N1 2.1080(18) 2_565 ?
Zn1 N2 2.0876(18) 2_565 ?
Zn1 N2 2.0876(18) . ?
O1 C1 1.213(3) . ?
O2 H2 0.8400 . ?
O2 C1 1.321(3) . ?
O3 C17 1.257(3) . ?
O4 C17 1.259(3) . ?
N1 H1 1.0000 . ?
N1 C19 1.471(3) . ?
N1 C20 1.481(3) . ?
N2 H2A 1.0000 . ?
N2 C18 1.472(3) . ?
N2 C22 1.478(3) . ?
C1 C2 1.491(3) . ?
C2 C3 1.393(3) . ?
C2 C7 1.394(3) . ?
C3 H3 0.9500 . ?
C3 C4 1.393(3) . ?
C4 H4 0.9500 . ?
C4 C5 1.396(3) . ?
C5 C6 1.401(3) . ?
C5 C8 1.486(3) . ?
C6 H6 0.9500 . ?
C6 C7 1.386(3) . ?
C7 H7 0.9500 . ?
C8 C9 1.403(3) . ?
C8 C10 1.411(3) 2_776 ?
C9 H9 0.9500 . ?
C9 C10 1.392(3) . ?
C10 C11 1.485(3) . ?
C11 C12 1.402(3) . ?
C11 C16 1.402(3) . ?
C12 H12 0.9500 . ?
C12 C13 1.382(3) . ?
C13 H13 0.9500 . ?
C13 C14 1.398(3) . ?
C14 C15 1.394(3) . ?
C14 C17 1.509(3) . ?
C15 H15 0.9500 . ?
C15 C16 1.386(3) . ?
C16 H16 0.9500 . ?
C18 H18A 0.9900 . ?
C18 H18B 0.9900 . ?
C18 C19 1.522(4) . ?
C19 H19A 0.9900 . ?
C19 H19B 0.9900 . ?
C20 H20A 0.9900 . ?
C20 H20B 0.9900 . ?
C20 C21 1.522(4) . ?
C21 H21A 0.9900 . ?
C21 H21B 0.9900 . ?
C21 C22 1.530(4) 2_565 ?
C22 H22A 0.9900 . ?
C22 H22B 0.9900 . ?
O1A C1A 1.210(3) . ?
N1A C1A 1.333(4) . ?
N1A C2A 1.440(5) . ?
N1A C3A 1.471(5) . ?
C1A H1A 0.9500 . ?
C2A H2AA 0.9800 . ?
C2A H2AB 0.9800 . ?
C2A H2AC 0.9800 . ?
C3A H3AA 0.9800 . ?
C3A H3AB 0.9800 . ?
C3A H3AC 0.9800 . ?
loop_
_geom_hbond_atom_site_label_D
_geom_hbond_atom_site_label_H
_geom_hbond_atom_site_label_A
_geom_hbond_distance_DH
_geom_hbond_distance_HA
_geom_hbond_distance_DA
_geom_hbond_angle_DHA
_geom_hbond_site_symmetry_A
_geom_hbond_publ_flag
O2 H2 O3 0.84 1.72 2.556(2) 175.3 1_556 yes
N1 H1 O3 1.00 2.17 2.967(2) 135.3 . yes
N2 H2A O1 1.00 2.04 2.899(3) 142.7 2_566 yes
loop_
_geom_torsion_atom_site_label_1
_geom_torsion_atom_site_label_2
_geom_torsion_atom_site_label_3
_geom_torsion_atom_site_label_4
_geom_torsion
_geom_torsion_site_symmetry_1
_geom_torsion_site_symmetry_2
_geom_torsion_site_symmetry_3
_geom_torsion_site_symmetry_4
_geom_torsion_publ_flag
Zn1 O4 C17 O3 -26.5(3) . . . . ?
Zn1 O4 C17 C14 150.07(13) . . . . ?
Zn1 N1 C19 C18 41.66(19) . . . . ?
Zn1 N1 C20 C21 -57.5(2) . . . . ?
Zn1 N2 C18 C19 41.9(2) . . . . ?
Zn1 N2 C22 C21 -55.1(2) . . . 2_565 ?
O1 C1 C2 C3 174.1(2) . . . . ?
O1 C1 C2 C7 -7.0(3) . . . . ?
O2 C1 C2 C3 -7.0(3) . . . . ?
O2 C1 C2 C7 171.91(18) . . . . ?
N1 C20 C21 C22 73.0(3) . . . 2_565 ?
N2 C18 C19 N1 -58.8(2) . . . . ?
C1 C2 C3 C4 178.24(19) . . . . ?
C1 C2 C7 C6 -177.85(18) . . . . ?
C2 C3 C4 C5 -0.5(3) . . . . ?
C3 C2 C7 C6 1.1(3) . . . . ?
C3 C4 C5 C6 1.2(3) . . . . ?
C3 C4 C5 C8 177.18(18) . . . . ?
C4 C5 C6 C7 -0.8(3) . . . . ?
C4 C5 C8 C9 -134.3(2) . . . . ?
C4 C5 C8 C10 42.5(3) . . . 2_776 ?
C5 C6 C7 C2 -0.3(3) . . . . ?
C5 C8 C9 C10 176.23(18) . . . . ?
C6 C5 C8 C9 41.7(3) . . . . ?
C6 C5 C8 C10 -141.6(2) . . . 2_776 ?
C7 C2 C3 C4 -0.6(3) . . . . ?
C8 C5 C6 C7 -176.87(18) . . . . ?
C8 C9 C10 C8 0.7(3) . . . 2_776 ?
C8 C9 C10 C11 -176.32(19) . . . . ?
C8 C10 C11 C12 -48.5(3) 2_776 . . . ?
C8 C10 C11 C16 135.4(2) 2_776 . . . ?
C9 C10 C11 C12 128.3(2) . . . . ?
C9 C10 C11 C16 -47.7(3) . . . . ?
C10 C8 C9 C10 -0.7(3) 2_776 . . . ?
C10 C11 C12 C13 -175.21(19) . . . . ?
C10 C11 C16 C15 175.10(19) . . . . ?
C11 C12 C13 C14 0.3(3) . . . . ?
C12 C11 C16 C15 -1.1(3) . . . . ?
C12 C13 C14 C15 -1.3(3) . . . . ?
C12 C13 C14 C17 175.76(18) . . . . ?
C13 C14 C15 C16 1.2(3) . . . . ?
C13 C14 C17 O3 8.3(3) . . . . ?
C13 C14 C17 O4 -168.46(18) . . . . ?
C14 C15 C16 C11 0.0(3) . . . . ?
C15 C14 C17 O3 -174.62(18) . . . . ?
C15 C14 C17 O4 8.6(3) . . . . ?
C16 C11 C12 C13 0.9(3) . . . . ?
C17 C14 C15 C16 -175.89(18) . . . . ?
C18 N2 C22 C21 -176.97(18) . . . 2_565 ?
C19 N1 C20 C21 -177.89(18) . . . . ?
C20 N1 C19 C18 167.14(18) . . . . ?
C22 N2 C18 C19 169.67(18) . . . . ?
C2A N1A C1A O1A -1.4(5) . . . . ?
C3A N1A C1A O1A 178.4(3) . . . . ?
