#------------------------------------------------------------------------------
#$Date: 2021-07-05 20:37:49 +0300 (Mon, 05 Jul 2021) $
#$Revision: 267173 $
#$URL: file:///home/coder/svn-repositories/cod/cif/7/70/75/7707511.cif $
#------------------------------------------------------------------------------
#
# This file is available in the Crystallography Open Database (COD),
# http://www.crystallography.net/
#
# All data on this site have been placed in the public domain by the
# contributors.
#
data_7707511
loop_
_publ_author_name
'Brach\<nakov\'a, Barbora'
'Monco\<l, J\'an'
'Pavlik, J\'an'
'\<Salitro\<s, Ivan'
'Bonhommeau, S\'ebastien'
'Valverde-Mu\~noz, Francisco Javier'
'Salmon, Lionel'
'Moln\'ar, G\'abor'
'Routaboul, Lucie'
'Bousseksou, Azzedine'
_publ_section_title
;
 Spin crossover metal-organic frameworks with inserted photoactive guests:
 on the quest to control the spin state by photoisomerization.
;
_journal_issue                   25
_journal_name_full
'Dalton transactions (Cambridge, England : 2003)'
_journal_page_first              8877
_journal_page_last               8888
_journal_paper_doi               10.1039/d1dt01057c
_journal_volume                  50
_journal_year                    2021
_chemical_formula_moiety         'C16 H8 Fe N6 Pt, C12 H10 N2'
_chemical_formula_sum            'C28 H18 Fe N8 Pt'
_chemical_formula_weight         717.44
_space_group_crystal_system      triclinic
_space_group_IT_number           2
_space_group_name_Hall           '-P 1'
_space_group_name_H-M_alt        'P -1'
_atom_sites_solution_hydrogens   geom
_atom_sites_solution_primary     dual
_audit_creation_date             2020-10-30
_audit_creation_method
;
Olex2 1.3
(compiled 2020.07.31 svn.rc2a77460 for OlexSys, GUI svn.r6145)
;
_audit_update_record
;
2020-11-05 deposited with the CCDC.	2021-05-27 downloaded from the CCDC.
;
_cell_angle_alpha                77.715(3)
_cell_angle_beta                 82.604(3)
_cell_angle_gamma                88.873(3)
_cell_formula_units_Z            1
_cell_length_a                   6.9483(3)
_cell_length_b                   7.5509(3)
_cell_length_c                   13.0859(5)
_cell_measurement_reflns_used    38215
_cell_measurement_temperature    180
_cell_measurement_theta_max      72.17
_cell_measurement_theta_min      3.49
_cell_volume                     665.24(5)
_computing_cell_refinement
;
X-Area Recipe 1.33.0.0 (STOE, 2015)
;
_computing_data_collection
;
X-Area Pilatus3_SV 1.31.150.0 (STOE, 2018)
;
_computing_data_reduction
;
X-Area Integrate 1.73.1.0 (STOE, 2018)
X-Area LANA 1.73.2.0 (STOE, 2018)
;
_computing_molecular_graphics    'Olex2 1.3 (Dolomanov et al., 2009)'
_computing_publication_material
;
STOE & Cie GmbH, X-Area, software package for collecting single-crystal or
multi-domain crystal data on STOE area-detector diffractometers, for image 
processing, for the correction and scaling of reflection intensities and 
for outlier rejection, version 1.84, Darmstadt 2018
;
_computing_structure_refinement  'SHELXL 2018/3 (Sheldrick, 2015)'
_computing_structure_solution    'SHELXT  (Sheldrick, 2015)'
_diffrn_ambient_temperature      180
_diffrn_detector                 'Pilatus3R 300K'
_diffrn_detector_area_resol_mean 5.81
_diffrn_detector_type            'DECTRIS PILATUS3R 300K'
_diffrn_measured_fraction_theta_full 0.990
_diffrn_measured_fraction_theta_max 0.971
_diffrn_measurement_device       'Eulerian 4-circle diffractometer'
_diffrn_measurement_device_type  'Stoe Stadivari with Xenocs Genix3D Cu HF'
_diffrn_measurement_method       '\w scans'
_diffrn_radiation_collimation    '0.6 mm diameter'
_diffrn_radiation_monochromator  'Graded multilayer mirror'
_diffrn_radiation_polarisn_norm  270
_diffrn_radiation_type           'Cu K\a'
_diffrn_radiation_wavelength     1.54186
_diffrn_reflns_av_R_equivalents  0.0572
_diffrn_reflns_av_unetI/netI     0.0259
_diffrn_reflns_Laue_measured_fraction_full 0.990
_diffrn_reflns_Laue_measured_fraction_max 0.971
_diffrn_reflns_limit_h_max       8
_diffrn_reflns_limit_h_min       -5
_diffrn_reflns_limit_k_max       7
_diffrn_reflns_limit_k_min       -9
_diffrn_reflns_limit_l_max       14
_diffrn_reflns_limit_l_min       -16
_diffrn_reflns_number            17317
_diffrn_reflns_point_group_measured_fraction_full 0.990
_diffrn_reflns_point_group_measured_fraction_max 0.971
_diffrn_reflns_theta_full        67.686
_diffrn_reflns_theta_max         71.795
_diffrn_reflns_theta_min         3.485
_diffrn_source                   'Genix3D Cu HF'
_diffrn_source_current           0.600
_diffrn_source_power             0.030
_diffrn_source_voltage           50
_exptl_absorpt_coefficient_mu    14.328
_exptl_absorpt_correction_T_max  0.2457
_exptl_absorpt_correction_T_min  0.0314
_exptl_absorpt_correction_type   multi-scan
_exptl_absorpt_process_details
;
STOE LANA, J. Koziskova, F. Hahn, J. Richter, J. Kozisek, 
Acta Chimica Slovaca, vol. 9, no. 2, 2016, pp. 136 - 140.
;
_exptl_crystal_colour            red
_exptl_crystal_density_diffrn    1.791
_exptl_crystal_description       block
_exptl_crystal_F_000             346
_exptl_crystal_size_max          0.12
_exptl_crystal_size_mid          0.08
_exptl_crystal_size_min          0.06
_refine_diff_density_max         4.773
_refine_diff_density_min         -3.294
_refine_diff_density_rms         0.374
_refine_ls_extinction_method     none
_refine_ls_goodness_of_fit_ref   1.070
_refine_ls_hydrogen_treatment    constr
_refine_ls_matrix_type           full
_refine_ls_number_parameters     175
_refine_ls_number_reflns         2534
_refine_ls_number_restraints     1
_refine_ls_restrained_S_all      1.070
_refine_ls_R_factor_all          0.0750
_refine_ls_R_factor_gt           0.0745
_refine_ls_shift/su_max          0.000
_refine_ls_shift/su_mean         0.000
_refine_ls_structure_factor_coef Fsqd
_refine_ls_weighting_details
'w=1/[\s^2^(Fo^2^)+(0.1623P)^2^+3.2732P] where P=(Fo^2^+2Fc^2^)/3'
_refine_ls_weighting_scheme      calc
_refine_ls_wR_factor_gt          0.1940
_refine_ls_wR_factor_ref         0.1958
_reflns_Friedel_coverage         0.000
_reflns_number_gt                2522
_reflns_number_total             2534
_reflns_threshold_expression     'I > 2\s(I)'
_cod_data_source_file            d1dt01057c2.cif
_cod_data_source_block           1@180K
_cod_depositor_comments
'Adding full bibliography for 7707511--7707512.cif.'
_cod_database_code               7707511
_shelx_shelxl_version_number     2018/3
_shelx_space_group_comment
;
The symmetry employed for this shelxl refinement is uniquely defined
by the following loop, which should always be used as a source of
symmetry information in preference to the above space-group names.
They are only intended as comments.
;
_shelx_estimated_absorpt_t_max   0.480
_shelx_estimated_absorpt_t_min   0.278
_olex2_refinement_description
;
1. Fixed Uiso
 At 1.2 times of:
  All C(H) groups
2. Restrained distances
 C1-N1 \\sim C2-N2
 with sigma of 0.01
3.a Aromatic/amide H refined with riding coordinates:
 C3(H3), C4(H4), C6(H6), C7(H7), C10(H10), C11(H11), C12(H12), C13(H13),
 C14(H14)
;
_shelx_res_file
;
TITL jm1840_180kp_a.res in P-1
    bb70_180k.res
    created by SHELXL-2018/3 at 20:47:22 on 30-Oct-2020
REM Old TITL
REM SHELXT solution in P-1: R1 0.103, Rweak 0.103, Alpha 0.035
REM <I/s> 0.000 for 0 systematic absences, Orientation as input
REM Formula found by SHELXT: C28 Fe N10 Pt
CELL 1.54186 6.9483 7.5509 13.0859 77.715 82.604 88.873
ZERR 1 0.0003 0.0003 0.0005 0.003 0.003 0.003
LATT 1
SFAC C H Fe N Pt
UNIT 28 18 1 8 1
SADI 0.01 C1 N1 C2 N2

L.S. 8 0 0
PLAN  5
SIZE 0.06 0.08 0.12
TEMP -93.15
CONF
BOND
list 4
MORE -1
BOND $H
fmap 2 53
acta
REM <olex2.extras>
REM <HklSrc "%.\\jm1840_180Kpa.hkl">
REM </olex2.extras>

WGHT    0.162300    3.273200
FVAR       0.55542
PT1   5    1.000000    0.000000    0.500000    10.50000    0.02870    0.03663 =
         0.04727   -0.01111   -0.00325    0.00084
FE1   3    0.500000    0.500000    0.500000    10.50000    0.02763    0.03550 =
         0.03900   -0.00916    0.00031   -0.00069
N1    4    0.683031    0.277211    0.552428    11.00000    0.03403    0.04243 =
         0.05028   -0.01219    0.00139    0.00223
N2    4    1.300538    0.316350    0.462089    11.00000    0.03747    0.04395 =
         0.04862   -0.01272   -0.00088   -0.00025
N3    4    0.334000    0.459652    0.659752    11.00000    0.03490    0.04774 =
         0.04547   -0.01479    0.00095   -0.00309
C1    1    0.798408    0.173355    0.537608    11.00000    0.03523    0.04563 =
         0.04394   -0.00975   -0.00729    0.00322
C2    1    1.193051    0.199879    0.473866    11.00000    0.03355    0.04302 =
         0.04824   -0.01684   -0.00885    0.00332
C3    1    0.142031    0.491064    0.673295    11.00000    0.04097    0.05494 =
         0.05018   -0.01862    0.00064    0.00277
AFIX  43
H3    2    0.073913    0.508610    0.613505    11.00000   -1.20000
AFIX   0
C4    1    0.039721    0.499016    0.769234    11.00000    0.03384    0.06151 =
         0.05714   -0.01669    0.00683    0.00133
AFIX  43
H4    2   -0.095941    0.520987    0.775914    11.00000   -1.20000
AFIX   0
C5    1    0.142170    0.473554    0.857735    11.00000    0.05782    0.04914 =
         0.04213   -0.01361    0.01138   -0.00141
C6    1    0.334159    0.433620    0.844659    11.00000    0.05304    0.06282 =
         0.04333   -0.01091   -0.00394   -0.00523
AFIX  43
H6    2    0.404428    0.408045    0.903699    11.00000   -1.20000
AFIX   0
C7    1    0.427752    0.430366    0.743869    11.00000    0.05247    0.05634 =
         0.04314   -0.00791   -0.00052    0.00428
AFIX  43
H7    2    0.562941    0.406390    0.735345    11.00000   -1.20000
AFIX   0
C8    1    0.041900    0.491409    0.959055    11.00000    0.06081    0.05237 =
         0.04842   -0.01164    0.01279   -0.00620

N4    4   -0.002657    1.001251    0.952544    11.00000    0.05646    0.06281 =
         0.05779   -0.01158   -0.00599   -0.00882
C9    1    0.176318    0.957194    0.895955    11.00000    0.06320    0.05822 =
         0.05719   -0.01656   -0.00870   -0.00987
C10   1    0.337463    0.893118    0.943569    11.00000    0.06449    0.06521 =
         0.05691   -0.01158   -0.01075   -0.00881
AFIX  43
H10   2    0.332607    0.871936    1.018068    11.00000   -1.20000
AFIX   0
C11   1    0.504863    0.860194    0.882520    11.00000    0.06221    0.08473 =
         0.05670   -0.01704   -0.00522   -0.00148
AFIX  43
H11   2    0.617082    0.819629    0.914960    11.00000   -1.20000
AFIX   0
C12   1    0.511734    0.885913    0.772624    11.00000    0.06733    0.06945 =
         0.05929   -0.01519    0.00038   -0.00379
AFIX  43
H12   2    0.627332    0.861213    0.730906    11.00000   -1.20000
AFIX   0
C13   1    0.347402    0.948036    0.725218    11.00000    0.09395    0.06263 =
         0.04835   -0.00788   -0.00651   -0.00392
AFIX  43
H13   2    0.350884    0.968981    0.650799    11.00000   -1.20000
AFIX   0
C14   1    0.179946    0.978662    0.787624    11.00000    0.05682    0.06670 =
         0.05834   -0.00629   -0.00783   -0.00807
AFIX  43
H14   2    0.065645    1.014883    0.756185    11.00000   -1.20000
AFIX   0
HKLF 4




REM  jm1840_180kp_a.res in P-1
REM wR2 = 0.1958, GooF = S = 1.070, Restrained GooF = 1.070 for all data
REM R1 = 0.0745 for 2522 Fo > 4sig(Fo) and 0.0750 for all 2534 data
REM 175 parameters refined using 1 restraints

END

WGHT      0.1623      3.2733

REM Highest difference peak  4.773,  deepest hole -3.294,  1-sigma level  0.374
Q1    1   0.9872  0.0365  0.4289  11.00000  0.05    4.77
Q2    1   1.0076 -0.1266  0.4916  11.00000  0.05    3.62
Q3    1   0.9996  0.2954  0.4972  11.00000  0.05    2.89
Q4    1   1.1270 -0.0040  0.4642  11.00000  0.05    1.91
Q5    1   1.1627  0.0618  0.4390  11.00000  0.05    1.81
;
_shelx_res_checksum              75185
_shelx_hkl_file
;
   3  -1   8  446.15    7.73   0
   3   0   9  163.77    6.21   0
   4  -3   5  366.56    8.84   0
   6  -2   7  178.77    5.26   0
   4  -2   7  406.87    8.02   0
   6   1  10   63.85    4.15   0
   4   1  10   15.53    4.94   0
   6   3  10   29.86    3.62   0
   5   1  10  189.44    6.64   0
   7  -2   5   34.75    4.56   0
   7   1   9  126.68    4.08   0
   7   3   9   90.99    3.98   0
   4  -1   8   96.24    5.64   0
   4   0   9  234.61    6.54   0
   5   3  10  178.53    5.72   0
   6   0   9  135.57    5.18   0
   5  -1   8  182.64    6.12   0
   6  -2   6  249.27    6.32   0
   7   0   8   56.65    3.82   0
   3   2   9  277.86    6.54   0
   8   1   7   21.43    2.76   0
   3   0   8   32.72    4.54   0
   5  -2   6   99.80    6.12   0
   6   1   9   72.27    4.65   0
   8   2   7   80.00    3.35   0
   4   1   9   64.77    5.41   0
   5   1   9  192.51    7.03   0
   6   0   8  168.86    5.94   0
   6   3   9   38.42    4.21   0
   7  -1   6  145.63    5.04   0
   7   1   8  102.12    4.59   0
   4  -1   7  114.98    5.53   0
   4   0   8  502.46    8.00   0
   4   2   9  304.28    6.69   0
   6  -2   5  217.81    6.79   0
   3   1   8  344.18    6.72   0
   5   0   8  120.65    5.83   0
   5   3   9  148.48    6.14   0
   7   2   8   13.86    3.52   0
   8   0   5  110.63    3.85   0
   8   1   6   29.08    2.88   0
   4  -2   5  370.30    7.70   0
   7   4   7   48.60    3.67   0
   3   2   8  161.35    5.33   0
   8   2   6  119.28    3.76   0
   6   1   8   86.22    5.18   0
   7  -1   5  138.45    5.35   0
   4   1   8  139.92    5.94   0
   6  -1   6   23.28    3.96   0
   5   1   8  207.73    7.21   0
   6   2   8  135.88    5.87   0
   6   3   8   38.90    4.78   0
   7   0   6  140.38    5.15   0
   8   0   4   93.45    4.19   0
   4   0   7  478.20    7.59   0
   4   2   8  370.74    7.16   0
   7   2   7   28.84    4.07   0
   5   0   7  205.20    6.33   0
   5   2   8  106.50    6.86   0
   5   3   8  219.53    7.39   0
   8   2   5  122.94    3.86   0
   6  -1   5  121.78    6.31   0
   6   1   7   94.68    5.47   0
   7   1   6  147.25    5.52   0
   8   1   4   45.16    3.45   0
   8   3   4   87.65    3.93   0
   4   1   7  101.65    5.16   0
   4   4   7  296.23    7.23   0
   6   0   6  421.51    8.11   0
   7   0   5  108.11    5.40   0
   5   1   7  282.61    7.65   0
   5   4   7   58.85    4.82   0
   6   2   7  249.22    6.83   0
   7   2   6   63.45    4.92   0
   7   3   6   97.10    4.56   0
   8   2   4  205.15    4.74   0
   4   0   6  560.67    7.75   0
   7  -1   3  202.71    6.49   0
   7   4   5   95.45    4.29   0
   4   3   7  149.08    4.65   0
   5  -2   3  192.72    6.86   0
   5   2   7  148.91    7.12   0
   6   5   5  195.08    6.33   0
   5   3   7  161.62    6.57   0
   6  -2   2  275.77    8.11   0
   6  -1   4  240.64    7.20   0
   6   4   6  218.59    6.37   0
   8   3   3   68.28    3.61   0
   8   2   3  337.64    5.52   0
   6   0   5  318.22    7.69   0
   7   3   5  192.78    5.40   0
   7  -1   2  332.55    7.48   0
   7   2   5   54.96    4.75   0
   8   3   2   47.98    3.76   0
   4   4   6  337.01    8.25   0
   5  -1   4  437.61    7.62   0
   5   4   6   57.91    5.00   0
   5   0   5   64.51    4.94   0
   6   5   4  120.90    5.79   0
   8   2   2  224.62    5.61   0
   5   2   6   88.05    6.29   0
   6  -1   3  130.13    6.52   0
   6   4   5  141.26    6.07   0
   8   0  -1  199.22    5.45   0
   8   3   1   78.81    3.96   0
   4   3   6  134.01    4.88   0
   5   3   6  369.25    9.48   0
   6   1   5  198.21    6.78   0
   7  -1   1  325.52    7.81   0
   7   3   4  317.91    6.30   0
   7   2   4   56.70    4.76   0
   7   4   3  112.36    4.77   0
   8   2   1  180.76    5.07   0
   6   2   5  236.74    7.36   0
   5  -1   3  493.98    7.97   0
   5   1   5  761.54    9.66   0
   7  -1   0  207.95    7.28   0
   7   1   3  353.74    7.29   0
   5   4   5   24.19    5.49   0
   6  -1   2  176.18    6.74   0
   8   1  -2   51.56    4.54   0
   5   0   4  180.63    5.78   0
   6   4   4  322.58    7.31   0
   7   3   3  520.98    7.70   0
   7   4   2   74.84    4.67   0
   8   2  -1  264.75    5.41   0
   5   2   5   66.70    5.58   0
   6   0   3  506.76    8.98   0
   7  -1  -1  172.32    7.32   0
   7   0   1   74.76    5.61   0
   4   3   5  216.33    6.34   0
   6   2   4  314.86    8.00   0
   6   3   4  118.24    6.67   0
   6   5   2   36.72    5.01   0
   6  -1   1   78.24    6.59   0
   7  -1  -2  290.07    7.47   0
   7   3   2  355.38    7.09   0
   5   1   4  419.32    7.51   0
   7  -1  -3  320.85    7.73   0
   5   0   3  268.89    6.60   0
   5   4   4  201.47    6.93   0
   7   0   0   93.76    6.06   0
   6   5   1    2.37    4.73   0
   7   1   1  204.29    6.90   0
   5   2   4  260.32    6.63   0
   5   3   4  222.44    7.40   0
   7   3   1  134.83    6.18   0
   4   4   4  752.36    9.75   0
   6  -1   0  212.49    7.49   0
   6   2   3  284.09    6.68   0
   6   4   2  213.32    7.43   0
   7   1   0  173.58    6.72   0
   5  -1   1  820.03   10.44   0
   5   5   2  228.54    8.30   0
   6   1   2  157.93    6.70   0
   6   5   0   30.90    4.78   0
   7   0  -6   12.62    5.93   0
   7   3   0  247.50    6.55   0
   5   1   3  642.69    8.46   0
   5   4   3  150.15    7.14   0
   7   2   0  156.60    5.93   0
   5   0   2  261.54    6.56   0
   6  -1  -1  124.36    6.97   0
   6   3   2   72.68    5.98   0
   6   5  -1   17.22    4.54   0
   7   0  -5   52.12    5.75   0
   7   0  -3   51.96    5.10   0
   7   3  -1  151.97    5.93   0
   6   2   2  295.50    7.98   0
   7   0  -4   41.53    5.12   0
   6   5  -2   21.20    4.40   0
   7   2  -1  162.97    5.94   0
   7   3  -4  142.67    5.85   0
   7   3  -2  190.95    5.89   0
   5   5   1  243.08    8.47   0
   7   1  -6  118.67    5.46   0
   7   3  -3  125.52    5.28   0
   5  -1   0 1120.50   11.71   0
   7   2  -2  105.45    5.52   0
   5   4   2  140.54    6.74   0
   6   2   1  345.35    8.40   0
   6   3   1   76.90    6.21   0
   7   2  -5   65.89    4.64   0
   7   2  -3   97.71    5.28   0
   6  -1  -3  118.36    7.13   0
   6   0  -1  815.93   10.52   0
   5   2   2  379.42    7.69   0
   5   5   0  424.60    8.89   0
   5  -1  -1  655.64   10.09   0
   6   2   0  512.21    9.00   0
   6   3   0  131.90    6.62   0
   4   5   1  221.62    8.68   0
   6  -1  -6   22.36    5.78   0
   6  -1  -5   46.12    6.21   0
   5   1   1 1083.70   11.01   0
   5   5  -1  210.37    7.28   0
   6   0  -2  640.86    9.74   0
   6   1  -1   79.57    6.13   0
   6   4  -5  128.83    6.12   0
   6   4  -4  129.79    5.73   0
   6   4  -3  118.74    5.93   0
   5   3   1  186.28    7.32   0
   6   0  -3  586.49    9.73   0
   6   2  -1  190.95    7.05   0
   5   4   0   60.88    6.33   0
   5   5  -2  283.46    7.55   0
   6   3  -7   39.52    4.57   0
   6   3  -2  137.13    6.97   0
   4   5   0  140.91    7.37   0
   6   0  -4  411.47    8.75   0
   5   5  -5   65.69    5.13   0
   5   5  -4   43.69    5.47   0
   6   0  -7  231.46    7.41   0
   6   0  -5  503.61    9.51   0
   6   1  -8   26.84    4.82   0
   6   3  -3  148.17    6.88   0
   4   4   1  352.98    8.57   0
   5   0  -1  111.67    5.47   0
   6   0  -6  265.79    7.55   0
   6   1  -3  131.71    6.96   0
   6   3  -5   16.69    5.34   0
   6   3  -4  134.96    6.56   0
   5  -1  -3  856.38   11.61   0
   5   3   0  400.51    8.43   0
   5   4  -1   38.07    6.24   0
   6   2  -7   78.64    5.66   0
   6   2  -3  186.75    7.44   0
   5   4  -8   20.16    4.74   0
   6   1  -7   43.86    5.88   0
   6   1  -4  162.97    7.20   0
   6   2  -4  180.61    7.66   0
   4   5  -1  135.21    7.17   0
   6   2  -6  103.92    6.60   0
   6   2  -5  279.90    8.04   0
   5  -1  -4  617.14   10.81   0
   5   0  -2  440.30    7.94   0
   5   1  -1  729.12    9.79   0
   5   3  -1  290.29    8.05   0
   4   4   0  473.04    9.10   0
   4   5  -2  179.97    7.64   0
   5   2  -1  138.65    5.92   0
   5   4  -7   47.74    5.22   0
   5  -1  -8  105.84    8.65   0
   5  -1  -5  167.66    8.01   0
   5   0 -10   57.80    6.13   0
   5   2 -10    9.25    4.38   0
   5   3  -9   68.12    5.17   0
   4   5  -7   23.41    5.36   0
   5  -1  -7  328.15    9.65   0
   5  -1  -6  489.75   10.47   0
   5   0  -3  198.09    6.70   0
   5   3  -2  342.23    8.65   0
   5   4  -6    4.78    4.85   0
   5   4  -5   53.51    6.08   0
   4   5  -3   88.13    7.25   0
   5   1 -10   82.80    5.77   0
   4   4  -1  544.25    9.67   0
   4   5  -6   65.68    5.78   0
   4   5  -4  104.57    7.95   0
   5   0  -4  481.85    9.20   0
   5   3  -3  349.52    8.95   0
   5   1  -3  646.21    9.78   0
   5   2  -9   26.99    5.39   0
   5   3  -7  195.87    7.36   0
   4   0 -12  112.71    8.23   0
   4   4  -9   72.17    6.22   0
   5   0  -8   87.29    7.00   0
   5   0  -5  448.90    9.42   0
   5   1  -9  166.68    7.52   0
   5   3  -6  321.56    8.80   0
   5   3  -5  261.23    8.68   0
   4   1 -12   16.50    6.20   0
   4   4  -2  495.68   10.23   0
   5   0  -7  100.66    7.35   0
   5   0  -6   86.29    7.44   0
   5   1  -4  360.55    8.71   0
   5   2  -8   34.99    6.04   0
   3   5  -2  271.12    9.33   0
   5   2  -4  149.12    6.42   0
   5   1  -6  569.45   10.96   0
   5   1  -5  150.81    7.82   0
   5   2  -7   26.41    6.73   0
   5   2  -6    2.62    6.75   0
   4   4  -8   38.22    5.26   0
   3   5  -8  128.51    6.08   0
   3   5  -3  256.24    9.02   0
   4   2 -11   46.41    5.34   0
   4   3 -10   21.36    4.89   0
   4  -1 -10   27.49    6.89   0
   4   4  -7  116.08    7.02   0
   3   5  -7  156.47    6.79   0
   4   0 -11  189.53    7.88   0
   3   5  -5  186.01    7.94   0
   4   1 -11   44.01    6.33   0
   4   3  -9   23.05    5.78   0
   3   4 -10    4.13    4.73   0
   4  -1  -9   59.43    7.58   0
   4  -1  -6  580.49   10.80   0
   4   3  -3   16.37    4.27   0
   3   1 -13   70.09    5.95   0
   4   2 -10   86.34    6.72   0
   4   0 -10  232.19    8.72   0
   4   2  -3  697.41    9.66   0
   4   3  -8   11.10    6.35   0
   4   3  -4   86.05    7.01   0
   4   5   3   61.72    6.60   0
   6   4   4  314.54    8.57   0
   7   4   2   72.77    5.29   0
   8   1   2   26.79    4.36   0
   6   5   1   34.46    5.26   0
   6   1   5  241.88    7.97   0
   6   2   5  242.75    8.33   0
   6   5  -2   33.93    5.04   0
   6   5   0   28.14    5.37   0
   8   2   1  121.25    5.39   0
   5   3   5  276.35    7.38   0
   5   5   2  265.21    8.99   0
   6   5  -1   17.28    4.92   0
   7   3   3  446.27    8.18   0
   6   4   3  398.66    9.55   0
   7   4   0   71.64    5.05   0
   8   1   1   43.94    4.77   0
   5   2   5   63.90    7.33   0
   6   3   4  131.97    7.64   0
   7   0   3  126.58    6.49   0
   7   4  -2   40.65    4.63   0
   5   5   1  295.06    9.17   0
   6   0   4  294.95    9.00   0
   7   2   3   82.53    5.86   0
   7   1   3  335.80    7.63   0
   8   1   0   57.79    5.36   0
   8   2  -1  237.99    5.89   0
   4   5   1  220.65    8.08   0
   5   4   3  109.26    7.24   0
   6   2   4  312.52    8.65   0
   5   5  -1  222.98    9.43   0
   4   3   4  327.22    7.44   0
   6   3   3  117.75    7.26   0
   5   0   4  202.57    7.45   0
   5   2   4  272.22    7.71   0
   7   1   2  468.69    8.61   0
   6   0   3  546.52   10.62   0
   5   3   3  340.81    8.42   0
   6   2   3  316.31    7.38   0
   6   3   2   72.47    7.02   0
   7   2   1   -6.88    5.73   0
   4   3   3   90.93    4.55   0
   6   4  -3  115.05    6.98   0
   6   4  -2  137.39    6.88   0
   7   0   1   74.67    5.97   0
   7   3  -3  145.79    5.82   0
   7   3  -2  177.25    6.69   0
   5   2   3  286.63    7.36   0
   6   3   1   92.41    8.11   0
   7  -1   0  217.15    7.62   0
   4   4   1  332.95    8.37   0
   5   0   3  235.17    7.36   0
   5   3   2  254.83    8.68   0
   6   0   2  864.44   12.15   0
   7   2  -1  143.92    6.67   0
   7   0   0   98.41    6.21   0
   5   4  -1   34.05    7.14   0
   4   4   0  505.12    9.78   0
   6   2   1  293.56    9.21   0
   7  -1  -1  156.46    6.88   0
   7   2  -3   83.68    5.75   0
   5   2   2  382.95    8.20   0
   5   3   1  273.52    8.73   0
   6  -1   1   73.32    7.22   0
   6   3  -1   66.55    7.25   0
   7   2  -4   58.96    5.41   0
   5   4  -4  120.21    6.93   0
   5   4  -3   90.45    7.25   0
   6   3  -6   64.61    5.34   0
   7   0  -1  179.21    6.58   0
   4   4  -1  472.38   10.37   0
   6   0   1  598.84   10.33   0
   6   1   1   77.92    6.90   0
   6   3  -2  144.33    7.76   0
   7   1  -2  227.72    7.49   0
   6   2   0  555.54   10.31   0
   6   3  -5   25.39    5.58   0
   6   3  -3  140.46    7.74   0
   7  -2  -4  186.75    7.40   0
   7  -1  -2  309.87    7.39   0
   5   3   0  428.50    9.94   0
   7   0  -2   70.88    6.24   0
   7   1  -6  120.78    5.25   0
   7   1  -3  202.22    6.97   0
   4   4  -2  443.96   10.19   0
   5   2   1  330.40    8.05   0
   6   2  -8   93.56    5.41   0
   7  -2  -6   83.64    6.13   0
   7  -2  -5  151.96    6.32   0
   7   1  -5  124.63    5.86   0
   7   1  -4  171.42    6.62   0
   6  -1   0  218.68    7.76   0
   6   1   0  243.01    7.87   0
   6   2  -1  193.08    8.03   0
   7  -1  -3  278.11    7.17   0
   7   0  -7   18.38    4.15   0
   4   4  -5   93.25    7.36   0
   4   4  -4  202.71    8.43   0
   5   3  -1  267.50    9.01   0
   7  -1  -7  214.61    6.21   0
   7  -1  -6  230.46    6.86   0
   7   0  -5   45.91    4.88   0
   7   0  -4   44.03    5.41   0
   5   1   1 1089.65   11.32   0
   6   2  -2  313.89    8.75   0
   7  -1  -5  164.17    6.07   0
   5   0   1  428.31    8.25   0
   5   2   0  179.67    6.90   0
   6   1  -1   75.93    6.74   0
   6  -1  -1  118.99    6.66   0
   6   2  -6  152.24    6.49   0
   4   3  -1   26.74    5.30   0
   6   0  -1  785.02   10.50   0
   5   2  -1  125.86    6.59   0
   6   1  -8   32.30    4.79   0
   4   3  -8   21.45    5.48   0
   4   3  -2  194.77    6.96   0
   6  -1  -2  103.03    6.38   0
   5   2  -2  180.58    7.20   0
   6  -2  -3  348.27    8.38   0
   6   0  -9   84.05    5.20   0
   6   1  -7   65.19    5.67   0
   6   1  -4  160.34    7.39   0
   4   3  -3   32.34    6.10   0
   6  -3  -8   64.19    6.27   0
   6   1  -6   27.60    5.80   0
   6   1  -5   21.50    6.05   0
   4   3  -7   22.80    6.49   0
   5   1  -1  745.75   10.19   0
   6  -3  -7   84.66    6.42   0
   6  -3  -6  116.38    6.49   0
   6  -1  -3   94.03    6.50   0
   6   0  -3  560.15    9.71   0
   4   3  -6   91.41    7.16   0
   6  -2  -9  115.40    5.52   0
   6  -2  -4  248.51    7.44   0
   6  -1  -9   32.33    4.59   0
   6   0  -8  163.36    6.33   0
   5   2  -4  210.39    8.16   0
   6   0  -4  410.39    8.98   0
   5  -1  -1  709.71    9.76   0
   5   2  -5  143.60    8.01   0
   6  -2  -5  309.34    7.72   0
   6  -1  -4  132.33    6.99   0
   6   0  -7  249.76    7.30   0
   5   0 -11   43.34    4.65   0
   5   1  -2  834.19   10.83   0
   6  -2  -8  160.48    6.16   0
   6  -1  -8   63.44    5.46   0
   6  -2  -7  208.92    6.61   0
   6  -2  -6  198.20    6.90   0
   6  -1  -7   43.77    5.89   0
   5  -2  -2  219.71    7.18   0
   5   1  -9  160.69    6.75   0
   3   3  -4  795.78   11.21   0
   4   2  -9  271.86    7.75   0
   5   0  -2  442.25    7.73   0
   5   1  -3  669.74   10.23   0
   3   3  -5  450.24    9.49   0
   5  -1  -2 1175.85   11.49   0
   5   1  -8  178.59    7.35   0
   3   3  -6  514.36   10.37   0
   4   1 -11   48.92    5.17   0
   5  -3 -11   98.61    5.76   0
   5  -1 -11   36.12    4.55   0
   5   1  -4  408.66    9.10   0
   4   2  -8  151.95    7.36   0
   5  -4  -9   32.52    5.44   0
   5   1  -6  579.80   10.70   0
   5   1  -5  178.62    8.09   0
   5  -2 -11   41.26    4.54   0
   5  -2  -3  113.21    6.28   0
   4  -1 -13   12.21    4.20   0
   4   2  -7  672.39   10.94   0
   5   0  -9  103.05    6.53   0
   3   2 -10   10.50    5.64   0
   5   0  -4  475.11    8.93   0
   5   0  -8   95.40    6.82   0
   4  -2 -13   37.01    4.63   0
   5  -3  -5  105.42    6.76   0
   5  -2 -10   36.71    5.01   0
   5  -2  -4  184.58    6.98   0
   5   0  -7  106.52    7.21   0
   5   0  -6   54.76    6.93   0
   5   0  -5  490.43    9.52   0
   5  -3  -9  195.62    6.78   0
   5  -1  -9  124.68    6.81   0
   3   2  -9  216.32    7.94   0
   5  -3  -6  208.17    7.41   0
   3   0 -13   51.75    4.76   0
   4   0 -11  168.81    6.58   0
   5  -3  -7  302.58    7.94   0
   5  -2  -9   47.93    5.85   0
   5  -2  -5  226.14    7.58   0
   5  -1  -6  444.45    9.58   0
   3   2  -8  133.99    7.33   0
   4  -1 -12   43.42    5.17   0
   4   1  -8   40.08    7.09   0
   4   1  -4  127.48    5.59   0
   5  -2  -7   34.99    6.21   0
   5  -2  -6   30.49    6.32   0
   4   1  -5  304.29    7.80   0
   3   2  -7   81.16    6.68   0
   3   2  -6  138.97    6.52   0
   4   1  -6  321.15    8.27   0
   3  -2 -14   18.47    4.74   0
   4  -3 -12   41.05    4.71   0
   4  -4 -11  154.92    5.85   0
   4  -1 -11   52.74    5.94   0
   2   1 -12   28.06    6.60   0
   4   0  -9  360.29    9.22   0
   3   0 -12   65.02    5.85   0
   3   1 -10  225.85    7.95   0
   4  -4 -10  215.21    6.96   0
   4  -2 -11  114.82    6.46   0
   4   0  -8  386.02    9.75   0
   4  -1 -10   32.05    4.93   0
   4   0  -7  839.42   11.63   0
   2   2  -8  325.28    8.77   0
   4  -4  -9  241.74    7.27   0
   2   0 -13  174.01    6.51   0
   4  -2 -10  134.14    7.61   0
   4  -1  -9   67.48    7.02   0
   1   0 -14   54.71    4.99   0
   2  -1 -14   32.46    4.82   0
   2   1 -11   59.82    6.18   0
   2   2  -7  620.70   10.06   0
   3  -2 -13   18.76    3.77   0
   3   1  -8  443.46    9.37   0
   4  -3  -5   31.76    5.33   0
   4  -1  -5  333.92    7.21   0
   3  -3 -13   58.03    5.22   0
   3  -1 -12  132.82    6.80   0
   4  -3  -9   33.53    6.23   0
   4  -2  -9  214.45    8.22   0
   4  -2  -5  468.14    8.52   0
   4  -1  -7  105.51    6.91   0
   4  -1  -6  556.26    9.34   0
   3  -5 -11  228.25    6.72   0
   4  -3  -8   14.89    6.07   0
   4  -3  -7   24.15    5.85   0
   4  -3  -6  254.96    7.65   0
   1   1 -12   99.08    6.50   0
   3   0 -10    8.81    6.63   0
   4  -2  -6  185.58    7.11   0
   3  -4 -12   39.23    5.29   0
   2  -2 -14   74.67    5.28   0
   2   0 -12  235.82    7.59   0
   3  -2 -12   33.84    5.80   0
   3  -1 -11  221.73    8.27   0
   2  -4 -14   68.38    4.62   0
   3  -3 -12   97.28    6.26   0
   3   0  -9  415.26    9.56   0
   2  -5 -13   27.39    4.46   0
   1   0 -13   36.82    5.61   0
   3  -4 -11   50.67    5.75   0
   3  -2 -11    8.10    6.20   0
   3   0  -7  263.42    7.03   0
   1  -4 -15   30.69    3.98   0
   2   0 -11  627.91   10.74   0
   2   1  -8  200.82    6.99   0
   3  -3 -11  181.94    7.65   0
   2  -2 -13  151.43    6.89   0
   3  -4 -10   52.63    6.11   0
   3  -1  -9  495.11   10.33   0
   2  -4 -13  117.03    5.94   0
   2  -1 -12   32.03    6.54   0
   3  -2 -10   47.88    7.08   0
   2  -5 -12   17.67    4.78   0
   3  -4  -9   93.42    6.44   0
   3  -3 -10  268.05    8.56   0
   3  -1  -8  306.14    8.13   0
  -1  -1 -15   81.54    5.30   0
   1   1 -10  283.03    8.48   0
   3  -4  -8   76.00    6.37   0
   3  -4  -7  250.16    8.17   0
   3  -2  -9  160.11    7.63   0
   3  -1  -7  389.75    7.99   0
   1  -2 -14   38.25    5.17   0
   1   0 -12   34.35    6.02   0
   0  -2 -15  107.39    5.11   0
   1  -1 -13  135.12    6.69   0
   2  -2 -12  217.41    8.05   0
   2  -1 -11   55.27    7.14   0
   3  -3  -8  333.36    8.60   0
   3  -2  -8   17.61    5.70   0
   1  -6 -12   28.79    4.45   0
   1  -4 -14   12.31    4.57   0
   2  -5 -11   12.68    5.18   0
   3  -3  -7  408.59    8.49   0
   3  -3  -6  825.89   10.32   0
   3  -2  -7  287.54    7.34   0
   0  -1 -14   59.68    5.06   0
   1  -3 -14  122.94    6.13   0
   1   1  -9  270.25    7.79   0
   1  -5 -13   82.06    5.26   0
   1   0 -11   72.53    6.72   0
   2  -5 -10   40.52    5.60   0
   2  -2 -11  379.73    9.46   0
   2  -1 -10   30.79    6.80   0
   1   5  -9   52.22    4.89   0
   1   5  -3  463.91    8.17   0
   2   5  -8   27.22    4.88   0
   4   4  -6  170.44    7.15   0
   4   4  -5  123.59    7.04   0
   5   2  -8   28.68    5.50   0
   5   2  -4  169.63    7.96   0
   2   5  -7   21.78    5.43   0
   2   5  -4   20.29    5.59   0
   3   4  -2  129.04    5.83   0
   0   5  -5   81.68    6.82   0
   1   5  -8   87.26    5.49   0
   2   5  -5  108.67    6.57   0
   5   2  -7   23.55    5.79   0
   5   2  -5  121.53    7.14   0
   0   5  -6   89.42    6.56   0
   1   5  -6  131.25    6.42   0
   1   5  -5  280.11    7.43   0
   3   4  -9   30.79    4.85   0
   4   3  -3   21.60    5.30   0
   1   4 -11   51.47    4.58   0
   3   4  -8   63.98    5.98   0
   3   4  -4  250.42    7.57   0
   4   3  -4   80.70    6.50   0
   0   4 -11  117.15    5.25   0
   3   4  -7   28.38    5.89   0
   3   4  -5  105.30    6.74   0
   4   3  -5   88.88    6.69   0
   2   3 -12   17.68    3.88   0
   2   4  -4  608.71    9.23   0
   3   3 -10   78.18    5.60   0
   0   4 -10   49.42    5.11   0
   2   4  -7  445.44    9.29   0
   2   4  -6  352.71    8.87   0
   2   4  -5  381.09    8.28   0
   4   0 -12  113.07    6.66   0
   4   2  -9  285.17    7.87   0
   4   2  -4  686.07   10.37   0
   1   2 -14   11.89    3.56   0
   3   3  -9  142.49    6.98   0
   2   2 -13   37.30    3.99   0
   2   3 -11   23.63    4.91   0
   3   3  -4  839.65   10.31   0
   4   2  -5  501.26    9.76   0
   0   4  -8  157.67    6.61   0
   0   4  -5  456.91    8.56   0
   3   3  -8  274.55    8.37   0
   4   2  -7  596.91   10.71   0
   4   2  -6  355.60    9.01   0
   0   2 -14   41.92    3.96   0
   0   3 -12   26.07    4.50   0
   0   4  -7  292.74    7.86   0
   0   4  -6  377.15    8.16   0
   3   3  -7  178.72    7.78   0
   3   3  -5  476.12    9.00   0
   4   1 -10   49.21    5.90   0
   2   3 -10   39.83    4.63   0
   4   1  -9   46.84    6.53   0
   1   2 -13   11.07    4.00   0
   2   2 -12   68.09    5.38   0
   2   3  -9   62.38    6.69   0
   3   1 -12   74.65    5.81   0
   3   2 -10   12.38    6.32   0
   0   3 -11    1.92    5.04   0
   4   1  -8   44.98    6.85   0
   4   1  -5  384.88    9.29   0
   2   3  -8  139.34    7.64   0
   4   1  -7  106.10    7.64   0
   4   1  -6  349.78    9.40   0
   2   3  -7  171.85    7.60   0
   2   3  -6  343.30    8.11   0
   3   2  -9  206.43    8.20   0
   4   0 -10  251.43    8.31   0
   0   2 -13  116.34    5.58   0
   2   1 -13   37.22    5.12   0
   0   3 -10  108.06    6.83   0
   1   3  -9  255.89    8.68   0
   2   2 -11  189.80    7.31   0
   3   1 -11  224.55    8.24   0
   1   0 -15   38.18    4.12   0
   2   0 -14   61.54    4.88   0
   4   0  -9  409.38   10.36   0
   0   3  -9  179.42    7.57   0
   1   3  -8  385.62    9.31   0
   4  -1 -10   46.85    8.31   0
   1   3  -7  466.31    9.17   0
   1   3  -6  368.04    7.80   0
   2   2 -10  143.73    7.73   0
   4   0  -8  427.14   10.77   0
  -1   2 -12   16.21    5.89   0
  -1   3  -7  430.45    9.78   0
   0   2 -12  149.97    6.81   0
   0   3  -8   30.98    6.01   0
  -1   1 -14   55.84    4.60   0
   0   3  -7  149.08    6.37   0
   1   2 -11   55.83    6.91   0
   2   1 -12   35.25    6.19   0
   1   1 -13   77.56    6.01   0
   2   2  -9  193.67    8.51   0
  -1   0 -15   24.96    4.00   0
   2   0 -13  167.05    7.38   0
  -2   1 -13   26.58    5.00   0
  -1   2 -11   82.38    6.51   0
   1   0 -14   42.72    5.38   0
   1   2 -10   22.39    7.08   0
   2   1 -11   67.29    7.57   0
   2   2  -7  618.18   10.16   0
   3   1  -7  371.49    9.37   0
   0   1 -13   25.86    5.87   0
   1   1 -12   86.13    7.46   0
   3   0 -10   20.69    7.83   0
  -1   1 -13  115.83    6.18   0
  -1   2 -10   80.66    6.91   0
   2  -2 -14   66.84    6.27   0
   2   0 -12  239.78    8.87   0
   2   1 -10   99.41    8.13   0
   3  -2 -12   34.35    7.26   0
   1   2  -8  191.64    7.48   0
   3   0  -9  446.15   11.37   0
  -2   0 -14  148.85    6.02   0
   0  -1 -15   27.96    4.55   0
   1  -2 -15   57.35    5.22   0
   1   0 -13   36.87    6.32   0
   1   2  -7  271.95    7.18   0
   2  -1 -13   49.07    6.80   0
   3  -3 -12   84.65    9.05   0
   0   1 -12   -0.26    6.78   0
   1   1 -11  245.54    9.35   0
   2  -3 -14   39.63    5.96   0
   3   0  -8   81.13    7.94   0
  -1   1 -12  251.75    8.60   0
   1  -1 -14   77.43    6.34   0
   2   0 -11  649.16   12.54   0
   2   1  -8  201.84    7.95   0
   3  -2 -11    8.20    7.46   0
   1   1 -10  217.72    7.78   0
   2  -1 -12   16.07    7.82   0
   3  -3 -11  185.97   10.92   0
  -1   1 -11  115.06    7.99   0
   0  -2 -15   89.86    5.50   0
  -1   0 -13   44.85    6.45   0
   1  -1 -13  126.07    8.12   0
   3  -2 -10   58.53    9.41   0
   0   1 -10  185.15    8.68   0
   1   0 -11   85.77    8.63   0
   1   1  -8  486.69    9.50   0
   2   0  -9  592.86   11.99   0
  -2  -2 -15   62.51    5.05   0
  -2  -1 -14   22.57    5.12   0
   0   0 -12  164.10    8.87   0
   3  -3 -10  230.49   11.25   0
  -1   1 -10  181.54    8.38   0
   0  -3 -15   24.98    5.32   0
   0   1  -9  172.47    7.93   0
  -1   0 -12   47.70    7.77   0
   0  -4 -15   48.89    5.30   0
   1  -4 -14   13.59    7.35   0
  -2   1  -9  118.69    7.44   0
   1  -2 -13   50.33    6.27   0
   1   0 -10   35.08    5.97   0
   2  -3 -12   71.25    8.62   0
   3  -2  -8   38.46    9.09   0
  -1  -3 -15   60.74    5.43   0
   0   0 -11  430.86   11.07   0
  -1  -1 -13  218.78    8.88   0
   2  -4 -12  212.82    9.95   0
  -2  -1 -13   11.17    6.23   0
  -1  -2 -14   16.29    5.96   0
   1   0  -9  138.78    7.87   0
  -1   0 -11  406.37   10.92   0
   1  -3 -13  234.16   10.26   0
   0  -1 -12   28.77    8.25   0
   0  -2 -13  219.19    9.40   0
   1  -2 -12   34.34    6.88   0
   1  -5 -13   89.10    7.64   0
   0  -4 -14   96.52    7.25   0
   2  -5 -11   30.05    7.96   0
  -1  -3 -14   91.24    7.41   0
  -1   0 -10  338.92    9.86   0
   1  -1 -10  357.63    9.45   0
  -3  -2 -13   46.58    7.17   0
  -1  -2 -13   39.76    7.40   0
   0  -1 -11  103.41    8.91   0
   0   0  -9  360.41    8.90   0
   1  -3 -12  180.52   11.32   0
  -2  -2 -13   84.66    7.20   0
   0  -3 -13   16.82    6.12   0
   0  -2 -12  273.47   10.77   0
   1  -6 -12   34.43    6.97   0
  -1  -4 -14   19.28    5.98   0
   1  -1  -9  463.70   10.48   0
  -1  -5 -14   88.95    6.01   0
  -1  -1 -11   70.84    8.06   0
   0  -6 -13   66.76    6.70   0
   2  -5 -10   27.70    9.17   0
   2  -4 -10   94.51   11.09   0
   0  -4 -13  173.02    9.39   0
   1  -5 -12  103.27    9.13   0
  -1  -3 -13  223.74    9.29   0
   0  -5 -13   37.13    7.18   0
  -3  -3 -13   67.06    7.09   0
  -2  -5 -14   13.08    4.56   0
  -1  -2 -12   16.09    7.83   0
   0  -7 -12   12.14    5.27   0
  -2  -3 -13   30.67    6.90   0
   0  -3 -12   20.87    9.53   0
   0  -2 -11  429.98   11.84   0
   1  -6 -11   84.96    7.96   0
   2  -4  -9  525.99   14.84   0
  -1  -4 -13   37.39    7.27   0
  -1  -1 -10  340.89    9.76   0
  -1  -6 -13   23.61    4.65   0
   1  -5 -11  196.26   10.50   0
  -1  -5 -13  149.06    8.00   0
  -1  -3 -12  137.83    9.20   0
  -1  -2 -11  190.27    9.10   0
   0  -2 -10  233.66    9.38   0
   0  -7 -11   51.79    6.20   0
   1  -6 -10   -0.29    7.90   0
  -1  -4 -12   51.86    8.00   0
   0  -4 -11  249.44   11.22   0
   1  -5 -10  170.30   10.55   0
  -1  -5 -12   90.68    8.14   0
  -1  -2 -10   38.44    6.88   0
  -2  -4 -12   74.70    8.27   0
  -1  -3 -11  102.07    8.56   0
   0  -6 -11  170.24    8.74   0
   0  -2  -9  502.32   10.49   0
  -3  -6 -12    9.25    4.97   0
  -2  -6 -12   59.57    5.54   0
  -2  -2 -10  340.59    9.27   0
   0  -7 -10   50.55    6.45   0
   1  -6  -9   86.15   10.67   0
  -1  -4 -11  219.34    9.85   0
  -5  -6 -10   33.29    4.64   0
  -4  -3 -10   27.04    6.99   0
  -2  -7 -11   12.32    5.65   0
  -1  -6 -11  133.38    7.13   0
  -1  -5 -11  101.72    8.57   0
  -1  -2  -9    4.43    4.98   0
   0  -6 -10  183.11    9.28   0
  -5  -5 -10   55.55    5.48   0
  -2  -4 -11  304.77    9.48   0
   0  -3  -9   97.44    7.31   0
  -2   1 -10   97.49    7.92   0
   0   2  -8  474.22    9.77   0
  -1   0 -13   32.98    6.96   0
   1   0 -13   34.89    6.96   0
   1   1 -11  253.92   10.28   0
   2   1 -10   97.10    9.30   0
  -3  -1 -12  185.11    9.13   0
  -2   1  -9  121.94    8.32   0
   1  -2 -15   73.07    5.29   0
   0   0 -13  120.66    7.62   0
   1  -1 -14   91.93    6.77   0
  -1  -1 -14  107.12    7.35   0
  -1   1 -10  211.31    8.31   0
   2   1  -9   72.84    8.67   0
   3   0 -10   23.26    8.66   0
   0  -2 -15   97.96    5.68   0
   0  -1 -14   64.60    6.26   0
   1   1 -10  308.86   10.63   0
   2  -2 -14   74.94    6.60   0
  -2  -1 -13   18.97    6.24   0
   0   1 -10  176.56    8.56   0
   1   0 -12   32.00    7.79   0
  -2  -2 -14   51.58    6.06   0
  -1   1  -9  683.60   11.01   0
   0   0 -12  141.82    8.48   0
   1  -3 -15  110.23    5.80   0
   1   1  -9  312.38    9.77   0
   3   0  -9  489.15   13.19   0
   3  -1 -11  236.42   10.29   0
   1  -1 -13  123.90    7.96   0
   2  -3 -14   42.79    6.18   0
   3  -2 -12   32.53    7.84   0
  -1   0 -11  372.01    9.67   0
   1  -4 -15   30.05    4.72   0
   2  -1 -12   37.67    7.81   0
   3   0  -8   83.15    9.48   0
  -2  -3 -14   15.50    5.31   0
   0   0 -11  414.20   10.75   0
   2  -4 -14   93.15    6.52   0
   3  -1 -10  381.09   12.13   0
  -1  -1 -12  255.26    9.21   0
   1  -3 -14  133.20    6.95   0
   1  -1 -12  182.39    9.18   0
   2   0  -9  594.44   12.52   0
  -2  -4 -14   56.33    5.75   0
  -2  -1 -11   73.68    7.16   0
   0  -1 -12   31.62    7.49   0
   0   0 -10  113.04    7.57   0
   2  -1 -11   85.75    9.11   0
  -2  -5 -14   16.50    5.41   0
  -1  -2 -13   39.28    7.60   0
   0  -2 -13  224.35    8.44   0
   3  -1  -9  478.13   13.25   0
  -2  -3 -13   37.52    6.06   0
  -2  -2 -12   66.33    7.33   0
  -1  -1 -11   80.79    7.34   0
   1  -4 -14    4.56    4.29   0
   1  -1 -11  260.14    9.97   0
   3  -4 -12   45.09    7.26   0
   1  -5 -14   44.64    4.90   0
   2  -1 -10   33.19    8.39   0
   0  -4 -14   92.10    6.61   0
   0  -1 -11  111.16    8.08   0
   3  -5 -12  148.73    8.35   0
   3  -2 -10   41.13    8.92   0
  -1  -2 -12   21.26    7.60   0
   0  -6 -14   35.44    4.38   0
   1  -3 -13  226.54    8.66   0
   1  -2 -12   44.76    7.80   0
   3  -3 -11  181.40    9.50   0
  -2  -4 -13  124.93    6.95   0
  -1  -3 -13  220.37    9.25   0
   0  -5 -14   29.63    4.74   0
  -2  -6 -13   97.18    6.16   0
   0  -3 -13   23.37    6.50   0
  -2  -5 -13   72.18    6.30   0
  -2  -3 -12  132.99    7.73   0
   1  -1 -10  433.93   10.85   0
   0  -1 -10  291.53    8.80   0
   2  -1  -9   49.20    6.06   0
   3  -4 -11   57.24    8.18   0
   3  -2  -9  124.25    9.99   0
   1  -2 -11  207.25    9.38   0
   1  -6 -13    6.08    4.05   0
   1  -5 -13   89.53    6.56   0
   3  -6 -11   33.17    6.70   0
  -2  -4 -12   88.74    7.09   0
  -1  -6 -13   34.22    5.17   0
   1  -1  -9  408.62    9.50   0
   2  -2 -10   69.38    8.81   0
  -2  -3 -11   35.23    6.90   0
   0  -6 -13   71.39    4.84   0
   0  -5 -13   49.26    6.05   0
   0  -3 -12   11.35    5.48   0
  -2  -6 -12   63.38    5.92   0
  -2  -5 -12  107.24    7.15   0
   3  -2  -8   34.62    8.54   0
   1  -4 -12   24.67    7.38   0
   1  -2 -10  179.48    8.40   0
   1  -3 -11  335.68   10.44   0
   0  -4 -12  134.92    8.38   0
   0  -2 -10  194.70    7.95   0
  -2  -4 -11  267.51    8.68   0
   0  -7 -12   17.21    5.10   0
   1  -6 -12   31.81    5.04   0
   1  -5 -12   75.30    7.31   0
   3  -5 -10  204.71   10.98   0
  -2  -7 -11    8.27    4.91   0
  -2  -3 -10   18.71    6.33   0
   0  -5 -12   48.97    7.17   0
   1  -2  -9  148.92    7.32   0
  -2  -6 -11  246.12    8.09   0
   1  -4 -11  186.07    9.25   0
   0  -2  -9  539.22    9.57   0
   1  -3 -10  329.90   10.16   0
   2  -2  -8  635.58   11.80   0
   1  -7 -11   90.43    5.12   0
  -2  -4 -10  359.78    9.92   0
  -2  -3  -9  136.43    7.05   0
   1  -5 -11  209.34    9.17   0
   2  -3  -9  377.99   11.28   0
  -1  -8 -10    7.49    3.70   0
   0  -7 -11   55.43    6.23   0
   1  -6 -11   90.50    6.69   0
   3  -6  -9   74.17    8.00   0
   3  -5  -9  198.22   10.29   0
   0  -8 -10   59.66    4.34   0
   0  -6 -11  151.94    6.95   0
   1  -4 -10   12.51    5.85   0
   3  -4  -8   92.72    9.91   0
   3  -3  -7  358.94   12.06   0
   3  -7  -8   86.01    6.87   0
   1  -7 -10  121.41    5.65   0
  -2  -4  -9  407.90    9.95   0
   1  -5 -10  156.54    9.09   0
   1  -8  -9   88.00    5.25   0
   3  -6  -8   74.41    8.24   0
  -2  -8  -8  119.80    6.32   0
  -2  -7  -9   50.30    5.67   0
  -1  -8  -9   15.68    4.22   0
   0  -5 -10  162.46    9.05   0
   0  -8  -9   86.18    4.86   0
   0  -6 -10  167.09    7.56   0
  -2  -5  -9  202.49    8.89   0
   3  -8  -6    5.33    4.88   0
   3  -4  -7  268.29   11.94   0
  -2  -6  -9  171.34    8.34   0
   3  -7  -7  119.34    7.49   0
   1  -7  -9  185.40    6.70   0
   2  -4  -8  178.80    8.25   0
  -2  -4  -8  271.27    8.36   0
   1  -5  -9  312.99   10.27   0
   3  -5  -7  148.43   10.49   0
   1  -8  -8   52.42    5.39   0
   3  -6  -7  139.99    9.37   0
  -2  -8  -7  173.19    6.30   0
  -2  -7  -8   34.65    5.72   0
   0  -5  -9   90.50    8.26   0
   0  -8  -8   97.32    5.42   0
   0  -6  -9  187.38    8.05   0
   1  -9  -6   62.80    4.46   0
   3  -8  -5   28.35    5.21   0
   3  -7  -6  331.01    9.33   0
   3  -4  -6  109.01    9.77   0
   0  -9  -6   21.76    3.46   0
   0  -4  -8  337.39    8.58   0
   2  -4  -7  476.39   11.70   0
   1  -8  -7   93.43    6.09   0
   1  -5  -8  412.82   10.83   0
  -1  -9  -5   76.11    4.51   0
   0  -7  -8   82.26    8.24   0
   1  -9  -5   63.67    4.51   0
   3  -8  -4   43.77    5.29   0
   0  -8  -7  152.08    5.89   0
   3  -7  -5  254.29    9.13   0
  -2  -5  -7  323.55    9.33   0
   1  -4  -7  263.84    7.78   0
   1  -7  -7  185.58    7.62   0
   1  -9  -4   71.04    4.49   0
   2  -7  -6   74.70    7.25   0
   3  -8  -3   48.08    5.35   0
   1  -6  -7  106.40    7.62   0
   1  -5  -7  387.52   10.03   0
   3  -6  -5   43.73    8.42   0
   3  -5  -5  434.57   13.35   0
  -2  -7  -6   53.27    6.46   0
   0  -9  -4   27.69    3.60   0
   0  -6  -7  497.99    9.88   0
   3  -7  -4  207.77    8.62   0
  -2  -6  -6  264.69    8.99   0
   1  -7  -6  228.63    8.03   0
   2  -8  -4  203.15    6.80   0
  -2  -5  -6  268.32    8.56   0
   0  -9  -3   26.84    3.63   0
   0  -8  -5   51.35    5.19   0
   1  -9  -2  125.04    5.05   0
   3  -6  -4  118.31    9.21   0
  -2  -7  -5   58.70    6.37   0
   1  -6  -6   37.24    6.57   0
   1  -5  -6  801.90   12.04   0
   3  -7  -3  213.88    8.70   0
   0  -9  -2   18.00    3.48   0
  -2  -8  -3  331.63    7.14   0
   0  -6  -6  621.22   10.55   0
   1  -9  -1   72.10    4.44   0
   1  -7  -5  211.58    8.25   0
   1  -9   0   58.59    4.02   0
  -2  -5  -5  196.38    7.55   0
   3  -7  -2  290.56    9.34   0
  -2  -8  -2  203.67    6.07   0
  -2  -7  -4   42.10    5.79   0
   0  -9   0   18.41    3.04   0
   1  -6  -5   51.47    6.16   0
   1  -8  -3   36.79    3.85   0
   1  -5  -5  613.08   10.11   0
   3  -5  -3  260.04   10.84   0
  -1  -5  -5  594.71    8.96   0
   2  -5  -4  152.62    7.95   0
   3  -7  -1  252.44    8.25   0
   0  -5  -5  220.12    6.27   0
   3  -6  -2  180.75    9.06   0
  -3   1 -14   64.96    5.67   0
  -3   2 -12   23.09    4.96   0
  -2   2 -13   70.19    4.98   0
  -1   1 -15   28.87    3.74   0
   1   1 -14   53.05    5.35   0
   3   1 -10  218.75    9.75   0
   0   2 -13  115.45    6.20   0
   1   2 -12    6.66    6.01   0
  -1   2 -13   22.34    5.22   0
   2   1 -12   31.56    6.52   0
   3   1  -9  443.00   11.64   0
  -2   3  -8    5.08    6.61   0
   0   3  -9  168.95    8.14   0
   3   0 -11   32.69    7.43   0
   0   1 -14   15.08    4.44   0
   3   1  -8  383.06   11.21   0
  -2   1 -14   48.88    4.74   0
   0   2 -12  150.63    7.15   0
   0   3  -8   39.33    6.78   0
   1   1 -13   78.42    6.19   0
   1   2 -11   69.48    7.32   0
  -3   1 -13  143.48    6.13   0
  -1   1 -14   58.50    4.93   0
  -1   2 -12   13.22    5.61   0
   0   0 -15   59.12    4.40   0
   3   1  -7  462.79   11.06   0
   1  -1 -15   56.77    4.98   0
   2   1 -11   68.32    8.07   0
   2   2  -7  669.92   10.80   0
   3   0 -10   23.59    7.86   0
  -1  -1 -16   40.99    3.81   0
   1   2 -10   16.37    7.07   0
  -2   2 -11   85.31    6.09   0
   0   2 -11  365.67    9.43   0
   2  -2 -14   74.61    8.12   0
   0   1 -13   34.37    5.56   0
   1   1 -12   79.19    7.21   0
  -3   0 -14   44.79    4.40   0
   1   2  -9  190.43    8.04   0
   2   0 -12  244.22    8.48   0
   2   1 -10  106.53    8.02   0
   3   0  -9  472.64   12.13   0
  -2   1 -13   27.32    4.90   0
   0   2 -10  219.29    8.36   0
   2  -1 -13   44.08    6.39   0
  -3  -1 -15   43.30    4.31   0
   1   2  -8  184.12    7.21   0
  -1   2 -10  102.11    6.83   0
   0  -1 -15   22.49    4.30   0
   0   0 -14   80.73    5.51   0
   1   0 -13   46.32    6.29   0
  -2   2  -9  373.36    8.57   0
   0   1 -12   -6.01    5.99   0
   0   2  -9  337.61    8.70   0
   1   1 -11  218.18    8.61   0
   2   0 -11  656.36   11.88   0
   2   1  -8  228.68    7.87   0
  -2   1 -12   72.23    5.88   0
   0   2  -8  538.64    9.08   0
  -3   0 -13   64.01    5.93   0
  -1  -1 -15   81.64    4.67   0
   2  -2 -13  151.95    7.85   0
   1   1 -10  305.79    8.99   0
   2  -1 -12   32.90    6.87   0
  -1  -3 -16   28.40    3.84   0
   0   0 -13  148.64    6.89   0
   0   1 -11    7.22    6.35   0
   1   0 -12   30.71    6.90   0
   2   0 -10  229.20    8.96   0
  -3  -2 -15   24.55    4.64   0
  -2   1 -11  107.89    6.45   0
   0  -2 -15   97.47    5.11   0
  -3  -1 -14  102.59    5.50   0
  -1   1 -11  128.89    7.57   0
   0  -1 -14   64.96    5.62   0
   1  -2 -14   44.36    5.67   0
   1   1  -9  288.08    8.22   0
   2  -3 -13   50.77    7.18   0
  -1   0 -13   34.47    4.59   0
  -3   1  -9  563.39   10.50   0
   0   1 -10  159.09    7.29   0
  -2  -2 -15   56.96    4.33   0
  -2  -1 -14   28.35    4.68   0
  -2   1 -10  103.43    6.24   0
  -1  -2 -15   18.24    4.11   0
  -1  -1 -14  101.42    5.95   0
   0   0 -12  160.30    7.76   0
   2  -2 -12  240.55    9.35   0
  -1   1 -10  213.01    7.43   0
   0  -3 -15   20.69    4.53   0
   0   1  -9  136.64    6.46   0
  -4  -3 -14   22.18    5.03   0
  -3  -3 -15   29.38    3.56   0
  -1   0 -12   50.34    6.55   0
   0  -1 -13   73.13    6.69   0
  -3  -1 -13  152.46    6.31   0
  -2   1  -9  139.33    6.09   0
   0  -2 -14  176.44    6.72   0
   1  -4 -14    6.18    5.47   0
   1   0 -10   53.97    6.79   0
   2  -1 -10   39.63    7.42   0
  -4  -2 -13  108.14    4.87   0
  -1  -3 -15   53.04    4.58   0
   0   0 -11  442.83    9.66   0
   2  -3 -12   78.75    7.40   0
  -2  -3 -15   23.90    4.04   0
  -1  -1 -13  226.65    7.46   0
  -2  -1 -13   11.38    5.43   0
  -1  -2 -14   17.68    4.88   0
  -2  -2 -14   68.33    5.09   0
  -1   0 -11  425.24    9.14   0
  -3   0 -10    1.47    5.13   0
  -1  -4 -15    8.63    3.87   0
   0  -3 -14   29.36    5.47   0
   0  -1 -12   39.76    6.83   0
   1  -3 -13  250.44    8.68   0
  -3  -1 -12  194.95    7.11   0
  -2  -4 -15   80.75    4.29   0
  -2  -5 -15   13.79    3.30   0
  -4  -2 -12   99.03    5.87   0
  -3  -2 -13   53.60    5.98   0
  -1  -1 -12  261.12    8.24   0
   2  -3 -11  115.51    8.73   0
  -4  -3 -13   37.53    4.45   0
  -2   0 -10  648.01    9.79   0
   1  -5 -13   89.91    7.49   0
   1  -4 -13   27.88    6.36   0
  -2  -3 -14   21.90    5.07   0
   0   0  -9  340.38    7.68   0
  -2  -2 -13   89.77    6.14   0
   0  -3 -13   20.63    6.50   0
  -2   0  -9  964.58   10.58   0
  -1  -4 -14   11.91    4.80   0
  -1   0  -9  313.53    7.10   0
   0  -2 -12  293.71    9.08   0
  -2  -4 -14   69.54    5.11   0
  -1  -6 -14   13.27    3.24   0
  -1  -1 -11   75.20    6.68   0
   1  -1  -9  397.17    9.01   0
   2  -3 -10  135.02    9.72   0
  -3  -3 -13   86.98    6.24   0
  -3  -2 -12   69.89    6.79   0
  -1  -5 -14  107.51    4.99   0
  -4  -3 -12   79.27    5.20   0
  -2  -5 -14   10.46    3.61   0
  -1  -3 -13  213.92    7.37   0
   0  -1 -10  269.94    8.02   0
   1  -4 -12   22.23    7.07   0
  -3  -1 -10  306.32    8.03   0
  -2  -3 -13   32.18    5.69   0
  -1  -2 -12   16.62    4.77   0
   1  -5 -12   96.87    7.73   0
  -1  -1 -10  290.00    7.82   0
   0  -3 -12   18.25    7.16   0
   0  -2 -11  446.51    9.98   0
   1  -3 -11  376.38   10.91   0
  -3  -2 -11   84.20    6.85   0
  -1  -4 -13   37.42    6.06   0
  -4  -4 -12  101.59    5.66   0
  -3  -6 -13   26.78    3.65   0
  -3  -3 -12  127.02    7.36   0
  -1  -6 -13   34.73    3.92   0
  -1  -5 -13  140.03    6.24   0
   1  -4 -11  178.43    9.30   0
  -4  -6 -12   72.04    4.37   0
  -4  -5 -12   30.77    4.70   0
  -2  -3 -12  141.64    7.04   0
  -2  -1  -9  120.67    5.66   0
   0  -2 -10  227.30    7.88   0
   1  -3 -10  389.22   11.04   0
   0  -3 -11   50.51    7.39   0
   1  -5 -11  204.27    9.12   0
  -4  -2  -9  319.77    8.13   0
  -4  -4 -11  175.77    6.57   0
  -3  -3 -11  195.64    8.44   0
  -2  -4 -12   96.87    7.08   0
  -1  -2 -10   38.08    5.77   0
  -4  -3 -10   36.27    5.44   0
  -3  -5 -12  153.59    5.55   0
  -2  -7 -12   26.03    4.38   0
  -2  -2 -10  284.86    7.71   0
  -1  -3 -11  104.75    7.14   0
   1  -4 -10   16.64    7.93   0
  -2  -3 -11   39.83    6.28   0
  -1  -6 -12   63.86    5.20   0
  -1  -5 -12   92.95    6.81   0
   0  -7 -11   49.58    4.77   0
   0  -2  -9  608.88    9.73   0
  -4  -5 -11   19.53    5.21   0
  -2  -5 -12  103.05    6.23   0
   0  -3 -10  124.76    7.55   0
   1  -3  -9  288.91    9.73   0
   1  -6 -10   -0.54    6.82   0
  -3  -7 -11   86.92    4.14   0
  -1  -2  -9    7.61    4.57   0
  -4  -7 -10   55.81    3.82   0
  -4  -4 -10  114.15    6.38   0
  -4  -3  -9  262.83    7.50   0
  -2  -4 -11  297.35    9.05   0
  -1  -7 -11   71.55    4.85   0
  -1  -3 -10  382.35    8.77   0
  -3  -5 -11  194.66    6.50   0
  -2  -7 -11    8.51    4.77   0
   1  -7  -9  157.85    7.55   0
  -3  -6 -11   23.63    4.66   0
  -2  -3 -10   11.82    4.24   0
  -1  -6 -11  118.76    6.09   0
   0  -7 -10   56.07    5.88   0
  -4  -6 -10  108.25    5.27   0
  -4  -5 -10   15.53    5.69   0
   0  -8  -9   93.31    5.12   0
   0  -3  -9   99.36    6.56   0
   1  -6  -9   89.41    8.20   0
   0  -6 -10  188.00    8.19   0
  -3  -7 -10   77.59    4.46   0
  -1  -4 -10   51.15    6.66   0
  -4  -7  -9   86.09    4.22   0
  -4  -4  -9  277.90    7.86   0
  -4  -3  -8  230.50    7.10   0
  -3  -8  -9   62.65    3.83   0
  -2  -4 -10  350.01    8.94   0
  -1  -7 -10  186.93    6.07   0
  -1  -3  -9  484.45    8.74   0
  -3  -5 -10  192.80    6.74   0
   1  -7  -8  144.11    7.65   0
  -3  -6 -10   30.10    5.21   0
  -2  -7 -10   21.33    4.01   0
  -1  -6 -10   41.28    5.71   0
  -1  -5 -10  301.61    8.95   0
  -4  -5  -9   85.32    6.37   0
  -2  -8  -9   64.42    3.47   0
   0  -8  -8  105.99    5.21   0
   0  -7  -9   32.87    5.27   0
   1  -6  -8   70.06    8.14   0
  -5  -6  -7   59.77    4.95   0
  -4  -7  -8   61.55    4.24   0
  -4  -4  -8  246.23    7.51   0
  -3  -8  -8   45.51    3.44   0
  -3  -7  -9  168.27    5.34   0
  -3  -3  -8  312.16    8.12   0
  -1  -4  -9   59.07    6.02   0
  -4  -3  -7  206.05    6.64   0
  -2  -4  -9  410.08    8.74   0
  -1  -7  -9  198.28    6.51   0
  -3  -6  -9   66.54    5.78   0
  -3  -5  -9  265.96    7.26   0
  -2  -3  -8   25.74    4.31   0
   1  -7  -7  183.31    7.82   0
  -4  -5  -8   34.14    5.77   0
  -2  -8  -8  120.59    4.05   0
  -1  -9  -6   62.54    3.95   0
  -1  -6  -9  111.82    6.35   0
  -5  -7  -5  123.38    5.69   0
  -4  -8  -6   65.71    3.77   0
  -2  -6  -9  170.93    6.45   0
  -2  -5  -9  203.45    7.50   0
   0  -8  -7  159.09    5.69   0
  -4  -7  -7   48.85    3.98   0
  -3  -8  -7   59.79    3.71   0
  -3  -7  -8  127.24    5.21   0
   0  -6  -8  275.40    8.75   0
   1  -6  -7   94.18    8.02   0
  -4  -4  -7  410.26    8.62   0
  -1  -4  -8  154.64    6.01   0
  -1  -9  -5   97.65    4.19   0
  -1  -7  -8  220.16    7.22   0
  -4  -8  -5   81.53    3.91   0
  -3  -6  -8   63.22    5.75   0
  -2  -8  -7  154.69    4.40   0
   3   1  13  167.76    4.47   0
   1   0  10  343.73    6.67   0
   3  -1  11  186.14    5.38   0
   2  -2   8  253.34    5.59   0
   2  -1  10  125.82    5.17   0
   3  -3   6  344.38    6.49   0
   3   0  12   50.18    4.33   0
   5  -1  11  103.66    3.53   0
   6  -2   8  113.31    4.48   0
   4  -3   6  260.24    6.88   0
   4  -1  11   50.68    3.89   0
   5  -2   9   49.71    3.97   0
   5   0  12   35.08    2.95   0
   6  -1  10   58.94    3.09   0
   2   2  12   77.55    4.96   0
   4   0  12   67.20    3.88   0
   7   0  10   42.21    2.57   0
   4  -3   5  322.78    7.60   0
   1   1  10  364.33    7.57   0
   2  -1   9  191.62    5.59   0
   3  -2   8  230.97    6.03   0
   3  -1  10  119.32    5.28   0
   6  -2   7  160.66    4.91   0
   6   1  12   15.10    2.22   0
   3   1  12  226.58    5.78   0
   4   3  13   40.85    2.76   0
   5  -2   8   63.21    4.48   0
   5  -1  10  125.44    4.40   0
   5   3  13  152.93    4.31   0
   2   1  11  109.66    5.75   0
   3   0  11   89.11    5.12   0
   2   0  10  776.67    9.25   0
   6  -1   9   68.08    3.81   0
   7  -1   7  147.11    4.68   0
   4   0  11  253.22    5.78   0
   4   1  12   62.48    4.29   0
   5   0  11   36.76    3.49   0
   6   2  12   76.96    2.84   0
   7   0   9   50.46    3.10   0
   2  -1   8   46.60    4.07   0
   3  -1   9  644.61    8.54   0
   5  -2   7  130.92    5.60   0
   4  -2   7  394.54    7.68   0
   7   1  10   85.42    3.16   0
   5  -1   9  184.68    5.54   0
   3   0  10    5.73    4.67   0
   4  -1   9   28.17    3.78   0
   4   2  12  134.42    5.05   0
   5   2  12   24.57    3.64   0
   6  -1   8   75.57    4.36   0
   2   0   9  962.66    9.74   0
   2   1  10   72.37    5.30   0
   5  -2   6  107.68    5.71   0
   5   4  12   14.29    3.96   0
   4  -2   6  327.07    7.35   0
   4   3  12   97.80    4.19   0
   4   4  12   82.92    3.18   0
   5   0  10   70.82    4.50   0
   5   3  12  142.73    4.58   0
   3  -1   8  428.90    7.16   0
   4   1  11  128.31    5.40   0
   7   2  10   20.21    2.65   0
   5  -2   5   24.42    5.41   0
   6   0   9  142.00    4.97   0
   6   2  11  110.76    3.71   0
   3   2  11   78.02    5.34   0
   4  -1   8  105.53    5.45   0
   6  -1   7  129.97    5.22   0
   7   1   9  123.73    3.94   0
   3   0   9  162.80    5.79   0
   4  -2   5  381.38    7.82   0
   6   1  10   62.35    4.11   0
   6   4  11   75.24    3.35   0
   7   3  10   66.24    3.03   0
   3   1  10  303.55    7.12   0
   3   3  11  184.79    5.89   0
   5   2  11   40.36    4.48   0
   5   5  11  125.91    3.78   0
   6   3  11   21.14    3.06   0
   5   0   9   96.25    5.07   0
   2   3  10   11.69    5.87   0
   5  -1   7  219.54    6.41   0
   5   1  10  161.49    5.32   0
   6  -1   6   31.27    4.91   0
   4   1  10    7.12    3.58   0
   7   2   9   23.97    3.08   0
   4   3  11   99.06    5.32   0
   4   4  11  132.05    4.19   0
   5   4  11   68.79    4.89   0
   6   2  10   89.50    4.05   0
   6   5  10   79.98    3.72   0
   3   0   8   32.55    4.26   0
   6   1   9   81.70    4.84   0
   6  -1   5  117.08    5.90   0
   7   3   9   91.73    3.35   0
   7   4   9   29.25    2.71   0
   2   2   9  560.20    9.13   0
   3   1   9  768.69    9.27   0
   5  -1   6  292.91    7.05   0
   5   0   8  116.48    5.42   0
   5   2  10   69.40    5.21   0
   4  -1   6  142.25    5.43   0
   4   2  10  168.87    6.27   0
   6   0   7  353.20    7.09   0
   7   0   5  139.98    6.39   0
   3   3  10  241.43    6.74   0
   4   1   9   72.22    5.24   0
   5   5  10   62.11    4.14   0
   7   1   7  194.08    5.27   0
   7   2   8   13.15    3.46   0
   8   2   5  126.52    5.12   0
   6  -1   4  223.94    7.30   0
   6   2   9  111.85    4.80   0
   2   3   9  154.09    6.64   0
   4   3  10   24.88    5.66   0
   5  -1   5  671.20    9.82   0
   5   3  10  179.23    6.18   0
   5   6   9   54.72    4.36   0
   6   1   8  107.00    5.38   0
   5   0   7  208.40    6.16   0
   5   4  10   55.58    5.29   0
   7   0   4  144.96    6.02   0
   7   3   8   87.19    3.84   0
   3   2   9  287.40    6.80   0
   7   1   6  147.37    5.30   0
   7   4   8   24.83    2.79   0
   8   2   4  201.30    5.78   0
   3   1   8  337.80    6.42   0
   5   2   9   47.29    5.32   0
   6   3   9   33.82    4.25   0
   7   2   7   26.77    3.77   0
   4   2   9  342.67    7.39   0
   8   2   3  291.77    7.89   0
   4   1   8  142.37    5.48   0
   5  -1   4  529.82    9.05   0
   6   1   7   93.13    5.61   0
   6   2   8  134.89    5.43   0
   7   5   7   88.15    3.56   0
   3   3   9  427.26    8.14   0
   5   3   9  167.13    6.28   0
   6   0   5  337.09    7.39   0
   7   1   5  135.05    5.59   0
   7   3   7  201.09    4.76   0
   3   4   9   64.77    4.83   0
   7   2   6   48.25    4.42   0
   5  -1   3  494.64    9.46   0
   5   6   8   51.93    3.88   0
   6   3   8   36.99    4.84   0
   4   4   9  273.95    7.13   0
   5   1   7  248.52    6.63   0
   6   4   8  115.11    5.03   0
   4   1   7  102.77    4.76   0
   4   2   8  366.68    7.27   0
   6   0   4  331.46    7.77   0
   7   1   4  206.72    6.50   0
   5   0   5   60.46    4.92   0
   7   3   6  110.52    4.47   0
   3   3   8  292.11    6.81   0
   7   1   3  269.43    7.13   0
   6   0   3  535.05    9.49   0
   6   3   7   22.74    4.86   0
   6   5   7   46.09    4.09   0
   7   5   5  118.07    3.91   0
   3   4   8  109.30    5.26   0
   5   2   7  135.27    6.00   0
   6   4   7  217.17    6.02   0
   6   6   6  182.94    4.65   0
   4   4   8  269.82    7.83   0
   5   6   7   55.17    4.50   0
   7   1   2  432.48    8.61   0
   7   2   4   67.79    4.95   0
   4   2   7  326.44    6.62   0
   6   0   2  749.51   11.37   0
   7   5   4  175.80    4.55   0
   5   3   7  213.81    6.86   0
   6   1   4  228.90    7.13   0
   7   1   1  174.41    7.34   0
   5   1   5  794.46    9.86   0
   5   5   7  272.47    6.76   0
   7   3   4  368.41    6.58   0
   5   2   6  109.41    5.80   0
   5   4   7   76.36    5.89   0
   6   2   5  224.79    6.94   0
   7   4   4   65.71    3.29   0
   4   3   7  240.61    7.31   0
   5   6   6   53.95    4.52   0
   7   5   3  135.09    4.72   0
   4   5   7   38.94    5.94   0
   7   2   2  105.93    5.76   0
   3   4   7  186.94    6.14   0
   4   2   6  413.08    6.87   0
   4   4   7  424.28    9.32   0
   6   1   3  212.93    7.07   0
   7   4   3  131.30    4.71   0
   7   5   2   78.49    4.25   0
   5   3   6  329.03    7.43   0
   5   7   4  167.71    5.31   0
   6   3   5  153.08    6.39   0
   6   5   5  196.00    5.40   0
   6   6   4  228.97    5.31   0
   4   6   6  227.36    6.32   0
   6   4   5  154.68    5.83   0
   7   2   1  -11.25    4.85   0
   7   5   1   65.42    4.10   0
   5   2   5   79.63    5.31   0
   5   4   6   62.06    6.01   0
   7   4   2   73.17    4.69   0
   6   1   2  158.41    7.30   0
   7   2   0  166.03    6.45   0
   4   3   6  175.46    6.05   0
   5   7   3  108.42    5.61   0
   6   6   3  136.93    5.09   0
   7   2  -1  164.70    6.55   0
   7   4   1    9.63    4.11   0
   4   5   6   27.11    5.72   0
   5   3   5  352.55    7.88   0
   6   4   4  316.20    6.94   0
   7   3   0  260.30    6.96   0
   7   4  -2   39.94    4.84   0
   3   4   6   96.58    5.63   0
   3   5   6  399.19    8.18   0
   5   1   3  649.31    8.97   0
   5   5   5  329.25    7.96   0
   6   1   1   41.55    6.67   0
   6   6   2  131.64    5.06   0
   7   4  -1   40.31    4.50   0
   4   6   5  182.59    6.54   0
   5   2   4  254.00    6.64   0
   5   4   5   19.28    6.30   0
   5   7   2   37.43    4.34   0
   6   3   3  121.30    6.42   0
   6   1   0  264.00    8.38   0
   6   4   3  357.07    7.50   0
   4   3   5  230.28    5.98   0
   6   6   0  106.03    4.77   0
   4   5   5  104.52    6.40   0
   4   7   3   62.16    5.32   0
   5   1   2  917.63   10.62   0
   5   3   4  223.18    7.21   0
   6   5   2   36.14    4.91   0
   6   6  -1   44.04    4.19   0
   5   5   4  274.77    6.58   0
   6   2   1  308.94    8.89   0
   4   6   4  288.50    7.86   0
   6   4   2  222.88    7.65   0
   6   5   1   13.31    5.15   0
   4   7   2   50.83    6.22   0
   5   5   3  449.68    8.85   0
   5   6   2   91.89    5.97   0
   6   2   0  512.46    9.59   0
   6   3   1   56.58    6.48   0
   6   4   1  216.75    8.09   0
   6   5   0   26.04    5.03   0
   4   3   4  385.74    6.83   0
   4   5   4   86.93    6.53   0
   5   2   2  389.84    8.11   0
   5   4   3  137.81    6.71   0
   6   2  -1  216.56    7.72   0
   6   5  -3   25.13    4.68   0
   4   7   1   49.95    5.12   0
   5   6   1   36.89    5.50   0
   6   4  -5  121.78    7.46   0
   6   4   0  303.12    8.27   0
   6   2  -2  304.62    8.89   0
   5   1   0  947.97   12.28   0
   5   5   2  179.09    6.60   0
   6   2  -3  161.88    7.88   0
   6   3  -1   71.74    6.90   0
   6   4  -1  187.40    7.41   0
   4   7   0   14.84    4.93   0
   5   4   2  126.37    6.75   0
   5   6   0   54.97    5.91   0
   6   3  -4  108.68    7.16   0
   6   3  -2  132.18    7.32   0
   4   3   3  103.62    4.84   0
   4   6   2  322.24    9.04   0
   4   7  -1   12.76    5.51   0
   5   5   1  237.13    9.25   0
   5   6  -4   22.92    4.56   0
   4   4   3  591.41    9.67   0
   5   1  -1  829.83   12.84   0
   5   6  -3   21.55    4.70   0
   5   6  -2   58.71    5.48   0
   3   7   1  234.50    8.44   0
   5   3   1  246.62    7.80   0
   5   2   0  201.46    7.10   0
   5   5   0  437.95    9.89   0
   4   5   2  155.34    7.62   0
   5   1  -2  791.12   13.29   0
  -2  -1 -11   81.99    6.83   0
  -4  -2  -9  366.27    9.34   0
  -2  -6 -14   67.96    4.63   0
  -2  -4 -14   66.85    5.17   0
   1  -2 -12   36.80    7.51   0
  -3  -6 -13   35.56    4.64   0
  -3  -4 -13   56.28    5.69   0
  -3  -1  -9  758.17   10.80   0
  -1  -1 -11   93.35    6.91   0
   0  -4 -14   86.49    5.83   0
  -2  -5 -14    9.88    4.02   0
  -2  -3 -13   43.23    6.89   0
  -2  -2 -12   77.86    7.64   0
  -1  -4 -14   16.59    5.24   0
  -4  -4 -11  197.25    7.27   0
  -3  -3 -12  117.83    6.75   0
  -2  -1 -10   53.40    6.10   0
  -4  -5 -11   16.93    5.29   0
  -1  -5 -14   99.29    5.07   0
  -1  -2 -12   11.09    6.62   0
   0  -2 -12  281.41    9.36   0
  -1  -1 -10  290.21    8.12   0
   0  -1 -10  296.51    9.11   0
  -4  -3  -9  306.79    9.39   0
  -2  -2 -11  248.17    8.95   0
   1  -2 -11  219.38    9.56   0
  -2  -1  -9  100.10    5.59   0
   1  -5 -13   84.71    6.61   0
   1  -3 -12  192.06    9.18   0
  -4  -5 -10   17.62    5.61   0
  -3  -6 -12    7.26    4.65   0
  -2  -6 -13   93.26    5.09   0
  -2  -5 -13   63.55    5.68   0
  -1  -4 -13   40.02    6.76   0
  -1  -2 -11  199.63    8.23   0
  -4  -3  -8  224.02    9.19   0
  -3  -7 -11   92.97    5.30   0
  -1  -3 -12  135.12    8.24   0
  -4  -4  -9  344.35    9.71   0
   0  -6 -13   63.85    4.74   0
  -3  -3 -10  277.23    8.62   0
  -2  -7 -12   29.08    4.06   0
  -2  -2 -10  232.00    7.08   0
  -1  -6 -13   25.97    3.57   0
  -4  -5  -9   99.39    7.41   0
  -2  -3 -11   49.64    7.65   0
   1  -4 -12   18.79    7.16   0
   1  -2 -10  180.15    9.03   0
  -3  -6 -11   22.37    5.38   0
  -3  -2  -8  141.60    6.34   0
   1  -3 -11  305.38   10.60   0
   2  -4 -11  171.13    9.93   0
  -3  -5 -11  167.36    6.61   0
  -2  -6 -12   59.05    5.62   0
  -1  -2 -10   49.15    6.17   0
   1  -5 -12   87.20    7.65   0
  -3  -4 -10   64.56    7.47   0
  -3  -3  -9  417.21    9.35   0
   0  -7 -12   13.94    4.86   0
  -2  -4 -11  281.05    9.07   0
  -1  -5 -12   88.00    6.54   0
   2  -5 -11   14.67    7.12   0
  -2  -8 -10   75.74    4.58   0
  -2  -3 -10   22.63    6.53   0
  -1  -6 -12   54.28    5.76   0
   0  -5 -12   50.28    7.14   0
  -3  -6 -10   40.64    5.78   0
  -2  -7 -11    5.75    4.52   0
   0  -6 -12   47.50    5.14   0
   1  -2  -9  185.84    8.28   0
  -2  -5 -11   28.25    6.87   0
  -1  -2  -9   13.43    5.03   0
  -3  -7  -9  173.53    7.18   0
  -3  -3  -8  272.63    8.00   0
  -2  -6 -11  250.52    8.50   0
  -3  -4  -9   70.64    5.86   0
   0  -4 -11  228.95    9.33   0
   2  -4 -10   76.36    9.41   0
  -2  -4 -10  346.30    9.34   0
  -1  -7 -11   69.72    5.08   0
   2  -3  -9  333.84   12.47   0
  -2  -3  -9  121.10    6.48   0
  -1  -5 -11  100.36    7.14   0
   0  -7 -11   51.28    6.15   0
   1  -6 -11   94.08    6.64   0
  -3  -6  -9   63.56    6.47   0
  -2  -8  -9   99.01    4.83   0
  -1  -6 -11  135.54    6.98   0
   0  -5 -11   72.89    7.95   0
   0  -8 -10   56.62    4.11   0
   0  -6 -11  151.43    6.78   0
   2  -5 -10   23.49    8.12   0
  -3  -4  -8  109.02    7.45   0
  -2  -6 -10  250.99    8.84   0
  -2  -5 -10   48.22    6.06   0
   1  -4 -10   14.26    7.47   0
  -1  -3  -9  547.72   10.73   0
   1  -3  -9  249.86    9.20   0
  -2  -4  -9  389.24    9.37   0
  -2  -3  -8   31.62    5.04   0
   0  -4 -10  210.15    9.05   0
  -3  -6  -8   69.19    6.75   0
  -3  -5  -8  243.96    8.85   0
  -2  -8  -8  116.37    5.23   0
  -1  -7 -10  194.96    6.72   0
   0  -3  -9   94.47    6.49   0
   2  -4  -9  519.34   13.83   0
  -1  -8  -9   18.45    4.04   0
  -1  -5 -10  272.37    8.80   0
   1  -5 -10  156.48    8.99   0
   2  -3  -8  228.38   10.70   0
  -3  -4  -7  159.14    7.58   0
  -1  -6 -10   32.51    6.49   0
   0  -7 -10   49.17    6.67   0
   0  -5 -10  158.58    8.90   0
   1  -8  -9  102.38    5.44   0
   2  -7  -9   79.00    6.87   0
   0  -8  -9   86.34    4.31   0
  -1  -4  -9   69.90    7.32   0
   2  -5  -9   64.39    9.29   0
  -3  -6  -7   62.53    6.97   0
  -3  -5  -7  250.16    8.90   0
  -2  -8  -7  168.20    5.91   0
   1  -4  -9   58.84    7.55   0
   2  -6  -9  273.72    9.45   0
  -2  -7  -8   34.72    5.81   0
  -1  -7  -9  190.85    7.18   0
   0  -4  -9  396.82    9.94   0
  -1  -5  -9  278.80    8.49   0
   1  -7  -9  181.92    6.90   0
  -1  -6  -9   99.53    7.69   0
   0  -7  -9   35.77    6.61   0
   2  -4  -8  253.68   10.54   0
  -3  -6  -6   64.01    7.00   0
   0  -5  -9   84.05    7.82   0
   3  -7  -7  140.99    7.61   0
  -3  -5  -6  385.56   10.14   0
  -2  -8  -6  170.09    6.28   0
   0  -6  -9  206.31    8.48   0
   2  -7  -8   89.80    6.04   0
  -2  -4  -7  465.72    9.22   0
  -1  -9  -5   99.62    4.58   0
  -1  -4  -8  144.80    7.17   0
  -2  -7  -7  109.39    6.66   0
  -1  -8  -7   26.90    4.52   0
  -1  -7  -8  263.72    8.35   0
   2  -5  -8   26.84    8.68   0
   3  -6  -7  193.68   10.59   0
   0  -4  -8  338.45    8.74   0
   2  -6  -8  204.71    8.86   0
  -3  -6  -5   47.92    7.18   0
  -2  -8  -5  239.80    7.00   0
  -2  -6  -7  331.45    9.54   0
  -1  -9  -4  130.92    4.91   0
  -1  -6  -8  144.86    8.05   0
  -1  -5  -8  349.74    8.73   0
   1  -7  -8  176.31    7.79   0
  -3  -5  -5  366.54   10.18   0
   0  -8  -7  140.03    5.18   0
   1  -8  -7   94.25    5.62   0
   0  -9  -5   23.26    3.42   0
   0  -5  -8  121.84    7.39   0
   1  -6  -8   46.03    6.79   0
  -2  -7  -6   44.53    6.12   0
   0  -6  -8  276.28    9.12   0
   2  -7  -7   41.95    5.65   0
   2  -4  -7  511.30   11.93   0
   3  -7  -6  347.75    9.07   0
  -2  -8  -4  265.77    7.00   0
  -1  -7  -7  234.11    8.13   0
  -2  -6  -6  248.94    8.71   0
  -1  -6  -7  156.61    8.11   0
  -1  -5  -7  503.37    9.72   0
   0  -9  -4   31.45    3.49   0
   1  -9  -4   81.97    4.42   0
   2  -6  -7  320.01    9.75   0
  -2  -8  -3  348.77    7.58   0
  -2  -7  -5   54.98    6.16   0
   0  -8  -6  116.24    5.51   0
   0  -7  -7   40.91    4.60   0
   1  -8  -6   42.86    5.15   0
   3  -6  -6   58.44    8.26   0
   3  -5  -6  474.93   13.86   0
   3  -8  -4   58.48    4.93   0
  -2  -8  -2  220.84    6.75   0
  -1  -7  -6  176.84    7.97   0
   0  -9  -3   28.39    3.50   0
   0  -6  -7  503.73   11.22   0
   0  -5  -7   78.96    6.18   0
   1  -6  -7   93.79    6.97   0
   1  -9  -3  106.31    4.70   0
   2  -7  -6   93.77    6.31   0
   3  -7  -5  265.69    8.36   0
  -2  -6  -5  341.85    9.79   0
  -2  -7  -4   39.31    6.12   0
  -1  -6  -6  181.61    8.19   0
   0  -8  -5   48.55    5.34   0
   0  -7  -6   86.48    6.22   0
   1  -8  -5   56.93    4.99   0
  -1  -5  -6  322.88    8.38   0
   1  -9  -2  116.50    4.48   0
   2  -6  -6  274.35    9.07   0
   3  -8  -3   45.01    4.83   0
  -1  -7  -5  262.78    8.59   0
   3  -6  -5   67.43    8.20   0
   2  -8  -4  199.33    6.63   0
   3  -5  -5  373.82   12.41   0
  -2  -7  -3   71.23    6.56   0
  -2  -6  -4  319.80    9.45   0
   0  -8  -4  125.89    6.05   0
   0  -5  -6  116.59    6.17   0
   1  -6  -6   37.00    6.71   0
   3  -7  -4  204.28    7.83   0
   1  -9   0   59.75    3.76   0
   1  -8  -4   95.79    5.42   0
   1  -5  -6  777.41   11.74   0
  -2  -5  -4  168.19    7.23   0
  -1  -6  -5  218.12    8.36   0
   0  -7  -5  106.41    6.81   0
  -2  -7  -2  125.39    7.02   0
  -1  -8  -2   47.35    5.22   0
  -1  -5  -5  632.37   10.30   0
   1  -7  -5  170.07    7.68   0
   0  -8  -3  145.11    6.16   0
   2  -6  -5  348.51    9.27   0
  -2  -6  -3  424.94   10.49   0
   1  -8  -3   48.18    4.92   0
   3  -6  -4  123.04    8.72   0
  -2  -7  -1  103.62    6.80   0
  -1  -8  -1   69.31    5.10   0
   0  -6  -5  360.15    9.39   0
   2  -5  -5  129.70    7.77   0
   3  -8  -1   46.33    4.75   0
   3  -7  -3  206.98    8.00   0
   0  -7  -4  144.92    7.33   0
   0  -5  -5  222.04    7.14   0
  -1  -8   1   55.42    5.39   0
   0  -8  -2  147.41    6.15   0
   1  -7  -4  266.06    8.64   0
   1  -5  -5  558.67    9.65   0
   2  -8  -2  229.96    6.65   0
   1  -8  -2   43.74    5.04   0
   4  -6  -2  281.67   10.67   0
  -2  -6  -2  585.06   11.29   0
   0  -8  -1  116.67    5.89   0
   2  -8  -1  233.71    6.81   0
   2  -7  -3  113.55    7.82   0
   3  -7  -2  310.92    8.73   0
   0  -7  -3  149.29    7.51   0
   0  -6  -4  451.16    9.89   0
   1  -8  -1   36.68    5.00   0
   1  -7  -3  223.52    7.92   0
   2  -5  -4  118.36    7.15   0
  -2  -6  -1   43.62    7.28   0
   2  -8   0  180.09    6.42   0
   3  -8   3   50.10    4.27   0
  -1  -7  -1  273.10    8.65   0
   1  -8   0   27.05    4.84   0
   3  -5  -3  280.74   10.87   0
   4  -7   1   52.65    5.68   0
   0  -8   2  128.02    5.37   0
   0  -8   3   82.88    4.59   0
   0  -7  -2  152.16    7.62   0
   1  -5  -4  529.93    8.92   0
   2  -7  -2  105.10    7.37   0
   3  -7  -1  237.14    8.42   0
  -2  -6   0  447.27   10.84   0
   0  -6  -3  603.41   10.75   0
   2  -8   1  125.45    5.98   0
  -1  -7   0  121.76    7.18   0
  -1  -6  -2   29.97    6.84   0
   1  -8   1   11.87    3.37   0
   1  -7  -2  318.33    8.47   0
   2  -8   2  127.65    5.63   0
   2  -8   4   84.94    4.94   0
   3  -6  -2  173.88    8.90   0
   4  -7   2   68.20    5.67   0
   1  -8   4   24.40    3.66   0
   1  -6  -3  167.12    8.72   0
   2  -8   3   88.76    4.60   0
   4  -7   3   36.05    4.85   0
  -1  -7   1  175.58    7.39   0
   2  -7  -1   35.09    6.51   0
   2  -5  -3  137.11    7.01   0
   4  -7   4   46.55    4.99   0
   4  -6   0  318.40   10.46   0
  -1  -7   2  176.87    7.31   0
  -1  -7   3  170.22    7.03   0
  -1  -6  -1   81.20    7.17   0
   0  -6  -2  764.20   12.19   0
   3  -5  -2  293.76   10.75   0
   1  -6  -2  172.42    7.52   0
   2  -7   0   51.75    6.84   0
   1  -7   0  214.12    8.60   0
   4  -6   1  187.86    9.12   0
   4   3   8  209.01    6.71   0
   5   3   8  212.79    8.34   0
   5   6   6   53.31    4.83   0
   6   6   5  120.94    5.39   0
   7   5   5  106.67    4.36   0
   4   1   7  109.86    5.78   0
   5   0   6  127.81    6.18   0
   7   4   6   87.70    4.33   0
   4   5   7   38.70    6.06   0
   6   2   7  235.76    7.23   0
   6   4   7  196.47    6.57   0
   7   3   6  106.13    4.92   0
   6   3   7   19.46    5.49   0
   7   1   5  128.74    5.99   0
   4   2   7  367.87    8.05   0
   5   2   7  146.89    7.22   0
   5   6   5   49.14    5.36   0
   7   5   4  205.82    5.06   0
   3   5   6  326.66    7.21   0
   5   4   7   68.04    5.26   0
   7   4   5  103.19    4.43   0
   4   3   7  197.00    6.46   0
   5   3   7  169.18    7.02   0
   8   1   1   36.20    6.04   0
   5   0   5   55.59    5.55   0
   5   5   6  284.39    7.16   0
   6   2   6  334.46    8.20   0
   7   3   5  178.13    5.80   0
   8   2   2  231.04    6.33   0
   4   5   6   14.48    5.49   0
   6   3   6    2.11    5.62   0
   6   5   5  201.28    6.28   0
   5   6   4  153.00    6.05   0
   6   0   4  312.86    8.80   0
   6   1   5  240.88    7.59   0
   5   2   6  106.45    6.45   0
   5   4   6   55.30    6.12   0
   3   5   5  345.98    8.00   0
   4   2   6  420.31    8.47   0
   5   3   6  353.26    9.53   0
   5   5   5  299.53    7.83   0
   6   4   5  156.10    6.80   0
   7   3   4  362.32    6.97   0
   4   3   6  153.67    5.97   0
   6   2   5  232.37    7.84   0
   6   6   1  124.70    5.40   0
   7   1   3  371.84    7.83   0
   6   3   5  153.62    6.99   0
   7   4   3  109.50    5.06   0
   7   5   0   88.47    4.83   0
   6   0   3  468.64    9.80   0
   6   1   4  236.38    7.66   0
   7   0   1   80.12    6.29   0
   7   3   3  473.23    7.69   0
   4   6   3  290.79    7.56   0
   5   4   5   20.52    5.81   0
   6   5   3   98.70    5.99   0
   7   1   2  456.11    8.45   0
   3   5   4  243.08    8.08   0
   5   3   5  264.08    7.14   0
   6   2   4  310.08    8.50   0
   4   3   5  216.56    6.70   0
   4   5   4   83.54    5.21   0
   7   3   2  339.55    7.44   0
   5   1   4  516.98    8.89   0
   5   6   1   48.87    6.71   0
   6   5   2   41.58    5.41   0
   5   0   3  230.95    7.36   0
   6   0   2  769.65   11.44   0
   6   1   3  211.09    7.59   0
   6   4   3  409.55    8.49   0
   7   1   1  205.15    7.17   0
   5   2   4  252.39    6.89   0
   6   5   1    1.71    5.15   0
   7   0  -1  186.68    7.90   0
   5   3   4  214.51    7.61   0
   6   2   3  304.33    7.21   0
   6   3   3  119.88    6.51   0
   7   4  -1   44.73    4.34   0
   3   5   3  314.52    8.46   0
   7   1   0  156.62    6.84   0
   7   4  -3   28.48    4.06   0
   7   4  -2   39.79    4.17   0
   5   5   2  235.78    8.98   0
   4   3   4  301.84    6.89   0
   5   1   3  693.17    9.28   0
   5   4   3  137.33    7.25   0
   6   0   1  578.53   11.00   0
   7   0  -2   59.05    5.66   0
   7   3  -1  121.00    6.05   0
   6   2   2  309.48    8.53   0
   6   4   1  204.95    8.24   0
   5   2   3  293.78    7.48   0
   5   3   3  418.61    8.72   0
   5   5   1  258.27    9.30   0
   7   3  -2  184.35    6.38   0
   4   6  -1  289.51    8.98   0
   7   1  -2  244.95    7.25   0
   7   3  -4  136.12    5.53   0
   7   3  -3  127.21    5.53   0
   5   4   2  127.40    7.21   0
   6   0   0 1433.97   14.93   0
   6   1   1  108.91    6.94   0
   6   3   1   60.19    6.57   0
   6   4   0  307.97    8.36   0
   7   1  -3  203.09    6.99   0
   4   3   3   70.61    4.78   0
   5   1   2  938.31   10.93   0
   5   5   0  436.58    9.85   0
   7   1  -5  121.26    6.05   0
   7   1  -4  147.75    6.27   0
   7   2  -5   65.03    5.07   0
   5   3   2  279.24    8.13   0
   5   2   2  391.01    8.21   0
   6   4  -6   49.39    5.32   0
   5   4   1   64.11    6.81   0
   6   0  -1  782.88   11.32   0
   6   1   0  264.44    7.77   0
   6   4  -2  131.74    6.86   0
   5   5  -6   81.69    5.43   0
   6   2   0  597.89    9.86   0
   6   4  -4  149.19    6.32   0
   6   4  -3  127.01    6.30   0
   4   5   0  154.06    7.80   0
   6   3  -1   69.85    6.63   0
   5   4   0   58.11    6.82   0
   6   0  -2  660.29   10.68   0
   6   1  -1   93.01    6.58   0
   5   2   1  316.00    7.42   0
   6   2  -1  216.14    7.72   0
   3   5   0  258.78    7.82   0
   4   5  -1  127.93    7.53   0
   6   3  -7   55.13    5.05   0
   5   4  -1   40.43    6.66   0
   6   3  -3  128.68    6.93   0
   5   3   0  402.11    9.09   0
   6   0  -3  596.52   10.40   0
   6   3  -4  113.09    6.67   0
   4   5  -2  159.87    7.79   0
   5   1   0  989.61   11.57   0
   6   2  -8   61.05    5.21   0
   6   3  -5   18.81    5.42   0
   4   5  -7   11.17    4.78   0
   5   2   0  174.36    6.40   0
   5   4  -2   80.89    7.63   0
   6   2  -3  185.59    7.94   0
   3   5  -1  334.55    9.38   0
   5   0  -1  111.79    6.03   0
   6   1  -8   34.13    6.17   0
   6   2  -7   90.39    5.94   0
   4   5  -6   70.94    5.96   0
   4   5  -3   88.64    7.29   0
   5   3  -1  309.68    9.06   0
   5   4  -7   34.32    5.08   0
   5   4  -3   99.13    7.69   0
   6   0  -5  519.83   10.06   0
   6   2  -4  196.88    8.03   0
   4   5  -5   64.44    6.17   0
   4   5  -4  110.61    7.12   0
   5   4  -6    4.07    5.28   0
   5   4  -4  107.97    7.18   0
   6   0  -6  222.13    7.98   0
   6   1  -4  183.19    7.76   0
   6   2  -5  290.69    8.29   0
   5   4  -5   64.51    6.30   0
   6   1  -7   50.75    5.77   0
   6   1  -6   25.18    5.95   0
   3   5  -2  312.86    9.50   0
   4   3   0  139.84    5.92   0
   5   3  -2  354.80    9.30   0
   3   5  -8  119.82    7.21   0
   5   0  -2  446.57    8.52   0
   3   5  -3  240.25    9.10   0
   5   2 -10    6.35    4.53   0
   5   2  -2  152.00    6.88   0
   5   3  -8  140.88    6.28   0
   5   3  -3  338.77    9.31   0
   3   5  -7  129.51    6.75   0
   3   4  -1  268.68    7.45   0
   3   5  -4  152.90    8.27   0
   4   3  -1   18.79    4.80   0
   5   3  -7  206.62    7.89   0
   5   3  -4  182.03    8.16   0
   3   5  -6  138.16    7.54   0
   3   5  -5  164.04    8.02   0
   5   0  -3  190.13    7.08   0
   5   2  -3  115.61    7.23   0
   5   3  -6  353.50    9.08   0
   5   3  -5  199.69    8.29   0
   5   2  -9   31.77    5.59   0
   5  -1  -5  148.67    8.33   0
   3   4 -10   10.21    4.71   0
   4   3 -10   16.46    4.70   0
   4   3  -2  139.77    6.45   0
   5  -1  -9  126.28    7.62   0
   5   0 -10   56.58    6.13   0
   5   2  -4  228.25    8.62   0
   3   4  -2  156.07    6.90   0
   5  -1  -6  403.17   10.49   0
   5   0  -4  345.51    7.80   0
   5   2  -7   27.86    6.89   0
   5   2  -5  142.67    8.08   0
   2   5  -7   14.43    5.85   0
   5  -1  -8  104.20    7.47   0
   5  -1  -7  287.31    9.66   0
   5   2  -6    4.83    6.92   0
   4   3  -3   14.77    5.78   0
   5   0  -9   82.45    6.81   0
   5   0  -5  503.92   10.32   0
   3   4  -9   29.80    5.77   0
   3   4  -3  127.56    7.27   0
   4   1 -12   15.10    4.90   0
   4   2 -11   53.25    5.35   0
   5   0  -8   81.03    7.18   0
   5   0  -6   63.93    7.23   0
   5   0  -7   94.70    7.59   0
   4   3  -8   12.48    6.43   0
   4   3  -4  103.72    7.28   0
   4  -1 -12   43.42    6.38   0
   4   3  -5   78.27    7.56   0
   3   3 -11   30.14    5.30   0
   3   4  -7   26.84    6.96   0
   3   4  -5  102.68    7.79   0
   4   2 -10   99.47    6.72   0
   4   2  -3  690.34    9.99   0
   4   3  -6   98.80    7.93   0
   2   4 -10   80.02    6.13   0
   3   4  -6   28.04    7.20   0
   1   4 -11   49.01    5.97   0
   4   2  -9  249.45    8.64   0
   4   2  -4  804.64   11.14   0
   2   3 -12   18.45    4.70   0
   3   1 -13   45.09    5.28   0
   3   2 -12   35.88    5.30   0
   3   3 -10   86.76    6.81   0
   4  -1 -11   66.12    7.07   0
   4   0 -11  160.03    7.88   0
   2   4  -9  166.23    7.97   0
   4   1 -10   68.85    7.48   0
   4   2  -6  319.03    9.89   0
   2   4  -4  716.92   11.53   0
   2   4  -8  201.85    8.31   0
   3   3  -9  119.98    7.77   0
   4  -1 -10   40.00    6.99   0
   4   1  -9   47.69    7.66   0
   1   4 -10    5.22    6.90   0
   3   2 -11   41.27    6.36   0
   4   1  -5  347.66    8.60   0
   2   1 -14   14.26    5.23   0
   3   3  -8  288.49    9.62   0
   3   3  -5  505.10    9.94   0
   4  -1  -9   61.70    7.86   0
   4   0  -5  742.59   10.44   0
   4   1  -8   51.42    7.91   0
   4   1  -7  103.09    8.10   0
   4   1  -6  317.17    9.03   0
   3  -1 -13  104.94    7.22   0
   3   1 -12   65.92    6.65   0
   3   3  -7  203.36    8.90   0
   3   3  -6  512.19   10.56   0
   4  -1  -7   84.27    7.73   0
   4   0  -9  398.91   10.49   0
   0   3 -13   45.25    5.81   0
   4   0  -8  410.59   10.64   0
   4   0  -7  858.18   12.90   0
   1   4  -9   53.99    6.83   0
   3   2 -10    2.41    6.60   0
   1   3 -12   55.97    5.67   0
   3  -2 -12   23.19    8.00   0
   1   4  -8   86.10    7.44   0
   3   1 -11  148.58    8.31   0
   3   2  -9  204.20    9.11   0
   2   2 -12   66.95    6.61   0
   1   4  -7   86.48    7.64   0
   1   4  -6   69.64    7.07   0
   3   2  -8  135.96    8.43   0
   3   2  -5  179.99    6.58   0
   2  -2 -14   77.83    6.51   0
   3   2  -7   66.95    7.38   0
   3   2  -6  146.26    7.15   0
   1   0 -15   33.68    4.81   0
   1   2 -13   18.37    5.04   0
   2  -1 -14   26.80    5.69   0
   3  -2 -11    9.02    6.90   0
   3   0 -11   31.15    7.69   0
   5   3   2  297.80    9.82   0
   6   4  -5  123.18    6.04   0
   4   5  -1  124.71    8.38   0
   7   2  -2   80.08    6.73   0
   3   5  -7  134.16    7.09   0
   6   2   1  314.34    9.94   0
   6   4  -4  165.01    6.91   0
   2   5  -2   67.86    8.54   0
   4   5  -2  186.28    8.88   0
   5   4   0   64.54    8.03   0
   4   5  -5   78.86    6.97   0
   4   5  -3   83.72    8.20   0
   2   5  -3   41.83    7.87   0
   3   5  -6  154.87    7.51   0
   2   5  -5   65.12    7.56   0
   2   5  -4   21.16    7.25   0
   3   5  -3  231.28    8.88   0
   5   4  -7   66.00    5.42   0
   6   3  -7   72.43    5.98   0
   3   5  -4  174.28    8.24   0
   6   2   0  632.28   11.51   0
   7   1  -3  196.12    7.98   0
   5   4  -2   58.03    7.66   0
   6   3  -2  165.77    8.26   0
   6   1   0  244.87    9.93   0
   6   3  -6   67.83    5.69   0
   3   4  -9   28.97    5.54   0
   4   4  -8   53.16    5.68   0
   5   2   1  315.27    8.51   0
   5   4  -3   95.17    7.60   0
   6   3  -5   27.41    5.56   0
   6   3  -3  153.01    7.76   0
   4   4  -1  487.20   10.65   0
   6   2  -1  188.98    8.30   0
   3   4  -1  253.62    6.81   0
   4   4  -7  102.91    6.88   0
   5   3  -1  293.48    9.46   0
   6   2  -2  320.24    9.33   0
   3   4  -8   50.40    6.59   0
   4   3   0  155.72    6.56   0
   4   4  -3  179.61    8.60   0
   5   3  -8  155.57    6.33   0
   6   1  -1   73.42    7.08   0
   3   4  -2  131.50    6.59   0
   4   4  -5  107.93    8.07   0
   4   4  -4  210.61    8.92   0
   5   2 -10   14.68    4.13   0
   6   1  -9   35.91    4.71   0
   3   4  -7   30.50    6.52   0
   6   2  -6  153.89    7.24   0
   6   2  -5  292.97    8.51   0
   3   4  -6   25.72    6.94   0
   4   3  -1   17.03    5.46   0
   5   3  -6  330.68    8.88   0
   6   1  -2  182.85    8.21   0
   2   4  -4  511.24    9.85   0
   3   4  -5  111.11    7.70   0
   5   1   0  855.43   12.71   0
   5   2  -1  136.47    7.24   0
   5   3  -5  233.78    8.56   0
   5   3  -4  190.41    8.57   0
   2   4  -6  344.23    9.51   0
   2   4  -5  363.61    9.13   0
   5   1 -11   43.97    4.95   0
   6   1  -8   39.96    5.23   0
   5   2  -9   27.23    5.10   0
   6   1  -3  131.19    7.72   0
   4   3  -2  175.69    7.37   0
   6   1  -7   60.32    5.96   0
   6   1  -4  182.64    8.21   0
   2   3 -10   44.14    6.42   0
   4   3  -3   32.38    6.34   0
   5   2  -8   29.41    6.00   0
   3   3  -9  141.11    7.36   0
   5   1  -1  774.95   11.62   0
   5   2  -3  108.19    7.68   0
   4   3  -5   77.63    8.09   0
   5   1 -10   92.52    5.75   0
   5   2  -7   29.73    6.55   0
   6   0  -8  158.25    6.94   0
   6   0  -7  236.75    8.99   0
   6   0  -4  417.49    9.93   0
   2   3  -9   60.11    8.46   0
   3   3  -8  254.74    9.07   0
   6   0  -6  271.17    8.45   0
   6   0  -5  521.92   10.83   0
   3   2 -11   45.61    5.80   0
   5   0 -11   47.03    5.01   0
   5   1  -2  929.20   12.60   0
   6  -1  -8   59.47    6.03   0
   3   3  -7  197.02    8.84   0
   5   1  -9  171.44    7.61   0
   6  -2  -8  176.38    7.53   0
   6  -2  -7  222.22    9.25   0
   6  -1  -7   38.26    6.26   0
   2   3  -8  120.94    8.14   0
   4   1 -11   49.19    5.42   0
   5   1  -3  699.17   11.73   0
   4   2  -8  140.30    8.20   0
   4   2  -3  644.97   10.34   0
   2   3  -7  162.40    8.32   0
   3   2 -10    2.70    6.38   0
   5   0 -10   68.25    6.20   0
   5   0  -2  419.06    9.17   0
   5   1  -7  303.83    9.72   0
   4   0 -12   72.87    5.56   0
   4   2  -7  614.08   11.78   0
   4   2  -4  752.58   11.43   0
   5   1  -6  624.40   12.11   0
   5   1  -5  181.61    9.11   0
   4   2  -6  371.54   10.10   0
   4   2  -5  437.65   10.06   0
   5   0  -3  193.21    7.96   0
   2   2 -10  118.45    8.04   0
   5  -1 -10  105.51    6.88   0
   5   0  -8   72.62    7.86   0
   4  -2 -13   44.37    5.33   0
   4   1  -9   42.83    7.73   0
   4   0 -11  171.87    7.57   0
   5   0  -5  470.17   11.08   0
   1   0 -14   43.37    6.13   0
   3   2  -7   75.36    7.69   0
   5  -2 -10   32.55    6.33   0
   2   2  -9  196.78    9.03   0
   3   2  -6  161.13    7.64   0
   3   2  -5  186.20    6.84   0
   4   1  -8   36.90    6.22   0
   5  -3 -10  163.58    7.32   0
   4   1  -7  106.09    8.63   0
   5  -1  -4  599.64   11.99   0
   3  -2 -14   16.64    4.83   0
   3   0 -12   39.43    6.48   0
   4   0 -10  251.79    9.55   0
   4   1  -6  343.42    9.93   0
   4   1  -5  358.72    9.43   0
   1   1 -12  101.88    7.22   0
   1   2  -9  154.65    8.74   0
   2   0 -13  179.17    8.22   0
   5  -2  -9   40.85    6.93   0
   5  -1  -6  489.69   11.62   0
   2   1 -11   41.53    7.42   0
   2   2  -7  570.47   10.87   0
   3  -1 -13   97.04    6.21   0
   4  -2 -12   57.49    6.35   0
   2  -1 -14   31.26    5.19   0
   4  -1 -11   60.26    7.22   0
   4   0  -9  314.01   10.47   0
   5  -2  -5  230.46    9.97   0
   1   2  -8  171.93    8.38   0
   3  -3 -14   35.68    5.57   0
   4  -4 -12   77.46    6.40   0
   5  -3  -8  203.61    8.50   0
   5  -2  -7   39.83    8.14   0
   5  -2  -6   24.62    8.01   0
   3   0 -11   32.02    7.68   0
   4  -3 -12   42.15    5.87   0
   5  -3  -7  291.78    9.92   0
   3   1  -8  428.09   10.92   0
   1   0 -13   49.14    6.57   0
   1   1 -11  211.19    9.30   0
   2   1 -10  109.79    8.70   0
   4  -1 -10   36.46    6.31   0
   4   0  -7  920.84   14.17   0
   3  -2 -13   31.96    6.39   0
   3  -1 -12  144.28    8.23   0
   3   1  -7  426.09   10.22   0
   4   0  -6  345.90    9.98   0
   1  -1 -14   89.96    6.32   0
   2   1  -9   68.26    8.19   0
   3   0 -10    5.17    6.21   0
   4  -1  -9   74.00    8.93   0
   2  -2 -14   54.92    6.06   0
   4  -2 -10  129.47    9.06   0
   1   1 -10  324.71   10.50   0
   4  -1  -8  102.20    9.30   0
   0  -2 -15   96.82    5.88   0
   3   0  -9  466.22   11.87   0
   1   0 -12   26.45    7.42   0
   3  -2 -12   37.13    7.84   0
   4  -3 -10   23.41    7.39   0
   4  -2  -9  244.94   10.71   0
   4  -1  -7   68.24    6.84   0
   4  -1  -6  561.65   12.10   0
   4  -1  -5  391.62    9.79   0
   2  -3 -14   29.97    5.94   0
   3   0  -8   52.74    8.09   0
   1   1  -9  297.73    9.81   0
   0   0 -12  144.44    9.94   0
   2  -1 -12   17.14    8.02   0
   3  -5 -12  132.74    7.92   0
   3  -1 -10  320.28   11.32   0
   3   0  -7  251.27    8.81   0
   4  -4  -9  284.77   11.02   0
   1  -2 -14   47.35    6.54   0
   4  -2  -7  407.56   12.08   0
   1   0 -11   84.62    8.51   0
   3  -4 -12   32.54    6.51   0
   4  -2  -6  199.62    9.81   0
   4  -4  -8  253.87   10.25   0
   0  -3 -15   25.42    5.06   0
   2   0  -9  486.55   11.66   0
   4  -4  -7  249.96   10.80   0
   4  -3  -7   34.20    8.48   0
   0  -1 -13   60.85    7.23   0
   2  -3 -13   36.90    7.43   0
   2  -1 -11   87.06    9.25   0
   3  -6 -10   31.28    6.67   0
   4  -3  -6  275.74   10.93   0
  -1  -3 -15   56.71    6.63   0
   0  -2 -14  178.35    7.45   0
   3  -1  -8  345.47   10.63   0
   0   0 -11  450.39   11.70   0
   1  -3 -14  139.71    7.74   0
   1   0 -10   43.65    7.87   0
   2  -5 -13   15.89    5.76   0
   2   0  -8  999.33   13.60   0
   2  -4 -13  118.49    7.87   0
   3  -1  -7  410.31   10.22   0
  -1  -2 -14   18.04    5.89   0
   3  -2  -9  150.94   10.13   0
   1  -5 -14   37.07    5.59   0
   1  -4 -14   12.92    5.81   0
   2  -6 -12   89.68    6.49   0
   2  -3 -12   56.07    8.68   0
   3  -5 -10  188.09    8.80   0
  -1  -4 -15   15.86    4.99   0
   3  -2  -8   22.70    7.96   0
   0  -3 -14   29.84    6.68   0
   0   0 -10  110.25    8.30   0
   2  -1  -9   62.77    8.03   0
   0  -2 -13  208.96    8.98   0
   1  -3 -13  239.37    9.90   0
   2  -5 -12    5.48    6.56   0
   3  -5  -9  191.11    9.34   0
   1  -6 -13   13.75    4.72   0
   3  -4  -9   66.63    9.43   0
  -1  -1 -12  224.19    9.80   0
   2  -6 -11  101.48    7.18   0
   2  -2 -10   64.03    9.15   0
  -1  -3 -14   88.24    6.55   0
   0  -4 -14   86.78    6.65   0
   1  -4 -13   21.81    7.41   0
   2  -1  -8  157.07    7.81   0
   3  -5  -8  176.03    9.81   0
  -1  -2 -13   19.41    6.58   0
   1  -5 -13   91.49    7.47   0
   3  -4  -8   72.51    9.01   0
   0  -1 -11  128.63    8.86   0
   2  -4 -11  167.12   10.33   0
   1  -3 -12  196.99   10.61   0
   0  -2 -12  278.51   10.28   0
   2  -6 -10  126.28    8.00   0
   2  -3 -10  126.47    9.97   0
   3  -4  -7  276.21   10.85   0
  -1  -4 -14   17.45    5.49   0
   1  -7 -11   90.94    6.18   0
   1  -6 -12   25.08    5.96   0
   1  -1  -9  452.02   10.25   0
   1  -4 -12   16.31    8.02   0
   0  -6 -13   68.05    5.48   0
   1  -5 -12   90.80    8.13   0
   2  -4 -10   76.75    9.73   0
   2  -2  -8  636.59   11.49   0
  -3  -6  -2  118.33    6.47   0
  -2  -8   0  146.12    5.08   0
  -3  -6   2   32.11    5.45   0
  -2  -7  -3   71.20    5.45   0
  -3  -6   0   90.51    6.20   0
  -3  -6   1   44.40    5.55   0
  -2  -6  -4  324.35    7.79   0
   1  -8  -4   86.29    5.14   0
  -3  -5  -1  352.90    8.09   0
  -2  -5  -4  144.24    5.69   0
   0  -7  -5  102.93    5.62   0
  -2  -7  -2  104.33    5.88   0
  -3  -5   0  290.71    7.85   0
  -1  -8   3   32.00    3.30   0
  -1  -5  -5  650.32    9.25   0
  -3  -5   1  304.26    8.05   0
  -3  -5   2  267.81    8.62   0
  -2  -7  -1   89.37    5.77   0
  -2  -7   3   40.35    4.65   0
  -2  -6  -3  412.28    8.32   0
  -2  -7   1   69.07    5.43   0
  -2  -5  -3  150.48    5.45   0
   1  -8  -3   43.83    4.08   0
  -2  -6  -2  644.48    9.58   0
  -1  -6  -4  215.55    6.72   0
   0  -8  -2  133.42    5.11   0
   1  -6  -5   58.72    7.31   0
   3  -8  -1   52.57    4.95   0
  -2  -6  -1   56.52    5.78   0
  -2  -5  -2  334.78    6.71   0
  -1  -7   5   84.10    4.59   0
  -1  -6  -3  192.18    6.20   0
   0  -6  -4  532.57    9.30   0
  -2  -6   1  351.08    8.21   0
  -2  -6   2  355.50    8.24   0
   1  -8  -1   30.03    3.98   0
   3  -8   0   53.52    4.65   0
  -2  -5  -1  124.48    4.60   0
  -1  -7   0   83.45    4.69   0
  -1  -7   3  174.67    5.84   0
   1  -8   4   19.84    2.84   0
   1  -7  -3  231.21    6.71   0
   1  -6  -4  266.15    7.19   0
  -1  -7   1  156.49    6.06   0
  -1  -6  -2   21.16    4.86   0
   0  -7  -2  134.82    5.96   0
   1  -8   0   23.85    2.88   0
   1  -8   3    5.96    3.01   0
  -1  -6   6   29.07    4.67   0
   3  -8   2   40.59    3.55   0
  -2  -5   3   36.71    5.67   0
  -1  -6  -1   81.78    5.65   0
   0  -7  -1   71.60    5.48   0
   2  -8   2  116.82    4.06   0
   2  -8   3   78.13    3.64   0
   1  -7   7   69.58    3.74   0
   0  -7   0  113.63    5.68   0
   0  -7   5   17.32    3.73   0
   2  -7  -2   90.33    5.18   0
  -1  -6   0  454.99    8.32   0
  -1  -6   5   25.82    5.02   0
   0  -7   1   95.12    5.69   0
   0  -6  -2  673.52    9.62   0
   1  -7  -1  322.23    7.70   0
   2  -6  -3  227.63    7.96   0
  -1  -6   4   57.53    5.71   0
   0  -7   2   73.50    5.24   0
  -1  -6   3   39.97    5.56   0
   2  -7  -1   38.87    5.00   0
   0  -6   7  125.51    5.29   0
   4  -7   1   66.14    4.47   0
  -1  -5   6  139.46    7.14   0
   1  -7   1  269.09    6.85   0
   3  -7   0  250.53    6.82   0
   3  -6  -2  183.82    8.07   0
   1  -7   2  299.93    6.79   0
   2  -7   6   36.09    3.34   0
   2  -6  -2  323.45    7.75   0
   4  -7   2   77.08    4.45   0
   0  -6   6  138.74    5.78   0
   1  -6   8   15.34    3.67   0
   4  -7   3   31.08    3.74   0
  -1  -5   5  328.36    8.58   0
   2  -7   1   80.19    5.21   0
   3  -7   1  203.61    6.39   0
   0  -6   1  285.02    7.25   0
   0  -6   5  257.24    7.28   0
   2  -7   2   35.63    4.60   0
   3  -7   5   93.21    4.06   0
   0  -5   8   59.84    5.40   0
   2  -7   4   35.76    4.17   0
   3  -7   4   58.71    4.01   0
   0  -6   3  259.71    7.50   0
   3  -6  -1  136.71    6.46   0
   0  -5   7   97.24    6.36   0
   4  -6   8   25.07    3.14   0
   1  -6   1  104.39    5.82   0
   1  -5   9  142.95    5.56   0
  -1  -4   5  143.47    7.17   0
   3  -6   0   49.93    5.58   0
   5  -6   4   28.12    3.74   0
   0  -5   1  302.09    6.56   0
   0  -5   6   88.56    6.36   0
   1  -6   4  184.02    6.77   0
   2  -6   7  124.20    5.03   0
   2  -6   1  287.71    7.56   0
   0  -5   2  198.56    5.91   0
   0  -5   5   82.94    6.33   0
   3  -6   7   41.70    4.06   0
   4  -6   2  220.80    6.97   0
   0  -5   3  267.96    7.06   0
   1  -5   8  103.94    6.00   0
   2  -6   2  353.25    7.87   0
   2  -5  -1  154.41    6.09   0
   4  -6   6   62.44    4.22   0
   0  -4   8  182.13    8.27   0
   1  -4  10   46.88    5.25   0
   2  -6   5  203.11    6.58   0
   2  -4  11  113.15    5.62   0
   3  -5  -1  252.48    7.68   0
   3  -6   3   58.62    5.58   0
   3  -6   5   44.33    4.85   0
   1  -5   1  574.84    8.09   0
   4  -5   0  130.68    7.05   0
   0  -4   7  346.48    9.18   0
   2  -5   0  180.64    6.27   0
   1  -5   2  742.47    9.41   0
   3  -5   0  453.02    8.85   0
   1  -5   5  301.25    7.80   0
   1  -4   9   68.50    6.02   0
   1  -5   4  236.34    6.97   0
   4  -5   1   66.10    6.42   0
   2  -5   7   29.56    5.52   0
   2  -4  10   83.41    5.53   0
   3  -5   8  250.03    6.33   0
   2  -5   2  276.47    6.88   0
   2  -5   6  167.77    6.85   0
   4  -5   2   49.06    6.26   0
   1  -4   8   42.43    6.00   0
   2  -5   3  147.39    6.03   0
   3  -5   7  222.63    7.18   0
   4  -5   7   23.90    4.33   0
   2  -5   4  150.75    6.36   0
   4  -5   3   16.15    6.13   0
   2  -4   9  332.04    7.68   0
   3  -5   3  409.67    8.56   0
   4  -5   5   76.09    6.02   0
   6  -4   4  131.42    7.33   0
   1  -4   7  190.01    7.18   0
   2  -3  11   29.33    4.67   0
   3  -5   4  263.42    7.55   0
   1  -4   6   81.61    6.27   0
   3  -4   9   22.35    5.07   0
   4  -4   9  176.62    5.47   0
   1  -3   9  263.27    8.30   0
   3  -3  11  119.16    5.29   0
   4  -4   1  473.15   10.21   0
   2  -3  10   39.36    5.44   0
   2  -4   6  442.69    8.48   0
   5  -4   5   23.43    5.64   0
   5  -2  12    8.37    2.65   0
   6  -2  11   53.78    3.40   0
   2  -4   4  586.62    8.56   0
   3  -4   7   57.98    6.31   0
   5  -3  10  132.30    4.26   0
   3  -3  10   79.57    5.43   0
   3  -2  12   33.58    4.16   0
   4  -4   3  469.99   10.00   0
   6  -3   8   10.96    3.41   0
   3  -4   3  142.15    5.87   0
   3  -4   6   81.50    6.03   0
   4  -3  10   52.09    4.52   0
   4  -2  12  105.96    4.14   0
   5  -1  13   66.39    3.16   0
   3  -4   5   94.61    5.94   0
   6  -3   4   51.14    6.16   0
   7  -2   6   31.22    5.10   0
   6  -3   5    8.88    5.07   0
   4  -1  13   12.93    3.04   0
   6  -2  10   92.63    3.59   0
   1  -2   9   51.31    7.00   0
   2  -3   8    6.64    5.62   0
   3  -3   9  252.24    7.29   0
   4  -3   9   67.54    5.26   0
   5  -2  11   29.12    3.21   0
   3  -3   8  418.79    8.26   0
   5  -3   7  186.79    6.39   0
   1  -2   8   42.64    5.19   0
   5  -3   5  424.65    8.71   0
   5  -2  10   16.56    3.68   0
   5  -1  12   72.98    3.41   0
   6  -1  11   27.05    2.78   0
   3  -3   7  228.87    6.79   0
   3  -1  12  177.97    5.60   0
   6  -2   8  107.59    4.85   0
   7  -1   8  120.94    4.36   0
   4  -1  12   39.03    3.69   0
   3   0  13   61.80    4.33   0
   4  -3   3  294.08    7.39   0
   4  -3   6  235.33    6.86   0
   4  -2  10  269.90    6.22   0
   4   1  14   28.93    3.56   0
   7  -1   6  148.98    5.60   0
   7  -1   7  151.40    5.08   0
   4   0  13  123.18    3.91   0
   5  -2   9   44.81    4.46   0
   6  -2   6  282.38    6.77   0
  -2  -2 -15   74.08    5.62   0
  -2   1 -10  118.79    7.25   0
   1   0 -13   35.49    6.22   0
   1   1 -11  218.27    8.93   0
   3  -2 -13   24.64    6.37   0
   3  -1 -12  135.71    7.90   0
   3   0 -10   15.01    9.18   0
   0   1 -11    6.59    6.73   0
   1  -2 -15   45.19    4.66   0
  -2   0 -12  235.12    7.71   0
  -2   1  -9  183.49    7.66   0
   0   0 -13  165.94    7.44   0
   1   1 -10  301.24    9.62   0
   0  -2 -15   98.99    5.22   0
   0  -1 -14   61.31    5.72   0
   1   0 -12   39.71    7.37   0
   2   1  -8  211.96    8.30   0
   3  -1 -11  223.49    9.71   0
  -2  -3 -15   22.44    4.33   0
   1  -3 -15  107.62    5.33   0
   3  -2 -12   30.49    8.34   0
  -2  -1 -13   14.68    6.07   0
  -2   0 -11  462.79    9.61   0
   1  -1 -13  140.24    7.69   0
   2  -3 -14   29.49    5.75   0
   3   0  -8   87.75    8.44   0
   1  -2 -14   39.58    6.02   0
   0  -3 -15   31.52    4.71   0
   3  -1 -10  375.91   11.48   0
   3   0  -7  238.24    9.59   0
   0  -1 -13   80.03    7.07   0
   2  -4 -14   43.79    5.99   0
  -2   0 -10  723.87   11.25   0
   0  -2 -14  144.23    6.70   0
   0   0 -11  485.72   10.61   0
   3  -3 -12   82.92    7.85   0
  -2  -1 -12   99.28    7.09   0
   2   0  -9  530.10   11.53   0
   3  -2 -11   24.32    7.53   0
   0  -4 -15   53.74    5.04   0
   1  -1 -12  187.75    8.93   0
   1   0 -10   52.13    7.25   0
  -2  -3 -14   17.36    5.14   0
   0  -5 -15    8.47    3.67   0
   1  -3 -14  138.95    6.58   0
   1  -2 -13   46.55    7.10   0
   3  -4 -12   35.73    7.03   0
  -2  -1 -11   90.85    7.18   0
  -1  -3 -14   95.05    6.46   0
   0  -3 -14   27.26    5.63   0
  -2  -4 -14   68.62    5.11   0
  -1  -2 -13   32.53    6.77   0
   1  -4 -14    9.75    5.07   0
   2  -1 -10   34.64    8.18   0
   3  -3 -11  135.21    8.84   0
   3  -2 -10   49.77    8.66   0
   3  -1  -8  372.59   11.41   0
   2  -4 -13  115.09    7.46   0
  -2  -5 -14   18.70    5.08   0
   0   0  -9  387.74    8.48   0
   1  -5 -14   36.72    4.86   0
   2  -5 -13   19.96    6.48   0
  -3  -3 -12  132.92    7.12   0
  -2  -3 -13   46.11    6.50   0
  -2  -2 -12   78.33    7.82   0
   0  -1 -11  116.30    7.94   0
   1  -2 -12   45.45    7.69   0
  -1  -4 -14   11.43    5.24   0
   0  -6 -14   49.56    4.00   0
   2  -1  -9   62.08    8.09   0
   3  -2  -9  176.34   10.05   0
  -1  -5 -14   90.32    4.93   0
  -1  -2 -12   25.51    6.92   0
   0  -5 -14   19.27    4.68   0
   0  -3 -13   21.99    6.18   0
   0  -2 -12  294.64    9.30   0
   1  -1 -10  461.55   10.53   0
   3  -5 -11  244.42   10.38   0
   3  -3 -10  250.96   10.98   0
   2  -4 -12  214.16    9.16   0
  -3  -4 -12   31.97    6.18   0
  -2  -4 -13  117.35    6.29   0
  -2  -2 -11  247.14    9.02   0
   1  -2 -11  210.37    9.18   0
   2  -2 -10   76.05    8.61   0
  -3  -3 -11  165.46    7.64   0
   1  -6 -13   11.21    4.17   0
   1  -5 -13   98.68    6.57   0
   1  -3 -12  191.67    9.12   0
   2  -3 -11  128.14    9.37   0
   3  -2  -8   29.33    8.08   0
  -2  -6 -13   94.07    5.34   0
  -2  -5 -13   57.36    6.08   0
   0  -4 -13  143.09    7.23   0
   1  -1  -9  367.43    8.99   0
   2  -5 -12   14.99    6.69   0
  -3  -5 -12  176.28    7.49   0
  -1  -4 -13   28.49    6.55   0
   0  -2 -11  434.19   10.13   0
  -1  -3 -12  146.40    7.94   0
   0  -3 -12   23.21    6.89   0
   3  -6 -10   24.90    7.23   0
   3  -3  -9  234.44   11.01   0
   0  -6 -13   84.30    4.73   0
   0  -5 -13   47.89    5.84   0
   2  -7 -11   31.00    6.05   0
   3  -5 -10  192.24    9.65   0
  -2  -2 -10  388.79    9.38   0
  -1  -6 -13   36.46    4.48   0
   1  -7 -12   72.83    4.39   0
   1  -2 -10  173.44    8.16   0
   2  -4 -11  179.44    9.63   0
   2  -2  -9  600.27   12.15   0
  -3  -4 -11   48.24    7.53   0
  -2  -4 -12   90.04    7.09   0
   1  -3 -11  325.72   10.33   0
  -2  -7 -12   33.10    4.27   0
   0  -4 -12  139.69    7.70   0
   0  -2 -10  215.62    7.85   0
   1  -6 -12   23.69    5.09   0
   1  -5 -12   92.61    7.29   0
   2  -6 -11  124.73    7.37   0
   2  -5 -11   26.17    7.34   0
   3  -4  -9   90.62    9.34   0
   3  -3  -8  298.82   11.82   0
  -1  -4 -12   45.71    7.17   0
  -3  -6 -11   21.30    6.03   0
  -1  -3 -11  104.50    7.40   0
   0  -7 -12   20.12    4.14   0
   0  -3 -11   40.76    7.13   0
  -2  -2  -9  479.23    9.34   0
   1  -2  -9  150.36    7.12   0
   3  -6  -9   72.20    7.57   0
   3  -5  -9  202.31   10.23   0
  -1  -5 -12   97.32    6.80   0
   0  -6 -12   48.53    5.02   0
   1  -4 -11  187.62    9.12   0
  -2  -4 -11  313.14    9.31   0
  -1  -6 -12   64.46    5.02   0
   1  -3 -10  333.56   10.01   0
   2  -7 -10   68.03    5.71   0
   2  -3  -9  327.27   10.64   0
  -3  -4 -10   69.06    6.91   0
   0  -2  -9  500.81    9.07   0
   3  -4  -8   72.66   11.00   0
   3  -3  -7  361.13   12.37   0
  -3  -7 -10   74.31    6.07   0
   0  -4 -11  207.98    8.59   0
   1  -8 -10   23.64    4.19   0
   1  -5 -11  201.10    8.92   0
  -2  -7 -11    4.35    4.22   0
  -1  -4 -11  224.17    8.66   0
   0  -3 -10  120.82    7.18   0
   1  -6 -11   87.54    6.74   0
   2  -6 -10  128.73    7.90   0
  -2  -5 -11   22.06    5.59   0
  -1  -3 -10  379.69    9.02   0
  -3  -5 -10  201.41    8.16   0
   0  -7 -11   42.61    4.69   0
   3  -5  -8  179.47   10.21   0
  -3  -6 -10   34.71    5.65   0
  -1  -7 -11   80.91    5.75   0
   1  -4 -10   14.34    5.66   0
   1  -3  -9  246.58    8.76   0
   2  -3  -8  255.32    9.44   0
  -2  -4 -10  361.74    9.86   0
  -1  -6 -11  109.51    5.91   0
   2  -8  -8   94.39    5.70   0
   2  -7  -9   61.93    5.74   0
  -3  -4  -9  112.78    7.08   0
  -2  -3  -9  171.34    7.60   0
  -1  -8 -10    3.49    2.84   0
   1  -7 -10  108.74    5.72   0
   0  -4 -10  240.03    9.04   0
   1  -5 -10  164.32    8.97   0
  -1  -4 -10   40.51    6.72   0
   0  -3  -9   80.89    6.02   0
   1  -6 -10    2.91    6.54   0
   2  -6  -9  230.75    9.38   0
  -2  -5 -10   57.86    6.22   0
   3  -6  -7  153.14   10.14   0
  -3  -5  -9  273.81    8.93   0
  -2  -8  -9   97.73    4.56   0
  -2  -6 -10  226.79    7.42   0
   0  -7 -10   47.35    5.29   0
   1  -4  -9   64.38    7.35   0
   2  -4  -8  262.70   10.11   0
  -3  -6  -9   67.69    6.45   0
  -1  -7 -10  217.52    7.33   0
  -1  -5 -10  302.07    9.31   0
   1  -3  -8  530.04    9.82   0
   2  -8  -7  175.84    6.18   0
   2  -7  -8   93.07    6.90   0
   3  -4  -6   98.28   10.55   0
  -1  -8  -9   14.59    3.04   0
   1  -7  -9  172.90    6.60   0
  -3  -8  -7   61.26    5.25   0
  -3  -4  -8  108.64    7.13   0
   0  -4  -9  434.98    9.38   0
   1  -8  -8   50.13    4.53   0
   2  -6  -8  200.21    9.58   0
   2  -5  -8   29.74    8.35   0
  -2  -7  -9   40.93    5.06   0
  -1  -4  -9   68.87    6.41   0
   0  -9  -7   19.04    3.36   0
  -3  -7  -8  117.93    5.91   0
  -2  -5  -9  213.72    7.39   0
   3  -6  -6   43.23    7.92   0
   0  -7  -9   28.50    5.19   0
   1  -4  -8  163.27    7.71   0
  -3  -5  -8  237.68    8.73   0
   0  -6  -9  175.11    7.65   0
   2  -8  -6  161.63    6.58   0
   2  -7  -7   34.88    6.39   0
  -1  -8  -8   10.61    3.33   0
  -1  -6  -9   97.33    6.51   0
   1  -7  -8  152.85    6.78   0
  -2  -4  -8  321.09    9.04   0
   1  -8  -7   76.03    4.81   0
   2  -5  -7   44.08    8.28   0
  -3  -8  -6   37.76    4.52   0
   0  -9  -6   27.00    3.47   0
   0  -4  -8  333.68    8.15   0
   1  -6  -8   67.75    7.76   0
   2  -6  -7  351.03   10.90   0
  -3  -7  -7  217.86    7.41   0
  -2  -7  -8   38.39    5.35   0
  -1  -4  -8  160.64    6.72   0
   3  -6  -5   52.30    8.68   0
   3  -5  -5  347.10   12.62   0
   0  -7  -8   71.78    5.99   0
   2  -8  -5  175.98    6.74   0
  -2  -5  -8   88.98    6.25   0
   1  -4  -7  245.46    7.75   0
   2  -7  -6   66.46    6.93   0
  -1  -8  -7   19.48    3.94   0
   0  -6  -8  221.69    8.08   0
  -1  -6  -8  139.91    6.97   0
   0  -9  -5   28.73    3.49   0
   1  -8  -6   41.66    5.24   0
   1  -7  -7  188.62    7.50   0
  -3  -8  -5   73.76    4.93   0
   2  -6  -6  292.76   10.61   0
   1  -6  -7  115.87    8.16   0
   2  -8  -4  177.42    7.03   0
  -3  -7  -6  257.89    7.22   0
  -2  -7  -7  111.80    6.30   0
   0  -9  -4   26.92    3.67   0
   0  -8  -6  139.57    6.29   0
   2  -7  -5   90.21    7.35   0
  -2  -5  -7  326.96    7.78   0
  -1  -8  -6   49.25    4.23   0
  -1  -7  -7  263.73    8.91   0
   1  -8  -5   61.58    5.46   0
  -3  -8  -4   67.18    4.74   0
   0  -6  -7  463.65    9.47   0
   1  -7  -6  210.43    7.86   0
  -1  -6  -7  144.90    7.14   0
  -1  -5  -7  544.11    9.66   0
   2  -8  -3  235.34    7.40   0
   0  -9  -3   36.15    3.73   0
   1  -6  -6   28.61    7.07   0
   2  -5  -5  137.37    8.77   0
  -3  -7  -5  284.94    7.62   0
  -2  -7  -6   43.26    5.82   0
  -1  -9  -3  103.59    4.26   0
   0  -8  -5   47.29    5.51   0
   1  -9  -1   72.83    4.61   0
  -3  -8  -3   21.86    4.12   0
  -1  -8  -5   51.86    4.48   0
   1  -8  -4  109.57    5.97   0
   2  -7  -4   72.28    7.31   0
   1  -7  -5  194.62    7.94   0
  -1  -9  -2  131.77    4.54   0
   0  -5  -6  139.49    6.70   0
  -3  -8  -2  120.25    5.03   0
  -3  -7  -4  287.27    7.54   0
  -1  -9  -1   76.34    3.95   0
  -1  -6  -6  195.83    8.00   0
  -1  -5  -6  324.19    7.57   0
   0  -9  -1   28.17    3.65   0
   2  -6  -4  316.45   10.85   0
  -3  -4  -9   92.94    7.19   0
   0  -5 -13   32.91    6.06   0
   0  -3 -12   22.05    8.71   0
   1  -3 -12  201.66   10.00   0
  -2  -4 -11  322.10   11.39   0
  -1  -4 -12   36.23    7.80   0
  -2  -3 -10   24.43    5.61   0
   2  -4 -12  211.87   10.23   0
  -1  -8 -10    7.14    4.99   0
  -1  -6 -12   54.94    6.91   0
  -1  -5 -12   93.51    8.62   0
  -1  -3 -11  121.90    9.71   0
   0  -7 -12    9.53    4.28   0
   1  -7 -12   74.74    7.18   0
   2  -2 -10   57.01   10.34   0
   1  -4 -12   22.40    8.87   0
   2  -6 -12   94.15    6.32   0
   2  -5 -12    5.42    7.08   0
   2  -3 -11   97.64   10.18   0
  -2  -3  -9  145.46    8.47   0
  -2  -7  -9   53.26    7.16   0
  -2  -6 -10  242.52    9.67   0
  -1  -4 -11  224.82   10.43   0
   0  -6 -12   48.25    6.99   0
   1  -3 -11  308.35   11.79   0
   3  -6 -11   23.41    7.34   0
   3  -5 -11  242.35   12.06   0
  -1  -3 -10  368.19   10.59   0
   1  -6 -12   21.50    5.96   0
   1  -5 -12   86.50    8.34   0
  -1  -8  -9   19.15    5.33   0
  -1  -6 -11  132.47    8.77   0
  -1  -5 -11  105.80   10.04   0
   2  -7 -11   37.04    5.22   0
   0  -4 -11  225.64   11.47   0
   2  -4 -11  179.99   10.50   0
  -2  -6  -9  180.27    9.59   0
  -1  -7 -10  190.03    8.42   0
   1  -7 -11   98.62    7.59   0
   2  -2  -9  600.18   15.27   0
  -1  -3  -9  511.55   10.74   0
   0  -5 -11   73.95    8.21   0
   1  -2  -9  172.76    9.14   0
   2  -5 -11   16.56    7.96   0
  -2  -4  -8  295.21   10.30   0
  -1  -5 -10  318.60   12.26   0
   1  -6 -11   98.37    7.58   0
   1  -5 -11  192.76   10.07   0
   4  -6  -9  156.18   12.04   0
  -2  -6  -8  169.10   10.12   0
  -2  -5  -8   96.48    9.55   0
  -1  -7  -9  174.69    8.37   0
   0  -7 -10   44.87    6.88   0
   3  -6 -10   29.60    7.15   0
   3  -5 -10  194.05   10.87   0
  -1  -8  -7   26.21    6.79   0
   2  -8  -9   89.50    5.64   0
  -1  -4  -9   68.78    8.36   0
   0  -3  -9   87.27    8.82   0
   2  -4 -10   72.05   10.09   0
   0  -6 -10  157.26    9.57   0
   0  -5 -10  136.67    9.26   0
   1  -4 -10    8.81    9.44   0
   2  -3  -9  327.34   11.83   0
  -2  -5  -7  338.51   11.11   0
  -1  -7  -8  240.62    9.03   0
   0  -8  -8   97.77    6.34   0
   1  -6 -10    1.90    7.70   0
   1  -5 -10  145.43    9.43   0
   2  -5 -10   26.75    6.63   0
   0  -7  -9   42.79    6.93   0
   3  -4  -9   84.13   10.60   0
   0  -4  -9  421.81   11.08   0
   1  -8  -8   53.53    4.99   0
   2  -7  -9   57.92    8.06   0
   3  -6  -9   72.42    7.76   0
   3  -5  -9  188.42   10.55   0
   4  -6  -8  154.50    8.98   0
  -2  -5  -6  291.53   10.60   0
   0  -5  -9   87.12    9.01   0
   3  -3  -8  295.95   13.89   0
   4  -5  -8   44.55    9.14   0
  -1  -7  -7  240.41    9.18   0
   0  -8  -7  158.03    7.07   0
   1  -4  -9   63.88    9.03   0
   2  -4  -9  510.65   13.44   0
   3  -8  -7   24.47    4.34   0
   4  -7  -7   49.02    6.17   0
   1  -6  -9   90.13    9.17   0
   2  -6  -9  231.41    8.98   0
  -1  -7  -6  201.12    9.12   0
  -1  -6  -7  149.01    9.19   0
   0  -8  -6  119.11    6.80   0
   0  -4  -8  333.25    9.16   0
   1  -8  -7   94.30    5.62   0
   3  -4  -8   52.05   10.00   0
   0  -6  -8  272.81   10.66   0
   1  -7  -8  172.55    7.41   0
   3  -6  -8   75.98    7.33   0
   3  -5  -8  200.98   10.56   0
   4  -6  -7  113.73    8.67   0
   1  -4  -8  182.63    8.88   0
   2  -4  -8  242.13   10.66   0
   3  -8  -6    3.43    4.14   0
  -1  -7  -5  265.61    9.84   0
   0  -8  -5   43.51    6.02   0
   1  -6  -8   67.49    8.93   0
   2  -6  -8  189.13    8.98   0
   1  -8  -6   49.58    5.56   0
   1  -5  -8  397.76   10.55   0
   4  -7  -6   48.81    5.74   0
   1  -7  -7  183.51    7.76   0
   5  -6  -5   97.12    8.26   0
  -1  -5  -6  256.51    7.90   0
   0  -6  -7  539.48   12.07   0
  -1  -7  -4  294.02    9.94   0
   0  -8  -4  131.43    6.82   0
   0  -7  -6  113.28    8.04   0
   3  -8  -5   28.05    4.46   0
   3  -4  -7  264.77   11.44   0
  -1  -6  -5  242.36    9.42   0
   1  -4  -7  211.78    7.57   0
   3  -5  -7  139.29    9.73   0
   0  -8  -3  151.95    6.95   0
   2  -4  -7  528.66   12.00   0
   4  -8  -3   71.40    4.77   0
   4  -4  -6  158.74   11.59   0
   1  -7  -6  231.45    8.36   0
   2  -5  -7   37.88    7.24   0
   4  -5  -6  349.37   11.97   0
   5  -7  -3   58.85    5.99   0
   0  -8  -2  144.69    7.48   0
   1  -8  -4  109.92    6.25   0
   2  -7  -6   92.19    7.13   0
   3  -8  -4   35.30    4.53   0
   0  -5  -6  151.80    7.62   0
   2  -8  -4  213.44    6.62   0
   3  -6  -6   45.01    7.05   0
   4  -8  -2   69.01    4.59   0
   1  -6  -6   35.97    6.99   0
   3  -7  -5  257.80    8.79   0
   0  -7  -4  154.53    8.02   0
   1  -8  -3   43.24    5.36   0
   1  -7  -5  235.18    8.65   0
   3  -8  -3   48.63    4.89   0
   3  -4  -6  108.48    9.08   0
   4  -7  -4   23.87    5.40   0
   4  -6  -5  289.24    9.39   0
   5  -7  -2   87.86    5.77   0
   5  -5  -4  278.89   11.08   0
   1  -5  -6  697.35   11.77   0
   2  -7  -5   90.44    6.28   0
  -1  -6  -3  198.52    8.86   0
   2  -8  -3  178.24    6.40   0
   2  -5  -6   39.59    6.52   0
   4  -5  -5   97.55    8.94   0
   4  -4  -5  494.28   14.36   0
   1  -8  -2   42.20    5.14   0
   5  -6  -3   62.03    6.98   0
   3  -8  -2  101.68    5.52   0
   4  -8   0   90.44    4.71   0
   1  -8  -1   35.53    4.88   0
   1  -7  -4  260.43    8.87   0
   2  -8  -2  224.52    6.70   0
   3  -7  -4  248.43    8.61   0
   4  -7  -3   61.87    5.67   0
   0  -6  -4  527.79   11.10   0
   2  -7  -4   71.66    6.08   0
   4  -6  -4  208.75    8.68   0
   1  -8   0   30.38    4.88   0
   3  -8  -1   51.88    5.00   0
   5  -5  -3  325.36   13.23   0
   0  -7  -2  115.64    7.36   0
   1  -8   1   18.59    4.56   0
   1  -5  -5  658.48   11.05   0
   3  -4  -5  116.00    8.08   0
   2  -5  -5  131.23    7.52   0
   3  -8   0   54.89    4.68   0
   3  -7  -3  184.86    7.62   0
   4  -5  -4   95.16    8.91   0
   5  -6  -2   30.08    6.56   0
   2  -8   0  169.47    6.19   0
   0  -7  -1   83.01    6.90   0
   0  -6  -3  655.30   11.90   0
   2  -8   1  106.04    5.93   0
   2  -7  -3  104.04    6.46   0
   3  -8   1   53.99    4.43   0
   3  -6  -4  106.25    6.94   0
   5  -7   1   47.55    4.70   0
   2  -8   2  110.12    5.00   0
   2  -6  -4  329.09    9.93   0
   6  -5   0   52.06    7.48   0
   0  -7   0  122.73    8.21   0
   1  -7  -2  357.58    9.59   0
   3  -7  -2  309.10    8.23   0
   5  -5  -2  380.23   12.09   0
   0  -7   1  105.54    6.97   0
   1  -5  -4  485.40    8.56   0
   2  -7  -2  101.65    6.63   0
   0  -6  -2  730.25   11.96   0
   1  -6  -3  139.05    7.54   0
   2  -5  -4  160.85    8.47   0
   3  -4  -4  185.55    7.89   0
   4  -5  -3  121.35    8.87   0
   1  -7  -1  318.92    9.04   0
   2  -6  -3  223.36    8.12   0
   4  -7   0  108.13    5.91   0
   4  -6  -2  308.90    9.79   0
   5  -4  -2   58.21   10.27   0
   6  -5   1   69.26    6.64   0
   2  -7  -1   35.81    6.18   0
   0  -6  -1  756.12   12.24   0
   1  -7   0  211.73    7.93   0
   3  -7   0  272.78    8.34   0
   3  -6  -2  205.28    9.26   0
   3  -5  -3  257.37    9.08   0
   1  -7   1  258.26    8.17   0
   2  -7   0   52.49    6.35   0
   2  -5  -3  163.37    8.81   0
   4  -7   5   88.99    4.42   0
   4  -6  -1  188.96    8.81   0
   4  -5  -2  209.31    9.48   0
   4  -7   3   39.77    4.62   0
   4  -7   4   48.05    4.34   0
   1  -7   2  275.87    7.96   0
   1  -7   3  192.16    7.85   0
   1  -7   4  135.35    6.48   0
   2  -7   6   37.12    4.76   0
   3  -7   1  166.43    6.32   0
   3  -7   6   79.29    4.92   0
   3  -4  -3  104.73    5.69   0
   5  -4  -1   91.48   10.11   0
   5  -5   0  475.49   11.96   0
   6  -5   3   97.59    6.23   0
   3  -6  -1  152.18    8.31   0
   4  -6   0  316.38    9.41   0
   0  -6   1  288.66    9.42   0
   2  -7   5   59.33    5.33   0
   2  -6  -1  377.67    9.36   0
   3  -7   3  168.97    6.95   0
   3  -7   4   71.18    5.10   0
   3  -5  -2  309.22   10.30   0
   5  -6   3   49.63    5.34   0
   6  -5   4   80.72    5.63   0
   2  -7   3   35.63    4.31   0
   2  -7   4   36.98    5.17   0
   5  -6   6   46.84    3.92   0
   6  -5   5   58.57    5.22   0
   6  -4   2  180.80    9.65   0
   5  -6   4   22.74    4.85   0
   0  -6   2  446.50   10.88   0
   3  -6   0   57.67    7.33   0
   5  -5   1  267.51   10.53   0
   2  -6   0  390.28    9.99   0
   6  -4   3  134.89    8.42   0
   3  -6   1   46.26    7.59   0
   2  -5  -1  170.56    7.07   0
   2  -6   1  292.92    9.74   0
   1  -6   2  263.69    9.21   0
   3  -6   2   80.55    8.49   0
   4  -6   4  166.37    7.74   0
   4  -6   6   70.89    5.69   0
   4  -6   5   76.12    6.27   0
   4  -5   1   63.90    8.98   0
   2  -6   2  262.08    8.35   0
   3  -5   0  334.47    9.27   0
   0  -5   4  165.34    6.57   0
   1  -6  -1  180.01    6.70   0
   4  -7   1   68.27    5.18   0
   4  -7   3   30.58    3.55   0
   2  -6   6  227.58    6.34   0
   3  -7   1  178.33    5.60   0
   3  -7   2  179.17    5.39   0
   3  -6   7   41.21    3.79   0
   0  -3   7  178.70    7.05   0
   1  -6   3  119.20    6.24   0
   4  -6   7   74.86    3.40   0
   4  -5   9   21.50    2.87   0
   1  -6   2  272.14    7.32   0
   1  -4   8   38.47    5.81   0
   1  -3   9  238.51    8.33   0
   3  -4  10   31.57    3.85   0
   1  -5   6  298.75    7.96   0
   2  -6   5  208.93    6.43   0
   5  -6   6   42.99    3.35   0
   2  -4   9  292.44    7.14   0
   3  -6   6   37.33    4.25   0
   4  -4  10  114.09    4.05   0
   1  -5   5  331.45    8.16   0
   2  -6  -1  420.83    9.37   0
   2  -6   4  320.95    7.65   0
   4  -6   6   59.33    3.72   0
   1  -4   7  181.01    7.71   0
   5  -5   8   42.24    2.89   0
   2  -6   3  243.33    7.32   0
   4  -5   8   18.99    3.37   0
   5  -6   5   22.57    3.22   0
   1  -5   4  240.85    7.38   0
   1  -3   8  317.25    8.89   0
   2  -6   1  294.18    7.82   0
   2  -6   2  284.96    7.82   0
   4  -6   5   90.63    4.83   0
   2  -5   6  187.85    7.13   0
   3  -6  -1  147.52    6.89   0
   3  -4   9   26.60    4.57   0
   1  -5   3  433.73    8.39   0
   5  -6   0  100.14    6.25   0
   1  -5   2  654.20    9.41   0
   2  -3   9  169.53    7.31   0
   3  -6   0   42.54    5.77   0
   5  -6   3   50.28    4.40   0
   3  -6   1   49.72    5.71   0
   5  -6   2   72.20    4.96   0
   5  -5   7   77.05    3.83   0
   5  -4   9   41.77    3.21   0
   2  -5   5  209.28    7.37   0
   4  -6   0  289.22    7.83   0
   4  -5   7   22.11    4.37   0
   6  -5   6   51.30    3.21   0
   1  -4   5  240.20    7.07   0
   1  -3   7  476.85    9.39   0
   4  -6   1  207.21    6.91   0
   4  -6   2  213.61    6.74   0
   4  -3  10   56.43    4.53   0
   5  -3  10  158.68    4.75   0
   6  -4   8   56.98    3.17   0
   5  -5   6   55.16    4.29   0
   6  -5   5   52.88    3.55   0
   2  -3   8   10.74    6.22   0
   3  -5   5  281.66    7.92   0
   2  -5   0  180.98    6.56   0
   2  -4   6  431.82    9.05   0
   3  -3   9  205.55    7.06   0
   3  -2  10   33.03    6.32   0
   5  -4   8   51.72    3.94   0
   3  -5   4  269.89    8.04   0
   3  -4   7   58.70    6.40   0
   4  -5   5   86.72    6.02   0
   6  -3   9   33.57    3.35   0
   6  -4   7   83.59    3.86   0
   2  -4   5  279.49    7.68   0
   3  -5  -1  266.23    8.59   0
   3  -5   3  449.70    9.19   0
   4  -3   9   71.53    5.47   0
   7  -4   5   35.50    3.26   0
   2  -3   7   69.95    6.38   0
   3  -5   0  474.13    9.53   0
   4  -5   4    1.79    4.40   0
   4  -4   7  286.81    7.65   0
   4  -2  10  260.79    6.83   0
   3  -4   6   92.30    6.81   0
   4  -5  -1   91.57    7.35   0
   5  -4   7   81.33    4.14   0
   5  -2  10   25.23    4.73   0
   2  -4   4  692.13    9.89   0
   4  -5   3   16.08    4.68   0
   5  -5   0  465.75   10.40   0
   6  -4   6  157.33    4.88   0
   3  -2   9  180.24    7.61   0
   4  -5   0  136.90    7.29   0
   4  -5   1   61.47    6.64   0
   5  -5   1  207.14    8.15   0
   7  -4   1   41.24    5.22   0
   7  -4   3   45.87    4.09   0
   7  -3   7   74.82    3.37   0
   6  -3   8   15.13    3.60   0
   7  -4   2   52.11    4.77   0
   3  -4   5  113.15    6.97   0
   4  -4   6  173.76    6.32   0
   4  -3   8  111.58    6.65   0
   5  -4   6   81.41    5.64   0
   6  -4   5  128.37    5.34   0
   6  -2   9  109.21    4.59   0
   3  -4   4  224.22    7.63   0
   4  -4   5  259.85    8.48   0
   4  -1  10   33.94    5.76   0
   6  -1  10   65.66    4.29   0
   7  -3   6   84.19    3.92   0
   5  -4   5   18.04    4.35   0
   5  -2   9   41.93    4.89   0
   6  -3   7   39.36    4.35   0
   5  -1  10  126.87    5.44   0
   7  -1   9  133.44    4.25   0
   3  -4   3  124.81    6.37   0
   3  -2   8  217.45    7.94   0
   7  -3   5  126.57    4.88   0
   8  -2   5   83.53    4.48   0
   3  -3   6  338.57    8.50   0
   5  -4   4   41.44    5.01   0
   6  -4   2  174.77    7.39   0
   3  -4   2  139.92    5.51   0
   4  -4   3  446.28    9.91   0
   5  -4  -1   94.07    9.95   0
   5  -4   3   86.70    7.19   0
   6  -3   6   12.27    4.59   0
   7  -3   4  124.12    5.06   0
   7  -2   7   27.01    3.73   0
   4  -2   8  301.24    8.70   0
   3  -3   5  554.70    9.42   0
   5  -4   0  237.34    9.51   0
   5  -4   1   67.20    8.06   0
   5  -3   6  139.55    7.25   0
   6  -1   9   66.67    5.05   0
   7  -3   0  225.89    8.22   0
   8  -2   1  163.13    7.45   0
   8  -2   3   97.42    5.29   0
   3  -2   7  204.91    7.69   0
   4  -1   9   36.67    6.19   0
   6  -3   5   16.05    5.21   0
   7  -3   1  323.69    9.58   0
   7  -3   2  221.94    7.38   0
   8  -2   2  208.74    6.75   0
   8  -1   6   19.50    3.85   0
   5  -1   9  189.24    6.68   0
   7  -2   6   35.13    4.41   0
   7   0   9   51.37    3.95   0
   6  -2   7  196.76    6.45   0
   6  -3   4   56.71    6.36   0
   8   0   7   84.95    3.79   0
   5  -2   7  117.89    6.93   0
   7  -2   5   30.16    4.73   0
   8  -1   5   40.91    3.88   0
   4  -3   4  109.48    7.08   0
   5  -3   4  321.04    9.24   0
   7  -1   7  137.30    5.32   0
   6  -3  -1  108.68    8.09   0
   6  -2   6  275.77    7.69   0
   6   0   9  145.64    6.15   0
   7   1   9  138.23    5.14   0
   4  -1   8   88.21    7.02   0
   5  -1   8  188.07    7.33   0
   6  -3   0   45.57    7.69   0
   6  -3   1   49.32    7.26   0
   7   0   8   56.33    4.43   0
   8  -1   4   41.00    4.24   0
   4  -3   3  239.84    7.99   0
   4  -2   6  285.83    8.45   0
   4   0   9  227.10    8.23   0
   5  -3   3  158.26    8.19   0
   5   0   9   96.37    6.37   0
   7  -2  -1  108.53    8.71   0
   7  -2   3   49.93    5.87   0
   8  -1   1   46.16    5.35   0
   8  -1   2   63.14    6.02   0
   6  -2   5  197.29    7.44   0
   7  -1   6  139.27    5.80   0
   5  -3  -1  249.96   11.17   0
   5  -3   1  190.08    9.34   0
   6  -1   7  102.18    6.59   0
   7  -2   0   85.00    7.43   0
   4  -3   1  254.34    8.53   0
   5  -3   0  360.22   11.58   0
   4  -2   5  330.11    8.42   0
   6  -2   4  183.99    8.13   0
   6   0   8  158.65    7.06   0
   6   1   9   80.14    5.86   0
   7   0   7   74.20    5.08   0
   7   1   8  105.73    5.44   0
   8   1   6   26.47    3.75   0
   8   0   4   77.25    5.05   0
   5   0   8  114.10    6.77   0
   5   1   9  187.87    7.63   0
   6  -2   3  179.77    8.47   0
   6  -1   6   32.53    6.36   0
   4  -2   4  619.46   10.34   0
   5  -2   4   99.97    7.19   0
   7  -1   4  144.12    7.20   0
   8   0   0  130.40    6.84   0
   8   0   3  166.48    6.09   0
   7   0   6  143.21    6.55   0
   7   2   8   17.32    4.53   0
   8   0   1   71.98    6.11   0
   8   1   5   51.74    4.38   0
   8   2   6  120.67    4.59   0
   5  -1   6  277.19    8.40   0
   6  -2  -1  459.55   12.17   0
   6  -2   1  208.06    9.92   0
   7  -1   3  162.31    8.03   0
   5  -2   3  190.46    8.03   0
   6  -2   0  397.25   11.63   0
   6  -1   5  114.29    7.54   0
   6   1   8   94.97    6.78   0
   7  -1  -1  162.42    9.07   0
   7  -1   0  211.50    9.57   0
   7  -1   1  300.30   10.34   0
   7   0   5  127.89    6.73   0
   8   2   5  107.88    4.95   0
   5   0   7  229.49    7.97   0
   4   0   7  504.89    9.76   0
   5  -1   5  745.33   11.28   0
   5   1   8  215.25    8.03   0
   8   1   0   56.10    6.22   0
   8   3   5   56.07    4.40   0
   5  -2   0  383.13   11.37   0
   6   0   6  427.45    9.77   0
   7   0   4  152.60    7.58   0
   7   2   7   30.58    5.43   0
   8   1   1   39.45    6.08   0
   8   1   2   26.11    5.37   0
   8   2   4  200.87    6.21   0
   6  -1   3  133.28    8.30   0
   5  -1   4  494.95   10.53   0
   7   3   7  213.15    6.34   0
   8   2   3  298.52    7.42   0
   8   3   4   82.84    4.94   0
   6  -1   2  173.72    8.94   0
   7   0  -2   64.25    7.65   0
   7   1   5  142.03    7.52   0
   6  -1  -2  100.69   10.07   0
   6   3   8   38.94    5.95   0
   7   0   2  186.00    9.53   0
   7   2   6   58.08    5.87   0
   8   3   3   63.14    5.11   0
   5   2   8  104.63    7.86   0
   5  -1   3  391.67    9.59   0
   5   1   7  229.47    7.34   0
   6   1   6   24.22    7.14   0
   7   0   0   88.60    8.42   0
   8   3   1   79.94    5.78   0
   6   0   4  321.78    9.84   0
   7   1   4  225.07    8.56   0
   5   0   5   67.16    6.65   0
   5  -1   2  490.40   10.75   0
   7   1   3  291.22    9.62   0
   5   3   8  270.13   10.30   0
   6   1   5  241.31    9.18   0
   7   1  -2  256.33   10.35   0
   7   1   2  413.11   11.16   0
   6   3   7   21.81    6.52   0
   7   2   4   57.63    6.66   0
   7   3   5  169.26    7.01   0
   7   5   5  130.13    5.69   0
   5  -1  -2 1178.14   18.91   0
   5  -1  -1  620.03   14.39   0
   5   0   4  199.77    7.84   0
   6   0   2  809.40   13.93   0
   7   1   0  173.16    9.82   0
   7   1   1  181.99   10.14   0
   7   2  -3   96.61    8.71   0
   2   0  10  744.84    9.50   0
   6  -2   6  289.62    7.50   0
   6  -1   9   76.69    4.21   0
   4   0  11  257.16    6.05   0
   5   0  11   45.00    3.71   0
   5  -2   7  144.57    5.66   0
   4  -2   7  416.82    7.97   0
   7   1  10   80.16    3.23   0
   3   3  12  116.87    4.62   0
   5  -1   9  189.99    5.74   0
   6   0  10  118.64    4.26   0
   6   1  11   47.15    3.33   0
   3   0  10    5.93    4.77   0
   4  -1   9   32.34    4.98   0
   5   2  12   26.69    3.77   0
   2   0   9  952.90    9.90   0
   2   1  10   62.94    5.35   0
   4   4  12  104.94    3.74   0
   5   4  12   10.67    3.36   0
   4  -2   6  241.20    6.99   0
   4   3  12   93.54    4.22   0
   5   0  10   70.22    4.57   0
   7   0   8   61.28    3.68   0
   3  -1   8  422.24    7.22   0
   4   1  11  127.47    5.49   0
   5   1  11  147.56    4.83   0
   7   2  10   18.55    2.70   0
   6   2  11  106.02    3.73   0
   3   2  11   81.59    5.45   0
   4  -1   8   93.15    5.44   0
   5  -2   5   29.90    5.50   0
   6  -1   7  130.91    5.44   0
   6   0   9  130.07    4.98   0
   7   1   9  121.83    3.97   0
   3   0   9  153.50    5.84   0
   4  -2   5  357.58    7.72   0
   5   5  11  142.24    4.08   0
   6   1  10   67.98    4.15   0
   6   4  11   71.63    3.48   0
   7   3  10   67.60    2.96   0
   3   1  10  310.95    7.17   0
   3   3  11  176.13    5.84   0
   5   2  11   40.37    4.52   0
   6   3  11   21.17    3.06   0
   7   0   7   72.75    4.37   0
   5   0   9  101.98    5.11   0
   2   3  10   11.85    5.53   0
   4   0   9  231.03    6.37   0
   5   1  10  165.50    5.33   0
   6  -1   6   25.09    4.87   0
   4   3  11   95.86    5.27   0
   4   4  11  128.93    4.00   0
   5   4  11   73.43    4.90   0
   6   2  10   85.41    4.20   0
   6   5  10   84.88    3.85   0
   3   2  10  109.16    5.81   0
   7   0   6  124.46    5.00   0
   6  -1   5  119.26    5.90   0
   7   3   9   85.14    3.30   0
   7   4   9   24.47    2.56   0
   2   2   9  549.41    8.83   0
   5  -1   6  275.79    7.13   0
   5   0   8  109.76    5.34   0
   4  -1   6  143.97    5.44   0
   4   0   8  440.39    7.46   0
   4   2  10  161.80    6.28   0
   6   0   7  344.91    7.05   0
   3   3  10  239.06    6.70   0
   4   1   9   77.94    5.26   0
   7   1   7  206.12    5.28   0
   7   2   8   10.69    3.23   0
   4   5  10   14.14    3.88   0
   6  -1   4  232.02    7.33   0
   6   2   9  120.48    4.80   0
   8   2   5  117.62    4.58   0
   2   3   9  146.61    6.33   0
   5   3  10  175.90    6.17   0
   6   1   8   93.49    5.27   0
   4   4  10   92.54    4.75   0
   5  -1   5  742.86    9.69   0
   5   4  10   55.94    5.28   0
   7   3   8   88.65    3.84   0
   3   2   9  262.84    6.67   0
   6   0   6  454.14    7.95   0
   7   1   6  149.88    5.32   0
   7   4   8   23.20    2.78   0
   3   1   8  324.68    6.37   0
   4   0   7  444.18    7.20   0
   6   3   9   37.69    4.27   0
   4   2   9  332.25    7.55   0
   6   4   9   93.69    4.36   0
   7   2   7   24.26    2.90   0
   4   1   8  141.58    5.50   0
   6   1   7   99.46    5.64   0
   6   2   8  134.36    5.46   0
   3   3   9  418.23    7.91   0
   3   4   9   87.45    4.97   0
   5   3   9  157.40    6.30   0
   6   0   5  332.03    7.40   0
   7   1   5  139.47    5.61   0
   7   3   7  193.72    4.73   0
   4   5   9   84.67    5.42   0
   7   4   7   43.83    3.28   0
   4   4   9  288.96    7.10   0
   6   3   8   33.98    4.59   0
   6   6   7  164.98    4.63   0
   5  -1   3  412.69    8.61   0
   5   1   7  257.14    6.70   0
   5   2   8   89.67    5.81   0
   6   4   8  122.56    5.11   0
   4   1   7   99.63    4.80   0
   4   2   8  384.84    7.43   0
   6   0   4  334.90    7.88   0
   6   2   7  295.45    7.05   0
   7   1   4  208.23    6.53   0
   5   0   5   54.41    4.92   0
   7   3   6  111.77    4.53   0
   7   4   6   86.39    3.92   0
   3   3   8  294.53    7.08   0
   5   5   8  203.49    5.88   0
   6   3   7   14.65    4.88   0
   6   6   6  175.80    5.27   0
   7   5   5  113.79    3.97   0
   3   4   8  112.41    5.54   0
   4   5   8   38.35    5.76   0
   5   1   6  461.52    8.25   0
   5   2   7  136.89    6.11   0
   5   6   7   56.49    4.48   0
   6   0   3  486.31    9.30   0
   6   4   7  206.92    6.08   0
   6   2   6  324.86    7.50   0
   7   1   2  434.79    9.93   0
   7   2   4   60.13    5.03   0
   4   2   7  338.39    6.85   0
   5   0   4  194.56    6.16   0
   5   7   5  117.01    5.76   0
   6   0   2  755.98   11.64   0
   5   3   7  200.82    6.72   0
   6   3   6    2.58    5.05   0
   7   1   1  174.12    7.76   0
   5   5   7  267.77    6.91   0
   7   3   4  388.10    6.83   0
   5   2   6  100.51    5.91   0
   5   4   7   84.71    6.09   0
   6   2   5  229.33    7.15   0
   7   4   4   65.42    3.33   0
   4   3   7  165.81    6.04   0
   5   6   6   65.71    4.96   0
   4   5   7   47.71    6.16   0
   7   2   2  112.27    5.70   0
   3   4   7  178.04    6.21   0
   4   2   6  414.01    7.12   0
   4   4   7  415.76    9.61   0
   6   1   3  228.60    7.66   0
   7   4   3  120.89    4.81   0
   7   5   2   68.27    4.47   0
   5   3   6  332.10    7.67   0
   6   3   5  153.00    6.60   0
   6   6   4  228.63    5.47   0
   6   2   4  272.53    7.77   0
   6   4   5  148.28    6.28   0
   7   2   1  -11.95    5.11   0
   7   5   1   61.79    4.23   0
   7   4   2   69.31    4.58   0
   7   5   0   86.06    4.91   0
   6   1   2  153.59    7.20   0
   7   2   0  164.72    6.67   0
   4   3   6  181.35    6.32   0
   6   6   3  127.65    5.24   0
   7   2  -1  151.09    6.65   0
   7   3   1  155.48    6.55   0
   7   4   1   13.06    4.27   0
   4   5   6   16.69    5.89   0
   7   3  -3  171.41    8.43   0
   3   5   6  375.11    8.13   0
   4   4   6  480.85    9.69   0
   4   7   4   77.18    5.57   0
   5   3   5  364.09    8.24   0
   6   4   4  322.58    7.21   0
   7   3   0  258.24    7.18   0
   7   4  -2   41.92    5.01   0
   3   4   6   94.19    5.85   0
   5   1   3  680.80    9.40   0
   6   1   1   61.69    7.15   0
   6   6   2  119.79    5.17   0
   7   3  -1  185.61    6.76   0
   7   4  -1   38.46    4.52   0
   4   6   5  188.29    6.80   0
   5   2   4  267.32    6.96   0
   5   4   5   23.85    6.16   0
   5   6   4  157.79    6.08   0
   5   7   2   45.56    4.59   0
   6   3   3  122.89    6.70   0
   6   1   0  245.06    8.58   0
   6   4   3  376.28    7.82   0
   4   3   5  248.06    6.30   0
   5   7   1  100.79    4.94   0
   6   6   0  104.24    4.92   0
   4   5   5  126.98    7.10   0
   4   7   3   62.98    5.52   0
   5   1   2  935.43   11.03   0
   5   3   4  224.10    7.50   0
   5   5   4  379.32    8.60   0
   6   5   2   35.11    5.37   0
   6   6  -1   45.24    4.40   0
   6   1  -1   87.10    7.34   0
   6   2   1  325.60    9.35   0
   6   3   2   87.51    6.48   0
   4   6   4  299.54    8.17   0
   5   2   3  273.77    7.14   0
   6   4   2  225.35    7.95   0
   6   5   1    5.76    5.29   0
   5   5   3  457.74    9.19   0
   5   6   2   81.50    6.45   0
   6   2   0  544.41   10.00   0
   6   3   1   72.72    6.80   0
   6   4   1  218.44    8.41   0
   6   5   0   31.30    5.23   0
   4   3   4  395.12    7.06   0
   4   5   4   81.70    6.69   0
   5   2   2  388.02    8.33   0
   5   4   3  123.07    6.81   0
   6   2  -1  215.21    7.90   0
   6   5  -1   27.79    4.90   0
   4   6   3  358.60    8.95   0
   4   7   1   58.83    5.42   0
   6   4  -5  115.21    7.65   0
   6   5  -2   18.09    3.51   0
   6   2  -2  319.23    9.23   0
   3   5   4  204.01    7.61   0
   3   7   2  262.53    8.31   0
   5   1   0  934.51   12.81   0
   6   2  -3  151.84    8.00   0
   6   3  -1   75.78    7.12   0
   6   4  -1  187.97    7.60   0
   4   7   0   18.40    5.13   0
   5   6   0   54.89    6.01   0
   6   3  -5   12.20    6.16   0
   6   4  -4  142.04    6.83   0
   6   3  -4  107.19    7.29   0
   6   3  -2  125.01    7.44   0
   4   3   3   82.64    4.78   0
   4   6   2  327.55    9.24   0
   4   7  -1   21.88    5.73   0
   5   5   1  240.43    9.32   0
   5   6  -1   33.02    5.61   0
   4   4   3  602.46    9.81   0
   5   1  -1  777.93   12.46   0
   5   6  -3   24.33    4.77   0
   5   6  -2   55.82    5.55   0
   3   7   1  200.18    8.11   0
   5   3   1  189.10    7.63   0
   5   4   1   68.26    6.85   0
   5   2   0  175.32    7.03   0
   5   5   0  389.60    9.77   0
   3   5   3  307.80    8.28   0
   4   5   2  141.34    7.58   0
   5   1  -2  803.90   12.95   0
   4   4   2  776.38   10.57   0
   5   3   0  433.49    9.38   0
   5   4   0   61.48    7.04   0
   5   1  -3  593.20   12.65   0
   5   2  -1  134.25    6.81   0
   5   3  -8  148.71    8.88   0
   5   5  -2  238.34    8.41   0
   3   7  -1  234.36    7.86   0
   5   5  -4   44.20    6.69   0
   5   5  -3  131.47    7.61   0
   2   6   2  623.50   10.40   0
   4   5   1  237.33    8.53   0
   5   3  -1  280.86    8.91   0
   5   4  -1   41.73    7.10   0
   2   7   0  104.96    7.04   0
   3   7  -2  167.27    7.31   0
   4   6  -6   44.93    5.23   0
   4   6  -1  299.82    9.26   0
   2  -5   7   28.61    4.13   0
   2  -4  10   73.14    3.91   0
   3  -1  14   86.19    3.20   0
   4  -5   8   17.30    2.85   0
   0  -3   8   44.29    4.71   0
   1  -4   8   40.42    4.62   0
   1  -3  10  112.01    5.28   0
   2  -5   2  276.22    6.34   0
   3  -3  12   76.23    3.07   0
   2  -5   3  138.58    5.00   0
   2  -5   5  220.22    5.68   0
   3  -4  10   29.96    3.22   0
   3  -2  13   38.79    2.70   0
   4  -5   7   23.91    3.19   0
   4  -3  12   31.98    2.21   0
   0  -3   7  147.17    4.96   0
   2  -5   4  166.90    5.29   0
   2  -4   9  289.72    5.75   0
   4  -4  10   97.85    3.26   0
   1  -4   7  109.53    4.18   0
   3  -5   6  218.99    5.56   0
   4  -5   6   32.20    3.64   0
   2  -2  12   71.56    4.05   0
   3  -5   5  278.46    6.03   0
   1  -4   6   75.81    4.36   0
   1  -3   9  268.48    6.31   0
   3  -5   4  237.43    6.01   0
   4  -5   4    7.61    4.20   0
   4  -5   5   87.49    4.54   0
   0  -2   8  650.91    8.15   0
   3  -4   9   20.00    3.79   0
   3  -3  11  114.22    3.98   0
   5  -3  11  111.77    2.74   0
   2  -3  10   44.45    4.38   0
   4  -4   9  170.30    4.20   0
   1  -3   8  284.64    6.29   0
   2  -4   7  274.38    6.14   0
   5  -4   8   50.28    3.20   0
   3  -4   8   69.99    4.52   0
   5  -2  12   15.06    2.04   0
   4  -4   8  161.68    5.01   0
   4  -1  13   19.57    2.52   0
   1  -3   7  522.37    7.34   0
   2  -3   9  158.87    5.44   0
   3  -3  10   71.91    4.21   0
   3  -4   7   65.71    4.76   0
   5  -3  10  127.83    3.23   0
   6  -3   9   34.36    2.56   0
   6  -2  11   74.05    2.51   0
   3   0  13   57.43    3.61   0
   2  -4   4  600.37    7.40   0
   3  -2  11  135.78    4.80   0
   6  -1  12   13.80    2.03   0
   2  -3   8   11.00    4.24   0
   2  -2  10  193.30    5.87   0
   3  -1  12  161.85    4.74   0
   5  -4   6   68.38    4.19   0
   2  -1  11  123.87    5.44   0
   3  -3   9  211.43    5.67   0
   4  -4   6  225.65    6.04   0
   5  -2  11   21.26    2.57   0
   3  -4   5  100.35    5.01   0
   4  -2  11  157.29    4.28   0
   4   0  13  120.06    3.69   0
   5  -4   5   23.56    4.33   0
   5  -3   9  163.90    4.03   0
   5   0  13   36.51    2.49   0
   6  -3   8   15.74    2.88   0
   3  -4   4  221.05    5.82   0
   4  -3   9   76.33    4.45   0
   1   0  10  362.91    7.67   0
   2  -3   7   53.32    4.34   0
   3  -4   3  136.05    5.04   0
   6  -2  10   85.88    2.91   0
   2  -2   9  440.55    7.22   0
   3  -3   8  384.76    6.90   0
   3  -2  10   39.71    4.52   0
   4  -4   3  461.08    8.89   0
   4  -4   4  456.63    8.04   0
   4   1  13   53.59    3.91   0
   6  -3   7   40.68    3.38   0
   7  -2   8   23.25    2.65   0
   2  -3   6  183.08    4.79   0
   3   0  12   56.53    4.30   0
   4  -3   8  102.30    5.05   0
   5   1  13   72.05    3.36   0
   6  -1  11   28.32    2.49   0
   6   0  12   67.40    2.61   0
   2  -1  10  138.54    5.65   0
   3  -3   7  243.98    6.02   0
   5   2  13   66.26    3.96   0
   6  -3   6   10.98    3.62   0
   6  -2   9  107.26    3.59   0
   2  -2   8  255.78    5.81   0
   4   0  12   62.60    3.77   0
   5  -3   7  189.70    5.27   0
   7  -2   7   32.97    3.08   0
   4  -3   7  179.92    5.87   0
   4  -1  11   65.33    3.36   0
   5  -1  11  126.75    3.71   0
   6  -3   5    5.42    3.81   0
   3  -3   6  342.93    6.51   0
   7  -1   9  114.97    3.21   0
   4  -2   9  208.21    5.81   0
   5  -2   9   46.85    3.96   0
   7  -2   6   36.79    4.06   0
   6  -1  10   57.98    3.19   0
   2   0  10  866.76   10.13   0
   6   0  11  122.26    3.62   0
   7   0  10   42.95    2.45   0
   5  -3   5  480.21    7.98   0
   5   1  12   93.04    4.52   0
   7  -2   5   39.95    4.09   0
   4  -3   5  363.83    7.28   0
   4  -1  10   29.31    4.41   0
   5  -1  10  132.33    4.28   0
   6   2  12   82.23    3.03   0
   4  -2   8  296.39    6.61   0
   5  -3   4  343.30    7.67   0
   5  -2   8   58.81    4.49   0
   6  -1   9   67.29    3.83   0
   3  -1   9  610.76    8.14   0
   4  -3   4  109.04    5.33   0
   4   2  12  132.24    4.57   0
   5  -3   3  151.35    7.12   0
   5   2  12   26.80    4.48   0
   2   1  10   63.37    5.51   0
   3   1  11  269.39    6.52   0
   4  -3   3  295.88    7.20   0
   7   0   9   51.01    2.98   0
   2   0   9  973.97   10.04   0
   3   0  10    5.81    4.59   0
   5  -2   7  123.84    5.39   0
   6  -2   6  289.02    6.11   0
   6   0  10  116.38    4.09   0
   7  -1   7  144.05    4.28   0
   7   1  10   74.61    3.07   0
   4   1  11  130.27    5.25   0
   3   2  11   86.33    5.52   0
   4   0  10  236.23    6.06   0
   5   0  10   72.90    4.29   0
   6  -2   5  219.02    6.28   0
   7  -1   6  152.53    4.95   0
   4  -2   6  247.45    6.29   0
   7   0   8   52.71    3.49   0
   4  -1   8   96.73    5.33   0
   6  -2   4  168.87    6.29   0
   6   0   9  126.11    4.65   0
   6   3  11   24.00    3.01   0
   7   1   9  130.14    3.88   0
   5  -2   5   33.02    5.09   0
   5   2  11   43.84    4.47   0
   6  -2   3  185.60    6.99   0
   6  -1   7  115.31    5.14   0
   7  -1   5  140.06    5.17   0
   8   1   6   30.00    3.44   0
   4   0   9  231.71    6.28   0
   5   0   9  103.17    5.24   0
   5   4  11   77.03    5.41   0
   7  -1   4  142.93    5.78   0
   7   0   7   75.78    4.09   0
   4   1  10   12.04    4.71   0
   5   3  11  290.53    6.37   0
   4  -1   7  128.15    5.49   0
   5  -2   4   84.74    4.65   0
   6   0   8  155.42    5.48   0
   7  -1   3  153.23    6.34   0
   7   2   9   23.97    3.11   0
   3   2  10  103.09    6.08   0
   7   1   8   97.91    4.19   0
   8   1   5   50.53    3.73   0
   3   0   8   25.81    4.33   0
   5  -2   3  220.43    7.17   0
   3   1   9  846.71    9.94   0
   6   3  10   26.69    3.52   0
   6   4  10   92.64    4.35   0
   7   3   9   87.53    3.41   0
   8   1   4   41.70    4.27   0
   4   2  10  172.57    6.26   0
   5  -2   2  147.80    7.64   0
   5  -1   6  258.65    6.68   0
   5   0   8  103.43    5.29   0
   5   2  10   83.10    5.21   0
   6  -1   5   93.68    5.70   0
   4  -1   6  127.18    5.15   0
   5   1   9  160.87    5.78   0
   6   0   7  313.82    6.90   0
   7   0   5  122.78    5.45   0
   5   3  10  191.83    6.18   0
   6  -1   4  215.25    6.86   0
   6   2   9  120.97    4.95   0
   4   3  10   28.52    5.84   0
   5   4  10   58.94    5.50   0
   4   4  10   94.01    4.93   0
   5   0   7  201.51    6.21   0
   6   5   9   84.73    4.13   0
   7   0   4  143.16    6.01   0
   8   3   5   63.11    4.11   0
   3   2   9  290.34    7.24   0
   6  -1   3  149.65    7.09   0
   8   2   4  192.36    5.20   0
   6   3   9   33.02    4.37   0
   7   2   7   27.99    3.96   0
   8   2   3  315.47    7.17   0
   4   2   9  365.86    8.16   0
   6   4   9   96.51    4.50   0
   7   0   3  103.76    6.11   0
   4   1   8  136.57    5.69   0
   6   1   7   96.39    5.70   0
   6   2   8  147.22    5.92   0
   7   0   2  205.49    8.48   0
   3   3   9  395.74    8.60   0
   5   0   6  135.34    5.74   0
   5   3   9  159.90    6.41   0
   5   5   9  131.99    5.28   0
   7   4   7   39.60    3.34   0
   4   0   6  591.21    8.19   0
   5  -1   3  500.37    9.06   0
   7   2   6   60.17    4.69   0
   5   1   7  262.67    7.17   0
   5   4   9   62.27    5.58   0
   6   3   8   31.36    5.30   0
   6   5   8   68.65    4.29   0
   5   2   8   95.54    6.15   0
   6   0   4  321.23    8.16   0
   6   1   6   30.18    5.59   0
   6   6   7  162.02    5.46   0
   7   5   6   38.04    3.32   0
   4   1   7  109.38    5.10   0
   4   2   8  407.66    8.04   0
   5  -1   2  593.46   10.53   0
   5   6   8   54.00    4.58   0
   6   2   7  266.23    7.12   0
   7   3   6  105.76    4.80   0
   7   1   3  283.23    7.92   0
   6   0   3  547.04   10.10   0
   7   4   6   92.98    4.30   0
   5   1   6  503.63    9.04   0
   6   3   7   18.17    5.45   0
   7   1   2  415.26    9.33   0
   7   5   5  106.57    4.27   0
   3   3   8  315.03    7.95   0
   4   3   8  253.25    8.24   0
   5   2   7  156.95    6.96   0
   5   4   8  112.63    6.38   0
   5   5   8  207.56    6.52   0
   6   0   2  838.65   12.48   0
   6   2   6  335.49    8.10   0
   6   5   7   53.07    4.35   0
   7   1   1  208.85    8.25   0
   7   2   4   66.35    5.58   0
   7   3   5  191.63    6.05   0
   6   4   7  230.73    6.61   0
   7   1   0  168.87    8.48   0
   7   4   5  105.62    4.74   0
   4   5   8   35.21    7.18   0
   5   6   7   52.62    5.07   0
   6   0   1  550.88   12.70   0
   6   1   4  206.87    7.79   0
   7   3   4  316.24    7.16   0
   7   5   4  201.13    5.23   0
   6   3   6   12.20    5.78   0
   5   3   7  156.10    5.86   0
   6   0   0 1394.92   17.83   0
   5   2   6  114.24    6.58   0
   6   5   6   75.43    5.44   0
   7   5   3  128.03    5.28   0
   5   5   7  285.70    7.78   0
   7   2  -1  167.88    7.80   0
   7   4   3  137.72    5.59   0
   7   5   2   63.35    5.10   0
   5   3   4  210.17    7.60   0
   6   2   3  304.27    7.22   0
   6   5   1   18.08    5.19   0
   7   4  -1   42.11    4.37   0
   4   4   4  601.24    9.32   0
   5   6   0   56.11    5.39   0
   7   4  -3   20.98    4.09   0
   7   4  -2   25.85    3.99   0
   3   5   3  289.41    7.64   0
   4   6   1  112.08    7.40   0
   6   1   2  164.75    7.59   0
   3   6   1   87.62    6.67   0
   4   3   4  429.20    8.93   0
   5   6  -3   23.16    4.60   0
   5   6  -2   44.16    5.73   0
   5   6  -1   20.83    4.84   0
   6   5   0   28.37    5.08   0
   7   2   0  166.11    6.37   0
   5   4   3  127.30    7.16   0
   6   2   2  322.70    8.57   0
   6   5  -4    7.12    3.87   0
   6   5  -1   21.13    4.93   0
   7   1  -1  193.81    7.08   0
   5   3   3  409.10    8.66   0
   6   4   1  250.40    8.22   0
   6   5  -3   25.62    4.24   0
   6   5  -2   30.33    4.65   0
   3   6   0   86.59    6.85   0
   5   5   1  268.02    9.85   0
   3   5   2  267.49    6.93   0
   4   6  -5   77.37    5.92   0
   7   1  -2  246.82    7.59   0
   6   1   1   59.75    6.72   0
   6   3   1   81.49    6.76   0
   6   4   0  292.32    8.08   0
   7   2  -2   97.17    5.84   0
   3   6  -1   40.85    5.95   0
   4   3   3  140.58    6.63   0
   4   6  -3  115.72    7.23   0
   4   6  -2  189.62    7.10   0
   5   5   0  378.90    9.67   0
   6   2   1  320.75    8.86   0
   7   1  -4  170.06    7.31   0
   7   2  -4   48.30    5.24   0
   6   4  -1  182.03    7.12   0
   3   5   1  298.54    7.14   0
   3   6  -2   36.56    5.80   0
   4   4   2  723.27    9.85   0
   5   4   1   69.66    6.93   0
   5   5  -1  224.82    8.67   0
   6   3   0  113.38    7.17   0
   6   4  -6   55.21    4.72   0
   5   5  -6   85.52    5.06   0
   6   1   0  246.60    7.86   0
   5   5  -2  255.20    8.24   0
   6   4  -3  116.81    6.13   0
   5   5  -3  111.35    6.54   0
   6   4  -4  153.19    5.95   0
   5   3   1  234.51    7.79   0
   5   4   0   70.87    6.97   0
   5   5  -4   34.63    5.64   0
   3   5   0  276.84    7.67   0
   6   2  -1  234.17    7.87   0
   6   3  -2  154.85    7.37   0
   5   4  -1   30.57    6.74   0
   6   3  -7   69.87    5.03   0
   4   5  -7   17.67    4.54   0
   4   5  -2  194.76    8.07   0
   6   3  -3  125.32    7.06   0
   3   5  -1  329.15    8.62   0
   5   3   0  436.40    9.23   0
   6   3  -6   50.16    4.98   0
   6   3  -4  114.78    6.66   0
   4   4   0  446.53    9.58   0
   4   5  -3   79.12    7.33   0
   5   4  -2   70.49    7.65   0
   6   3  -5   15.35    3.99   0
   5   1   0  953.27   11.53   0
   5   4  -7   50.90    4.93   0
   3   5  -8  106.96    6.96   0
   5   4  -3  103.69    7.37   0
   3   5  -2  331.53    9.07   0
   5   3  -1  301.08    8.68   0
   5   4  -6    2.73    5.00   0
   5   4  -4  110.32    7.15   0
   6   1  -3  131.11    7.38   0
   2   5  -2   54.82    6.12   0
   4   4  -1  466.28    9.81   0
   6   1  -8   26.61    5.91   0
   3   5  -3  239.93    8.73   0
   5   3  -9   81.33    5.33   0
   6   0  -8  140.17    6.96   0
   6   1  -4  163.99    7.39   0
   3   5  -7  112.62    6.47   0
   5   3  -2  346.51    9.19   0
   3   5  -4  153.56    7.79   0
   4   4  -2  424.27    9.88   0
   6   0  -7  220.29    7.71   0
   6   1  -7   46.13    5.50   0
   6   1  -6   26.27    5.85   0
   6   1  -5   17.90    6.04   0
   3   5  -5  161.93    7.77   0
   5   3  -3  298.87    9.02   0
   3   4 -10    3.74    4.39   0
   4   3  -1   19.16    5.01   0
   4   4  -3  170.30    8.21   0
   5   2  -2  181.76    7.10   0
   5   3  -7  169.49    7.11   0
   5   0  -2  429.52    8.90   0
   5   3  -6  315.85    8.73   0
   5   3  -5  191.27    8.16   0
   4   4  -6   88.12    7.42   0
   4   4  -5   83.00    7.60   0
   3   4  -2  147.45    6.74   0
   5   0 -11   22.99    6.10   0
   5   2  -9   24.14    5.37   0
   5   2  -3  122.47    7.29   0
   4   3 -10   11.75    4.60   0
   4   3  -2  146.52    6.63   0
   3   4  -9   29.14    5.42   0
   5   2  -4  194.67    8.40   0
   5   0  -3  199.54    7.27   0
   5   2  -8   31.71    6.05   0
   4   3  -9   23.90    5.87   0
   4   3  -3   28.43    6.04   0
   5   2  -7   36.30    6.77   0
   5   2  -6    2.74    6.74   0
   5   2  -5  144.10    8.06   0
   2   4 -10   61.24    5.87   0
   3   4  -8   59.05    6.46   0
   3   4  -4  259.80    8.78   0
   5  -1 -10   81.05    7.47   0
   5   0 -10   46.08    5.92   0
   5   1  -4  388.60    9.53   0
   3   4  -7   30.44    6.87   0
   4   3  -4   81.62    7.23   0
   5   0  -4  490.22    9.93   0
   4   1 -12   18.90    4.78   0
   4   3  -8   15.88    6.37   0
   5   1  -5  180.88    9.02   0
   4   3  -7   30.06    7.12   0
   4   3  -5   79.27    7.46   0
   5  -1  -9  118.34    7.63   0
   2   3 -12   18.45    4.74   0
   2   4  -9  177.84    7.94   0
   4   2 -10   92.79    6.49   0
   4   2  -3  691.47   10.06   0
   5  -1  -7  310.09   10.19   0
   5   0  -8   71.70    7.37   0
   5   0  -6   52.66    7.13   0
   2   4  -8  135.84    7.92   0
   5   0  -7   80.91    7.65   0
   2   4  -5  351.22    9.53   0
   3   2 -12   27.70    4.91   0
   1   4  -9   52.38    7.83   0
   2   4  -7  395.13   10.18   0
   4   1 -11   47.43    6.28   0
   4   2  -4  774.61   11.19   0
   3   1 -13   27.22    4.90   0
   3   3  -9  110.64    7.81   0
   1   3 -12   49.05    6.50   0
   2   3 -11   21.43    5.81   0
   4  -1 -12   38.26    6.03   0
   4   2  -6  309.09    9.96   0
   1   4  -8   75.05    7.95   0
   3   3  -8  276.80    9.63   0
   4   1 -10   53.97    7.12   0
   1   4  -7   93.21    7.70   0
   3   2 -11   48.21    6.34   0
   3   3  -6  478.95   10.72   0
   2   1 -14    8.19    4.56   0
   4  -2 -11  104.98    8.64   0
   4   1  -9   49.77    7.87   0
   3   1 -12   70.98    6.75   0
   3   2 -10   -2.23    7.03   0
   4   1  -8   66.79    8.40   0
   1   3 -11  174.29    7.78   0
   3   0 -13   44.40    5.98   0
   4   1  -7   95.20    8.51   0
   2   3  -9   54.03    8.12   0
   4  -2 -10  109.35    8.42   0
   3   2  -9  208.65    9.69   0
   2   3  -8  145.10    8.93   0
   2   3  -5  565.86   10.23   0
   4   0  -6  321.59    9.59   0
   1   3 -10  319.37   11.31   0
   2   1 -13   34.05    6.27   0
   3  -2 -13   24.34    7.41   0
   3   2  -8  136.11    9.07   0
   4  -2  -8  237.28   11.09   0
   4  -1  -9   67.63    8.35   0
   4  -1  -6  563.53   11.81   0
   4   0  -7  933.16   14.25   0
   2   0 -14   60.28    5.87   0
   2   2 -11  152.96    8.78   0
   3   0 -12   56.41    7.40   0
   4  -1  -8   93.74    9.39   0
   4  -1  -7  104.47    8.72   0
   3  -3 -12   88.97    9.38   0
   3   1 -10  214.52    9.96   0
   0   2 -13  115.12    6.70   0
   1   2 -12   13.28    6.61   0
   1   3  -9  210.51   10.03   0
   0   3 -10  100.06    8.37   0
   3   0 -11   39.65    8.59   0
   3   1  -9  442.15   12.44   0
  -1   2 -13   15.39    6.89   0
   1   3  -8  398.41   11.55   0
   2  -1 -14   27.06    6.33   0
   2   1 -12   20.34    5.83   0
   3  -2 -12   19.47    7.80   0
   1   3  -7  513.92   11.64   0
   2  -3 -14   35.73    6.99   0
   2   2  -9  175.36   10.06   0
   3   1  -8  430.10   12.00   0
   3  -3 -11  115.91    9.36   0
   0   1 -14    9.26    5.61   0
   0   3  -9  167.62    9.60   0
   1  -1 -15   54.58    6.04   0
   2   2  -8  319.45   10.74   0
   0   2 -12  154.93    8.44   0
   2   1 -11   67.80    9.42   0
   2   2  -7  651.63   11.96   0
   3  -2 -11   21.98    9.17   0
   0   3  -8   34.60    9.10   0
   1   0 -14   41.40    6.95   0
   1  -2 -15   60.47    7.92   0
   2  -1 -13   46.72    8.47   0
   2   0 -12  174.34   10.32   0
   3   0  -8   69.47    8.93   0
  -1   1 -14   75.24    6.37   0
   1  -3 -15  104.17    7.69   0
   1   2 -10   11.65    6.89   0
   2   1 -10  112.38   10.88   0
   3  -2 -10   55.50    9.88   0
   1   1 -12  119.51    9.93   0
   2  -3 -13   30.64    8.55   0
   3  -1  -9  488.41   13.99   0
   0   2 -11  405.98   11.87   0
  -1   0 -15   15.76    5.12   0
   1   2  -9  157.22    8.43   0
   2   0 -11  550.82   14.92   0
   3  -1  -7  443.65   11.94   0
   1   0 -13   44.52    8.83   0
   2  -1 -12   35.60   10.78   0
   3  -2  -8   31.22    9.32   0
   3  -2  -7  255.20   11.19   0
  -2   0 -15  179.13    7.15   0
   0  -1 -15   28.77    6.76   0
   0   0 -14   85.35    8.19   0
   1  -4 -14    3.87    7.69   0
   1   1 -11  253.31   12.07   0
  -4  -6  -7  259.50    8.82   0
  -4  -5  -7   43.59    8.50   0
  -3  -3  -8  264.54    7.86   0
  -2  -6 -11  220.67    7.94   0
   1  -5 -11  201.47   10.64   0
  -4  -4  -6  419.19   10.94   0
  -3  -4  -9  122.17    7.71   0
  -4  -6  -6  210.47    8.99   0
  -2  -4 -10  357.68    9.73   0
  -2  -3  -9  116.63    6.96   0
  -1  -7 -11   68.01    5.42   0
   0  -7 -11   50.92    6.20   0
   1  -6 -11   94.59    7.05   0
  -4  -5  -6   21.84    7.18   0
  -1  -8 -10    3.78    3.49   0
   0  -5 -11   78.93    7.94   0
  -2  -8  -9  101.60    4.75   0
  -2  -7 -10   29.04    5.20   0
  -3  -7  -8  120.84    7.27   0
   0  -8 -10   52.20    4.32   0
   1  -4 -10    9.38    8.02   0
  -2  -6 -10  236.16    8.65   0
  -1  -4 -10   60.51    8.13   0
   0  -4 -10  193.71    9.14   0
   1  -3  -9  281.05   10.91   0
  -2  -3  -8   35.81    4.91   0
  -2  -8  -8  117.78    5.28   0
  -2  -7  -9   41.74    5.65   0
  -3  -4  -7  199.81    8.21   0
  -1  -6 -10   49.24    6.94   0
   0  -7 -10   53.13    6.70   0
   1  -5 -10  157.76    9.18   0
  -2  -5  -9  193.22    9.26   0
   0  -5 -10  170.88    9.16   0
   1  -6 -10    5.34    5.94   0
   0  -8  -9   89.03    4.28   0
   2  -7  -9   60.79    5.91   0
  -3  -7  -6  272.83    8.67   0
  -3  -5  -7  229.64    8.91   0
  -1  -4  -9   60.57    7.44   0
  -3  -4  -6   99.75    6.51   0
   0  -9  -7   17.42    3.33   0
   1  -4  -9   58.26    7.91   0
  -1  -8  -8   15.46    4.52   0
  -1  -7  -9  174.84    7.06   0
   0  -4  -9  425.28   10.44   0
  -3  -7  -5  280.34    8.70   0
  -3  -6  -6   50.93    6.91   0
  -1  -5  -9  279.11    8.75   0
  -3  -5  -6  428.65   10.38   0
  -2  -8  -6  169.23    6.23   0
  -2  -6  -8  175.46    8.56   0
   1  -7  -9  210.89    7.61   0
  -3  -7  -4  298.66    9.13   0
   1  -5  -9  302.94   10.71   0
  -2  -7  -7  114.76    6.84   0
  -2  -4  -7  436.05    8.90   0
   0  -9  -6   20.70    3.55   0
   0  -6  -9  197.66    8.50   0
   1  -6  -9   84.57    6.94   0
  -3  -6  -5   60.92    7.40   0
  -1  -8  -7   21.37    4.60   0
  -1  -7  -8  238.30    7.88   0
   1  -9  -6   64.17    4.29   0
  -3  -5  -5  381.96    9.97   0
  -1  -9  -4  113.50    4.68   0
   2  -7  -8   87.90    5.88   0
  -2  -6  -7  288.97    9.28   0
  -2  -5  -7  306.98    9.15   0
  -1  -9  -3  140.78    5.83   0
  -1  -5  -8  352.48    9.30   0
   2  -8  -7  180.40    6.22   0
  -3  -6  -4  161.21    8.44   0
   0  -9  -5   20.98    4.12   0
   1  -4  -8  170.88    8.31   0
   2  -6  -8  201.68    9.81   0
   2  -5  -8   35.22    8.68   0
   0  -8  -7  153.82    5.91   0
  -3  -6  -3   59.75    7.81   0
  -1  -8  -6   51.64    5.12   0
   1  -9  -5   68.03    4.39   0
   1  -8  -7   80.13    4.83   0
  -1  -7  -7  251.75    8.25   0
   0  -6  -8  279.63    9.55   0
   1  -6  -8   54.22    6.81   0
   1  -5  -8  412.20   10.74   0
  -2  -7  -5   53.40    6.51   0
   0  -9  -4   33.86    3.51   0
  -1  -6  -7  157.18    8.28   0
   2  -8  -6  181.88    6.25   0
   2  -7  -7   47.01    5.70   0
   3  -8  -5   42.00    4.92   0
  -1  -8  -5   50.04    5.15   0
   0  -8  -6  121.48    5.97   0
   0  -7  -7   51.08    6.08   0
   1  -9  -4   68.16    4.08   0
   3  -7  -6  290.96    8.41   0
  -2  -7  -4   49.05    6.38   0
  -2  -5  -5  192.82    7.43   0
   0  -6  -7  505.84   10.68   0
   0  -9  -1   27.07    3.39   0
   1  -9  -3   94.96    4.25   0
  -2  -7  -3   88.69    6.73   0
   0  -8  -5   55.31    5.39   0
   1  -5  -7  383.55    9.40   0
   3  -6  -6   47.51    7.27   0
  -2  -6  -4  326.65    9.36   0
  -1  -8  -3   65.34    5.21   0
  -1  -7  -5  245.43    8.27   0
   0  -7  -6  103.90    6.67   0
   1  -9  -2   96.30    4.31   0
   2  -7  -6   85.35    6.92   0
   3  -8  -4   49.52    4.55   0
   1  -8  -5   51.43    4.72   0
  -2  -5  -4  160.36    6.83   0
   1  -7  -6  244.14    8.15   0
   3  -7  -5  259.98    7.95   0
  -2  -7  -1   97.20    6.98   0
  -1  -8  -2   34.85    4.82   0
   0  -8  -4  131.01    6.00   0
   0  -6  -6  592.63   10.71   0
  -2  -6  -3  463.92   10.68   0
  -1  -8  -1   97.68    5.26   0
  -1  -7  -4  314.75    8.61   0
  -1  -6  -5  230.75    8.24   0
   2  -6  -6  248.59    8.19   0
  -1  -8   0  163.54    5.77   0
   0  -7  -5  114.46    6.97   0
   1  -8  -4   94.56    5.23   0
   1  -6  -6   28.56    7.52   0
   3  -8  -3   44.24    4.24   0
   0  -8  -3  155.30    5.93   0
   2  -5  -6   52.94    6.76   0
   4  -7  -3   65.54    6.68   0
   1  -7  -5  175.38    6.63   0
   1  -5  -6  690.50   10.47   0
   3  -6  -5   40.30    6.68   0
  -1  -6  -4  192.01    7.46   0
   0  -8  -2  144.99    5.80   0
   0  -6  -5  368.84    9.04   0
   1  -8  -3   47.63    4.69   0
   2  -8  -3  201.19    6.25   0
   3  -7  -4  230.58    7.42   0
   3  -5  -5  401.88   13.14   0
  -2  -6  -1   65.45    7.15   0
   0  -7  -4  135.41    7.15   0
  -1  -7  -2  363.30    8.89   0
   0  -5  -5  251.36    7.10   0
   1  -6  -5   45.60    6.60   0
   0  -8   0  144.90    5.53   0
   2  -8  -2  230.11    6.39   0
   4  -7  -2   74.69    5.70   0
  -1  -7  -1  278.03    8.07   0
   0  -8   1   70.88    4.67   0
   2  -5  -5  122.62    6.49   0
   0  -6  -4  486.30    9.84   0
   1  -8  -1   32.97    4.49   0
   3  -7  -3  227.40    7.53   0
   3  -6  -4  114.46    7.17   0
  -1  -7   0  111.36    6.47   0
   2  -8  -1  237.25    6.59   0
   3  -8   0   51.18    4.31   0
  -1  -7   1  175.02    6.97   0
   1  -7  -3  228.90    7.44   0
  -1  -7   2  156.00    6.50   0
  -1  -6  -2   18.73    5.61   0
   0  -7  -2  130.38    6.66   0
   1  -8   0   25.75    3.28   0
   1  -6  -4  238.51    7.21   0
   3  -8   1   49.19    4.02   0
   3  -5  -4  285.22    9.35   0
   4  -7  -1   72.07    5.55   0
   1  -8   1   19.78    3.80   0
   1  -8   3   10.15    3.35   0
   3  -8   2   46.01    3.86   0
   3  -8   3   45.00    3.59   0
   0  -6  -3  581.69   10.01   0
   2  -8   1   99.66    4.64   0
   3  -7  -2  326.47    7.73   0
  -1  -6  -1   84.18    6.34   0
   0  -7  -1   78.89    6.16   0
   1  -7  -2  326.91    8.29   0
   1  -5  -4  838.52   11.29   0
   2  -8   2  110.03    4.50   0
   2  -8   3   71.54    3.84   0
   3  -6  -3   65.03    6.83   0
   2  -7  -2   90.73    6.08   0
   1  -6  -3  116.75    6.12   0
  -1  -6   0  525.57   10.00   0
   0  -7   5   24.34    5.20   0
   1  -7  -1  329.86    8.31   0
   4  -7   1   52.56    4.64   0
   0  -7   1   93.76    6.00   0
   0  -7   4   40.34    5.75   0
   2  -7  -1   44.88    5.58   0
   3  -5  -3  262.33    8.74   0
  -1  -6   1   50.94    6.21   0
   0  -7   2   69.51    5.55   0
   0  -7   3   73.85    5.36   0
   3  -6  -2  213.64    8.40   0
  -1  -6   2   74.20    7.65   0
   1  -7   0  200.39    7.23   0
   1  -6  -2  150.48    6.59   0
   3  -7   0  270.85    7.36   0
  -1  -6   3   36.67    6.24   0
   1  -7   6  202.32    5.58   0
   2  -7   0   48.06    5.55   0
   2  -6  -2  296.44    7.97   0
   1  -7   1  252.85    7.35   0
   4  -7   4   41.13    3.66   0
   5  -6   2   75.77    6.33   0
   1  -7   2  304.51    7.54   0
   1  -7   5  151.71    5.53   0
   2  -7   1   73.82    5.64   0
   3  -7   6   72.29    3.78   0
   4  -6   0  302.12    8.39   0
   1  -7   4  121.26    5.65   0
   1  -6  -1  165.61    6.87   0
   3  -7   2  184.50    6.66   0
   3  -5  -2  297.05    9.15   0
   5  -6   3   45.77    4.90   0
   2  -7   2   35.34    5.03   0
   2  -6  -1  320.01    8.03   0
   3  -7   3  170.31    6.39   0
   3  -7   5   84.08    4.42   0
   4  -5  -1   93.05    8.06   0
   0  -6   1  277.25    8.17   0
   2  -7   3   37.71    5.25   0
   2  -7   4   29.35    4.58   0
   5  -6   4   27.18    4.57   0
   5  -6   5   24.73    4.43   0
   4  -6   1  218.69    7.84   0
   5  -5   1  213.92    9.28   0
   1  -6   0  224.29    7.40   0
  -1  -5   2  810.42   11.94   0
   1  -6   8   16.59    4.22   0
   2  -6   0  364.42    8.75   0
   0  -6   3  260.49    8.16   0
   0  -6   4  261.21    8.12   0
   0  -6   5  254.80    7.83   0
   4  -6   2  209.40    7.01   0
   4  -6   8   72.41    3.61   0
  -1  -5   3  493.01   10.37   0
   1  -6   1   91.48    6.37   0
   2  -5  -1  163.01    6.07   0
   5  -5   2  247.59    8.86   0
   1  -6   7   88.01    5.54   0
   2  -6   1  294.12    8.49   0
   2  -6   8  164.18    5.39   0
   3  -6   2   72.12    6.97   0
   3  -6   8   28.49    3.68   0
   4  -6   6   58.30    4.75   0
   1  -6   3   93.28    6.72   0
   1  -6   6   70.69    5.79   0
   2  -6   2  292.80    8.61   0
   4  -6   5   63.88    5.20   0
   5  -5   3  157.00    7.58   0
   1  -6   5   78.34    6.45   0
   4  -5   1   68.31    7.75   0
   3  -6   3   50.31    5.45   0
   1  -8  -6   38.75    4.76   0
  -2  -5  -3  140.50    6.90   0
   0  -8   1   81.50    5.27   0
  -2  -5  -2  357.39    9.01   0
  -1  -7   1  157.49    7.83   0
  -1  -5  -6  341.50    8.98   0
   0  -8  -4  123.27    6.12   0
   2  -8  -6  160.87    5.73   0
  -2  -5  -1  125.71    6.05   0
  -1  -7  -3  332.10    9.84   0
   0  -8   0  152.01    6.35   0
   0  -6  -7  521.06   11.51   0
  -1  -7  -2  352.03    9.96   0
  -1  -7   0   83.68    6.25   0
  -1  -6  -5  225.73    8.50   0
   1  -8  -5   54.52    5.28   0
   2  -7  -7   39.52    5.12   0
   0  -7   3   91.85    6.68   0
   3  -8  -5   38.06    4.36   0
  -1  -6  -4  209.14    8.52   0
  -1  -6   2   88.19    8.14   0
   0  -7  -5  113.07    7.37   0
   1  -8  -4   85.15    5.63   0
   0  -6  -6  603.96   11.58   0
   1  -7  -6  199.06    8.06   0
  -1  -6  -3  200.58    8.40   0
   1  -8   1   20.81    4.77   0
  -1  -6   1   54.38    7.72   0
   0  -7  -4  152.25    7.87   0
   1  -8  -3   42.50    4.05   0
  -1  -6   0  535.75   11.83   0
   1  -8  -2   39.40    5.04   0
   1  -8  -1   26.36    4.98   0
   1  -8   0   26.87    4.94   0
   1  -5  -7  375.01   11.84   0
   2  -8  -4  183.21    6.15   0
   3  -8  -4   47.33    4.59   0
   0  -7  -3  152.73    7.82   0
   0  -7   1  125.48    7.55   0
   2  -8   2  127.53    5.13   0
  -1  -5   2  830.97   14.12   0
   0  -7  -1   79.75    7.24   0
   4  -8  -2   66.67    4.93   0
   2  -8  -2  213.08    6.80   0
   4  -7  -5   12.16    4.87   0
   0  -6  -4  456.26   10.40   0
   1  -7   3  192.25    7.27   0
   2  -8   0  150.92    5.74   0
   4  -8  -1   53.13    4.37   0
   3  -8   1   53.60    4.08   0
   4  -8   0   89.11    4.46   0
   3  -8   0   45.88    4.21   0
   3  -7  -5  212.32    6.85   0
   0  -6  -3  608.32   11.27   0
   1  -7  -3  245.88    8.51   0
   2  -6  -6  271.22    8.94   0
   0  -6   2  442.73   11.34   0
   1  -6  -5   54.47    7.07   0
   0  -6  -2  745.55   12.08   0
   1  -7  -2  322.68    9.10   0
   4  -7  -4   25.50    4.79   0
   0  -6  -1  723.04   12.21   0
   0  -6   1  270.26    9.27   0
   1  -7   0  203.85    8.31   0
   2  -7   3   41.30    6.60   0
   3  -7  -4  239.88    7.46   0
   1  -6  -4  273.52    8.70   0
   2  -7  -3  105.67    6.81   0
   2  -5  -6   54.67    7.54   0
   3  -7   4   72.85    4.99   0
   5  -7  -2   91.74    4.96   0
   1  -6   4  177.13    8.29   0
   2  -6  -5  372.70    9.80   0
   4  -7  -3   64.16    5.28   0
   4  -6  -5  309.02   10.44   0
   0  -5   3  273.33    9.58   0
   2  -7  -2  111.07    6.82   0
   1  -6  -3  136.21    7.34   0
   2  -7  -1   30.50    5.88   0
   3  -6  -5   54.91    6.19   0
   5  -6  -4   48.83    6.03   0
   1  -6   3  106.13    7.68   0
   2  -7   0   50.09    6.20   0
   3  -7   3  167.40    6.31   0
   0  -5   2  179.83    7.87   0
   1  -6  -2  160.44    7.45   0
   2  -6  -4  364.45    9.58   0
   3  -7  -2  310.10    8.13   0
   3  -6   6   40.61    5.20   0
   4  -7  -2   64.31    5.97   0
   5  -7   0   56.85    4.54   0
   1  -6   2  274.27    9.11   0
   3  -7   2  190.31    6.48   0
   1  -6  -1  174.08    7.70   0
   2  -5  -5  134.13    7.68   0
   3  -7   0  215.43    7.12   0
   3  -7   1  178.75    7.13   0
   4  -7  -1   53.29    5.34   0
   4  -7   2   71.53    4.83   0
   3  -6  -4  125.99    7.28   0
   4  -7   0  103.63    5.51   0
   2  -6  -3  214.98    8.31   0
   2  -6   4  345.16    8.89   0
   5  -6  -3   55.20    5.54   0
   6  -6  -1  122.01    5.77   0
   3  -5  -5  320.92    8.98   0
   4  -6  -3  270.06    8.33   0
   5  -6   5   26.70    3.52   0
   2  -6  -1  346.77    9.27   0
   2  -5  -4  135.18    6.96   0
   4  -6   5   78.16    5.16   0
   5  -6  -2   28.12    5.17   0
   6  -6   2   60.32    3.93   0
   2  -6   0  410.25    9.52   0
   1  -5   3  514.95   10.59   0
   3  -6  -2  181.79    7.72   0
   3  -6   4   77.78    6.17   0
   3  -5  -4  309.16    8.84   0
   5  -6   4   28.14    4.04   0
   1  -5   2  659.94   10.60   0
   4  -5  -4   90.96    7.22   0
   2  -5   5  222.54    8.41   0
   3  -6   2   60.52    6.43   0
   4  -6  -1  187.61    7.85   0
   4  -5   7   25.67    4.73   0
   5  -6   0  105.07    6.51   0
   5  -6   3   47.54    4.82   0
   6  -5   6   54.82    4.07   0
   3  -6   1   50.57    6.45   0
   4  -6   3  216.56    7.21   0
   5  -6   1   45.70    5.54   0
   5  -6   2   72.04    5.30   0
   5  -5  -3  286.70    8.57   0
   3  -5   6  234.39    7.73   0
   4  -6   0  281.89    8.29   0
   4  -6   2  209.77    7.21   0
   3  -5  -3  260.80    8.30   0
   2  -5   4  183.08    7.94   0
   4  -5  -3  116.89    7.51   0
   6  -5  -1   46.24    5.40   0
   6  -5   5   57.11    3.80   0
   2  -5   3  143.26    7.10   0
   4  -5   6   31.99    5.21   0
   5  -5  -2  376.03    9.24   0
   2  -5   1  404.47    8.32   0
   4  -4  -4  658.43   12.58   0
   6  -5   4   65.26    4.42   0
   4  -5  -2  208.98    8.29   0
   4  -4   8  188.61    7.32   0
   7  -4   0   55.20    5.97   0
   4  -5   5   82.13    6.33   0
   5  -4   8   52.73    4.29   0
   6  -5   2   89.08    5.40   0
   6  -5   3   87.36    4.97   0
   6  -4  -2  145.62    7.35   0
   7  -4   5   41.08    4.00   0
   3  -5   0  354.93    8.53   0
   4  -5  -1   80.96    7.10   0
   5  -4  -3  117.63    7.78   0
   6  -4   7   92.08    4.00   0
   3  -5   1  330.65    8.41   0
   3  -5   2  281.93    8.10   0
   4  -5   4   -0.15    6.46   0
   7  -4   4   29.61    4.44   0
   4  -5   0  127.21    7.24   0
   4  -4  -3  411.47    9.22   0
   5  -5   1  271.72    8.84   0
   5  -5   2  223.66    7.80   0
   5  -5   3  173.72    7.03   0
   7  -4   3   44.49    4.21   0
   4  -5   1   67.41    6.63   0
   4  -5   3   14.40    4.64   0
   7  -3  -1  158.67    7.61   0
   4  -4   7  286.39    7.73   0
   6  -4  -1  252.33    8.10   0
   6  -4   6  141.73    4.82   0
   2  -4   4  717.83   10.52   0
   5  -4  -2   72.91    7.27   0
   5  -3   9  175.06    5.57   0
   4  -4  -2  812.37   12.00   0
   6  -4   0  264.34    8.23   0
   6  -4   5  149.00    5.51   0
   4  -4   6  247.20    7.99   0
   5  -4   6   82.92    5.98   0
   6  -3  -2  135.01    9.10   0
   6  -3   8   16.67    4.20   0
   7  -3   0  253.22    8.14   0
   3  -4   5  119.06    7.02   0
   6  -4   1  209.71    7.52   0
   6  -4   4  133.03    6.18   0
   8  -2   2  176.53    6.79   0
   6  -4   2  148.43    6.90   0
   6  -4   3  119.65    6.20   0
   7  -3   6   91.39    4.13   0
   3  -4   4  225.25    7.55   0
   4  -4   5  240.05    8.56   0
   7  -3   1  295.50    8.30   0
   8  -2   3   74.10    5.24   0
   5  -3   8  187.86    6.06   0
   7  -3   5  136.73    5.14   0
   4  -4   0  346.98    9.07   0
   6  -3  -1  120.88    7.58   0
   7  -3   4  120.11    5.29   0
   3  -3   7  293.71    8.89   0
   4  -4   1  462.72    9.48   0
   5  -4   3   85.08    7.08   0
   4  -4   2  404.53    9.18   0
   5  -3  -2  279.62    9.16   0
   6  -2   9  112.08    5.23   0
   6  -3   6   16.67    4.76   0
   7  -2   0   84.42    7.07   0
   8  -1   2   58.88    6.13   0
   7  -2   7   33.92    3.79   0
   8  -1   6   17.38    3.91   0
   5  -3  -1  254.55    9.22   0
   5  -2   9   50.07    4.89   0
   6  -3   5   17.59    5.46   0
   7  -1   9  142.93    4.32   0
   7  -2   1   40.84    6.32   0
   8  -1   3   24.92    4.64   0
   8  -1   5   35.93    3.93   0
   4  -3   6  276.55    8.49   0
   6  -3   3   32.89    6.37   0
   7  -2   6   38.30    4.38   0
   3  -3   5  580.72    9.69   0
   5  -3   5  459.99    9.68   0
   6  -2  -1  437.09   11.34   0
   7  -2   5   36.71    4.92   0
   5  -3   1  182.06    8.72   0
   5  -2  -2  192.41    8.86   0
   7  -1   8  110.14    4.52   0
   8   0   2  157.97    7.01   0
   5  -3   2  199.95    8.68   0
   5  -3   3  166.88    8.18   0
   5  -2   8   69.58    5.72   0
   4  -3   1  264.01    7.37   0
   4  -3   4  117.12    6.64   0
   4  -3   2  263.73    7.62   0
   4  -3   3  254.26    7.58   0
   6  -2   0  450.53   11.19   0
   8   0   3  140.96    6.31   0
   8   0   6  107.05    4.35   0
  -2  -1 -14   27.44    4.71   0
  -1   1 -10  196.37    7.45   0
   0  -3 -15   24.57    4.52   0
   1  -3 -14  122.67    7.89   0
  -4   0 -10  248.89    7.69   0
  -3   1  -8  455.92    9.18   0
  -2   0 -12  238.04    7.48   0
  -1   0 -12   45.52    6.53   0
   1  -1 -12  154.30    8.31   0
  -4  -3 -14   29.45    4.68   0
   0  -4 -15   56.88    5.23   0
   1  -4 -14    8.47    6.09   0
   1  -2 -13   43.19    6.70   0
   1   0 -10   37.16    7.14   0
   2  -1 -10   30.83    7.79   0
  -3   0 -11   91.00    6.23   0
  -1   1  -9  691.27    9.88   0
   0   0 -11  330.50    9.18   0
  -4  -2 -13  134.94    5.20   0
  -2  -3 -15   25.33    4.22   0
  -3  -4 -15   36.45    3.49   0
  -2  -1 -13   19.32    5.61   0
  -1  -1 -13  245.23    7.69   0
  -4  -4 -14  101.18    5.20   0
  -2  -2 -14   55.74    5.26   0
  -2   0 -11  442.64    8.88   0
  -1  -2 -14   11.18    5.18   0
  -1   0 -11  377.11    9.11   0
   1   0  -9  130.96    7.01   0
  -1  -4 -15   13.97    4.03   0
   1  -1 -11  239.14    9.33   0
   2  -1  -9   86.14    8.18   0
  -3  -1 -12  235.98    7.76   0
  -2  -4 -15   77.58    4.29   0
   0  -1 -12   25.91    5.32   0
   0   0 -10  107.08    6.93   0
  -2  -5 -15   16.47    3.40   0
   1  -2 -12   36.40    7.81   0
  -4  -3 -13   48.22    5.58   0
  -4  -2 -12  117.56    5.42   0
  -3  -3 -14   90.90    5.31   0
  -4  -1 -10   16.26    6.49   0
  -3   0  -9  186.14    6.86   0
  -2  -1 -12  111.97    6.93   0
  -2   0 -10  801.54   10.56   0
  -1  -1 -12  266.80    8.50   0
  -1   0 -10  348.37    8.39   0
  -2  -3 -14   25.10    5.05   0
  -1  -3 -14   94.73    5.94   0
   0   0  -9  303.30    7.59   0
   1  -4 -13   17.06    6.71   0
   1  -1 -10  355.36   10.08   0
  -2  -2 -13  105.07    6.56   0
  -1  -2 -13   20.01    4.74   0
   0  -5 -14   24.54    4.86   0
   0  -1 -11   97.36    7.51   0
  -3  -4 -14   21.58    3.89   0
  -4  -4 -13  103.78    5.29   0
  -1   0  -9  288.79    7.23   0
  -4  -2 -11  364.35    7.80   0
  -4  -1  -9   71.26    6.47   0
  -3  -5 -14   90.41    4.22   0
  -2  -1 -11  100.93    6.67   0
  -1  -1 -11   86.04    6.94   0
  -4  -5 -13   19.49    4.19   0
  -4  -3 -12   93.53    5.49   0
  -1  -5 -14  110.19    5.16   0
  -2  -5 -14   13.31    3.65   0
  -2  -2 -12   64.25    6.62   0
  -2  -3 -13   27.06    4.49   0
   0  -4 -13  177.80    7.70   0
   1  -4 -12   22.57    7.55   0
   0  -6 -13   78.87    5.06   0
   1  -6 -12   23.53    6.75   0
  -4  -4 -12  134.40    6.27   0
  -3  -4 -13   46.81    4.99   0
  -1  -1 -10  315.64    8.11   0
   0  -5 -13   46.87    6.21   0
   0  -2 -11  467.30   10.29   0
   1  -5 -12   77.87    7.36   0
  -3  -2 -11   81.65    7.30   0
  -3  -1  -9  863.87   10.82   0
  -4  -6 -12   86.27    4.74   0
  -4  -3 -11  104.67    5.94   0
  -3  -6 -13   38.23    3.88   0
  -3  -5 -13   81.02    4.54   0
  -2  -4 -13  124.09    6.59   0
  -1  -4 -13   28.56    6.15   0
  -2  -2 -11  208.67    7.62   0
  -1  -2 -11  190.11    7.74   0
  -2  -3 -12  141.34    7.37   0
  -1  -6 -13   27.98    3.94   0
  -1  -5 -13  146.52    6.36   0
  -1  -3 -12  143.88    7.59   0
  -4  -2  -9  329.10    8.11   0
  -2  -5 -13   60.07    5.02   0
  -2  -1  -9  112.70    5.58   0
  -3  -2 -10  115.88    7.08   0
   0  -2 -10  232.60    8.13   0
   1  -4 -11  202.72    9.87   0
   1  -2  -9  186.86    7.85   0
  -4  -4 -11  193.57    6.94   0
  -3  -4 -12   41.73    5.92   0
   1  -3 -10  288.37   10.44   0
  -4  -3 -10   26.35    5.61   0
   0  -6 -12   44.62    5.24   0
   0  -5 -12   39.12    6.74   0
  -2  -2 -10  312.78    7.91   0
  -1  -4 -12   40.27    6.70   0
  -1  -2 -10   46.15    5.80   0
   1  -5 -11  201.64    9.02   0
  -4  -6 -11  106.51    5.17   0
  -4  -2  -8  397.28    8.98   0
  -3  -6 -12   16.40    4.18   0
  -3  -5 -12  146.23    5.76   0
  -2  -7 -12   34.43    3.78   0
  -1  -7 -12   68.86    4.74   0
  -1  -3 -11   83.98    6.99   0
  -2  -3 -11   54.64    6.61   0
  -2  -5 -12   88.27    5.94   0
  -1  -6 -12   54.78    4.75   0
  -1  -5 -12   99.79    6.82   0
   0  -2  -9  450.04    9.00   0
  -4  -7 -10   54.83    4.12   0
  -4  -4 -10  131.46    6.74   0
  -2  -6 -12   71.10    5.08   0
   1  -4 -10    8.91    7.95   0
  -4  -3  -9  255.76    7.39   0
   0  -7 -11   53.94    4.51   0
  -3  -7 -11   86.71    4.29   0
  -2  -2  -9  431.23    7.90   0
  -2  -4 -11  293.07    8.83   0
  -1  -4 -11  231.09    8.27   0
  -1  -2  -9    4.46    3.40   0
   0  -5 -11   87.71    7.54   0
  -4  -6 -10  106.39    5.29   0
  -2  -3 -10   18.40    5.75   0
  -1  -3 -10  364.89    8.58   0
   1  -6 -10    1.56    6.50   0
  -3  -2  -8  164.10    6.17   0
  -2  -7 -11   14.01    4.19   0
  -4  -3  -8  222.36    7.26   0
  -2  -8 -10   85.33    4.03   0
  -2  -5 -11   30.24    5.82   0
  -1  -5 -11  113.88    7.78   0
  -4  -7  -9   84.60    4.34   0
  -4  -4  -9  325.61    8.34   0
  -2  -6 -11  211.43    6.42   0
  -1  -8 -10    8.32    3.70   0
  -1  -6 -11  124.77    5.96   0
  -3  -8  -9   69.63    3.77   0
  -3  -7 -10   77.00    4.56   0
   1  -7  -9  213.76    7.91   0
  -4  -6  -9  167.81    5.97   0
  -4  -5  -9   95.90    6.64   0
  -3  -5 -10  186.99    7.05   0
  -2  -4 -10  359.91    9.20   0
  -1  -4 -10   46.81    6.48   0
   0  -8  -9   99.78    4.82   0
  -3  -6 -10   38.54    5.37   0
  -2  -3  -9  141.80    6.25   0
  -1  -3  -9  467.58    8.63   0
   0  -6 -10  174.87    7.74   0
   1  -5  -9  305.50   10.38   0
  -4  -3  -7  241.42    7.29   0
  -1  -7 -10  197.86    6.64   0
  -4  -7  -8   61.46    4.33   0
  -4  -4  -8  241.23    7.68   0
  -2  -5 -10   62.14    6.55   0
  -1  -5 -10  273.81    8.81   0
  -2  -8  -9   80.79    3.71   0
  -2  -6 -10  226.00    6.96   0
  -1  -8  -9   20.17    4.11   0
  -1  -6 -10   43.32    6.03   0
  -3  -8  -8   36.92    3.40   0
  -3  -7  -9  167.80    5.48   0
   1  -4  -8  162.34    8.34   0
  -4  -6  -8  158.16    6.19   0
  -4  -5  -8   30.59    5.84   0
   0  -7  -9   34.84    4.98   0
  -3  -6  -9   77.30    6.26   0
  -1  -4  -9   58.20    5.95   0
   0  -8  -8  111.54    5.91   0
   1  -7  -8  167.70    7.36   0
   0  -6  -9  192.51    8.16   0
  -4  -7  -7   52.33    4.50   0
  -4  -4  -7  421.47    9.19   0
  -2  -7  -9   56.31    5.00   0
   1  -6  -8   58.35    7.79   0
  -2  -8  -8  119.66    4.37   0
  -2  -5  -9  194.43    7.34   0
  -1  -5  -9  316.87    8.91   0
  -3  -7  -8  116.02    5.52   0
  -2  -6  -9  194.13    7.29   0
  -1  -8  -8   17.67    4.17   0
  -1  -6  -9  106.37    6.37   0
  -4  -6  -7  254.29    7.12   0
  -4  -5  -7   36.04    6.05   0
  -1  -9  -6   62.55    3.56   0
   0  -7  -8   70.49    5.64   0
  -4  -7  -6   57.78    4.64   0
  -1  -4  -8  136.92    6.13   0
   0  -8  -7  160.14    5.73   0
   1  -8  -6   45.05    5.07   0
   1  -7  -7  189.95    7.64   0
  -4  -4  -6  487.71    9.70   0
  -2  -9  -5   39.00    3.60   0
  -2  -7  -8   44.10    5.17   0
  -3  -8  -6   31.03    3.71   0
  -2  -8  -7  154.63    4.97   0
  -3  -7  -7  204.44    6.74   0
  -2  -6  -8  176.34    7.58   0
  -2  -5  -8   95.02    6.13   0
  -1  -9  -5   68.47    4.37   0
  -1  -8  -7   26.59    4.22   0
  -1  -5  -8  352.47    8.75   0
   1  -6  -7  118.05    8.19   0
  -4  -6  -6  200.41    7.04   0
  -4  -5  -6   24.77    6.30   0
  -1  -6  -8  129.49    6.53   0
  -4  -7  -5  100.68    5.32   0
   0  -9  -4   47.62    3.99   0
   0  -8  -6  121.43    5.65   0
   0  -7  -7   42.57    5.55   0
   1  -8  -5   60.25    5.39   0
  -2  -8  -6  161.36    5.40   0
  -2  -7  -7  108.37    5.82   0
  -2  -4  -7  468.59    8.40   0
   1  -7  -6  208.05    7.63   0
  -1  -9  -4  111.65    4.21   0
  -4  -7  -4   75.89    5.89   0
  -4  -6  -5  205.54    7.54   0
  -3  -4  -6   99.71    5.51   0
  -2  -9  -3   44.01    3.24   0
  -4  -5  -5  114.70    6.72   0
   0  -9  -3   35.25    3.90   0
  -2  -9  -2   44.58    3.20   0
  -2  -8  -5  241.58    6.32   0
  -1  -9  -3  122.88    4.15   0
   1  -8  -4   93.96    5.70   0
  -4  -7  -3   58.86    4.90   0
  -4  -6  -4  295.52    8.24   0
   1  -7  -5  186.71    7.58   0
  -1  -9  -2  153.27    4.47   0
  -2  -6  -6  257.76    7.97   0
  -2  -5  -6  258.84    6.77   0
   0  -9  -1   31.36    4.12   0
  -4  -7  -2   60.94    4.85   0
  -2  -8  -4  247.91    6.25   0
  -1  -6  -6  183.15    7.50   0
   1  -8  -3   59.77    5.07   0
  -2  -7  -5   39.47    5.68   0
  -1  -5  -6  344.68    7.44   0
  -4  -7  -1   71.43    5.48   0
  -4  -6  -3  241.82    7.67   0
  -1  -9   0   73.26    3.66   0
  -1  -8  -4   47.56    3.48   0
   1  -5  -5  698.16   11.98   0
  -1  -7  -5  256.70    7.88   0
   1  -7  -4  224.51    7.82   0
  -1  -5   1  420.71    9.14   0
   1  -7  -3  273.83    8.78   0
   2  -6   7  133.26    5.43   0
   1  -7   3  179.86    6.72   0
   1  -5   7  345.87    9.04   0
   1  -7  -2  415.67    9.18   0
   1  -7   2  287.12    7.84   0
   2  -7   4   47.73    4.97   0
   3  -7   5   90.57    4.27   0
   0  -4   6  359.05    9.70   0
   0  -6   0  752.96   11.86   0
   0  -6   1  240.28    8.35   0
   2  -6   6  231.57    6.81   0
   2  -7   3   36.43    3.96   0
   3  -7   4   80.17    4.84   0
   1  -6   4  184.85    7.91   0
   1  -5   6  333.24    9.18   0
   0  -5   3  242.90    8.04   0
   2  -7   2   27.81    5.46   0
   1  -6  -3  146.23    7.82   0
   1  -4   7  158.17    8.28   0
   0  -5   2  182.86    7.19   0
   2  -6   5  184.28    7.23   0
   4  -7   3   39.37    3.99   0
   4  -5   8   17.86    4.48   0
   0  -5   1  299.00    7.98   0
   2  -4   8  235.74    8.34   0
   3  -7  -2  311.63    7.95   0
   5  -7   0   75.06    4.90   0
   1  -6   2  193.68    6.87   0
   4  -7   2   68.38    4.41   0
   1  -6   0  249.93    8.29   0
   3  -7   1  197.88    6.80   0
   2  -6   4  259.06    8.21   0
   4  -7   1   58.64    5.03   0
   1  -4   6   82.74    7.27   0
   2  -5   6  181.10    7.97   0
   3  -6   5   56.16    5.67   0
   3  -5   7  236.37    7.04   0
   2  -6  -3  231.03    9.11   0
   5  -6   5   24.36    3.34   0
   4  -6   5   81.35    5.05   0
   3  -4   8   88.91    7.49   0
   5  -5   7   79.56    3.99   0
   6  -6   3   84.91    4.05   0
   1  -5   3  355.76    8.05   0
   2  -6   2  337.28    9.20   0
   2  -4   7  265.11    8.94   0
   1  -4   5  226.38    8.18   0
   2  -6  -1  406.31   10.25   0
   5  -6   4   34.15    4.22   0
   6  -6   2   67.89    4.20   0
   1  -5   2  654.51   10.69   0
   3  -6  -3   74.08    7.39   0
   3  -6   3   55.02    6.53   0
   3  -5   6  235.17    7.99   0
   4  -6   4  176.43    6.55   0
   6  -6   0  139.26    5.82   0
   1  -5   1  574.51    9.83   0
   2  -5   4  183.98    8.31   0
   3  -6  -2  199.02    8.34   0
   3  -6   2   63.07    5.66   0
   4  -6   3  208.60    7.21   0
   5  -6  -2   34.03    6.31   0
   2  -4   6  372.97    9.97   0
   3  -6  -1  165.59    8.17   0
   3  -6   1   59.29    7.10   0
   3  -5   5  282.42    9.01   0
   4  -6  -2  301.08    9.20   0
   4  -6   2  217.52    7.96   0
   5  -6  -1   73.89    6.53   0
   6  -5   5   51.50    3.91   0
   2  -3   7   69.92    7.70   0
   4  -6   1  213.71    8.43   0
   5  -6   0  102.07    6.62   0
   6  -4   7   81.24    5.00   0
   3  -3   8  373.24   10.10   0
   5  -5   5  208.07    6.74   0
   2  -5  -2  456.94   10.22   0
   5  -4   7   78.37    5.54   0
   6  -5   4   77.40    4.87   0
   2  -5  -1  152.02    7.76   0
   2  -5   1  434.34    9.54   0
   3  -4   6   86.66    8.00   0
   7  -4   5   37.45    3.64   0
   7  -3   7   77.50    4.32   0
   3  -5   3  431.53   10.63   0
   4  -3   8   96.61    7.09   0
   6  -5  -2   67.05    6.28   0
   6  -5   3   98.93    5.43   0
   2  -4   4  747.17   11.57   0
   5  -3   8  193.33    7.58   0
   4  -4   6  249.57    9.46   0
   6  -5  -1   50.41    6.17   0
   6  -5   2   86.84    5.99   0
   3  -5  -2  266.94   10.03   0
   3  -3   7  232.18    9.25   0
   4  -5   3   16.24    7.42   0
   5  -5   3  174.80    7.80   0
   6  -5   0   53.15    6.23   0
   7  -4  -2   42.26    8.14   0
   7  -4   4   33.36    4.05   0
   3  -5  -1  253.33    9.54   0
   5  -5  -2  376.68   11.64   0
   5  -5   2  256.67    9.72   0
   4  -5  -2  197.94    9.86   0
   4  -5   1   74.16    8.40   0
   5  -5  -1  444.17   12.00   0
   6  -4   5  109.45    5.94   0
   6  -3   7   29.42    5.13   0
   4  -5  -1   87.85    8.67   0
   4  -4   5  270.75    9.95   0
   4  -3   7  190.89    8.86   0
   7  -4  -1   66.29    6.57   0
   7  -4   2   48.75    5.14   0
   3  -3   6  377.08   10.59   0
   6  -4   4  127.94    6.85   0
   4  -2   8  288.90    9.68   0
   6  -4  -3  156.60    9.65   0
   6  -2   8  112.15    6.03   0
   4  -4   4  522.87   12.06   0
   7  -3   5  125.05    5.46   0
   7  -2   7   33.85    4.33   0
   8  -2   5   85.34    4.79   0
   5  -4   4   51.97    7.89   0
   6  -4   3  135.76    7.42   0
   4  -3   6  268.91   10.00   0
   5  -4   3   99.61    8.53   0
   6  -4  -1  231.62   10.03   0
   7  -3   4  123.49    6.19   0
   8  -2   4   85.51    5.03   0
   3  -4   1   84.80    6.76   0
   5  -4  -3  114.95   10.09   0
   4  -4  -3  431.76   12.87   0
   4  -4   2  431.08   11.75   0
   5  -4   2  108.66    9.11   0
   6  -3   5    5.60    6.29   0
   6  -2   7  180.16    7.03   0
   4  -2   7  330.32   10.13   0
   7  -3  -2  190.24    9.17   0
   7  -3   3  123.20    6.88   0
   8  -2   3  107.81    5.87   0
   4  -4  -2  757.75   14.50   0
   4  -4   1  411.36   11.74   0
   5  -4  -1   80.78    9.84   0
   5  -3   5  468.33   11.35   0
   5  -2   7  130.27    8.17   0
   7  -3  -1  188.42    8.95   0
   7  -3   2  199.52    7.93   0
   8  -2   0  145.73    7.21   0
   8  -2   2  196.58    6.90   0
   6  -3   4   59.05    7.36   0
   7   0   8   57.09    5.49   0
   5  -3   4  348.43   10.73   0
   4  -2   6  314.82    9.93   0
   6  -3  -3   97.26    8.86   0
   8   0   6  108.67    4.96   0
   5  -2   6  108.86    8.31   0
   7  -2   4   48.04    6.12   0
   8  -1   4   52.38    4.89   0
   6  -3  -2   98.87    8.93   0
   6  -3   2   73.29    8.46   0
   6  -3   1   46.85    8.48   0
   6  -1   7   99.52    7.14   0
   6  -3  -1  110.63    9.46   0
   8  -1  -1   60.47    6.49   0
   8  -1   3   27.35    4.00   0
   4  -3   2  246.28    9.14   0
   4  -1   7  113.91    8.08   0
   5  -3  -3  379.97   13.60   0
   5  -3   2  183.34    9.74   0
   5  -1   7  208.38    8.61   0
   7   0   7   75.15    5.73   0
   8  -1   2   65.53    5.76   0
   8   0   5  101.21    5.18   0
   4  -2   5  365.31    9.74   0
   8  -1   1   47.26    5.95   0
   5   0   8  118.53    8.08   0
   6  -2   4  194.34    8.87   0
   7  -2  -1  142.77    8.71   0
   7  -2   1   41.74    7.47   0
   7  -1   5  132.82    6.78   0
   5  -3  -1  281.47   12.34   0
   8   0   4   87.79    5.42   0
   4  -2   4  657.68   11.10   0
   5  -2   4   79.71    6.05   0
   7  -1   4  155.86    7.55   0
   7   0   6  127.48    6.58   0
   8   0   3  117.20    5.95   0
   4  -1   6  140.01    7.48   0
   5  -1   6  280.44    8.96   0
   6   0   7  338.18    9.30   0
   6   1   8  107.35    7.33   0
   7   1   7  212.81    7.14   0
   8   0   2  190.71    6.81   0
   5  -2   3  184.71    8.36   0
   6  -2  -2  214.48    9.95   0
   7  -1   3  155.16    8.08   0
   8   0   1   76.83    6.21   0
   5   0   7  233.39    8.38   0
   6  -2  -1  440.05   12.15   0
   8   1   4   42.49    4.65   0
   5  -2   2  148.40    7.95   0
   7  -1   1  301.54   10.07   0
   7   2   7   27.43    4.96   0
   6   0   6  455.27   10.02   0
   8   1  -1   31.99    5.51   0
   5  -2  -3  102.59    9.20   0
   5  -2   1  173.49    8.39   0
   7   0   4  138.83    7.37   0
   5  -2  -2  210.42    9.72   0
   5  -2   0  347.95   10.54   0
   6   1   7   94.82    7.00   0
   8   1   1   37.45    5.30   0
   5  -2  -1   66.47    7.81   0
   6  -1   3  147.40    7.93   0
   7   0  -3   58.80    7.17   0
   7   3   7  205.96    6.32   0
   3   6  -1   66.72    7.00   0
   5   2  -1  112.68    6.82   0
   5   3  -1  254.86    8.71   0
   5   4  -2   58.33    7.09   0
   3   6  -7   19.38    4.23   0
   3   6  -2   34.32    6.68   0
   4   5  -1  135.08    7.64   0
   5   4  -7   36.67    6.01   0
   1   6  -1   60.45    6.61   0
   4   4   0  462.66    9.19   0
   4   5  -8   14.98    4.22   0
   3   6  -3   76.45    6.94   0
   5   4  -6    2.37    5.08   0
   2   6  -8   27.16    4.58   0
   3   6  -6   14.32    4.98   0
   3   6  -5   16.64    5.46   0
   3   6  -4   71.34    6.60   0
   5   3  -2  357.38    9.42   0
   5   4  -5   53.87    6.84   0
   5   4  -4  110.65    7.32   0
   2   6  -2  349.68    8.99   0
   4   5  -7   19.40    4.82   0
   5   2  -2  167.12    7.69   0
   5   3  -8  114.38    6.92   0
   1   6  -8   32.35    5.42   0
   4   5  -6   75.62    6.31   0
   4   5  -5   46.57    6.40   0
   4   5  -4   90.75    7.21   0
   5   3  -3  346.39    9.39   0
   1   6  -3   42.44    7.41   0
   2   6  -6  111.75    6.31   0
   2   6  -5   97.61    6.62   0
   2   6  -4  142.28    7.37   0
   3   4   0  492.74    8.50   0
   3   5  -9   41.81    4.67   0
   5   2  -3  132.06    7.84   0
   5   3  -4  180.95    8.25   0
   1   6  -7   22.89    5.18   0
   1   6  -4   51.12    7.53   0
   3   5  -2  322.91    9.36   0
   4   4  -9   71.17    5.51   0
   4   4  -2  431.72    9.98   0
   5   3  -6  301.57    8.99   0
   5   3  -5  196.56    8.42   0
   1   6  -6   27.92    6.40   0
   1   6  -5   15.25    6.81   0
   5   2  -8   36.74    7.55   0
   5   2  -4  191.28    8.75   0
   2   5 -10    2.33    4.30   0
   3   5  -3  336.56    9.58   0
   4   4  -8   40.49    5.78   0
   5   2  -7   29.40    6.77   0
   5   2  -5  129.36    8.12   0
   3   4  -1  242.28    7.06   0
   3   5  -7   96.68    6.74   0
   3   5  -4  159.22    8.50   0
   4   4  -4  208.63    8.81   0
   5   2  -6   -5.35    6.82   0
   3   5  -6  142.84    7.69   0
   3   5  -5  153.04    8.23   0
   4   3 -10   19.49    5.23   0
   4   3  -2  175.87    7.17   0
   4   4  -7  121.08    7.17   0
   4   4  -5   92.47    7.94   0
   4   4  -6   81.24    6.13   0
   1   5 -10   80.39    5.48   0
   1   5  -2  888.02   10.83   0
   3   4 -10   -2.38    4.59   0
   4   2 -11   45.01    5.99   0
   0   5 -10   11.34    5.47   0
   2   5  -3   37.53    6.56   0
   3   4  -2  148.28    6.82   0
   2   5  -8   21.09    5.77   0
   0   5  -3  264.27    9.12   0
   2   5  -4   17.46    6.79   0
   1   5  -9   52.98    5.67   0
   2   4 -11   53.83    5.00   0
   2   5  -7   23.54    6.64   0
   2   5  -6   20.78    7.10   0
   2   5  -5   99.53    7.84   0
   3   4  -9   22.58    5.67   0
   3   4  -3  151.31    7.33   0
   4   2 -10   93.04    6.99   0
   4   2  -3  818.91   11.31   0
   0   5  -9   64.32    5.61   0
   1   5  -4  533.48   10.44   0
   3   3 -11   38.48    5.41   0
   3   4  -8   35.04    7.00   0
   3   4  -4  263.34    8.87   0
   4   1 -11   45.47    6.81   0
   3   4  -7   21.20    6.95   0
   3   4  -5   87.87    8.01   0
   0   4 -12   40.84    4.98   0
   1   5  -7  182.48    8.30   0
   1   5  -6  119.74    7.88   0
   1   5  -5  272.80    9.02   0
   3   4  -6   21.26    7.41   0
   4   2  -4  768.83   11.86   0
   2   4 -10   52.56    6.03   0
   4   2  -9  203.41    8.78   0
   2   4  -3  902.14   10.99   0
   3   1 -13   64.94    6.50   0
   4   2  -5  493.08   10.88   0
   2   3 -12   18.89    4.75   0
   4   1 -10   57.13    7.58   0
   4   2  -7  550.60   12.13   0
   4   2  -6  323.26   10.21   0
   1   3 -13   35.74    4.54   0
   2   4  -9  135.19    7.97   0
   2   4  -4  658.44   10.77   0
   3   3  -9  102.71    8.04   0
  -1   4 -11   32.58    5.23   0
   0   4 -11  119.33    6.56   0
   2   4  -8  178.66    8.90   0
   2   4  -5  366.58    9.62   0
   4   1  -9   43.48    7.68   0
   4   1  -5  366.88   10.15   0
   1   4 -10   -0.66    6.16   0
   2   2 -13   35.66    5.07   0
   2   4  -7  419.52   10.69   0
   3   0 -13   51.14    7.81   0
   3   3  -8  285.37    9.86   0
   3   3  -5  500.04   10.40   0
   4   1  -8   48.55    8.29   0
   3   3  -7  178.49    9.16   0
   3   3  -6  528.09   11.43   0
   4   1  -7  107.28    9.12   0
   0   3 -13   48.61    4.75   0
   1   4  -9   62.42    7.66   0
   3   1 -12   81.75    7.03   0
  -1   3 -13   42.41    4.89   0
  -1   4 -10   45.19    6.63   0
   0   4 -10   56.78    6.72   0
   1   3 -12   53.31    5.96   0
   2   3 -10   34.21    7.07   0
   0   4  -9  107.85    7.78   0
   2   2 -12   69.86    6.89   0
   3   2  -9  208.50   10.00   0
   0   2 -14   25.73    4.33   0
   2   3  -9   60.74    7.98   0
   3   0 -12   41.76    7.13   0
   3   1 -11  178.53    8.82   0
  -1   4  -8   35.70    7.90   0
   0   4  -8  179.04    8.69   0
   0   4  -5  419.08    9.07   0
   1   3 -11  168.94    8.08   0
   2   0 -14   57.51    5.94   0
  -1   4  -7  125.37    7.60   0
   0   4  -7  322.90    9.72   0
   1   2 -13    9.63    5.25   0
   2   3  -5  526.89    9.44   0
  -1   2 -14   22.89    4.30   0
  -1   3 -12  149.57    6.74   0
   0   1 -15   14.77    4.07   0
   2   2 -11  165.04    8.73   0
   2   3  -7  139.32    8.38   0
   2   3  -6  364.69    9.26   0
   3  -1 -12  149.92   10.15   0
   3   1 -10  201.92   10.00   0
   1   1 -14   52.40    5.54   0
   1   3 -10  286.30    9.80   0
   3   0 -11   25.78    8.28   0
   2  -1 -14   32.74    6.51   0
  -2   3 -11   25.97    5.31   0
   1   2 -12    6.96    6.40   0
   1   3  -9  236.38    9.91   0
   2  -2 -14   70.52    8.95   0
   2   1 -12   19.11    7.13   0
  -1   3 -11   81.66    6.89   0
   3  -1 -11  221.42   11.40   0
   3   1  -7  445.97   10.74   0
   1   3  -8  391.55   10.53   0
   3   0 -10   18.69    8.27   0
  -2   2 -13   73.18    5.98   0
   1  -1 -15   49.91    5.98   0
   1   3  -7  493.09   10.51   0
   1   3  -6  424.00    9.07   0
  -1   2 -13   20.31    5.31   0
   0   1 -14   20.38    4.95   0
   1   1 -13   72.12    7.03   0
   1   2 -11   50.08    7.68   0
   2   2  -8  335.24    9.94   0
   3   0  -9  380.33   11.87   0
   0   0 -15   48.36    4.95   0
   1   0 -14   29.86    5.77   0
   2   2  -7  576.99   10.70   0
   3  -1 -10  261.92   11.49   0
  -3   1 -14   66.71    5.99   0
   0   2 -12  156.53    7.98   0
   1  -2 -15   67.84    7.53   0
   3   0  -8   74.61    8.95   0
   0   3  -8   41.92    7.43   0
   2   0 -12  186.09    9.51   0
  -1   1 -14   47.52    5.02   0
   0   3  -7  148.09    7.38   0
   1   2 -10   14.18    5.96   0
   2   1 -10   88.94    8.93   0
   3  -1  -9  421.15   12.79   0
  -2   1 -14   52.97    5.63   0
  -1  -1 -16   44.45    4.23   0
   1   1 -12   81.46    8.09   0
   2  -2 -13  110.83    8.70   0
  -2   2 -12   65.10    6.05   0
  -1   0 -15   19.12    4.26   0
   0   2 -11  392.71   10.48   0
   1   2  -9  159.32    8.80   0
   2   1  -9   58.20    7.88   0
  -1   3  -7  496.34   10.29   0
   0   1 -13   25.79    5.05   0
   1   0 -13   32.47    7.22   0
   2   0 -11  608.40   13.49   0
   0  -1 -15   28.61    5.26   0
   1   2  -8  163.63    7.90   0
   2  -1 -12   29.64    7.99   0
   2   1  -8  195.30    8.45   0
   0   0 -14   79.72    6.40   0
  -1  -2 -16   19.10    4.15   0
  -1   2 -11  129.28    8.17   0
   0   2 -10  218.60    9.27   0
  -3   1 -13  143.27    6.01   0
  -2   2 -11   88.24    6.97   0
  -1   1 -13  119.66    7.13   0
   1  -2 -14   35.78    6.98   0
   2   0 -10  232.39   10.32   0
   0   1 -12    1.00    7.21   0
   2  -1 -11   58.49    8.80   0
   0   2  -9  314.78    9.39   0
   1   0 -12   30.60    8.07   0
   1   1 -10  333.29   10.20   0
  -2  -2 -16   46.71    4.50   0
  -1  -1 -15   90.07    5.48   0
  -1   0 -14   24.07    5.49   0
  -3   0 -14   47.26    5.54   0
  -2   2 -10  164.72    7.96   0
   0   0 -13  152.31    8.38   0
   0   2  -8  667.25   10.61   0
  -3  -1 -15   45.81    5.07   0
  -1   1 -12  292.68    9.24   0
   0  -3 -15   28.10    5.64   0
   0  -1 -14   52.45    6.76   0
   1   1  -9  300.04    9.17   0
   2  -2 -11  312.56   11.56   0
   2  -1 -10   30.14    8.58   0
  -3   1 -12  161.83    7.29   0
  -2  -1 -15    6.08    4.07   0
  -1   2  -9   45.95    7.24   0
   1   0 -11   96.33    8.59   0
  -2   1 -12   65.61    6.90   0
   1  -2 -13   48.44    7.75   0
  -2   2  -9  408.95    9.60   0
  -1  -2 -15   25.27    5.20   0
  -1   2  -8   45.95    5.92   0
   0   0 -12  119.54    8.27   0
   0   1 -10  172.43    8.28   0
   1  -3 -13  232.11    9.47   0
   2  -1  -9   91.20    8.11   0
  -4  -1 -14   21.10    5.49   0
  -1   1 -11  123.52    7.98   0
   0  -2 -14  180.40    8.01   0
   1   0 -10   36.72    7.26   0
   2  -2 -10   71.03    9.12   0
  -2   2  -8  229.80    7.78   0
  -3   0 -13   64.30    5.59   0
  -3   1 -11  186.54    7.23   0
  -1  -3 -15   56.72    5.34   0
  -3  -2 -15   28.54    4.00   0
  -2  -2 -15   59.83    4.89   0
  -2   1 -11  126.11    7.52   0
  -1  -4 -15   10.38    4.30   0
   0  -3 -14   31.31    6.86   0
   0   1  -9  129.52    6.86   0
   1  -2 -12   47.54    8.47   0
  -2  -1 -14   26.02    5.17   0
   0  -4 -14  103.07    7.04   0
   0   0 -11  349.12    9.88   0
   1   0  -9  134.81    7.14   0
  -4   0 -12   69.52    5.33   0
  -1   0 -12   49.39    7.14   0
  -3   1 -10  126.56    6.75   0
  -2  -3 -15   25.50    4.50   0
  -1  -1 -13  215.50    8.02   0
   0  -1 -12   35.63    7.57   0
   1   1 -14   52.20    4.99   0
   1   3  -9  262.39    9.59   0
   2   1 -13   23.24    5.47   0
   2   2 -11  164.68    8.07   0
   4   1  -7   84.91    9.02   0
  -1   3  -8  300.04    9.56   0
  -1   3  -7  588.29   11.46   0
   0   3  -9  156.68    8.00   0
   1   0 -15   43.16    4.21   0
   1   2 -12   16.55    5.97   0
   3   2  -8  135.28    8.75   0
  -1   1 -14   72.62    5.00   0
  -1   2 -12   21.14    5.36   0
   3   1 -11  182.46    8.18   0
   0   1 -14   14.99    4.35   0
   0   3  -8   33.06    6.36   0
   1   3  -6  314.10    8.01   0
   2   0 -14   61.32    5.28   0
   3   2  -7   50.28    5.82   0
   3   2  -6  164.20    7.92   0
  -2   1 -13   28.27    5.31   0
   0   3  -7  141.58    6.94   0
   2   2 -10  138.53    8.37   0
  -2   2 -10  164.11    7.94   0
  -1   0 -15   19.46    4.12   0
   0   0 -15   57.98    4.27   0
   1   2 -11   55.52    7.13   0
   4   0  -9  329.63   11.21   0
  -1   2 -11  101.94    6.73   0
   1   1 -13   72.52    6.02   0
   3   0 -12   63.92    6.55   0
   0   2 -11  427.74    9.92   0
   2   2  -9  185.84    8.78   0
   3  -1 -13  117.14    6.82   0
  -2   0 -14  199.05    6.59   0
   1   2 -10   19.54    7.32   0
   3   1  -9  463.55   11.24   0
  -2  -1 -15   19.64    5.70   0
  -2   1 -12   82.72    6.17   0
  -1   2 -10   84.76    6.63   0
   1  -1 -15   53.74    4.58   0
   1   0 -14   32.29    3.89   0
   2   0 -13  154.08    6.98   0
   2   2  -7  643.72   10.73   0
   0   2 -10  215.68    8.51   0
   2  -1 -14   22.22    5.33   0
   2   1 -11   65.23    7.55   0
   1   1 -12   76.79    5.63   0
   3  -2 -13   26.15    7.01   0
  -1   0 -14   20.41    4.78   0
   0   0 -14   87.93    5.54   0
   3   1  -7  443.32   10.53   0
  -1   1 -12  299.77    8.28   0
   0  -1 -15   25.99    4.30   0
   0   1 -12    9.22    6.51   0
   2   1 -10   86.79    8.03   0
  -2   1 -11  106.74    6.82   0
  -1  -1 -15   79.14    4.93   0
   1   2  -7  237.87    7.25   0
   2   0 -12  188.91    8.42   0
   3   0 -10   18.48    7.49   0
  -2   0 -13  261.66    7.42   0
   1   0 -13   41.09    6.11   0
   1   1 -11  197.51    8.79   0
   3  -3 -13   60.99    6.98   0
   1  -2 -15   62.16    4.88   0
  -1   1 -11  113.14    7.10   0
   1  -1 -14   90.15    5.95   0
   2  -1 -13   46.65    6.50   0
  -2  -1 -14   34.18    6.71   0
  -2   1 -10  126.63    7.23   0
  -1   0 -13   39.97    5.82   0
   0   0 -13  175.10    7.37   0
   3  -1 -11  243.21    9.32   0
   3   0  -9  478.52   11.67   0
   1   1 -10  285.36    9.40   0
   2   0 -11  552.19   11.69   0
   2   1  -8  219.93    8.20   0
   3  -2 -12   24.37    6.77   0
   1   0 -12   32.52    6.97   0
  -2   1  -9  193.80    7.57   0
   0  -1 -14   60.72    5.70   0
   1  -3 -15  110.73    5.39   0
   2  -3 -14   34.89    5.57   0
   1   1  -9  280.62    8.63   0
   3  -1 -10  308.68   10.41   0
   2  -4 -14   87.87    6.22   0
   2  -1 -12   16.55    5.63   0
   2   0 -10  227.61    9.26   0
  -1   0 -12   56.72    6.82   0
   1  -4 -15   29.89    4.46   0
   1  -2 -14   43.60    5.73   0
  -2  -3 -15   29.23    4.50   0
  -1   1  -9  728.94   10.30   0
   0   1  -9  152.49    6.90   0
   1   0 -11   96.17    7.98   0
   1   1  -8  405.51    8.67   0
   3  -4 -12   32.16    7.21   0
  -2  -1 -13   14.92    5.92   0
  -2   0 -11  419.40    9.09   0
   0  -3 -15   32.06    4.65   0
   3  -1  -9  401.53   11.39   0
  -2  -2 -14   70.34    6.05   0
   0  -1 -13   66.73    6.86   0
  -1  -3 -15   61.90    4.87   0
   0  -2 -14  165.24    6.74   0
   1  -3 -14  157.04    7.04   0
   1  -1 -12  170.85    8.72   0
   2  -3 -13   35.29    7.10   0
  -2  -4 -15   76.57    4.39   0
   0  -4 -15   56.82    4.62   0
   1   0 -10   33.88    5.47   0
   3  -3 -11  137.84    8.68   0
   3  -2 -10   55.04    8.49   0
  -2   0 -10  781.31   11.18   0
   0  -5 -15   15.05    3.86   0
   1  -2 -13   45.93    7.14   0
  -2  -1 -12  109.98    6.89   0
  -1  -4 -15   12.94    4.17   0
   2  -5 -13   27.81    6.65   0
   2  -4 -13  126.50    7.68   0
  -1  -5 -15   50.45    3.69   0
   0  -1 -12   40.44    7.59   0
   1  -4 -14   11.00    5.31   0
  -2  -3 -14   17.10    5.40   0
  -1   0 -10  354.05    8.62   0
   0  -3 -14   32.40    5.62   0
   3  -2  -9  148.01    9.63   0
   0  -2 -13  203.59    8.31   0
   2  -3 -12   55.82    7.99   0
   3  -3 -10  183.72   10.05   0
  -3  -2 -12   64.66    6.89   0
  -3  -3 -13   74.38    5.43   0
   0   0  -9  319.54    7.83   0
   1  -3 -13  249.65    8.89   0
   1  -2 -12   34.56    7.64   0
  -2  -1 -11   98.00    6.90   0
  -2  -4 -14   73.69    5.37   0
   0  -6 -14   42.77    3.77   0
   2  -4 -12  206.05    9.06   0
   3  -4 -10   40.20    8.15   0
   3  -2  -8   31.03    8.18   0
  -1  -4 -14   17.71    5.25   0
   0  -3 -13   25.52    6.33   0
   0  -2 -12  261.77    9.17   0
   1  -4 -13   22.87    6.53   0
   2  -5 -12    8.48    6.64   0
   2  -2 -10   65.83    8.57   0
   2  -1  -8  160.09    7.77   0
   3  -3  -9  255.03   11.17   0
  -2  -5 -14   14.89    4.05   0
  -2  -3 -13   37.07    6.47   0
  -2  -2 -12   74.32    7.11   0
  -1  -6 -14   20.94    3.69   0
  -3  -4 -13   48.72    5.35   0
  -1  -5 -14  109.75    5.34   0
  -1  -3 -13  213.35    7.79   0
  -1  -2 -12   24.76    6.70   0
   1  -5 -13   91.66    6.47   0
   1  -2 -11  198.63    9.28   0
  -2  -1 -10   58.57    6.04   0
   0  -1 -10  279.84    8.49   0
   1  -1  -9  304.89    8.51   0
  -3  -3 -12  120.91    7.00   0
   3  -4  -9   76.27    9.96   0
   0  -4 -13  133.90    7.32   0
   2  -2  -9  610.88   12.30   0
   3  -3  -8  369.23   12.93   0
   0  -2 -11  417.15   10.12   0
   2  -6 -11  120.73    7.43   0
  -2  -4 -13  124.30    7.01   0
  -2  -2 -11  223.32    8.21   0
  -1  -4 -13   33.95    6.31   0
   0  -3 -12   12.36    6.97   0
   1  -4 -12   19.92    7.83   0
   1  -2 -10  145.25    8.17   0
   2  -5 -11   21.26    7.66   0
   0  -5 -13   31.22    4.60   0
  -3  -2 -10   99.99    7.27   0
  -2  -3 -12  145.01    8.11   0
   1  -5 -12   92.84    7.77   0
  -3  -4 -12   34.66    5.46   0
  -1  -6 -13   28.35    4.17   0
  -1  -5 -13  151.97    6.70   0
  -3  -3 -11  187.42    9.04   0
   2  -4 -10   89.97    9.43   0
   0  -2 -10  196.45    7.88   0
   2  -3  -9  313.82   10.89   0
   0  -7 -12    9.32    3.81   0
   1  -4 -11  169.51    9.70   0
   1  -2  -9  142.16    7.24   0
   2  -6 -10  143.01    8.16   0
  -3  -6 -12   12.57    4.53   0
  -3  -5 -12  173.13    6.80   0
  -2  -4 -12   87.01    7.32   0
  -2  -2 -10  401.92    9.06   0
  -1  -4 -12   33.79    5.30   0
   0  -6 -12   56.64    5.51   0
   0  -5 -12   39.17    6.79   0
   1  -3 -10  368.42   10.80   0
  -2  -7 -12   25.76    3.75   0
  -2  -3 -11   30.37    7.00   0
  -1  -3 -11  118.49    7.78   0
   2  -4  -9  480.90   12.78   0
  -2  -6 -12   68.74    5.23   0
  -1  -6 -12   63.90    5.16   0
  -1  -5 -12   87.63    7.15   0
   2  -3  -8  256.81    9.82   0
  -3  -3 -10  289.35    9.31   0
   0  -4 -11  248.10    9.37   0
   0  -3 -10  129.75    7.49   0
   1  -8  -9   89.60    6.02   0
   1  -4 -10    9.97    8.01   0
   2  -6  -9  254.44    9.91   0
   2  -5  -9   62.59    9.13   0
  -4  -6 -10  111.57    6.61   0
   1  -7 -10  112.01    6.51   0
   1  -3  -9  286.16    9.68   0
  -3  -6 -11   27.32    5.14   0
  -3  -5 -11  218.72    7.12   0
   0  -5 -11   78.14    7.92   0
  -2  -3 -10   21.13    6.24   0
  -1  -3 -10  406.10    9.08   0
   0  -6 -11  154.06    7.35   0
   2  -7  -8   88.95    7.15   0
  -2  -7 -11   12.18    4.25   0
  -1  -7 -11   74.01    5.61   0
  -3  -4 -10   62.01    6.69   0
  -1  -8 -10    7.54    4.64   0
  -4  -7  -9   89.37    5.26   0
  -3  -3  -9  457.63   10.06   0
  -2  -6 -11  246.52    7.02   0
  -1  -6 -11  127.92    6.16   0
   2  -6  -8  181.17    9.47   0
   0  -3  -9   88.89    6.38   0
   1  -8  -8   63.87    5.74   0
  -3  -8  -9   54.57    3.88   0
   1  -7  -9  166.87    7.22   0
  -3  -5 -10  189.91    6.87   0
  -1  -4 -10   36.39    5.04   0
   0  -5 -10  185.23    8.85   0
   2  -7  -7   37.31    6.52   0
  -4  -6  -9  174.19    6.52   0
  -2  -3  -9  146.66    6.63   0
  -1  -3  -9  499.96    8.81   0
   1  -6  -9   90.02    8.58   0
   2  -4  -7  501.57   12.11   0
  -2  -7 -10   31.79    4.80   0
  -1  -7 -10  188.72    6.69   0
  -1  -8  -9   22.42    4.32   0
  -1  -5 -10  295.18    9.05   0
  -4  -7  -8   73.39    5.21   0
  -3  -4  -9  124.09    7.30   0
  -2  -8  -9   70.01    3.62   0
  -2  -6 -10  229.89    7.39   0
  -1  -6 -10   34.86    5.62   0
   2  -6  -7  309.62   10.63   0
   2  -5  -7   28.24    7.98   0
   0  -7  -9   41.73    5.20   0
   1  -8  -7   84.77    5.44   0
   1  -7  -8  174.49    7.73   0
  -3  -8  -8   39.79    3.74   0
  -3  -7  -9  169.40    5.51   0
  -1  -4  -9   56.30    5.91   0
   0  -6  -9  186.90    8.07   0
   0  -5  -9   78.34    7.55   0
  -4  -5  -8   28.48    6.09   0
  -3  -6  -9   77.16    5.76   0
  -3  -5  -9  266.08    7.32   0
   1  -6  -8   47.70    6.10   0
   2  -2   8  228.15    5.60   0
   2   1  11  109.95    5.29   0
   3   1  12  204.81    5.18   0
   4  -1  11   56.36    4.06   0
   5   0  12   37.58    2.86   0
   3  -2   9  149.49    5.56   0
   3   2  12   63.79    3.76   0
   6  -3   6   14.11    3.77   0
   2  -1   9  183.52    5.78   0
   2   0  10  800.77    9.77   0
   3  -1  10  127.60    5.60   0
   4  -3   7  182.75    6.12   0
   3  -3   6  365.48    7.08   0
   4  -2   9  215.86    6.05   0
   4   1  12   56.78    4.02   0
   5  -2   9   49.03    4.09   0
   6  -3   5    1.90    4.94   0
   6   0  11  119.21    3.70   0
   7   0  10   42.04    2.99   0
   3  -2   8  250.67    6.50   0
   4   2  12  110.75    4.15   0
   6  -2   8  111.38    4.25   0
   3  -3   5  553.50    8.44   0
   4  -3   6  267.36    7.23   0
   4  -1  10   31.09    4.71   0
   4   0  11  252.51    6.11   0
   5   2  12   27.96    3.78   0
   2   1  10   60.83    5.64   0
   3   1  11  273.37    6.76   0
   2  -1   8   38.39    4.18   0
   3  -1   9  644.58    9.00   0
   4  -2   8  310.36    7.26   0
   5  -2   8   69.45    5.09   0
   2   0   9  965.53   10.50   0
   3   2  11   81.26    5.31   0
   4  -3   5  327.58    8.17   0
   6   1  11   52.12    3.38   0
   3  -2   7  197.99    6.06   0
   6  -2   7  176.62    5.48   0
   6  -1   9   72.37    4.19   0
   7   1  10   70.14    3.23   0
   4   1  11  121.36    5.72   0
   6   0  10  119.39    4.65   0
   7  -2   5   38.44    4.26   0
   4  -1   9   24.37    5.10   0
   5  -3   4  310.48    8.46   0
   5  -1   9  187.53    5.89   0
   6   2  11  106.81    4.09   0
   6   3  11   28.00    3.88   0
   4  -3   4  128.82    6.66   0
   4  -2   7  380.98    8.07   0
   4   0  10  249.33    6.73   0
   5   0  10   72.44    4.94   0
   3  -1   8  452.88    8.05   0
   4   2  11  353.95    7.01   0
   7  -2   4   41.06    5.25   0
   7  -1   7  145.08    4.54   0
   7   2  10   20.40    2.76   0
   5   2  11   45.37    5.19   0
   6  -1   8   65.39    4.86   0
   3   0   9  161.01    6.37   0
   6   1  10   69.83    4.34   0
   3   2  10  107.57    6.21   0
   5  -2   6   96.26    6.27   0
   5  -1   8  190.46    6.42   0
   7   0   8   53.44    3.78   0
   4   0   9  233.80    6.94   0
   6  -2   5  219.39    6.87   0
   5   0   9  104.58    5.66   0
   6  -1   7  114.00    5.84   0
   7   2   9   26.60    3.45   0
   8   0   5  104.39    4.41   0
   3   1   9  849.86   10.62   0
   4   2  10  174.99    6.87   0
   6   3  10   23.03    3.84   0
   8   2   7   73.53    3.41   0
   3   0   8   36.67    3.77   0
   4  -2   5  386.43    8.14   0
   4  -1   7  119.34    5.97   0
   5  -2   5   22.06    4.33   0
   5   2  10   79.04    6.37   0
   6  -2   4  198.23    7.28   0
   6   1   9   75.45    5.24   0
   7  -1   5  134.22    5.77   0
   7   0   7   76.27    4.68   0
   4   3  10   22.46    4.35   0
   5   3  10  194.87    6.69   0
   7   1   8   96.80    4.72   0
   8   0   4   89.61    5.22   0
   8   1   6   26.85    3.09   0
   4   0   8  476.93    8.30   0
   5   1   9  185.48    6.69   0
   6  -2   3  189.91    7.92   0
   5  -2   4  114.32    6.63   0
   6   2   9  116.01    5.11   0
   7  -1   4  146.31    6.01   0
   7   4   8   24.17    3.59   0
   8   0   3  125.34    5.36   0
   6   4   9   97.23    4.64   0
   7   0   6  134.26    5.70   0
   7   2   8   13.59    3.96   0
   4  -1   6  129.93    5.66   0
   5  -1   6  287.46    7.35   0
   6   0   7  346.33    7.80   0
   7   3   8   81.56    4.05   0
   8   0   2  155.02    7.08   0
   4   2   9  365.44    8.30   0
   6  -1   5  100.32    6.35   0
   6   1   8   98.64    5.73   0
   7  -1   3  193.34    7.73   0
   5  -2   3  212.37    7.64   0
   4   0   7  462.93    7.96   0
   4   3   9  270.71    7.21   0
   5   0   7  201.12    6.54   0
   5   3   9  157.06    7.21   0
   8   1   4   39.77    3.90   0
   4   1   8  139.04    6.16   0
   5  -2   2  161.27    8.66   0
   6   2   8  140.54    5.82   0
   7   2   7   25.82    4.26   0
   8   3   5   58.85    3.56   0
   6  -1   4  229.81    7.42   0
   7   1   6  150.91    5.74   0
   8   1   3   50.27    4.33   0
   6   4   8  115.11    5.17   0
   8   2   4  206.12    5.67   0
   5   2   8   96.70    6.65   0
   3   3   8  247.24    7.20   0
   4   2   8  392.13    8.34   0
   5   0   6  128.00    5.75   0
   8   1   2   31.42    4.39   0
   4   0   6  568.49    8.13   0
   5  -1   4  453.73    8.58   0
   5   1   7  257.81    7.07   0
   7   2   6   60.18    4.70   0
   8   1   1   48.39    5.63   0
   4   1   7   98.29    5.17   0
   5   3   8  248.75    7.97   0
   5   4   8  110.05    7.21   0
   6   0   5  320.14    7.90   0
   6   2   7  290.08    7.23   0
   8   2   3  259.24    5.89   0
   4   3   8  252.72    7.87   0
   7   3   6   97.28    4.67   0
   7   5   5  128.97    4.89   0
   8   3   3   64.70    3.85   0
   6  -1   2  183.10    7.31   0
   6   4   7  205.67    6.26   0
   5  -1   3  475.33    8.73   0
   5   0   5   60.17    5.11   0
   5   2   7  156.80    6.68   0
   7   0   2  187.21    7.14   0
   7   1   4  220.38    6.94   0
   7   2   5   59.97    5.15   0
   8   2   1  139.04    5.43   0
   8   2   0  208.42    6.27   0
   6  -1   1   53.70    6.61   0
   6   2   6  334.24    7.93   0
   6   5   6   71.59    4.71   0
   7   3   5  167.52    5.52   0
   7   4   5   95.68    4.15   0
   5   3   7  233.27    7.70   0
   6   1   5  218.74    7.19   0
   7   0   1   71.27    6.20   0
   5   4   7   75.78    6.37   0
   4   3   7  263.65    8.25   0
   5  -1   2  647.41   10.23   0
   6   3   6    6.33    5.50   0
   7   0   0   86.99    6.77   0
   4   4   7  360.44    8.82   0
   7   5   3  130.32    5.45   0
   5   2   6   93.11    5.85   0
   7   1   2  442.53    8.37   0
   5   1   5  782.49   10.10   0
   6   1   4  223.35    7.24   0
   7   2   3   83.41    5.46   0
   7   5   2   87.53    4.49   0
   6   3   5  134.99    6.62   0
   7   3   3  454.83    7.53   0
   7   2   2  114.33    5.89   0
   5   2   5   57.41    5.36   0
   6   0   1  581.65   10.78   0
   6   1   3  200.15    7.21   0
   6   2   4  300.20    8.39   0
   7   1   0  178.66    7.14   0
   4   4   6  458.06   10.29   0
   5   1   4  416.04    8.18   0
   6   5   4  122.43    5.39   0
   7   3   2  402.55    7.74   0
   7   5   0   81.79    4.61   0
   5   5   5  284.03    7.76   0
   6   6   2  115.92    6.12   0
   7   1  -1  201.45    7.13   0
   6   3   4  122.52    6.49   0
   5   3   5  327.14    8.01   0
   5   4   5   24.70    6.27   0
   6   0   0 1449.13   15.33   0
   6   1   2  149.63    7.08   0
   7   3   1  136.08    6.59   0
   7   4   1   17.46    4.24   0
   6   2   3  453.66    9.00   0
   6   6   1  120.27    5.11   0
   7   2  -4   62.14    5.99   0
   7   2  -1  146.35    6.46   0
   7   3  -4  133.69    7.16   0
   4   5   5  108.75    6.40   0
   7   2  -3   86.15    6.10   0
   7   2  -2   86.66    5.79   0
   7   4  -2   31.24    4.63   0
   7   4  -1   38.67    4.52   0
   4   3   5  261.79    7.07   0
   5   6   3   93.03    5.84   0
   6   3   3  113.75    6.38   0
   6   4   3  398.46    8.12   0
   7   3  -1  174.76    6.43   0
   6   2   2  318.45    8.65   0
   5   3   4  218.46    7.63   0
   5   1   2  891.35   10.67   0
   5   2   3  272.01    7.32   0
   6   1   0  250.82    8.33   0
   6   3   2   65.15    6.27   0
   5   0   0  308.30    7.91   0
   5   6   2   79.66    6.41   0
   6   2   1  342.71    9.32   0
   6   5   1   16.21    5.13   0
   4   5   4   75.29    6.67   0
   5   5   3  516.86    9.81   0
   4   6   3  299.11    8.94   0
   6   5   0   26.41    5.36   0
   4   4   4  729.73   11.30   0
   6   3   1   52.58    5.34   0
   5   0  -1  110.79    6.77   0
   5   6   1   66.17    6.39   0
   6   5  -4    1.98    4.43   0
   6   5  -1   23.94    5.39   0
   5   2   2  374.50    8.42   0
   6   1  -5   11.29    7.15   0
   6   1  -3  122.98    8.40   0
   6   5  -3   32.09    4.95   0
   6   5  -2   31.54    5.33   0
   6   1  -4  133.88    8.31   0
   6   3   0  128.23    7.78   0
   5   6   0   55.79    6.34   0
   5   2  -9   32.47    6.53   0
   6   0  -9  108.64    8.09   0
   6   1  -4  136.54   10.10   0
   6   1  -6   28.86    7.93   0
   6   1  -5   16.99    7.95   0
   4   3  -3   18.66    7.61   0
   5   2  -8   25.45    7.18   0
   2   3 -10   45.07    7.69   0
   3   3  -9  102.53    8.65   0
   4   3  -7   18.69    8.21   0
   4   3  -4  101.82    9.01   0
   4   3  -5   80.67    9.20   0
   5   1 -10   89.69    6.74   0
   2   2 -12   88.86    7.09   0
   5   2  -5  128.19    9.87   0
   5   2  -4  142.78    8.10   0
   6   0  -7  242.95    9.66   0
   1   2 -12    5.46    6.47   0
   2   3  -9   63.16    8.85   0
   3   3  -8  255.42   10.69   0
   6   0  -6  235.63   10.26   0
   3   2 -11   48.12    6.91   0
   6  -1  -8   55.21    9.35   0
   3   3  -7  202.33   10.32   0
   4   2  -9  174.78    9.01   0
   5   1  -9  167.96    8.60   0
   1   3  -8  337.83   10.66   0
   3   3  -6  506.95   12.15   0
   3   3  -5  449.87   11.07   0
   4   1 -11   50.62    6.88   0
   5   1  -3  686.27   14.00   0
   1   3  -7  470.60   10.88   0
   2   1 -13   41.23    5.98   0
   4   2  -8  144.56    9.46   0
   4   2  -3  642.60   12.02   0
   1   2 -11   60.95    7.62   0
   2   3  -6  349.60   10.33   0
   2   3  -5  525.29    9.95   0
   3   1 -12   75.63    6.86   0
   2   0 -14   63.55    6.58   0
   4  -1 -13    7.53    5.42   0
   4   0 -12  102.65    6.58   0
   4   2  -7  685.57   13.60   0
   4   2  -6  389.67   11.58   0
   4   2  -5  472.05   11.60   0
   3   2  -9  206.96   10.18   0
   4   1 -10   64.18    7.80   0
   2   2 -10   89.59    7.17   0
   3  -1 -14   92.25    5.97   0
   3   0 -13   52.71    6.02   0
   1   2 -10   12.55    7.89   0
   5  -2 -11   59.27    7.77   0
   2   1 -12   33.88    7.14   0
   3   1 -11  224.40    9.16   0
   4   1  -9   39.20    8.61   0
   5  -1 -10  106.10    7.86   0
   5   0  -8   70.90    8.90   0
   3   2  -7   53.51    8.57   0
   4  -2 -13   56.88    6.04   0
   4   0 -11  161.45    8.32   0
   1   1 -12  126.32    7.92   0
   5   0  -7  126.64    9.72   0
   1   2  -9  193.14    9.40   0
   4  -1 -12   46.40    6.66   0
   4   1  -8   69.07    9.24   0
   5   0  -6   85.34    9.62   0
   5   0  -5  509.13   13.07   0
   3   0 -12   56.66    7.17   0
   3   1 -10  216.44   10.17   0
   3  -2 -14   18.47    5.41   0
   4   0 -10  234.58   10.03   0
   5  -2 -10   44.64    6.99   0
   3  -1 -13  118.74    7.14   0
   0   1 -11    4.52    7.64   0
   1   0 -13   42.75    6.63   0
   5  -3 -10  161.60    8.46   0
   1   1 -11  248.61    9.65   0
   4  -2 -12   51.87    6.68   0
   4  -1 -11   46.20    7.59   0
   3  -3 -14   31.02    5.79   0
   3   0 -11   34.61    8.21   0
   4   0  -9  382.85   11.68   0
   5  -2  -9   38.51    7.68   0
   5  -1  -5  166.96   10.38   0
   0  -1 -14   65.39    7.41   0
   1  -1 -14   89.28    6.43   0
   5  -3  -9  171.96    8.84   0
   5  -2  -8   21.52    9.38   0
   0   1 -10  167.05    8.83   0
   1   1 -10  270.48   10.27   0
   3  -1 -12  100.78    8.14   0
   2  -2 -14   45.79    6.16   0
   2  -1 -13   47.32    6.98   0
   2   1  -9   57.73    8.26   0
   3  -2 -13   21.32    6.26   0
   4  -4 -12   77.85    6.70   0
   4  -1 -10   38.22    8.61   0
   5  -2  -7   43.07   10.27   0
   1   0 -12   45.42    7.66   0
   3   0 -10   17.67    8.68   0
   5  -3  -8  173.85    9.16   0
   0   0 -12  151.62    8.44   0
   1  -3 -15  101.75    5.89   0
   4   0  -6  383.32   11.08   0
   4   0  -5  664.44   12.20   0
   1   1  -9  265.99    9.70   0
   2   1  -8  187.89    8.52   0
   0   1  -9  178.61    8.31   0
   0  -3 -15   24.55    5.34   0
   3  -1 -11  210.60    9.88   0
   0  -1 -13   78.95    8.44   0
   2  -3 -14   42.68    5.86   0
   2  -1 -12   14.87    7.88   0
   3  -2 -12   23.92    7.85   0
   4  -2 -10   99.96    7.39   0
   2   0 -10  212.21    9.98   0
   3  -4 -13   45.35    5.96   0
   4  -4 -11  142.00    7.86   0
   0  -2 -14  165.13    6.91   0
   0   0 -11  427.08   11.12   0
   2  -2 -13  134.18    8.00   0
   4  -1  -7  105.92    9.44   0
   2  -4 -14   61.67    5.92   0
   3  -1 -10  295.28   11.33   0
   0  -4 -15   59.67    5.82   0
   3   0  -7  294.18    9.23   0
   4  -3 -10   18.79    7.87   0
   1  -1 -12  169.64    9.27   0
   2   0  -9  479.43   11.27   0
   3  -3 -12   99.15    8.70   0
   4  -5 -10   76.62    6.91   0
   4  -1  -5  398.17   10.55   0
   1   0 -10   59.38    8.05   0
   2  -1 -11   80.62    9.13   0
   2  -3 -13   35.79    7.11   0
   3  -1  -9  450.38   12.30   0
   4  -2  -8  212.44    9.26   0
   2  -2 -12  226.09   10.40   0
   3  -4 -12   42.02    6.89   0
   4  -3  -9   47.91    8.89   0
  -1  -3 -14  100.14    7.83   0
   0  -3 -14   27.47    7.02   0
   2   0  -8 1163.13   14.15   0
   4  -5  -9  100.23    8.86   0
   4  -2  -7  450.89   12.98   0
  -1  -2 -13   26.62    7.87   0
   1  -4 -14   11.21    5.54   0
   1   0  -9  149.35    7.81   0
   3  -2 -10   54.84    9.28   0
   2  -4 -13  122.96    7.97   0
   2  -1 -10   38.12    8.40   0
   3  -3 -11   89.30    7.36   0
   4  -3  -8   12.84    8.66   0
   4  -2  -6  203.61   10.62   0
   1  -5 -14   39.74    5.06   0
   2  -5 -13   24.15    5.87   0
   3  -6 -11   27.37    5.95   0
   4  -2  -5  499.17   13.07   0
   3  -1  -7  380.22   10.15   0
   4  -5  -8   50.43    8.82   0
   2  -3 -12   81.00    8.49   0
   2  -2 -11  397.32   11.97   0
   3  -4 -11   50.02    8.11   0
   3  -2  -9  137.81    9.91   0
   4  -4  -8  255.73   10.57   0
   4  -3  -7   32.80    9.48   0
   0  -4 -14  109.79    6.72   0
   0  -1 -11  127.79    8.53   0
   2  -1  -9   68.57    8.03   0
  -1  -4 -14   24.19    5.81   0
   4  -4  -7  307.71   11.52   0
   0  -3 -13   25.35    6.59   0
   2  -6 -12   99.43    6.71   0
   2  -4 -12  210.68    9.51   0
   3  -6 -10   30.35    6.34   0
  -1  -5 -14   95.02    5.76   0
  -1  -3 -13  229.23    9.29   0
   2  -5 -12   22.14    7.20   0
   2  -2 -10   67.82    9.04   0
   4  -4  -6  151.06   11.08   0
   1  -6 -13   11.03    4.50   0
   1  -2 -11  217.55    9.82   0
   2  -7 -11   43.01    5.37   0
   2  -3 -11  133.82    9.73   0
   3  -5 -10  190.95    9.67   0
   3  -3  -9  248.62   11.29   0
   1  -1  -9  440.45   10.18   0
   3  -6  -9   73.99    7.59   0
   2  -4 -11  182.56   10.39   0
   2  -2  -9  576.01   12.25   0
   1  -4 -12    9.53    8.07   0
   2  -6 -11  118.19    7.25   0
   0  -5 -13   34.06    6.17   0
   0  -3 -12   24.41    5.87   0
   1  -2 -10  170.34    8.90   0
   2  -7 -10   65.14    6.91   0
   2  -5 -11   26.04    8.09   0
   1  -6 -12   26.06    5.85   0
   1  -3 -11  376.79   12.12   0
  -2  -5 -13   65.56    6.20   0
  -1  -3 -12  142.71    8.55   0
   3  -4  -8   73.74    9.68   0
   3  -3  -7  400.00   11.60   0
  -1  -6 -13   36.10    4.71   0
  -1  -5 -13  147.35    6.88   0
   3  -5  -8  197.97   10.27   0
   2  -3  -9  280.02   10.88   0
   0  -7 -12   15.35    3.95   0
   0  -2 -10  203.65    8.52   0
   1  -7 -11   94.93    5.79   0
   2  -5 -10   29.64    8.93   0
   3  -6  -7  163.85    8.95   0
   3  -3  -6  777.36   14.01   0
   1  -4 -11  206.71   10.74   0
   2  -7  -9   78.44    6.86   0
   3  -4  -7  268.25   11.35   0
   1  -3 -10  327.32   11.31   0
   3  -5  -7  129.15   10.07   0
  -2  -4 -12   85.70    8.89   0
  -1  -4 -12   42.03    6.84   0
   0  -6 -12   60.15    6.39   0
   1  -5 -11  200.34    9.94   0
  -3  -6 -12    9.81    6.19   0
  -1  -2 -10   38.91    6.74   0
  -2  -3 -11   30.09    8.45   0
  -1  -3 -11   98.24    8.02   0
   1  -8  -9   85.81    5.76   0
  -1  -5 -12   90.14    7.40   0
   2  -5  -9   49.30    9.55   0
   3  -5  -6  448.05   12.90   0
  -2  -5 -12  100.87    6.79   0
   0  -8 -10   59.24    5.11   0
   1  -4 -10   19.58    9.05   0
  -2  -6 -12   66.13    5.30   0
   1  -3  -9  283.91   10.20   0
   1  -6 -10   -2.02    7.94   0
   1  -5 -10  143.90   10.36   0
   2  -4  -8  269.73   11.09   0
   2  -3  -7  268.53    9.38   0
   0  -6 -11  164.97    8.22   0
   1  -8  -8   47.62    5.50   0
   2  -7  -7   40.82    6.98   0
   6   2   7  235.14    7.92   0
   6   5   5  199.38    6.85   0
   7   0   5  136.79    6.23   0
   8   2   4  203.46    5.44   0
   4   2   7  306.73    7.28   0
   5   2   7  157.99    8.21   0
   5   3   7  208.05    9.29   0
   5   5   5  266.78    8.27   0
   6   1   6   28.79    6.23   0
   7  -1   3  179.07    7.11   0
   8   0   2  161.31    6.10   0
   4   4   6  366.11   10.02   0
   5   4   6   48.63    5.32   0
   6   5   4  122.89    6.53   0
   7   3   5  168.72    6.36   0
   7   4   4   73.82    5.25   0
   8   2   3  315.92    6.19   0
   6  -1   4  231.42    8.54   0
   6   0   5  330.76    8.99   0
   6   2   6  336.73    8.99   0
   6   3   6    6.05    4.70   0
   7   0   4  152.98    6.77   0
   7   2   5   60.81    6.01   0
   8   3   2   47.21    4.44   0
   5   1   6  531.12   10.50   0
   5   3   6  338.74   10.18   0
   8   0   1  103.88    5.85   0
   5   2   6  114.24    7.87   0
   5   5   4  434.37    9.39   0
   6   5   3   81.75    6.02   0
   7  -1   2  315.27    9.40   0
   8   2   2  193.96    5.91   0
   5  -1   4  507.23    9.62   0
   7   1   4  217.48    7.96   0
   7   3   4  331.29    7.52   0
   6   1   5  201.32    7.87   0
   6   3   5  153.47    7.49   0
   7   0   3  119.58    6.67   0
   8   0   0  133.17    5.65   0
   6  -1   3  156.55    7.98   0
   6   2   5  243.00    8.48   0
   8   2   1  162.69    5.86   0
   6   0   4  316.73    9.16   0
   5   1   5  772.17   11.34   0
   5   5   3  437.40    9.89   0
   7   3   3  426.60    8.16   0
   8   0  -1  213.48    6.55   0
   5   3   5  288.13    8.67   0
   7  -1   1  270.41    8.50   0
   7   1   3  307.09    7.99   0
   6   5   1   25.27    5.64   0
   7   2   3   75.18    5.88   0
   8   0  -2  174.47    6.35   0
   5  -1   3  446.89    9.23   0
   5   0   4  200.74    7.05   0
   5   4   4  162.97    7.31   0
   6   1   4  209.83    8.20   0
   6   3   4  129.00    7.24   0
   7   0   2  165.34    7.00   0
   4   4   4  571.10    9.04   0
   6   2   4  282.30    8.82   0
   5   5   2  222.95    9.14   0
   6  -1   2  185.20    7.88   0
   6   0   3  566.49   10.34   0
   6   5  -1   21.06    5.94   0
   7   1   2  490.73    8.86   0
   5   1   4  403.01    8.30   0
   5   3   4  184.37    7.30   0
   7   4  -2   37.43    4.60   0
   5   4   3  106.13    7.44   0
   6   3   3  113.73    6.99   0
   7   3   1  142.58    6.93   0
   5   5   1  257.06    9.61   0
   6   1   3  224.80    8.13   0
   6   2   3  289.64    7.27   0
   5  -1   2  653.89   11.09   0
   5   0   3  251.95    7.22   0
   6  -1   1   60.23    6.74   0
   7   2   1   -3.00    4.11   0
   7   3   0  248.34    7.30   0
   5   3   3  358.41    8.57   0
   6   3   2   63.13    6.67   0
   7  -1  -2  302.73    7.75   0
   7   3  -1  167.42    6.86   0
   5   1   3  657.86    9.12   0
   7   1   0  178.32    7.22   0
   7   2   0  157.26    6.48   0
   5   2   3  295.98    7.71   0
   6   2   2  306.54    8.63   0
   7   3  -4   99.07    5.13   0
   7   0  -1  184.33    6.50   0
   7   3  -3  150.19    5.75   0
   4   4   2  657.55    9.23   0
   6  -1   0  227.06    8.05   0
   7   2  -1  139.68    6.25   0
   5   0   2  274.29    6.81   0
   5   5  -3  142.00    7.61   0
   7   1  -1  203.55    7.02   0
   5   3   2  309.07    8.40   0
   6   4  -2  140.19    6.73   0
   7  -1  -5  186.97    6.36   0
   7   2  -6   36.81    4.59   0
   6   1   1   72.31    6.48   0
   7   1  -2  244.96    7.22   0
   5   1   2  919.48   10.63   0
   5   2   2  385.58    7.98   0
   6   4  -4  174.73    6.21   0
   7   2  -5   79.35    4.78   0
   7   2  -4   61.18    5.13   0
   5   4   0   54.73    6.79   0
   7   0  -4   42.16    6.14   0
   7   1  -3  202.00    6.58   0
   4   4   1  358.87    8.88   0
   7   0  -6   12.86    4.27   0
   7   0  -5   47.49    5.30   0
   7   1  -6  119.42    5.17   0
   7   1  -4  150.62    5.86   0
   5   3   1  274.84    8.05   0
   6   2   0  525.82    9.39   0
   6   3  -1   79.48    6.74   0
   7   1  -5  106.99    5.43   0
   5   0   1  454.67    7.85   0
   5  -1   0 1220.16   12.71   0
   6   3  -2  136.89    7.12   0
   5   1   1 1102.45   11.25   0
   5   2   1  342.27    7.30   0
   6   0  -1  797.70   10.28   0
   6   2  -1  210.60    7.45   0
   4   4   0  493.18    9.59   0
   6   1  -1   84.30    6.20   0
   6   3  -3  140.06    6.87   0
   5   4  -7   62.13    5.08   0
   5   4  -2   83.41    6.86   0
   6   3  -6   55.12    5.00   0
   6  -1  -3  101.48    6.55   0
   6   2  -2  306.34    8.06   0
   5   0   0  383.30    7.41   0
   5   4  -6    5.13    4.73   0
   5   4  -3  102.26    6.79   0
   6   2  -8   66.69    4.67   0
   5  -1  -1  718.71   10.38   0
   5   2   0  189.58    6.18   0
   5   4  -4  115.76    6.74   0
   6  -1  -9   48.40    5.92   0
   6   1  -2  185.02    7.02   0
   4   4  -1  528.37    9.97   0
   5   1   0  920.72   10.04   0
   6  -1  -4  127.62    6.52   0
   6   1  -9   29.34    4.26   0
   6   2  -3  204.87    7.28   0
   5   3  -9   77.91    4.93   0
   6   2  -7  116.22    5.52   0
   6   2  -4  189.39    7.27   0
   4   3   0  170.86    6.19   0
   6  -1  -8   60.80    5.31   0
   6  -1  -5   37.69    5.78   0
   6   2  -6  137.11    6.26   0
   6   2  -5  280.47    7.99   0
   5   3  -2  374.05    8.92   0
   6  -1  -7   38.51    5.34   0
   6  -1  -6   37.36    5.39   0
   6   1  -8   39.95    4.76   0
   4   4  -8   53.73    5.90   0
   5  -1  -2 1190.70   12.03   0
   5   1  -1  731.72    9.42   0
   6   1  -7   52.06    5.31   0
   6   1  -5   23.60    5.89   0
   4   4  -3  174.15    7.54   0
   5   2 -10    9.34    4.05   0
   5   1 -11   28.43    4.63   0
   5   2  -2  160.09    6.49   0
   5   3  -4  177.12    7.84   0
   4   4  -7   95.23    5.95   0
   4   4  -4  187.33    7.79   0
   5   3  -5  187.81    8.06   0
   4   4  -6  116.49    6.59   0
   4   4  -5   83.40    6.72   0
   5  -1  -3  781.25   10.18   0
   5   1  -2  813.60    9.96   0
   3   4  -2  149.27    6.94   0
   5  -2  -5  204.49    7.89   0
   5  -1 -11   37.27    5.77   0
   5   2  -3  131.69    6.75   0
   4   3 -10    9.91    4.40   0
   4   3  -2  165.34    6.31   0
   5   0 -11   29.12    4.74   0
   5  -2  -6   19.95    6.19   0
   5  -1  -4  572.82    9.40   0
   5   1  -3  617.51    9.44   0
   5   2  -8   27.74    5.58   0
   3   4  -3  140.27    7.02   0
   5  -2  -8   13.00    5.92   0
   5   2  -7   32.11    6.24   0
   5   2  -6    8.29    6.29   0
   4   3  -9   23.08    5.31   0
   4   3  -3   29.20    5.66   0
   5  -1 -10  100.34    6.01   0
   5   0 -10   64.48    5.52   0
   5   1  -4  382.71    8.59   0
   3   4  -8   34.99    5.54   0
   3   4  -4  190.38    7.93   0
   4   2 -11   42.50    4.68   0
   5  -1  -5  155.15    7.01   0
   4   3  -8   13.01    5.65   0
   5  -1  -9  135.96    6.97   0
   5   1  -5  202.21    8.39   0
   3   3 -11   50.91    5.01   0
   3   4  -5  111.22    7.26   0
   5  -1  -8  141.01    7.11   0
   5  -1  -7  396.98    9.21   0
   5  -1  -6  449.70    9.27   0
   5   0  -9   81.38    6.31   0
   5   0  -5  420.79    8.79   0
   5   1  -7  311.91    9.11   0
   5   1  -6  648.02   11.03   0
   3   4  -6   19.71    6.31   0
   4   3  -7   36.15    6.35   0
   5   0  -8   85.42    6.99   0
   5   0  -6   78.67    6.87   0
   4   2 -10   91.16    6.27   0
   4   2  -3  617.15    9.12   0
   2   3 -12   14.28    4.79   0
   4   0 -12   74.00    5.53   0
   3   3 -10   85.16    6.19   0
   4  -1 -12   37.06    5.56   0
   4   2  -4  689.33   10.21   0
   4  -2 -11  116.32    6.63   0
   3   1 -13   39.96    4.95   0
   4   2  -8  129.91    7.88   0
   4   2  -5  487.85    9.60   0
   3   3  -9  135.07    7.26   0
   4   0 -11  146.65    7.15   0
   4   1 -10   51.29    6.56   0
   4   2  -7  685.65   11.67   0
   4  -2 -10  115.62    7.26   0
   4  -2  -6  177.68    7.67   0
   4   1  -4  130.30    5.89   0
   2   2 -13   40.31    4.93   0
   3   3  -8  285.81    9.14   0
   4   1  -9   38.31    7.14   0
   2   3 -11   19.14    5.54   0
   3   3  -7  173.57    8.45   0
   3   3  -6  480.97   10.34   0
   4  -2  -9  246.62    8.85   0
   4  -2  -8  284.91    9.32   0
   4  -2  -7  439.29   10.16   0
   4  -1  -5  366.23    7.77   0
   4   0 -10  242.27    8.88   0
   4   1  -5  362.79    8.71   0
   2   1 -14   11.83    4.34   0
   3  -3 -12   97.83    7.51   0
   3   0 -13   45.37    5.74   0
   4   1  -8   67.23    7.75   0
   4   1  -7   83.92    7.72   0
   4   1  -6  333.80    9.03   0
   3  -2 -13   28.45    5.76   0
   4  -1  -6  589.65   10.07   0
   4   0  -9  362.77   10.21   0
   1  -3   7  484.29    7.41   0
   2  -3   9  141.96    5.57   0
   5  -4   7   75.21    4.66   0
   1  -2   9   36.97    4.95   0
   2  -4   5  296.07    6.15   0
   5  -3  10  106.43    3.33   0
   6  -2  11   52.11    2.42   0
   2  -4   4  721.50    8.39   0
   4  -4   7  254.14    6.05   0
   3   0  13   57.10    3.73   0
   6  -1  12   13.49    2.09   0
   2  -3   8    8.06    4.57   0
   2  -2  10  169.62    5.84   0
   1  -2   8   36.94    4.07   0
   3  -3   9  175.75    4.81   0
   4  -4   6  201.32    5.99   0
   5  -4   5   24.41    4.43   0
   2  -1  11  138.08    5.64   0
   3  -4   5   96.03    5.15   0
   3   1  13  149.16    4.82   0
   6  -3   8    9.33    2.80   0
   3  -4   4  206.77    6.22   0
   4  -4   5  231.99    6.57   0
   1   0  10  364.25    7.59   0
   2   1  12   98.20    5.49   0
   2  -2   9  422.45    7.23   0
   3  -3   8  392.18    7.04   0
   3  -2  10   31.46    4.57   0
   7  -2   8   22.79    3.10   0
   6  -3   7   29.69    3.32   0
   2  -3   6  197.11    4.99   0
   4   1  13   50.01    3.50   0
   5   1  13   72.51    3.44   0
   6  -1  11   26.78    2.54   0
   3  -1  11  162.62    4.67   0
   4   2  13  111.88    3.72   0
   6  -3   6    8.85    3.73   0
   2  -2   8  243.59    5.83   0
   4  -1  11   57.54    4.20   0
   5  -3   7  178.98    5.44   0
   7  -2   7   30.31    3.25   0
   5   0  12   26.11    2.87   0
   6  -3   5    7.99    3.97   0
   3   1  12  229.89    5.77   0
   4  -2   9  212.84    5.98   0
   5  -2   9   45.68    3.95   0
   6   1  12   15.57    2.22   0
   7  -2   6   36.76    4.04   0
   3  -1  10  127.30    5.46   0
   3   0  11   89.65    5.28   0
   3   2  12   61.43    5.03   0
   4  -3   6  268.68    6.82   0
   7   0  10   45.18    2.89   0
   2   0  10  885.85   10.06   0
   3  -3   5  596.44    8.00   0
   3  -2   8  252.64    6.25   0
   6   0  11  122.59    3.67   0
   4   1  12   51.29    4.05   0
   5  -3   5  447.48    8.17   0
   5   1  12   92.59    4.00   0
   6   2  12   77.97    3.07   0
   4  -3   5  375.55    7.73   0
   4  -1  10   30.14    4.53   0
   4  -2   8  294.66    6.81   0
   4   0  11  243.26    5.81   0
   5  -2   8   62.24    4.65   0
   5   0  11   40.57    3.60   0
   2  -1   8   43.05    4.13   0
   4   2  12  125.71    4.56   0
   5  -3   4  331.22    7.95   0
   6  -1   9   65.33    3.87   0
   2   1  10   63.54    5.47   0
   3  -2   7  202.78    5.55   0
   3   1  11  267.85    6.82   0
   5   2  12   24.45    3.63   0
   2   0   9  967.69   10.11   0
   5   3  12  141.85    4.58   0
   6   1  11   53.05    3.27   0
   7   0   9   51.91    3.03   0
   4  -3   3  286.61    7.73   0
   6  -2   6  279.46    6.20   0
   6   0  10  111.54    4.14   0
   7  -1   7  151.99    4.45   0
   4  -1   9   26.58    3.78   0
   3  -1   8  427.20    7.30   0
   5   0  10   66.04    4.44   0
   6  -1   8   67.42    4.41   0
   5  -2   6  102.52    5.63   0
   6  -2   5  211.56    6.22   0
   7   2  10   22.55    2.58   0
   8   0   5  111.66    4.66   0
   6   3  11   27.36    3.06   0
   7   0   8   56.76    3.62   0
   3   1  10  331.97    7.42   0
   4  -1   8  100.55    5.51   0
   4   2  11  369.67    7.23   0
   5  -1   8  185.07    5.82   0
   6   0   9  126.98    4.85   0
   7   1   9  121.59    3.79   0
   4   3  11   93.59    4.73   0
   5  -2   5   28.89    5.48   0
   5   4  11   76.03    4.67   0
   4  -2   5  331.70    7.13   0
   4   0   9  228.62    6.34   0
   5   0   9   97.60    5.09   0
   5   1  10  170.05    5.63   0
   5   3  11  296.83    6.41   0
   6  -2   3  181.46    7.39   0
   8   1   6   26.33    3.21   0
   8   2   7   83.82    3.38   0
   3   2  10  111.43    5.97   0
   4  -1   7  131.85    5.61   0
   5  -2   4  105.88    6.10   0
   5  -1   7  190.14    6.09   0
   6   0   8  167.84    5.79   0
   6   2  10   82.33    3.99   0
   7   2   9   22.13    3.17   0
   6  -1   6   37.47    5.02   0
   7   1   8  101.93    4.15   0
   3   0   8   31.25    3.38   0
   3   1   9  832.93    9.96   0
   6   3  10   23.92    3.83   0
   7  -1   3  167.99    6.76   0
   7   3   9   83.25    3.39   0
   8   1   5   49.71    3.79   0
   4   2  10  174.93    6.71   0
   5  -2   3  216.26    7.39   0
   8   2   6  112.87    4.30   0
   4   0   8  502.14    8.04   0
   4   1   9   65.93    5.82   0
   5  -1   6  236.97    6.75   0
   5   1   9  164.45    5.95   0
   6  -1   5  108.92    5.90   0
   8   1   4   40.97    4.00   0
   4   3  10   31.27    5.41   0
   7   2   8    9.72    3.59   0
   6   1   8   80.90    5.35   0
   6   5   9   80.09    4.12   0
   7   0   5  140.36    5.66   0
   8   1   3   49.12    4.60   0
   3   2   9  289.19    7.35   0
   6  -1   4  212.00    7.04   0
   7   4   8   25.72    3.27   0
   8   1   2   32.71    5.50   0
   5   0   7  220.55    6.45   0
   4   0   7  489.83    7.90   0
   5   2   9   57.34    5.77   0
   6   0   6  447.52    8.28   0
   6   3   9   33.34    4.47   0
   6   4   9  101.69    4.78   0
   7   0   4  142.71    6.14   0
   5   1   8  206.13    6.77   0
   7   2   7   26.65    4.04   0
   3   3   9  412.25    8.60   0
   4   1   8  149.87    5.86   0
   5  -1   4  469.52    8.84   0
   5   5   9  124.13    5.01   0
   6   1   7   96.56    5.95   0
   6   2   8  142.18    5.95   0
   7   0   3  120.91    6.31   0
   8   2   3  277.90    6.42   0
   5   3   9  146.58    6.60   0
   7   3   7  204.41    5.08   0
   4   3   9  320.73    8.51   0
   5   4   9   64.03    5.95   0
   6   5   8   69.05    4.23   0
   7   4   7   43.81    3.43   0
   8   2   2  225.31    6.62   0
   4   0   6  603.53    8.34   0
   4   4   9  298.50    7.50   0
   6   3   8   41.86    5.09   0
   7   2   6   58.34    5.01   0
   5  -1   3  428.89    8.89   0
   5   1   7  276.61    7.27   0
   5   2   8  101.76    6.26   0
   7   5   6   35.54    3.43   0
   6   1   6   25.70    5.62   0
   4   1   7   96.95    5.03   0
   6   0   4  338.86    8.27   0
   7   3   6  108.04    4.95   0
   5   0   5   67.44    5.21   0
   7   2   5   60.15    4.99   0
   7   4   6   95.64    4.27   0
   3   3   8  293.49    7.54   0
   5  -1   2  627.97   10.97   0
   5   4   8   95.97    6.19   0
   6   3   7   19.20    5.39   0
   6   5   7   52.63    4.41   0
   7   1   3  325.92    8.06   0
   5   1   6  500.40    8.85   0
   5   2   7  163.89    6.78   0
   6   0   3  542.29    9.96   0
   6   1   5  229.03    7.33   0
   4   5   8   27.29    5.96   0
   5   6   7   63.57    5.01   0
   6   2   6  341.91    7.96   0
   6   4   7  212.92    6.50   0
   7   1   2  395.41    8.85   0
   7   2   4   54.70    5.27   0
   7   3   5  176.24    5.78   0
   4   4   8  267.34    8.51   0
   7   4   5  103.67    4.51   0
   6   0   2  835.03   11.96   0
   6   1   4  202.07    7.40   0
   7   1   1  188.38    7.85   0
   7   5   4  189.24    4.97   0
   6   3   6    6.85    5.64   0
   7   3   4  364.03    7.12   0
   5   1   5  794.03   10.34   0
   5   5   7  268.07    7.15   0
   6   0   1  615.15   11.91   0
   6   2   5  230.32    7.86   0
   6   4   6  224.77    6.63   0
   6   6   5  115.93    4.90   0
   4   3   7  247.17    7.67   0
   5   2   6   71.90    4.79   0
   5   4   7   65.78    4.91   0
   5   6   6   59.97    5.97   0
   6   0   0 1343.35   16.54   0
   7   2   2  103.37    6.19   0
   7   3   3  451.36    7.86   0
   7   4   3  127.40    5.04   0
   3   4   7  193.93    7.30   0
   4   2   6  450.18    7.52   0
   6   3   5  146.55    6.55   0
   7   2   1   -0.73    5.49   0
   5   0   2  257.09    6.99   0
   5   1   4  433.84    8.14   0
   5   3   6  333.05    7.94   0
   6   2   4  277.99    8.02   0
   6   5   5  198.41    5.77   0
   7   2   0  161.57    6.80   0
   7   3   2  414.78    8.07   0
   7   5   1   67.79    4.50   0
   5   2   5   52.40    5.46   0
   5   5   6  312.61    7.68   0
   5   7   4  160.55    5.81   0
   6   1   2  153.70    7.32   0
   7   2  -1  143.44    6.81   0
   7   3  -3  162.97    8.38   0
   7   4   2   80.02    5.10   0
   4   6   6  165.42    5.90   0
   7   4  -2   29.59    5.49   0
   7   4   1   16.48    4.50   0
   5   6   5   57.32    5.24   0
   6   2   3  423.71    8.83   0
   6   3   4  128.31    6.26   0
   6   6   3  124.94    5.30   0
   7   3  -2  203.89    6.92   0
   7   3  -1  169.34    7.38   0
   7   3   0  240.49    6.95   0
   7   4  -1   33.76    5.31   0
   5   1   3  646.06    9.09   0
   6   1   1   49.53    6.90   0
   4   5   6   18.10    5.83   0
   5   3   5  366.81    8.07   0
   5   7   3   85.36    4.98   0
   5   2   4  227.72    6.58   0
   6   1   0  240.18    8.34   0
  -4  -6  -3  359.08   10.44   0
  -4  -4  -3  494.07   10.62   0
  -1  -8  -8   14.74    3.69   0
  -1  -5  -9  291.58    8.98   0
   0  -7  -9   41.47    6.50   0
  -4  -6  -2  327.12    9.63   0
  -3  -8  -4   61.95    4.65   0
  -3  -6  -7   70.84    6.67   0
  -3  -5  -7  243.42    8.32   0
  -2  -7  -8   42.21    5.99   0
  -1  -9  -6   66.93    3.78   0
  -1  -6  -9  113.51    7.20   0
   0  -5  -9   67.91    7.68   0
  -4  -5  -3   65.29    7.23   0
  -3  -8  -3   26.05    4.41   0
  -3  -8  -2  120.63    5.40   0
  -3  -7  -6  276.21    7.75   0
   0  -8  -8  102.89    4.87   0
  -2  -6  -8  168.54    8.51   0
  -3  -6  -6   52.69    6.32   0
  -3  -5  -6  391.45    8.92   0
  -2  -8  -6  162.12    5.87   0
  -2  -7  -7   94.76    6.26   0
  -1  -8  -7   26.10    4.19   0
  -1  -7  -8  233.48    7.34   0
   0  -4  -8  353.89    9.75   0
   1  -7  -8  183.62    7.49   0
  -3  -4  -5  127.60    5.95   0
  -2  -6  -7  297.95    8.70   0
  -2  -5  -7  301.50    8.55   0
  -3  -6  -5   55.10    6.52   0
  -3  -5  -5  358.45    8.56   0
  -2  -8  -5  228.40    6.19   0
   0  -9  -5   29.38    3.21   0
   1  -9  -5   64.47    4.30   0
   1  -6  -8   48.75    6.17   0
   0  -6  -8  252.68    8.40   0
   0  -5  -8  152.09    7.50   0
  -1  -9  -3  131.77    4.27   0
  -1  -7  -7  210.17    7.37   0
   2  -8  -6  174.70    6.45   0
  -3  -7  -2  291.85    7.76   0
  -3  -7  -1  260.23    7.76   0
  -3  -6  -4  158.46    7.58   0
  -2  -8  -4  229.75    6.19   0
  -3  -5  -4  228.25    7.86   0
   0  -9  -4   36.64    3.25   0
  -2  -5  -6  258.10    7.59   0
  -1  -6  -7  143.16    7.40   0
  -1  -5  -7  506.89    9.68   0
   0  -7  -7   42.89    5.22   0
  -3  -6  -3   52.08    6.36   0
  -2  -8  -2  193.71    6.00   0
  -2  -7  -5   47.63    5.84   0
   1  -8  -6   43.93    4.37   0
  -3  -5  -3  313.95    8.44   0
  -2  -8   0  290.65    6.35   0
   0  -9  -3   22.05    2.98   0
  -3  -6  -2  138.58    7.32   0
  -1  -7  -6  183.52    7.24   0
   0  -6  -7  506.73   10.47   0
  -2  -7  -4   44.56    5.78   0
  -2  -6  -5  328.12    8.57   0
   1  -9  -3   95.80    4.11   0
   1  -5  -7  366.57    9.88   0
  -3  -5  -2  261.92    8.26   0
  -1  -8  -4   70.31    4.80   0
   2  -7  -6   79.61    6.83   0
  -1  -6  -6  188.28    7.52   0
  -3  -5  -1  345.29    9.17   0
  -2  -7  -3   93.86    6.37   0
  -1  -7  -5  234.09    7.59   0
   1  -9  -2  101.63    4.12   0
  -2  -6  -4  312.01    8.49   0
  -1  -8  -3   60.65    4.80   0
   1  -7  -6  267.34    8.66   0
  -2  -7  -2   96.48    6.44   0
   1  -9  -1   70.91    3.62   0
  -2  -7   2   89.88    6.45   0
  -1  -8  -2   41.90    4.62   0
   1  -9   0   57.68    3.52   0
   2  -6  -6  251.06    8.64   0
  -2  -7  -1  103.43    6.38   0
  -1  -8   2   71.80    4.53   0
  -1  -6  -5  226.93    7.67   0
   0  -5  -6  128.76    5.95   0
   3  -8  -3   51.44    4.71   0
  -2  -7   0  109.84    6.64   0
  -2  -7   1   65.83    5.82   0
  -2  -6  -3  428.39    9.11   0
   0  -7  -5  116.83    6.64   0
   1  -8  -4   79.23    5.00   0
   1  -6  -6   34.54    7.20   0
  -1  -8   0  158.30    5.42   0
  -1  -8   1   60.02    4.37   0
  -1  -5  -5  555.39    9.22   0
   0  -8  -3  135.96    5.51   0
   1  -5  -6  709.64   10.78   0
   2  -7  -5  104.08    7.55   0
   1  -7  -5  196.20    6.65   0
  -2  -6  -2  629.95   10.90   0
  -1  -7  -3  326.34    8.37   0
  -1  -6  -4  202.91    7.25   0
   0  -8  -2  138.88    5.57   0
   0  -6  -5  363.34    8.80   0
   2  -8  -3  198.79    5.86   0
   3  -8  -2   97.19    4.68   0
  -2  -6  -1   67.61    6.89   0
   0  -7  -4  142.78    6.96   0
  -2  -5  -2  336.93    7.75   0
  -1  -7  -2  350.71    8.57   0
   2  -6  -5  347.22   10.03   0
  -2  -6   0  450.63   10.23   0
   2  -7  -4   61.84    6.38   0
  -2  -6   1  333.59    9.52   0
  -2  -6   2  314.46    9.17   0
   1  -8  -2   38.10    3.60   0
   3  -8  -1   54.09    4.83   0
  -1  -7  -1  279.74    8.08   0
  -1  -6  -3  137.29    5.55   0
   0  -8   1   62.60    4.43   0
   1  -5  -5  625.80   10.59   0
  -1  -7   3  172.07    7.30   0
   0  -6  -4  523.47    9.95   0
   1  -8  -1   28.12    4.40   0
  -1  -7   1  193.65    7.24   0
   2  -8  -1  209.22    6.10   0
  -2  -5   0  149.14    6.86   0
  -1  -7   2  160.02    6.56   0
  -1  -6  -2   35.41    5.66   0
   1  -8   0   30.46    4.18   0
   1  -7  -3  239.30    7.80   0
   0  -7  -2  135.48    6.68   0
   1  -8   3   10.93    3.44   0
   2  -7  -3  102.37    6.35   0
  -2  -5   1   91.36    6.64   0
   1  -8   1   10.89    2.98   0
   1  -8   2   20.28    3.89   0
   2  -8   0  187.72    5.88   0
   2  -8   4   73.71    3.72   0
   4  -7  -1   66.40    6.20   0
   0  -6  -3  611.05   10.30   0
   2  -8   1  115.69    4.72   0
   3  -8   2   43.03    3.72   0
   0  -7   5   21.43    5.15   0
   2  -8   2  109.27    4.51   0
   2  -8   3   81.53    4.02   0
   3  -7  -2  329.08    8.04   0
   0  -7   0  123.79    6.63   0
   3  -6  -3   82.07    8.07   0
   0  -6  -2  777.44   11.13   0
   1  -6  -3  124.22    7.00   0
   4  -7   0  103.06    5.45   0
  -1  -6   4   66.67    7.04   0
   0  -7   3   91.72    5.93   0
   3  -7  -1  261.63    7.59   0
   1  -7   6  197.35    5.59   0
   2  -7  -1   40.77    5.88   0
   4  -7   1   57.76    4.71   0
   1  -7   0  195.85    7.37   0
   1  -7   5  146.88    5.60   0
   1  -6  -2  185.44    7.35   0
   3  -6  -2  209.41    8.86   0
   3  -5  -3  281.18   10.82   0
   2  -7   0   56.46    5.88   0
   4  -7   2   75.46    4.90   0
   4  -7   5   84.76    4.07   0
   4  -6  -1  165.12    8.18   0
   0  -6   0  716.15   11.05   0
   1  -7   2  304.36    7.90   0
   1  -7   3  174.48    6.69   0
   2  -6  -2  351.49    8.41   0
   5  -6   1   35.61    6.28   0
  -1  -5   1  497.80    9.80   0
   2  -7   1   87.93    6.13   0
   3  -7   6   71.14    3.99   0
   1  -6  -1  179.85    7.29   0
   2  -7   5   57.79    4.46   0
  -1  -5   2  773.43   11.74   0
   2  -7   2   32.30    5.18   0
   2  -7   4   45.83    4.94   0
   3  -7   2  197.17    6.84   0
   3  -7   5   90.40    4.60   0
  -1  -5   3  437.09   10.27   0
  -1  -5   4  548.69   11.61   0
   0  -6   5  245.87    7.94   0
   3  -7   3  160.23    6.07   0
   3  -7   4   60.85    4.74   0
   3  -6  -1  161.17    7.47   0
   5  -6   2   77.62    5.82   0
   0  -6   3  283.40    8.74   0
   0  -6   4  261.53    8.45   0
   1  -6   0  216.35    7.63   0
   1  -6   7   85.49    6.49   0
   5  -6   3   40.64    5.72   0
   2  -5  -2  405.81    8.03   0
   1  -6   1   97.41    6.65   0
   2  -6   0  401.53    9.33   0
   2  -6   8  174.52    5.46   0
   4  -6   1  205.87    7.49   0
   4  -5  -1  102.07    8.57   0
   5  -6   4   31.84    4.27   0
   5  -6   5   24.36    3.95   0
   1  -6   6   64.29    5.83   0
   1  -6   2  249.97    8.01   0
   3  -6   8   31.47    3.69   0
   1  -6   3  111.46    6.83   0
   1  -5   9  163.80    7.19   0
   2  -6   1  293.20    8.48   0
   4  -6   2  218.96    7.60   0
   4  -6   7   76.48    4.04   0
   5  -5   1  267.45   10.60   0
   1  -6   4  196.59    7.64   0
   2  -5  -1  159.06    6.30   0
   0  -5   6   93.54    7.30   0
   3  -6   7   40.02    4.31   0
   4  -6   6   64.47    4.72   0
   3  -6   2   84.53    6.85   0
   4  -6   4  157.07    6.65   0
   4  -6   5   73.49    5.34   0
   0  -5   3  239.55    7.55   0
   0  -5   4  159.53    7.62   0
   0  -5   5   88.15    7.06   0
   2  -6   3  238.70    7.90   0
   2  -6   5  203.80    7.23   0
   3  -6   6   34.14    4.91   0
   1  -5   8  127.11    6.40   0
   3  -6   5   48.60    5.39   0
   5  -5   2  252.38    8.59   0
   2  -5   0  173.33    6.59   0
   3  -5   0  405.76    8.93   0
   2  -5   9  100.41    5.41   0
   5  -5   8   64.41    3.63   0
   1  -5   2  665.77    9.62   0
   1  -5   7  329.41    8.40   0
   5  -5   7   71.16    4.30   0
   2  -5   1  397.37    8.10   0
   5  -5   4  271.31    7.46   0
   1  -5   3  421.76    8.51   0
   1  -5   6  358.55    8.83   0
   4  -5   2   55.51    6.53   0
   5  -5   5  205.85    6.32   0
   6  -4   4  132.07    6.99   0
   1  -5   4  231.34    7.30   0
   4  -5   8   21.52    4.25   0
   2  -5   2  258.92    7.15   0
   3  -5   8  248.41    6.55   0
   3  -4  11   60.78    4.09   0
   6  -4   5  140.46    6.26   0
   0  -4   6  439.08    9.67   0
   4  -5   7   25.43    4.62   0
   6  -4   6  159.53    5.84   0
   0  -4   5  445.25    9.00   0
   2  -5   3  127.77    6.09   0
   2  -5   6  134.21    6.92   0
   4  -5   4   11.17    6.22   0
   4  -5   6   28.93    5.48   0
   5  -4   2  119.49    7.60   0
  -4  -1 -10    9.80    5.87   0
  -3  -1 -11  266.66    8.10   0
  -2  -4 -14   65.57    5.30   0
  -1  -1 -11   82.62    7.13   0
   0  -4 -13  160.60    9.21   0
  -3  -5 -14   95.81    4.34   0
  -2  -1 -11   95.29    6.98   0
   0  -1 -10  299.52    8.97   0
  -5  -3 -11  295.45    7.26   0
  -4  -4 -13   85.70    5.05   0
  -3   0  -8   36.81    4.83   0
  -1  -2 -12   17.11    6.97   0
   0  -5 -13   36.57    6.30   0
   1  -2 -10  145.93   10.15   0
  -4  -5 -13   26.60    4.25   0
  -4  -2 -11  365.41    8.11   0
  -4  -1  -9   81.87    6.25   0
  -2  -2 -12   73.62    6.81   0
   0  -3 -12   11.52    7.22   0
   0  -2 -11  458.50   11.30   0
  -5  -2  -9   49.42    6.09   0
  -3  -1 -10  322.45    8.20   0
  -5  -4 -11   71.34    5.24   0
  -1  -4 -13   36.84    6.37   0
  -2  -1 -10   47.91    5.93   0
  -3  -2 -11   76.02    7.04   0
  -2  -4 -13  124.72    6.72   0
  -1  -6 -13   36.50    4.21   0
  -4  -4 -12  118.43    5.87   0
  -4  -1  -8  154.27    6.45   0
  -3  -6 -13   36.92    3.80   0
  -3  -5 -13   75.54    4.55   0
  -1  -2 -11  189.92    7.82   0
   0  -4 -12  147.58    8.44   0
  -2  -2 -11  218.47    7.79   0
  -4  -6 -12   80.44    4.32   0
  -4  -5 -12   29.68    4.53   0
  -2  -5 -13   71.12    5.55   0
   0  -6 -12   57.23    7.14   0
  -2  -1  -9  114.91    5.64   0
   0  -5 -12   30.28    6.61   0
   0  -3 -11   38.28    7.73   0
  -5  -6 -10   41.55    4.76   0
  -4  -1  -7   89.95    5.90   0
  -3  -7 -12   86.54    3.98   0
  -4  -2  -9  357.61    7.84   0
  -3  -2 -10  110.69    6.83   0
  -1  -7 -12   65.62    4.78   0
  -3  -3 -11  183.11    8.39   0
  -2  -4 -12   73.28    6.86   0
  -1  -2 -10   38.33    5.69   0
  -4  -3 -10   35.20    5.66   0
  -2  -2 -10  322.58    7.84   0
  -5  -3  -8  222.53    7.54   0
  -3  -6 -12   12.40    4.06   0
  -2  -3 -11   43.77    6.37   0
  -1  -6 -12   47.21    5.02   0
  -1  -5 -12   94.41    6.79   0
   0  -4 -11  212.55    9.19   0
  -5  -4  -9   68.08    5.53   0
  -4  -6 -11  103.14    4.85   0
  -4  -5 -11   18.52    5.11   0
  -2  -5 -12   96.50    6.28   0
  -5  -6  -9   75.11    5.05   0
  -4  -2  -8  414.39    7.87   0
  -2  -6 -12   68.36    4.86   0
   0  -3 -10  127.65    7.81   0
  -3  -4 -11   45.51    6.67   0
  -3  -2  -9  281.15    7.57   0
  -3  -7 -11   79.27    3.93   0
   0  -6 -11  156.46    7.42   0
  -4  -3  -9  284.15    7.39   0
  -2  -2  -9  404.10    7.67   0
  -1  -2  -9    2.35    3.42   0
  -5  -4  -8  110.52    6.20   0
  -3  -5 -11  169.15    6.11   0
  -1  -7 -11   77.33    5.05   0
  -1  -3 -10  382.97    8.65   0
  -2  -7 -11   12.49    4.32   0
  -2  -3 -10   15.45    5.59   0
  -4  -6 -10  114.64    5.31   0
  -2  -8 -10   76.79    3.73   0
   0  -4 -10  229.38    9.15   0
  -2  -6 -11  203.54    6.19   0
   0  -7 -10   56.31    5.85   0
  -4  -4  -9  332.94    8.20   0
  -4  -3  -8  229.50    6.78   0
  -3  -4 -10   63.53    6.69   0
  -3  -7 -10   75.54    4.36   0
   0  -8  -9  114.67    5.64   0
  -3  -8  -9   71.01    3.70   0
  -5  -5  -7  270.61    7.30   0
  -3  -5 -10  193.27    6.79   0
  -2  -3  -9  112.97    5.82   0
  -1  -3  -9  484.97    8.58   0
  -2  -7 -10   27.05    4.68   0
  -2  -5 -10   55.52    6.39   0
  -4  -4  -8  253.80    7.65   0
  -4  -3  -7  236.45    6.61   0
  -3  -4  -9  118.03    6.64   0
  -2  -8  -9   89.11    3.62   0
  -1  -8  -9   22.66    4.18   0
   0  -4  -9  447.69   10.01   0
  -5  -6  -6   60.19    5.16   0
  -3  -3  -8  297.09    7.73   0
  -5  -5  -6  362.38    8.37   0
  -3  -8  -8   43.14    3.60   0
   0  -7  -9   27.60    5.02   0
  -4  -8  -6  100.34    4.15   0
  -4  -5  -8   31.99    6.08   0
  -3  -5  -9  287.82    7.70   0
  -2  -4  -9  416.06    8.92   0
  -1  -4  -9   56.06    5.87   0
   0  -8  -8  113.14    5.88   0
   0  -5  -9   74.53    7.59   0
  -2  -3  -8   29.66    4.53   0
   0  -6  -9  183.32    7.59   0
  -5  -6  -5   59.49    5.35   0
   1  -6  -8   46.68    7.95   0
   1  -5  -8  437.62   12.17   0
  -4  -4  -7  288.81    6.87   0
  -2  -8  -8  122.72    4.32   0
  -2  -5  -9  169.13    7.05   0
  -4  -8  -5  100.16    4.44   0
  -3  -7  -8  125.38    5.57   0
   0  -4  -8  385.12    8.83   0
  -4  -6  -7  240.30    6.98   0
  -3  -5  -8  225.74    7.53   0
  -4  -8  -4  155.15    4.89   0
  -3  -6  -8   63.46    6.30   0
  -2  -4  -8  284.29    7.59   0
   0  -7  -8   80.49    5.43   0
  -4  -4  -6  461.94    8.94   0
  -2  -7  -8   26.37    4.83   0
   0  -8  -7  183.08    6.06   0
   0  -5  -8  131.48    7.55   0
   1  -7  -7  196.73    7.54   0
  -2  -8  -7  179.45    5.17   0
   0  -6  -8  240.85    8.32   0
  -3  -8  -6   31.99    3.78   0
  -3  -7  -7  206.01    6.35   0
  -3  -4  -7  177.28    6.32   0
  -2  -5  -8   92.90    6.02   0
  -4  -6  -6  224.69    7.18   0
  -4  -5  -6   23.61    5.76   0
  -1  -5  -8  376.15    8.88   0
   1  -6  -7  111.29    8.01   0
  -4  -7  -5  105.51    5.30   0
  -3  -6  -7   68.70    6.42   0
  -2  -9  -4   38.22    3.13   0
  -4  -4  -5  447.65    8.79   0
  -2  -7  -7   97.50    5.46   0
  -2  -4  -7  495.16    8.59   0
   0  -9  -4   45.14    3.92   0
   0  -8  -6  102.14    5.37   0
   0  -7  -7   36.05    5.44   0
  -4  -5  -5  106.99    6.74   0
  -2  -9  -3   43.47    3.10   0
  -1  -9  -4  127.36    4.18   0
  -1  -8  -6   52.31    3.92   0
   0  -5  -7   74.05    6.40   0
  -2  -6  -7  319.01    8.41   0
  -3  -8  -4   64.54    4.06   0
  -3  -6  -6   61.17    6.26   0
  -1  -6  -7  137.55    6.61   0
  -1  -5  -7  483.89    8.99   0
  -4  -4  -4  828.17   11.26   0
  -2  -9  -2   44.45    3.27   0
  -2  -8  -5  210.06    5.82   0
   1  -6  -6   37.98    7.13   0
   1  -5  -6  682.83   12.30   0
  -4  -6  -4  306.94    7.88   0
  -3  -7  -5  279.06    7.26   0
  -2  -7  -6   45.44    5.33   0
  -1  -9  -3  140.27    4.28   0
  -4  -5  -4  102.70    6.84   0
  -3  -8  -3   20.38    3.50   0
   0  -8  -5   49.63    5.09   0
   0  -7  -6  138.02    7.15   0
  -4  -7  -2   54.62    4.86   0
  -1  -8  -5   47.56    4.11   0
  -1  -7  -6  197.89    7.77   0
  -2  -6  -6  234.30    7.60   0
  -2  -5  -6  254.83    6.72   0
   0  -9  -2   26.58    3.51   0
   1  -7  -5  206.18    7.43   0
  -4  -7  -1   73.09    4.76   0
  -4  -6  -3  249.39    7.58   0
  -4  -4  -3  513.93    9.61   0
  -3  -6  -5   51.02    6.23   0
  -2  -8  -4  238.99    6.07   0
  -3  -7  -4  287.13    7.35   0
  -1  -9  -1   79.83    3.38   0
  -1  -6  -6  192.81    7.60   0
  -4  -5  -3   68.95    6.14   0
   0  -8  -4  125.29    5.41   0
  -4  -6  -2  312.73    8.03   0
  -1  -9   0   86.32    3.67   0
  -1  -8  -4   42.31    3.46   0
   1  -6  -5   58.81    6.69   0
  -3  -8   1   27.49    3.35   0
  -2  -8  -3  327.20    6.53   0
  -3  -7  -3  249.10    6.98   0
  -3  -6  -4  160.02    6.82   0
  -2  -6  -5  361.92    8.63   0
  -4  -5  -2  134.51    7.61   0
  -2  -7  -4   44.40    5.55   0
  -2  -5  -5  169.52    6.24   0
   1  -7  -4  246.79    7.96   0
  -2  -8  -2  211.64    5.74   0
  -1  -8  -3   66.44    4.64   0
   0  -6  -5  355.39    8.51   0
   1  -8  -2   39.30    4.44   0
  -4  -6   0  293.55    7.93   0
  -1  -5  -5  500.28    7.81   0
  -4  -5  -1  248.39    8.11   0
  -2  -8  -1   75.10    4.74   0
  -4  -6   1  291.65    7.38   0
  -2  -7  -3   81.54    5.93   0
  -1  -8  -2   40.64    4.55   0
   1  -6  -4  265.42    8.08   0
  -3  -5  -3  294.55    7.76   0
  -2  -8   0  240.45    5.37   0
   1  -7  -3  262.85    8.26   0
   2  -8   1  133.79    6.14   0
  -4  -5   0  153.59    7.30   0
  -3  -7   0  220.91    6.43   0
  -2  -8   2  106.99    4.07   0
  -1  -8  -1   90.80    4.86   0
  -1  -7  -3  332.01    7.73   0
  -1  -6  -4  194.58    6.78   0
  -3  -7   4   81.82    4.44   0
  -2  -7  -2  114.05    6.14   0
  -3  -7   3  136.63    5.58   0
  -2  -6  -3  445.94    8.94   0
  -3  -7   2  166.66    5.55   0
  -3  -5  -2  283.78    7.85   0
  -1  -8   0  152.57    5.06   0
  -3  -6  -1   80.64    6.23   0
   0  -8   0  138.97    5.19   0
   1  -7  -2  412.80    8.93   0
   1  -6  -3  127.70    6.82   0
  -1  -6  -2   39.15    6.97   0
   0  -7   3   96.99    7.01   0
   1  -8  -1   30.00    5.07   0
   1  -8   0   33.36    4.96   0
   1  -8   1   15.46    4.82   0
   2  -8   3   85.88    4.54   0
  -1  -6   1   51.57    7.35   0
   1  -7   5  151.53    6.34   0
   2  -7   6   34.62    4.27   0
  -1  -6   0  390.64    9.20   0
  -1  -5   4  562.57   12.37   0
   0  -7  -2  148.16    7.81   0
   0  -6  -4  530.75   11.54   0
   1  -7  -4  265.86    9.47   0
   2  -8  -2  243.55    7.13   0
   3  -8   3   52.94    4.04   0
  -1  -4   5  137.51    8.41   0
   0  -7  -1   74.94    7.14   0
   0  -7   1  120.88    7.40   0
   2  -8   2  117.65    5.08   0
   0  -7   0  111.35    7.44   0
   2  -8   0  156.36    5.73   0
   2  -8   1  118.91    5.37   0
   3  -8  -1   50.49    4.52   0
   0  -6  -3  655.07   11.74   0
   1  -7  -3  264.18    8.61   0
   2  -7  -4   62.02    6.85   0
   3  -8   1   52.01    4.01   0
  -1  -5   1  446.59    9.54   0
   1  -6   6   75.40    6.15   0
   1  -7   3  188.61    7.29   0
   2  -6   7  126.66    5.76   0
   1  -7  -1  329.86    9.18   0
   2  -7  -3  106.78    7.64   0
   0  -6  -1  734.52   11.83   0
   0  -6   2  391.42   10.03   0
   0  -5   5   86.29    7.81   0
   1  -7   0  200.52    7.90   0
   1  -7   1  239.51    7.87   0
   1  -5   7  357.22   10.42   0
   2  -7   4   41.24    5.00   0
   0  -6   0  640.55   11.52   0
   0  -6   1  245.63    8.66   0
   1  -6   5   78.82    6.83   0
   3  -7  -3  188.33    8.14   0
   5  -7  -1  114.35    6.20   0
   2  -7  -2  112.63    6.70   0
   0  -5   4  120.45    6.27   0
   3  -7   4   72.66    4.61   0
   4  -7  -2   73.18    5.61   0
   4  -7   4   42.99    3.71   0
   4  -6   7   83.26    4.67   0
   2  -7   0   51.27    5.78   0
   2  -7   1   64.48    5.96   0
   2  -6  -4  333.42    9.86   0
   3  -7  -2  307.73    7.84   0
   5  -7   0   77.45    4.97   0
   5  -7   2   74.21    4.51   0
   3  -7   3  162.37    5.80   0
   0  -4   5  490.20   10.95   0
   1  -6   3  123.45    7.41   0
   3  -7  -1  243.75    7.31   0
   4  -7   3   34.82    3.91   0
   0  -5   1  273.37    7.66   0
   0  -5   2  164.85    6.97   0
   3  -7   2  185.65    6.45   0
   1  -6   2  218.39    8.18   0
   3  -7   1  184.97    6.56   0
   3  -6   6   39.37    5.01   0
   3  -5   8  223.46    6.37   0
   4  -7   2   76.04    4.72   0
   2  -6  -3  234.84    8.54   0
   2  -5   7   28.60    5.93   0
   1  -5   5  306.66    9.40   0
   2  -6   4  329.30    8.57   0
   4  -5   8   24.56    4.15   0
   2  -6  -2  330.96    9.05   0
   3  -6  -3   71.91    6.84   0
   3  -6   5   55.41    5.57   0
   4  -6  -3  233.37    7.97   0
   5  -6  -2   29.32    6.13   0
   2  -5   6  176.98    7.61   0
   4  -6   5   88.10    4.92   0
   6  -6   1   65.41    4.54   0
   1  -4   6   86.10    7.21   0
   2  -6   0  382.38    9.14   0
   2  -6   2  295.17    8.50   0
   1  -5   3  405.70    9.12   0
   3  -6  -2  192.73    7.58   0
   4  -4   9  155.79    5.70   0
   1  -5   2  792.36   10.79   0
   4  -6  -2  282.92    8.49   0
   2  -5  -3  142.78    6.86   0
   3  -6  -1  161.01    7.27   0
   3  -6   3   52.88    6.01   0
   4  -5   7   27.36    4.79   0
   5  -5   7   85.19    4.02   0
   3  -6   0   45.04    6.27   0
   3  -6   2   62.29    6.23   0
   5  -6   0  105.50    6.33   0
   5  -6   3   51.67    4.46   0
   6  -5   6   55.99    3.33   0
   2  -4   7  288.70    8.97   0
   3  -6   1   42.83    6.20   0
   3  -4   8   77.04    6.22   0
   4  -6   3  181.26    6.51   0
   5  -6   2   68.56    5.09   0
   4  -6   1  196.51    7.36   0
   4  -6   2  200.92    7.14   0
   2  -5  -2  434.98    8.63   0
   2  -5   4  174.28    7.61   0
   3  -5  -3  277.60    8.86   0
   5  -5   6   55.78    4.46   0
   6  -5   5   55.28    3.77   0
   2  -5   3  134.45    6.81   0
   4  -5  -3  111.50    7.70   0
   4  -4   8  174.60    6.19   0
   6  -5  -1   48.95    6.20   0
   2  -5   2  278.85    7.82   0
   5  -4   8   54.03    4.28   0
   2  -5   1  392.29    8.33   0
   6  -5   4   76.25    4.53   0
   6  -3   9   36.12    3.69   0
   3  -5  -2  262.72    8.53   0
   3  -5   4  269.03    8.42   0
   3  -4   7   63.54    6.58   0
   5  -5   5  205.85    6.16   0
   6  -5   1   62.85    5.13   0
   3  -5  -1  241.24    8.08   0
   4  -5  -2  197.21    8.37   0
   4  -3   9   58.54    5.62   0
   6  -5   2   82.73    5.13   0
   7  -4   5   35.37    3.44   0
   4  -5   4    6.96    6.11   0
   4  -4   7  269.72    7.73   0
   5  -5  -1  446.09   10.69   0
   5  -5   4  251.57    6.97   0
   5  -3   9  177.84    5.62   0
   7  -4   0   62.57    6.33   0
   3  -5   0  379.64    9.03   0
   3  -5   1  350.39    8.66   0
   4  -5  -1  103.37    7.25   0
   3  -4   6   92.56    7.09   0
   3  -3   8  422.58    9.72   0
   4  -5   1   59.29    6.73   0
   4  -5   2   58.36    6.70   0
   5  -5   1  222.66    8.78   0
   6  -4   6  143.21    5.06   0
   7  -3   7   77.01    3.61   0
   4  -3   8  112.35    6.83   0
   5  -4   6   84.05    5.98   0
   6  -4   5  148.73    5.64   0
   5  -3   8  204.90    6.28   0
   6  -4  -1  244.89    8.36   0
   3  -3   7  297.05    8.82   0
   7  -3   6   92.94    4.11   0
   3  -4   4  187.03    7.47   0
   4  -4   5  264.74    8.71   0
   5  -4  -2   75.24    7.70   0
   5  -4   5   23.27    6.02   0
   6  -4   4  132.39    6.05   0
   7  -3  -1  186.44    9.08   0
   7  -2   8   25.60    3.26   0
   6  -4   0  252.52    8.34   0
   6  -4   3  141.23    6.74   0
   3  -4   3  144.62    6.76   0
   6  -4   2  166.49    7.45   0
   6  -1  10   60.56    4.79   0
   8  -2   5   85.07    4.15   0
   4  -4   4  470.38   10.19   0
   4  -3   7  192.29    7.90   0
   5  -4  -1   79.24    8.16   0
   5  -4   4   52.18    6.46   0
   5  -2   9   50.81    4.99   0
   7  -1   9  141.32    4.97   0
   8  -2   1  162.03    7.22   0
   3  -4   2  128.44    5.30   0
   4  -4  -1  288.61    9.63   0
   5  -3   7  189.25    7.01   0
   7  -3   0  224.10    8.21   0
   8  -2   4   86.72    4.94   0
   4  -4   3  421.38    9.78   0
   5  -4   0  267.55    9.82   0
   7  -3   4  122.01    5.30   0
   8  -2   2  182.18    6.72   0
   4  -4   2  428.23   10.11   0
   6  -3  -2  126.78    9.39   0
   6  -3   6    9.93    4.83   0
   7  -3   3  137.83    6.21   0
   7  -2   7   32.22    3.74   0
   5  -3   6  152.59    7.36   0
   3  -3   5  541.37    9.71   0
   8  -1   6   13.18    3.38   0
   5  -2   8   76.58    5.97   0
   7  -2   6   37.22    4.22   0
   3  -2   7  220.09    7.90   0
   6  -3   4   56.49    6.20   0
   6  -1   9   75.46    5.17   0
   7  -1   8  112.42    4.68   0
   4  -3   5  337.80    9.08   0
   5  -3   5  473.37    9.92   0
   6   0  10  122.12    5.60   0
   7  -2  -1  110.13    7.46   0
   8  -1   5   42.44    4.04   0
   6  -3   0   44.24    7.15   0
   8  -1   1   52.00    5.54   0
   8   0   7   94.50    4.00   0
   5  -1   9  193.08    6.79   0
   6  -3   2   61.65    7.26   0
   8  -1   4   41.58    4.26   0
   4  -2   7  416.11    9.65   0
   5  -2   7  141.44    7.23   0
   7  -2   0   75.54    7.01   0
   5  -3   3  182.56    8.31   0
   7  -2   4   43.51    5.58   0
   7  -1   7  145.05    5.42   0
   4  -3   3  251.77    7.85   0
   5  -3   0  437.23   11.51   0
   7  -2   1   46.95    6.64   0
   7  -2   3   49.87    6.08   0
   6  -2  -2  198.68    9.96   0
   6  -1   8   75.49    5.53   0
   8   0   0  140.07    7.90   0
   8   0   6  110.41    4.31   0
   4  -3   1  273.28    7.77   0
   4  -2   6  315.32    8.68   0
   5  -2   6  106.74    7.03   0
   6  -2   5  221.47    7.84   0
   6   1  10   69.06    5.90   0
   7  -1   6  157.92    5.98   0
   8   1   7   32.51    3.29   0
   5  -1   8  185.63    7.09   0
   8   0   1   96.98    7.03   0
   8   0   5   94.85    4.65   0
   6  -2   4  185.20    7.82   0
   7  -1  -1  160.24    8.51   0
   7  -1   5  132.61    6.25   0
   8   0   4   74.27    4.96   0
   4  -2   5  378.75    8.79   0
   5   0   9  106.32    6.15   0
   6  -2   0  441.94   11.62   0
   6  -2   3  186.76    8.34   0
   5  -2  -2  195.33    9.28   0
   6  -2   2  264.63    9.46   0
   8   1   6   22.55    3.68   0
   8   2   7   90.11    4.18   0
   5  -2   4  109.17    7.18   0
   5  -1   7  212.28    7.68   0
  -1  -1 -14   91.56    5.88   0
   0  -3 -15   25.05    4.94   0
  -3   1  -9  640.39   10.08   0
  -2  -2 -15   64.01    4.41   0
  -2  -1 -14   20.09    4.59   0
  -2   1 -10  106.75    6.30   0
  -1   1 -10  193.53    7.41   0
   0   1  -9  154.39    6.77   0
  -2   0 -12  233.98    7.53   0
  -1   0 -12   50.18    6.67   0
   0  -2 -14  142.10    6.61   0
   1  -2 -13   49.51    7.04   0
   1   0 -10   57.02    7.17   0
  -4  -1 -12   56.49    4.77   0
  -3  -3 -15   32.45    3.71   0
  -4  -3 -14   26.07    4.01   0
  -3  -1 -13  182.54    6.87   0
  -2   1  -9  117.17    4.81   0
  -1   1  -9  639.99    9.74   0
  -4  -2 -13  122.66    4.89   0
  -3  -2 -14   34.48    5.10   0
  -2  -3 -15   26.24    4.23   0
  -3  -4 -15   41.10    3.39   0
  -2  -1 -13   13.13    5.37   0
  -1  -2 -14   12.24    5.07   0
  -2   0 -11  420.25    8.86   0
  -1   0 -11  387.91    9.16   0
   1  -1 -11  190.22    9.09   0
   1   0  -9  157.92    7.26   0
  -4  -4 -14   93.69    4.72   0
  -4  -1 -11  119.07    5.91   0
   1  -3 -13  231.11    8.82   0
  -3   0 -10    3.89    5.47   0
   0   0 -10  127.08    7.32   0
   1  -2 -12   42.67    7.58   0
  -3  -3 -14   98.30    5.31   0
  -4  -2 -12  100.42    5.30   0
  -3  -2 -13   48.35    4.89   0
  -2  -1 -12  113.15    6.88   0
  -2   0 -10  831.13   10.60   0
  -1   0 -10  345.17    8.42   0
   0  -4 -14  102.83    6.43   0
   1  -4 -13   22.40    6.76   0
  -4  -1 -10   13.58    5.30   0
  -2  -3 -14   18.44    4.90   0
  -1  -2 -13   19.42    6.07   0
   0  -5 -14   30.44    5.66   0
   0   0  -9  348.21    7.93   0
   1  -1 -10  424.71   10.57   0
  -2  -2 -13   93.50    6.18   0
  -3  -4 -14   32.28    3.93   0
  -4  -4 -13   88.80    5.12   0
  -2   0  -9  958.01   10.45   0
  -1   0  -9  286.94    7.14   0
   0  -3 -13   28.89    6.57   0
   1  -3 -12  197.20    9.36   0
  -3  -5 -14   91.53    4.31   0
  -2  -1 -11   91.53    6.59   0
  -1  -4 -14   22.91    4.95   0
  -1  -1 -11   85.05    6.86   0
  -4  -5 -13   26.40    4.00   0
  -4  -3 -12   76.75    5.28   0
  -3  -2 -12   72.67    7.00   0
  -3  -1 -10  329.42    8.16   0
  -2  -6 -14   77.13    4.42   0
  -2  -5 -14   15.34    3.77   0
  -2  -3 -13   27.60    5.66   0
  -1  -3 -13  234.86    7.65   0
  -1  -2 -12   22.51    6.36   0
   0  -4 -13  161.27    7.53   0
   1  -4 -12   27.90    7.62   0
  -4  -2 -10  161.31    6.50   0
   0  -5 -13   41.05    5.87   0
   1  -5 -12  105.71    8.95   0
   1  -2 -10  180.66    8.63   0
  -4  -3 -11  104.48    5.83   0
  -3  -6 -13   31.22    4.25   0
  -3  -1  -9  818.69   10.31   0
  -4  -5 -12   35.79    4.65   0
  -3  -5 -13   74.10    4.44   0
  -2  -4 -13  124.53    6.40   0
  -2  -2 -11  208.68    7.54   0
  -1  -2 -11  186.48    7.87   0
  -4  -2  -9  330.19    7.77   0
  -2  -3 -12  133.33    7.31   0
  -1  -3 -12  144.90    7.40   0
  -2  -6 -13   98.76    4.79   0
  -2  -5 -13   71.63    4.97   0
  -2  -1  -9  119.69    5.31   0
   0  -7 -12   17.21    4.22   0
  -4  -4 -11  167.98    6.63   0
  -3  -7 -12   87.43    4.14   0
  -3  -4 -12   37.67    5.56   0
   1  -2  -9  127.41    7.79   0
  -4  -3 -10   30.65    5.55   0
   0  -3 -11   34.00    7.19   0
   0  -5 -12   32.07    6.28   0
   1  -3 -10  341.33   10.64   0
  -4  -5 -11   23.31    5.16   0
  -4  -2  -8  375.96    8.06   0
  -3  -6 -12    9.18    4.06   0
  -3  -5 -12  160.35    5.84   0
  -2  -4 -12   80.43    6.71   0
  -2  -2 -10  328.62    7.78   0
  -1  -4 -12   49.18    6.53   0
  -1  -2 -10   42.10    5.52   0
   0  -6 -12   52.94    5.39   0
  -2  -7 -12   30.28    3.55   0
  -3  -2  -9  262.98    7.28   0
  -2  -3 -11   32.60    4.90   0
  -4  -7 -10   54.95    4.06   0
  -2  -5 -12   98.13    5.80   0
  -1  -5 -12  101.51    6.64   0
  -4  -3  -9  280.55    7.42   0
  -3  -4 -11   40.15    6.10   0
  -2  -6 -12   65.97    4.88   0
  -1  -6 -12   55.49    4.95   0
   0  -4 -11  232.63    8.90   0
  -3  -7 -11   89.21    4.16   0
   0  -7 -11   46.23    5.04   0
   1  -7 -10  113.63    7.37   0
   1  -4 -10   21.51    7.64   0
  -2  -2  -9  410.65    7.56   0
   1  -3  -9  243.57    9.20   0
  -4  -6 -10  113.80    5.25   0
  -4  -5 -10    8.91    5.18   0
  -3  -5 -11  217.81    6.83   0
  -2  -4 -11  284.99    8.65   0
  -1  -4 -11  208.71    7.92   0
  -1  -2  -9    6.92    3.34   0
   0  -5 -11   73.92    7.33   0
  -3  -6 -11   23.04    4.72   0
  -3  -2  -8  172.22    5.89   0
  -2  -3 -10   25.97    5.71   0
  -1  -3 -10  350.14    8.21   0
   0  -6 -11  155.27    7.06   0
  -4  -4  -9  291.94    7.79   0
  -4  -3  -8  249.74    7.48   0
  -2  -7 -11    6.92    3.95   0
  -1  -7 -11   75.35    5.08   0
   1  -6 -10   -0.96    6.53   0
  -3  -4 -10   61.60    6.29   0
  -2  -8 -10   86.35    4.06   0
  -2  -5 -11   28.46    5.59   0
  -1  -5 -11  103.97    7.22   0
  -2  -6 -11  214.33    6.43   0
  -1  -8 -10    5.78    3.57   0
  -1  -6 -11  108.68    5.75   0
   0  -4 -10  205.83    8.47   0
  -3  -7 -10   77.60    4.46   0
  -4  -6  -9  168.81    6.11   0
  -4  -5  -9  103.57    6.24   0
   1  -4  -9   73.88    7.85   0
  -4  -3  -7  230.74    7.11   0
  -3  -6 -10   34.57    5.36   0
  -2  -3  -9  118.95    6.05   0
  -1  -4 -10   51.82    6.30   0
  -4  -4  -8  253.86    7.64   0
   0  -8  -9  115.43    5.53   0
   0  -5 -10  177.66    8.35   0
  -2  -7 -10   29.00    4.58   0
   0  -6 -10  167.40    7.37   0
  -3  -3  -8  275.98    7.07   0
  -2  -8  -9   76.96    3.67   0
  -2  -5 -10   56.71    6.20   0
   1  -6  -9   66.53    7.62   0
  -4  -5  -8   24.88    5.57   0
  -2  -6 -10  243.86    7.14   0
  -1  -8  -9   17.59    3.75   0
  -1  -6 -10   39.47    5.53   0
  -4  -6  -8  164.82    6.12   0
  -3  -5  -9  275.70    8.14   0
  -2  -4  -9  396.33    9.17   0
  -4  -7  -7   56.35    4.56   0
  -4  -4  -7  439.52    9.06   0
  -3  -6  -9   53.55    4.85   0
  -2  -3  -8   32.02    4.62   0
  -1  -4  -9   58.85    5.85   0
   0  -7  -9   44.42    4.93   0
   0  -5  -9   81.41    7.51   0
   1  -7  -8  198.05    7.97   0
   0  -8  -8  118.27    5.46   0
   0  -6  -9  190.52    7.81   0
   1  -8  -7   82.92    5.19   0
  -4  -6  -7  255.38    7.15   0
  -3  -8  -7   57.98    3.82   0
  -2  -8  -8  126.27    4.61   0
  -2  -6  -9  179.44    7.17   0
  -1  -5  -9  285.69    8.70   0
   1  -5  -8  374.74   10.70   0
  -1  -8  -8   15.67    3.58   0
   1  -6  -8   67.69    8.19   0
  -4  -7  -6   60.29    4.93   0
  -4  -4  -6  446.34    9.23   0
  -3  -6  -8   71.19    6.59   0
  -2  -4  -8  313.49    8.14   0
  -1  -9  -6   71.00    3.55   0
  -1  -4  -8  128.95    6.11   0
   0  -7  -8   72.69    5.51   0
  -3  -4  -7  174.09    6.46   0
  -2  -9  -5   33.16    3.20   0
  -2  -7  -8   43.68    5.04   0
  -4  -6  -6  196.06    7.18   0
  -4  -5  -6   19.21    5.95   0
  -3  -7  -7  208.88    6.82   0
  -2  -5  -8   91.67    6.12   0
   0  -9  -5   29.43    4.06   0
   1  -8  -6   46.37    5.01   0
   1  -7  -7  196.10    7.54   0
  -4  -7  -5  104.57    5.49   0
  -1  -8  -7   20.06    3.71   0
  -4  -4  -5  436.04    9.60   0
  -1  -9  -5   92.92    4.05   0
   1  -5  -7  375.86   10.47   0
  -2  -9  -4   39.68    3.26   0
   1  -6  -7  107.18    8.02   0
  -2  -4  -7  485.50    8.84   0
  -4  -7  -4   72.48    5.29   0
  -4  -6  -5  207.69    7.63   0
  -4  -5  -5  130.93    7.09   0
  -2  -8  -6  164.68    5.70   0
  -2  -7  -7  100.87    5.91   0
  -3  -4  -6  102.61    5.81   0
  -2  -9  -3   45.39    3.75   0
  -1  -9  -4  122.98    4.88   0
  -2  -6  -7  334.74    8.90   0
  -2  -5  -7  294.18    7.44   0
  -1  -8  -6   51.82    4.21   0
   1  -7  -6  227.38    8.07   0
  -4  -7  -3   61.46    6.06   0
  -1  -6  -7  160.81    7.37   0
  -4  -5  -4   96.33    7.13   0
  -2  -8  -5  228.21    6.52   0
  -1  -9  -3  118.26    4.47   0
   1  -6  -6   32.83    7.38   0
  -1  -8  -5   54.50    4.92   0
  -2  -6  -6  260.28    8.63   0
  -1  -9  -2  151.18    4.60   0
  -4  -7  -1   75.38    5.38   0
  -4  -6  -3  287.81    8.56   0
   1  -7  -5  230.40    8.01   0
   6   5   7   52.15    5.55   0
   8   2   6  109.96    4.51   0
   3   3   8  246.53    6.91   0
   6  -1   6   30.36    6.30   0
   6   4   8  123.84    6.22   0
   7   1   7  204.75    6.66   0
   4  -1   6  108.69    6.64   0
   4   0   7  516.49    9.13   0
   6   3   8   32.63    5.98   0
   7   3   7  194.04    5.73   0
   8   3   5   54.25    4.03   0
   4   2   8  373.97    8.41   0
   5   0   7  219.18    7.71   0
   6   5   6   61.42    6.86   0
   7  -1   4  146.85    6.50   0
   7   4   6   85.74    4.98   0
   6   4   7  190.62    6.95   0
   4   4   7  311.66    8.17   0
   5   1   7  291.36    8.91   0
   5   4   7   59.29    5.70   0
   6   2   7  268.72    8.13   0
   7   2   6   49.09    5.31   0
   7   3   6  117.79    5.75   0
   8   2   4  200.66    5.47   0
   7  -1   3  195.70    7.43   0
   4   2   7  337.22    7.88   0
   4   3   7  149.13    5.38   0
   5   2   7  148.19    8.35   0
   6   4   6  220.25    7.41   0
   7   3   5  173.84    6.12   0
   6   2   6  342.68    8.77   0
   6   3   6    6.87    6.30   0
   7  -1   2  289.63    8.31   0
   8   3   2   47.29    4.27   0
   4   4   6  368.55    9.26   0
   5   1   6  503.33    9.93   0
   5   4   6   50.38    5.88   0
   5   5   5  291.04    7.89   0
   6   5   4  125.79    6.28   0
   8   2   2  238.26    6.10   0
   7   0   3  125.54    6.78   0
   8   3   1   79.62    4.55   0
   4   2   6  463.87    8.69   0
   4   3   6  140.17    5.37   0
   5   2   6   76.68    5.69   0
   6   1   5  206.89    7.73   0
   7  -1   1  287.86    8.83   0
   7   3   4  329.13    7.14   0
   7   2   4   63.61    5.46   0
   8   2   1  149.08    5.77   0
   6   2   5  224.97    8.19   0
   6   3   5  143.72    7.27   0
   5   5   4  382.23    9.14   0
   6   5   3   77.44    5.99   0
   5  -1   3  506.35    9.04   0
   5   1   5  732.92   10.63   0
   7  -1   0  194.89    9.38   0
   7   0   2  182.08    7.05   0
   7   1   3  363.06    8.19   0
   8   2   0  211.53    5.66   0
   4   4   5  411.06    9.78   0
   6  -1   2  185.06    7.79   0
   7   3   3  514.26    8.55   0
   5   2   5   59.40    6.33   0
   7   2   3   83.93    5.63   0
   8   1  -2   49.58    4.64   0
   6   5   2   43.29    5.77   0
   4   3   5  236.05    6.96   0
   6   2   4  287.23    8.71   0
   6   3   4  130.20    7.01   0
   7  -1  -1  175.06    8.14   0
   7   0   1   82.72    6.32   0
   7   1   2  497.96    8.91   0
   5   5   3  486.69   10.12   0
   7   3   2  403.52    8.03   0
   5   4   4  185.39    7.39   0
   6  -1   1   51.33    6.69   0
   6   4   3  404.42    8.63   0
   7   2   2  105.13    5.86   0
   5  -1   2  573.33    9.93   0
   6   5   1   31.57    5.49   0
   7   4   0   83.42    5.45   0
   4   4   4  564.21    9.19   0
   6   0   2  858.63   11.48   0
   5   2   4  240.25    7.21   0
   6   3   3  107.78    6.72   0
   7  -1  -3  298.24    8.59   0
   7   3   1  149.89    6.82   0
   5   5   2  220.57    8.86   0
   6   2   3  278.35    7.17   0
   6   5   0   29.45    5.27   0
   7   2   1   -5.60    5.39   0
   7   4  -2   21.07    4.57   0
   5   4   3  155.60    7.51   0
   7   1   0  161.26    7.28   0
   7   3   0  242.23    7.17   0
   5  -1   1  791.98   11.93   0
   5   1   3  649.39    8.98   0
   6   1   2  153.77    7.20   0
   6   5  -2   34.30    5.49   0
   6   5  -3   21.01    4.92   0
   7   0  -2   66.79    5.76   0
   7   3  -1  143.90    6.43   0
   5   3   3  360.66    8.71   0
   5   5   1  291.09    9.48   0
   6   2   2  302.25    8.53   0
   7   1  -1  193.86    7.22   0
   4   4   3  511.84    8.39   0
   6  -1  -1  124.69    7.94   0
   7   0  -6    8.97    5.11   0
   7   0  -3   53.92    5.81   0
   7   2  -1  172.64    6.54   0
   7   3  -2  183.26    6.37   0
   5   4   2  130.20    7.33   0
   7   0  -5   42.80    6.13   0
   7   3  -4  119.99    5.49   0
   7   3  -3  137.13    5.73   0
   6   3   1   59.37    6.66   0
   7   2  -2   96.64    5.95   0
   5   5   0  379.71    9.45   0
   6   0   0 1479.22   14.34   0
   5  -1   0 1182.99   13.32   0
   5   1   2  911.87   10.63   0
   7   1  -5   88.89    5.88   0
   7   2  -5   52.92    4.91   0
   7   2  -4   38.02    5.22   0
   7   2  -3  104.70    5.96   0
   4   5   1  227.39    8.60   0
   5   0   1  485.40    8.18   0
   5   3   2  304.74    8.45   0
   4   4   2  705.01   10.32   0
   5   2   2  389.30    8.31   0
   5   4   1   56.57    6.85   0
   6   3   0  115.08    7.17   0
   6  -1  -3  105.63    7.39   0
   6   0  -1  805.04   11.16   0
   6   2   0  568.77    9.89   0
   4   5   0  141.18    7.90   0
   5  -1  -1  687.51   10.86   0
   5   1   1 1066.40   11.69   0
   5   3   1  212.50    7.80   0
   5   5  -5   63.72    6.37   0
   6  -1  -4  141.60    7.99   0
   6   1  -1   76.64    6.60   0
   5   0   0  377.01    7.62   0
   5   2   1  375.30    7.87   0
   5   4   0   69.23    7.06   0
   5   5  -4   44.12    5.65   0
   5   5  -3  123.46    7.00   0
   6   0  -2  684.44   10.50   0
   6   2  -1  230.27    7.91   0
   6  -1  -5   44.28    6.65   0
   6   3  -2  161.87    8.02   0
   4   4   1  375.38    9.16   0
   4   5  -1  134.95    7.80   0
   6   0  -3  533.74    9.97   0
   6   1  -2  184.61    7.65   0
   6   2  -2  313.66    8.73   0
   6   3  -3  140.96    7.45   0
   5   3   0  410.73    9.17   0
   6   0  -8  133.93    7.75   0
   6   3  -5   22.54    5.54   0
   6   3  -4  143.11    7.54   0
   6   0  -4  412.20    9.41   0
   6   1  -3  111.21    7.49   0
   5   0  -1  114.70    5.82   0
   5   4  -2   70.04    7.42   0
   6   0  -5  550.40   10.42   0
   4   5  -2  166.23    8.09   0
   6   0  -6  230.55    7.91   0
   6   1  -4  152.95    7.83   0
   6   2  -4  186.88    8.46   0
   4   5  -7   11.68    5.48   0
   5   3  -1  275.43    8.75   0
   6   1  -5   13.29    6.57   0
   6   2  -6  107.64    6.88   0
   6   2  -5  313.41    8.91   0
   4   5  -3   85.75    7.54   0
   5  -1  -3  792.14   12.00   0
   5   1  -1  723.37   10.49   0
   6   1  -6   22.77    6.37   0
   4   5  -6   67.90    7.14   0
   5   2  -1  138.29    6.77   0
   4   5  -5   63.34    6.32   0
   5   3  -2  337.67    9.46   0
   4   4  -1  571.64   10.87   0
   5  -1  -4  621.81   11.54   0
   5   2  -2  177.75    7.37   0
   5   3  -8   98.23    6.43   0
   5   3  -3  347.29    9.78   0
   5  -1  -5  169.19    8.57   0
   5   0 -10   53.54    6.87   0
   5   3  -7  180.81    8.02   0
   5   3  -4  179.62    8.88   0
   3   5  -3  210.70   10.06   0
   5  -1  -8  125.27    8.25   0
   5  -1  -7  383.11   10.70   0
   5  -1  -6  450.50   10.88   0
   5   1  -3  682.22   11.02   0
   5   2  -9   21.36    5.65   0
   5   2  -3  130.44    7.63   0
   5   3  -5  261.13    9.55   0
   3   5  -7  155.90    8.59   0
   4  -1 -12   37.80    8.61   0
   5   0  -9   89.09    7.91   0
   5   1  -9  115.59    7.52   0
   5   2  -8   37.01    6.93   0
   5   2  -4  214.44    9.29   0
   4   4  -4  223.18    9.59   0
   5   0  -5  447.57   10.58   0
   5   2  -5  115.24    8.61   0
   3   5  -6  131.08    7.96   0
   3   5  -5  155.84    8.82   0
   4   3 -10   13.82    5.38   0
   4   4  -5  122.58    8.76   0
   5   0  -8   87.41    7.92   0
   5   0  -7   95.95    8.59   0
   5   0  -6   78.60    8.24   0
   5   1  -8  151.05    8.71   0
   5   1  -5  170.03    9.19   0
   5   2  -7   16.35    5.50   0
   5   2  -6   -7.23    7.45   0
   4   4  -6  141.12    8.38   0
   5   1  -7  295.64   10.55   0
   5   1  -6  630.76   12.85   0
   4   0 -12   79.99    7.46   0
   4   2 -11   41.61    6.07   0
   3   4  -2  163.88    8.15   0
   4  -1 -11   64.46    9.24   0
   4   3  -9   22.55    7.12   0
   3  -1   8  458.89   10.32   0
   5  -2   8   71.95    7.13   0
   6   2   9  116.25    6.36   0
   7  -2   7   34.95    4.60   0
   4   0   9  216.93    8.35   0
   6   0   9  136.91    6.82   0
   8   1   7   26.60    3.84   0
   3   2   8  145.50    5.47   0
   4   3   8  239.49    8.81   0
   5   2   9   55.49    7.56   0
   6  -3   6    6.39    5.61   0
   6   3   8   31.19    5.58   0
   7   2   8   17.97    4.76   0
   3   0   8   34.58    6.03   0
   5   1   9  157.99    7.83   0
   3   1   8  331.03    7.52   0
   5  -3   6  162.35    8.34   0
   6  -1   8   62.10    6.47   0
   7   1   8   97.50    5.52   0
   4  -2   7  431.60   10.31   0
   7  -2   6   29.23    4.91   0
   7  -1   7  147.79    5.76   0
   5  -2   7  128.92    7.59   0
   8   0   6  107.25    4.51   0
   8   1   6   26.72    3.63   0
   4   0   8  457.79    9.51   0
   6   0   8  150.42    7.19   0
   7   2   7   29.94    5.27   0
   4   3   7  219.89    8.39   0
   5   2   8   89.24    8.00   0
   6  -3   5   16.98    5.88   0
   6   1   8  110.42    7.89   0
   8  -1   5   41.97    3.83   0
   5   1   8  186.07    7.99   0
   7   0   7   74.93    5.67   0
   4  -1   7  115.92    7.08   0
   6  -1   7  131.19    7.23   0
   7   1   7  191.64    6.55   0
   4  -2   6  280.19    8.57   0
   6  -2   6  267.59    8.15   0
   5  -1   7  189.32    8.21   0
   7  -2   5   27.51    5.35   0
   7  -1   6  134.68    6.10   0
   8   0   5   93.32    4.37   0
   8   1   5   52.27    4.12   0
   5  -2   6  103.42    7.24   0
   6   2   7  251.99    8.03   0
   6  -3   4   55.92    7.24   0
   6   1   7   97.60    7.69   0
   6   3   6    8.29    6.17   0
   8  -1   4   46.91    4.04   0
   4   3   6  153.39    7.98   0
   5   0   7  234.90    9.14   0
   5   2   7  125.27    8.14   0
   7   0   6  122.86    6.56   0
   5   1   7  234.12    8.56   0
   7   1   6  149.36    6.47   0
   4  -3   4  118.36    8.02   0
   5  -3   4  346.08    9.51   0
   6  -1   6   21.23    6.63   0
   8   0   4   90.33    4.60   0
   8   1   4   42.17    4.47   0
   8   2   3  375.92    7.99   0
   4  -1   6  121.04    6.43   0
   7  -2   4   41.91    4.19   0
   4  -2   5  324.79    8.30   0
   5  -1   6  239.47    8.33   0
   6   2   6  325.71    8.72   0
   6   3   5  140.10    7.59   0
   6  -3   3   35.62    6.44   0
   7   0   5  112.95    6.45   0
   8  -2   1  149.14    6.20   0
   8   1   3   42.67    4.37   0
   8   2   2  201.62    6.60   0
   5   0   6  135.26    8.02   0
   5   2   6   71.50    5.72   0
   5   1   6  482.76   10.42   0
   5   3   5  233.43    6.90   0
   6  -1   5  107.02    7.15   0
   7   3   3  520.63    9.15   0
   8  -1   2   68.64    4.45   0
   5  -3   3  179.96    8.18   0
   6  -2   4  186.17    8.07   0
   7  -3   1  307.88    7.53   0
   8  -2   0  147.44    5.60   0
   8   2   1  190.78    7.08   0
   6   2   5  232.56    8.23   0
   8   1   2   38.80    5.25   0
   6   3   4  125.39    7.50   0
   7   0   4  138.65    6.57   0
   5  -2   4   93.40    6.47   0
   6   1   5  225.69    8.24   0
   7   1   4  210.93    7.04   0
   8  -2  -1  242.22    5.88   0
   8  -1   1   50.71    4.54   0
   8   2   0  213.54    6.48   0
   5   2   5   54.49    6.09   0
   5   0   5   62.11    6.66   0
   6  -1   4  220.34    7.65   0
   7  -1   3  192.67    7.09   0
   8  -2  -2  244.84    6.04   0
   8   1   1   45.60    4.64   0
   5   1   5  791.46   11.96   0
   6  -2   3  186.86    8.01   0
   8  -1   0   57.53    4.44   0
   8   0   1   82.12    5.05   0
   5  -3   2  205.23    7.86   0
   6  -3   1   52.43    7.61   0
   7  -3  -1  227.01    7.08   0
   7   1   3  328.04    7.55   0
   8   1   0   55.40    4.48   0
   7  -1   2  341.61    7.79   0
   7   2   2  106.90    6.03   0
   7   3   0  228.67    7.39   0
   8   1  -1   19.24    3.98   0
   5   2   4  239.42    6.84   0
   8  -1  -2   91.87    4.24   0
   8   0  -1  182.54    5.19   0
   5   0   4  166.19    6.46   0
   7   3  -1  135.23    6.70   0
   8  -1  -3   74.85    3.93   0
   5   3   3  383.48    8.85   0
   6   3   2   64.39    6.72   0
   8   0  -2  184.68    5.00   0
   5  -3   1  181.91    7.81   0
   6  -3   0   54.04    6.42   0
   6   0   3  523.52    9.63   0
   7  -3  -3  310.02    6.87   0
   7  -1   1  360.71    7.78   0
   8   0  -3  146.66    4.86   0
   6   1   3  230.22    7.47   0
   5  -2   2  166.05    6.65   0
   7  -3  -5  144.69    6.64   0
   7  -3  -4  294.25    6.88   0
   6  -1   2  172.01    7.14   0
   6   3   1   58.53    6.70   0
   7   1   1  195.43    7.06   0
   5   2   3  304.03    7.22   0
   6   2   2  309.28    8.42   0
   5   0   3  215.82    6.13   0
   5   3   2  281.12    8.89   0
   6   0   2  763.79   10.79   0
   7   2  -1  153.06    6.09   0
   7   0   0   83.02    5.68   0
   6   3   0  117.46    6.92   0
   7  -1  -1  172.78    6.53   0
   5  -2   1  177.30    7.11   0
   6  -1   1   50.12    4.74   0
   7   2  -5   61.71    5.02   0
   7   0  -1  182.52    6.04   0
   7   1  -1  197.28    6.72   0
   7   2  -4   36.41    4.74   0
   7   2  -3   96.34    5.42   0
   5   2   2  376.79    7.83   0
   5   3   1  224.95    8.38   0
   6   0   1  620.67    9.51   0
   6   3  -1   70.64    6.38   0
   7  -2  -6   66.80    4.42   0
   7  -1  -2  312.51    6.99   0
   5  -3  -1  269.18    8.16   0
   5   0   2  228.71    6.05   0
   6  -3  -3  183.36    7.73   0
   6   1   1   73.80    6.12   0
   5   1   2  889.49   10.09   0
   6  -1   0  221.46    7.07   0
   7  -1  -3  288.84    6.67   0
   7   0  -2   68.46    5.17   0
   6   2   0  633.50    9.69   0
   6   3  -2  129.42    6.63   0
   7  -1  -7  132.78    4.93   0
   5  -2   0  368.98    7.65   0
   5  -1   1  778.27    9.30   0
   6  -3  -4  181.11    6.66   0
   7  -1  -4  256.92    6.19   0
   7   0  -7   15.40    4.15   0
   7   0  -3   57.78    5.33   0
   7   1  -4  123.17    5.71   0
   5   3   0  384.01    9.10   0
   6   0   0 1478.10   12.52   0
   6   1   0  260.17    7.16   0
   6   3  -5   20.60    5.81   0
   7  -1  -6  247.79    5.74   0
   7  -1  -5  166.25    5.39   0
   5   2   1  365.63    7.51   0
   6  -3  -8   78.32    5.96   0
   6  -3  -5  200.44    7.42   0
   6   3  -4  110.76    6.24   0
   7   0  -6   14.99    4.19   0
   7   0  -5   41.31    4.59   0
   5  -3  -2  300.66    8.04   0
   5   0   1  445.36    7.47   0
   6  -1  -1  132.75    6.39   0
   5   1   1 1070.65   10.71   0
   6  -3  -7   95.47    5.53   0
   6  -3  -6  133.15    6.03   0
   6   1  -1   76.18    6.12   0
   5  -1   0 1166.10   11.12   0
   5   3  -1  267.52    8.48   0
   5   2   0  206.50    6.46   0
   6  -1  -2  106.26    6.15   0
   6  -2  -9  132.00    6.10   0
   6   2  -3  176.99    7.32   0
   5   0   0  347.33    6.77   0
   6   0  -2  653.24    9.42   0
   6   1  -2  184.37    7.09   0
   6   2  -7  122.40    5.74   0
   5   3  -2  345.86    9.03   0
   6  -1  -3   88.72    6.25   0
   6   2  -6  102.11    5.78   0
   6   2  -4  207.25    7.41   0
   5  -3  -4  385.19    8.84   0
   5  -2  -2  242.54    6.85   0
   6   1  -3  109.05    6.93   0
   6  -1  -9   31.15    4.49   0
   6  -1  -4  110.28    6.55   0
   6   0  -3  595.72    9.44   0
   5   3  -3  298.66    8.61   0
   6   1  -4  157.80    7.34   0
   5  -3 -10  174.43    7.33   0
   6  -1  -5   43.41    6.13   0
   6   1  -7   46.96    5.39   0
   5  -2  -3  134.53    6.60   0
   5   3  -7  178.84    6.98   0
   5   3  -4  176.15    7.74   0
   6  -1  -6   32.12    5.88   0
   6   0  -8  134.24    6.30   0
   5   2  -2  159.26    6.88   0
   5   3  -5  196.84    7.98   0
   6   0  -7  241.60    7.32   0
   6   0  -5  546.26    9.64   0
   5  -2 -11   56.66    5.56   0
   5   0  -2  400.14    7.60   0
   5   1  -2  842.07   10.84   0
   5   2  -9   33.32    6.25   0
   5  -1 -11   39.21    5.08   0
   5   0 -11   25.96    4.92   0
   5   2   4  274.38    7.79   0
   5   4   4  173.59    7.58   0
   5   5   3  537.99   10.24   0
   5   6   1   72.35    6.02   0
   6   3   3  123.51    6.83   0
   3   6   2  135.65    7.22   0
   6   5   1   29.59    5.36   0
   4   4   4  575.01    9.54   0
   6   4   2  237.69    8.15   0
   7   3   0  234.72    7.24   0
   2   6   1   69.90   10.05   0
   4   5   3   60.53    5.74   0
   4   3   4  247.77    6.67   0
   4   6   1  132.44    7.90   0
   5   6  -4   24.65    4.32   0
   5   6  -1   28.89    5.16   0
   3   6   1   79.63    6.42   0
   6   2   2  328.77    8.84   0
   6   3   2   83.40    6.50   0
   6   5  -1   22.71    4.69   0
   5   2   3  300.50    7.95   0
   6   4   1  193.12    8.20   0
   6   5  -4    1.87    3.93   0
   7   2  -1  145.71    6.56   0
   2   6   0  453.53   12.13   0
   4   6   0  277.65    8.62   0
   6   5  -3   24.92    4.34   0
   6   5  -2   35.96    4.73   0
   7   3  -4  108.19    6.09   0
   4   5   2  143.31    7.28   0
   6   1   1  115.17    7.39   0
   7   2  -2   91.81    6.84   0
   3   5   2  256.43    6.39   0
   3   6   0  102.41    7.03   0
   5   4   2  141.54    7.31   0
   4   6  -5  100.59    6.37   0
   4   6  -1  317.85    8.55   0
   6   2   1  272.60    8.59   0
   6   4   0  305.14    8.34   0
   4   3   3   58.31    4.69   0
   4   6  -2  185.83    7.14   0
   7   2  -4   43.90    5.55   0
   4   6  -4  138.35    6.21   0
   4   6  -3  110.70    6.15   0
   3   6  -2   48.13    5.94   0
   4   4   2  763.59   10.12   0
   5   4   1   84.52    6.88   0
   6   1   0  238.28    8.00   0
   6   4  -2  113.58    6.63   0
   3   6  -5   50.70    6.10   0
   5   5  -6   68.19    4.83   0
   6   2   0  514.70    9.54   0
   3   6  -3   68.53    5.97   0
   4   5   0  143.76    7.80   0
   5   5  -2  279.42    8.02   0
   6   4  -3  115.30    6.42   0
   5   5  -5   65.93    5.15   0
   5   5  -4   40.32    5.55   0
   5   5  -3  136.28    6.60   0
   5   3   1  214.62    7.63   0
   5   4   0   61.57    6.78   0
   3   5   0  274.41    7.46   0
   4   4   1  318.81    8.66   0
   5   2   1  327.26    7.62   0
   6   3  -7   60.54    4.82   0
   6   3  -2  167.03    7.32   0
   5   4  -8   17.54    3.98   0
   5   4  -1   37.09    6.35   0
   4   5  -7   19.86    4.57   0
   4   5  -2  188.30    7.97   0
   6   3  -3  150.67    7.04   0
   6   2  -2  313.71    8.31   0
   6   3  -5   23.02    5.25   0
   2   5  -1   99.77    5.93   0
   4   5  -6   76.15    5.48   0
   5   4  -2   69.25    6.76   0
   6   1  -2  177.63    7.28   0
   6   2  -8   83.13    5.33   0
   5   1   0  856.69   11.30   0
   5   2   0  182.77    6.56   0
   3   5  -2  332.87    8.64   0
   5   3  -1  238.61    7.95   0
   5   4  -3  105.53    6.83   0
   5   4  -6    7.16    5.08   0
   5   4  -5   58.93    5.81   0
   6   1  -3  124.07    7.01   0
   6   2  -7  127.03    6.19   0
   6   2  -4  161.52    7.39   0
   2   5  -2   67.33    5.76   0
   6   1  -8   40.93    5.84   0
   6   2  -6  136.03    6.82   0
   6   2  -5  269.37    7.97   0
   3   5  -7  158.00    6.68   0
   4   3   0  174.81    6.07   0
   5   3  -9   84.55    4.91   0
   6   1  -4  135.78    6.91   0
   3   5  -4  189.95    7.71   0
   5   2  -1  152.66    6.34   0
   4   4  -2  507.44    9.88   0
   5   1  -1  786.31   10.71   0
   6   0  -6  224.00    8.51   0
   6   1  -7   56.39    5.69   0
   6   1  -6   18.70    5.55   0
   6   1  -5   25.37    5.72   0
   5   3  -8  155.19    6.07   0
   5   3  -3  329.87    8.71   0
   2   5  -7   23.31    5.16   0
   2   5  -4   21.56    5.65   0
   4   4  -3  165.80    7.69   0
   5   2 -10   13.27    4.15   0
   2   5  -6   30.36    5.79   0
   2   5  -5   95.07    6.47   0
   4   3  -1   16.86    4.73   0
   4   4  -4  225.23    8.21   0
   5   3  -6  338.36    8.37   0
   5   3  -5  274.94    8.36   0
   5   1  -2  819.91   10.77   0
   3   4  -9   24.94    5.10   0
   4   3  -2  172.07    6.46   0
   5   0 -11   36.89    5.25   0
   5   2  -4  204.83    7.84   0
   5   1  -3  716.36   10.88   0
   3   4  -8   56.99    6.04   0
   4   3  -9   36.61    5.16   0
   4   3  -3   31.89    5.47   0
   5   2  -7   37.36    6.24   0
   4   3  -4  101.54    6.70   0
   5   0 -10   45.16    5.49   0
   5   1  -4  389.93    8.93   0
   2   3 -12   11.73    4.25   0
   2   4  -9  181.05    6.91   0
   4   1 -12   25.12    4.33   0
   4   3  -7   17.37    6.14   0
   4   3  -5   78.11    6.85   0
   5  -1 -10  103.48    6.65   0
   5   0  -4  422.54    9.25   0
   4   3  -6  103.65    7.15   0
   5   1  -5  212.71    8.18   0
   2   4  -4  700.11   10.24   0
   5   0  -9   93.93    6.63   0
   2   4  -8  211.98    7.61   0
   4   2  -3  612.89    9.15   0
   5  -1  -9  128.01    7.31   0
   5   0  -5  437.16    9.52   0
   1   4  -9   64.62    6.24   0
   2   4  -7  413.37    9.58   0
   2   4  -6  361.96    9.24   0
   3   2 -12   36.17    4.43   0
   5   0  -8   85.50    6.99   0
   5   0  -6   58.04    6.88   0
   4   2  -9  227.34    7.66   0
   5  -1  -8  110.33    7.11   0
   5  -1  -7  293.89    9.43   0
   5   0  -7  119.18    7.18   0
   1   4  -8   77.27    6.62   0
   2   3 -11   18.74    5.14   0
   4   2  -4  723.49   10.24   0
   1   4  -5  136.15    6.59   0
   3   1 -13   60.23    4.83   0
   3   3  -4  762.97   10.13   0
   4   2  -8  141.67    7.50   0
   1   4  -7  107.43    6.94   0
   1   4  -6   62.22    6.22   0
   3   3  -8  270.38    8.66   0
   4   2  -6  339.35    9.12   0
   3   3  -7  198.60    8.15   0
   4  -2 -12   72.07    6.53   0
   4   1 -10   45.20    6.28   0
   2   1 -14   11.86    3.84   0
   2   3 -10   43.27    6.19   0
   1   3 -11  180.65    7.01   0
   2   3  -9   67.76    7.06   0
   3   1 -12   80.62    6.01   0
   3   2 -10    5.30    6.22   0
   1   2 -13   13.74    4.49   0
   3   0 -13   39.55    5.15   0
   4  -1 -11   63.64    6.53   0
   4   1  -8   39.42    5.60   0
   4   1  -7   92.50    7.59   0
   4   1  -6  286.88    8.56   0
   0   3 -11    7.45    5.25   0
   2   3  -8  144.60    7.93   0
   1   3 -10  290.83    8.90   0
   2   3  -7  160.39    7.87   0
   2   3  -6  355.30    8.56   0
   2   1 -13   29.08    4.96   0
   3   1 -11  135.35    7.39   0
   3   2  -8  130.77    7.96   0
   4  -1 -10   28.36    6.65   0
   4   0  -5  687.27   10.57   0
   0   2 -13  106.25    5.72   0
   2   2 -11  190.14    7.80   0
   3   2  -7   60.87    6.97   0
   3   2  -6  138.66    7.15   0
   0   3 -10   86.40    8.12   0
   1   0 -15   33.72    4.75   0
   1   3  -9  262.37    9.31   0
   2   0 -14   60.24    5.11   0
   3  -3 -13   50.46    6.63   0
   3   0 -12   22.81    6.17   0
   4   0  -7  950.86   13.18   0
   4  -1  -9   71.17    7.54   0
   1   3  -8  409.69   10.15   0
   2   2 -10  114.89    8.01   0
   3  -2 -13   33.83    5.69   0
   3   1 -10  227.30    8.78   0
   4  -1  -8  101.54    8.45   0
   4  -1  -7   76.29    7.64   0
   4  -1  -6  614.29   11.28   0
   1   3  -7  460.89    9.94   0
   0   3  -9  148.52    7.93   0
   2   1 -12   33.58    6.54   0
   3   1  -9  458.05   11.01   0
   0   1 -14   19.06    4.85   0
   2  -1 -14   19.99    5.37   0
   3   0 -11   42.21    7.53   0
   0   3  -8   30.15    6.89   0
   1   2 -11   63.21    7.26   0
   2   0 -13  146.66    7.52   0
   3  -3 -12   95.31    8.31   0
   3   1  -8  433.54   10.46   0
   2   2  -8  346.33    9.39   0
   3  -2 -12   33.74    7.15   0
   3   1  -6  827.16   10.93   0
  -1   1 -14   64.56    5.30   0
   1  -1 -15   54.49    4.99   0
   2   1 -11   69.36    7.89   0
   2   2  -7  610.35   10.37   0
   3   0 -10   13.14    7.91   0
   1   0 -14   49.77    5.89   0
   1   2 -10   14.74    5.62   0
   3   0  -9  365.01   10.94   0
   0   2 -11  353.40   10.26   0
   2   0 -12  205.59    9.02   0
   2   1 -10   94.38    8.59   0
   3  -3 -11  140.17    8.48   0
   3  -2 -11    6.13    7.46   0
   1  -2 -15   56.09    5.57   0
   1   2  -9  196.75    9.04   0
   3   0  -8   72.94    7.74   0
   0   4  -7  367.26   11.91   0
   0   4  -6  368.94   11.91   0
   3   3 -11   48.31    5.20   0
   3   4  -7   23.53    7.13   0
   1   4  -8   75.14    7.39   0
   2   4  -8  186.28    9.33   0
   3   4  -6   20.69    7.62   0
   3   4  -4  251.94    9.19   0
   4   3  -9   15.50    6.20   0
   4   3  -2  203.42    8.41   0
   1   2 -13    5.44    5.85   0
   1   3 -11  162.29    7.40   0
   1   4  -6   82.07    7.81   0
   2   4  -7  423.28   10.93   0
   4   2 -11   43.12    5.37   0
   3   3 -10   95.21    7.38   0
   4   3  -8   17.40    7.00   0
   0   3 -10   94.25    7.49   0
   3   2 -12   28.67    5.14   0
   4   3  -3   28.98    7.24   0
   5   2  -8   35.28    6.80   0
   5   2  -3  121.00    9.36   0
   4   3  -7   31.76    7.93   0
   4   3  -6   89.74    9.05   0
   5   1 -10   91.00    6.75   0
   5   2  -4  220.30   10.40   0
   1   3 -10  315.36    9.57   0
   4   1 -12   20.66    5.15   0
   4   2 -10   87.80    7.01   0
   5   2  -6   -5.02    7.69   0
   5   2  -5  138.86    9.62   0
   3   1 -13   31.63    5.10   0
   5   0 -11   34.29    6.87   0
   0   3  -8   24.94    8.12   0
   1   2 -12   19.29    6.31   0
   1   3  -9  206.78    9.55   0
   2   3  -9   55.30    8.78   0
   5   1  -9  176.72    8.64   0
   0   3  -7  182.88    9.50   0
   3   3  -7  195.05   10.14   0
   3   3  -4  816.17   12.74   0
   2   3  -8  112.53    9.41   0
   3   3  -5  502.80   11.52   0
   0   2 -11  387.44   11.50   0
   1   3  -8  396.26   11.07   0
   5   1  -8  164.46    9.33   0
   0   1 -13   17.64    6.08   0
   1   3  -7  475.71   10.94   0
   2   3  -7  159.60    9.29   0
   3   2 -10    1.52    7.60   0
   5   0 -10   70.07    7.70   0
   2   3  -6  372.43   10.12   0
   2   3  -5  473.28    9.89   0
   3   1 -12   70.63    6.83   0
   5   1  -7  358.92   11.50   0
   1   1 -13   85.16    6.87   0
   4  -1 -13   13.17    5.64   0
   5   1  -6  682.45   14.49   0
   4   1 -10   66.31    8.08   0
   3   2  -9  215.32   10.46   0
   2   2 -10   95.18    7.53   0
   1  -1 -15   63.03    5.81   0
   1   2 -10   18.42    8.29   0
   5  -2 -11   74.70    7.83   0
   5   0  -8  101.95    9.66   0
   0   1 -12    0.10    7.00   0
   0   2  -9  306.96   10.22   0
   2   2  -9  189.62   10.39   0
   3   2  -7   71.93    9.10   0
   4   0 -11  197.15    8.92   0
   1   2  -9  148.75    9.62   0
   3   2  -6  160.02    8.87   0
   3   2  -5  167.40    7.99   0
   4   1  -8   37.60    9.56   0
   5   0  -5  447.96   13.69   0
   2   0 -13  187.51    8.04   0
   3  -2 -14   11.83    5.56   0
   3   1 -10  220.28   10.47   0
   1   2  -8  182.16    8.90   0
   2  -1 -14   21.31    5.72   0
   2   1 -11   53.55    9.09   0
   4   0 -10  279.36   10.71   0
   0   0 -13  129.15    7.74   0
   0   1 -11    8.17    7.49   0
   1  -2 -15   70.38    6.58   0
   1   0 -13   40.21    7.15   0
   1   1 -11  234.06   10.62   0
   3   1  -9  367.16   12.44   0
   4  -2 -12   61.09    8.43   0
   4  -1 -11   62.35    8.14   0
   1  -1 -14   89.29    6.75   0
   2   1 -10  106.96    9.82   0
   3   0 -11   44.27    8.52   0
   4   0  -9  412.68   12.58   0
   3   1  -8  414.58   12.26   0
   5  -1  -6  467.65   14.17   0
   2  -2 -14   42.05    6.15   0
   3  -1 -12  146.78    8.84   0
   5  -3  -9  213.91   11.12   0
   0   0 -12  129.29    8.73   0
   1   0 -12   37.51    8.34   0
   2  -1 -13   35.58    5.59   0
   2   1  -9   51.34    6.81   0
   3  -2 -13   24.70    5.03   0
   1  -3 -15  114.18    6.34   0
   3   0 -10   13.09    6.95   0
   4   0  -7 1036.65   16.51   0
   0   1  -9  132.94    7.98   0
   4   0  -6  365.76   11.61   0
   5  -2  -7   39.78    9.25   0
   5  -3  -8  190.25   10.78   0
   0  -1 -13   72.93    8.60   0
   1  -2 -14   40.45    6.49   0
   3  -3 -13   45.70    6.95   0
   3   0  -9  389.14   12.28   0
   2  -3 -14   39.23    6.07   0
   0  -2 -14  172.60    7.66   0
   0   0 -11  361.91   11.07   0
   2  -1 -12   33.97    8.36   0
   3  -2 -12   40.32    8.51   0
   2  -2 -13  149.46    8.81   0
   3  -4 -13   50.87    6.57   0
   4  -5 -11   45.86    7.49   0
   4  -4 -11  141.23    8.48   0
   2  -4 -14   69.89    6.27   0
   3  -1 -10  361.53   12.27   0
   4  -1  -7   83.25    9.69   0
   3   0  -7  284.04    9.52   0
   4  -2  -9  245.10   11.56   0
   2  -1 -11   74.10    9.32   0
   3  -3 -12   93.43    8.39   0
   4  -1  -6  572.34   13.09   0
  -1  -3 -14   89.13    7.68   0
   0  -1 -12   33.12    7.46   0
   0   0 -10  108.84    8.01   0
   3  -2 -11    2.12    6.56   0
  -1  -2 -13   28.12    7.24   0
   0  -3 -14   35.32    6.30   0
   2  -3 -13   56.76    7.50   0
   2  -2 -12  179.69    9.87   0
   3  -1  -9  442.82   12.49   0
   0  -2 -13  217.66    8.87   0
   2   0  -8 1051.72   14.13   0
   4  -5 -10   70.56    7.33   0
   4  -4 -10  193.90    9.55   0
   1  -4 -14    3.29    5.51   0
   3  -4 -12   35.39    7.10   0
   4  -3  -9   37.40    8.98   0
   2  -1 -10   28.04    8.59   0
  -1  -1 -11   68.20    7.88   0
   1  -5 -14   42.13    5.07   0
   2  -6 -13   81.09    5.75   0
   2  -4 -13  117.13    7.69   0
   3  -3 -11  175.90   10.03   0
   3  -1  -8  326.52   10.85   0
  -1  -4 -14   12.00    5.53   0
   0  -4 -14  100.90    6.82   0
   1  -2 -12   30.43    6.21   0
   2  -3 -12   43.28    8.15   0
   2  -2 -11  401.47   11.86   0
   4  -5  -9   77.13    8.02   0
   4  -4  -9  219.46   10.18   0
   4  -3  -8   13.51    8.69   0
   4  -2  -6  201.88   10.60   0
  -1  -5 -14   91.08    5.51   0
   0  -5 -14   30.07    5.06   0
   0  -3 -13   13.36    6.33   0
   0  -2 -12  278.91    9.60   0
   1  -1 -10  382.03   10.72   0
   3  -4 -11   41.38    8.21   0
   4  -2  -5  520.47   13.57   0
   3  -3 -10  209.52   11.13   0
   1  -4 -13   29.53    7.07   0
   4  -4  -8  247.54   10.89   0
   4  -3  -7   31.20    9.15   0
  -1  -1 -10  312.04    9.58   0
   0  -1 -10  322.16    9.46   0
   2  -4 -12  213.70    9.39   0
   1  -6 -13    8.05    4.39   0
   1  -3 -12  193.95    9.44   0
   1  -2 -11  210.88    9.65   0
   2  -6 -12  109.48    6.40   0
   2  -1  -8  138.48    7.50   0
   2  -5 -12   13.14    6.77   0
   4  -4  -7  338.64   13.26   0
   4  -3  -6  304.81   11.91   0
   0  -4 -13  156.63    7.65   0
   3  -6 -10   36.53    6.46   0
   3  -3  -9  219.35   11.00   0
   4  -5  -7  159.99   10.85   0
  -1  -4 -13   41.43    6.67   0
   0  -2 -11  465.57   10.83   0
  -1  -2 -11  195.23    8.57   0
   0  -3 -12   10.66    7.21   0
  -1  -3 -12  138.81    8.26   0
   0  -6 -13   69.85    4.77   0
   1  -7 -12   85.10    4.82   0
   1  -4 -12   10.93    7.61   0
   2  -2  -9  653.26   12.36   0
   4  -4  -6  150.41   10.53   0
  -1  -6 -13   30.58    5.00   0
   1  -2 -10  174.78    8.62   0
   2  -3 -10  124.69    9.55   0
   1  -3 -11  368.92   10.98   0
   2  -6 -11   96.45    6.92   0
   2  -5 -11   21.20    7.72   0
   1  -6 -12   29.82    5.78   0
   3  -6  -9   67.53    7.06   0
   3  -5  -9  188.77    9.87   0
   0  -2 -10  211.80    8.07   0
  -1  -4 -12   38.53    6.63   0
   0  -7 -12   12.33    3.77   0
   2  -4 -10   88.42    9.49   0
   3  -4  -8   71.41    9.46   0
   3  -3  -7  364.00   10.94   0
   2  -3  -9  334.50   10.64   0
   3  -7  -7  140.79    8.02   0
  -1  -7 -12   61.36    5.75   0
  -1  -3 -11  107.95    7.47   0
   0  -6 -12   37.57    5.12   0
   0  -5 -12   46.03    6.85   0
   1  -8 -10   17.94    3.94   0
   1  -7 -11   93.66    5.44   0
   1  -3 -10  338.19   10.51   0
   2  -6 -10  107.35    7.72   0
   2  -5 -10   30.45    8.39   0
   3  -6  -8   76.94    7.64   0
   3  -5  -8  188.50    9.94   0
  -2  -6 -12   73.82    6.29   0
   2  -8  -8   88.56    5.88   0
  -1  -5 -12  100.74    6.92   0
   1  -6 -11   79.62    6.92   0
   3  -3  -6  787.19   13.46   0
  -4  -7  -6   47.49    6.08   0
  -2  -5 -11   21.15    6.31   0
  -4  -4  -7  438.74   10.52   0
  -3  -6 -10   28.22    4.76   0
  -2  -6 -11  249.30    8.14   0
   0  -3 -10  138.11    8.37   0
  -4  -6  -7  238.89    8.42   0
  -3  -4  -9   94.04    7.40   0
  -3  -3  -8  241.90    7.36   0
  -2  -4 -10  339.57    9.54   0
  -4  -4  -6  304.33    8.47   0
  -3  -8  -7   60.46    5.17   0
  -1  -8 -10    2.37    3.20   0
   0  -5 -11   65.90    7.60   0
  -4  -6  -6  229.43    8.54   0
  -2  -7 -10   27.72    5.02   0
   0  -8 -10   53.93    4.50   0
   0  -6 -11  164.62    7.31   0
  -4  -5  -6   28.19    6.82   0
  -3  -3  -7  412.19    8.07   0
  -2  -5 -10   55.32    7.30   0
  -4  -6  -5  217.16    8.97   0
  -3  -8  -6   40.04    4.74   0
  -3  -4  -8  101.43    6.90   0
  -2  -6 -10  240.55    8.42   0
  -4  -5  -5  125.49    8.11   0
  -1  -3  -9  576.98   10.73   0
   0  -4 -10  209.90    9.55   0
  -3  -8  -5   72.44    5.11   0
   0  -3  -9   84.57    6.63   0
   1  -7 -10  110.60    5.97   0
  -3  -6  -8   61.59    7.03   0
  -3  -5  -8  263.29    8.65   0
  -1  -7 -10  178.39    6.36   0
  -1  -8  -9   19.96    3.96   0
  -1  -6 -10   36.54    6.44   0
   0  -7 -10   46.31    6.17   0
   1  -8  -9   94.23    6.38   0
   1  -6 -10    6.20    6.85   0
  -2  -5  -9  213.23    8.81   0
  -1  -9  -7   39.53    3.68   0
   0  -5 -10  170.12    8.96   0
  -2  -6  -9  186.63    8.10   0
   0  -6 -10  144.36    6.84   0
  -3  -7  -6  251.35    7.89   0
  -2  -4  -8  262.15    7.76   0
   0  -9  -7   13.04    3.61   0
  -2  -7  -8   34.97    5.64   0
  -1  -7  -9  178.18    6.82   0
   0  -4  -9  405.86   10.04   0
  -1  -8  -8    8.64    4.20   0
  -1  -5  -9  256.55    8.05   0
  -3  -6  -6   56.96    6.79   0
  -3  -5  -6  404.88    9.58   0
  -2  -6  -8  166.85    7.99   0
  -2  -5  -8   92.91    7.36   0
  -1  -6  -9  109.77    7.33   0
   1  -7  -9  199.54    7.31   0
  -3  -7  -4  302.43    9.34   0
  -1  -9  -5   81.10    4.22   0
   0  -5  -9   90.22    7.23   0
  -3  -6  -5   42.27    7.09   0
  -1  -4  -8  145.18    6.52   0
  -1  -7  -8  212.60    7.26   0
   2  -7  -8   79.57    5.66   0
  -2  -6  -7  292.63    8.65   0
  -2  -5  -7  312.95    8.55   0
  -1  -9  -3  109.15    5.12   0
   2  -8  -7  158.62    5.85   0
  -2  -8  -4  260.94    6.98   0
  -1  -6  -8  147.63    7.74   0
  -1  -5  -8  361.56    8.84   0
   0  -4  -8  367.81    9.09   0
  -3  -5  -4  232.79    8.32   0
  -2  -7  -6   48.97    6.01   0
   0  -7  -8   72.96    6.10   0
   1  -4  -8  156.53    8.40   0
  -3  -6  -3   54.65    7.12   0
  -2  -8  -3  354.80    7.53   0
  -1  -8  -6   47.89    4.74   0
   1  -7  -8  199.98    8.48   0
  -2  -8  -2  227.60    6.57   0
  -1  -7  -7  211.15    7.37   0
   0  -5  -8  137.14    6.90   0
  -3  -5  -3  316.89    9.08   0
  -2  -5  -6  275.40    7.83   0
   0  -9  -4   26.95    3.41   0
   1  -6  -8   46.69    6.07   0
   1  -5  -8  422.30   10.49   0
  -1  -6  -7  149.42    7.71   0
  -1  -5  -7  551.37   10.09   0
   2  -8  -6  184.72    5.90   0
   2  -7  -7   47.81    6.35   0
   3  -8  -5   43.32    5.12   0
  -2  -7  -4   43.33    6.10   0
   0  -7  -7   43.31    5.97   0
   1  -9  -4   70.64    3.90   0
  -1  -7  -6  189.71    7.36   0
   3  -7  -6  283.27    7.93   0
  -2  -5  -5  185.25    6.84   0
  -1  -8  -4   57.46    4.98   0
   0  -9  -1   21.40    3.34   0
   0  -6  -7  498.45   10.08   0
  -1  -6  -6  195.47    7.75   0
   0  -8  -5   44.47    4.90   0
   2  -5  -7   45.51    7.38   0
  -2  -7  -2  110.41    6.63   0
  -2  -6  -4  340.76    9.12   0
  -1  -5  -6  349.11    8.45   0
   1  -6  -7  110.12    7.50   0
   1  -5  -7  374.34    8.92   0
   2  -8  -5  169.62    5.63   0
  -2  -7  -1   95.76    6.55   0
   1  -8  -5   60.55    4.54   0
  -1  -8  -2   45.82    4.74   0
  -1  -8   1   61.20    5.27   0
   1  -9  -1   70.84    3.57   0
   2  -7  -6   77.82    6.92   0
  -2  -6  -3  453.00    9.86   0
  -1  -8  -1   90.08    4.97   0
   0  -8  -4  120.93    5.64   0
   1  -7  -6  201.28    7.01   0
  -1  -7  -4  300.32    8.22   0
  -1  -6  -5  229.82    7.64   0
   0  -6  -6  601.99   10.42   0
   3  -7  -5  247.82    7.39   0
   0  -5  -6  139.28    6.27   0
  -2  -5  -3  154.18    6.43   0
  -1  -5  -5  579.23    9.36   0
   0  -8  -3  141.56    5.71   0
   1  -8  -4   96.12    5.16   0
   2  -6  -6  291.29    8.83   0
   3  -8  -3   52.91    4.14   0
  -2  -6  -1   48.89    7.03   0
   1  -7  -5  191.68    6.59   0
   1  -5  -6  790.70   10.88   0
  -1  -6  -4  191.31    7.17   0
   0  -8  -2  136.29    5.58   0
   4  -7  -3   68.92    6.23   0
  -2  -6   0  402.91   10.02   0
   0  -7  -4  137.75    6.91   0
   0  -6  -5  367.50    8.88   0
   1  -8  -3   38.75    3.63   0
   2  -8  -3  201.59    6.07   0
   3  -6  -5   53.64    6.30   0
   3  -7  -4  239.95    7.49   0
   0  -8   0  151.07    5.55   0
   0  -8   2  125.55    4.91   0
   0  -5  -5  290.28    7.16   0
  -1  -6  -3  177.40    6.96   0
   0  -8   1   67.81    4.64   0
   1  -7  -4  222.07    7.37   0
   1  -6  -5   55.07    6.04   0
   0  -7  -3  168.16    7.03   0
   2  -8  -2  226.64    6.40   0
  -1  -7   1  178.93    6.93   0
  -1  -7   2  167.09    6.88   0
   0  -6  -4  488.00    9.60   0
   1  -8  -1   31.98    4.41   0
   3  -8  -1   48.27    4.23   0
   2  -5  -5  111.81    6.42   0
   4  -7  -2   85.29    5.51   0
   2  -8  -1  215.41    6.26   0
   3  -7  -3  226.16    7.35   0
   1  -8   1   12.48    3.71   0
   1  -7  -3  248.11    7.73   0
   1  -6  -4  266.93    7.56   0
   2  -8   0  156.99    5.28   0
   3  -8   1   46.76    3.94   0
  -1  -6  -1   82.91    6.35   0
   0  -7  -1   68.61    6.18   0
   0  -6  -3  594.56   10.05   0
   2  -8   1  112.26    4.57   0
   3  -8   2   43.60    3.71   0
   3  -8   3   49.53    3.54   0
   2  -8   2  113.46    4.46   0
   2  -8   3   71.79    3.83   0
   4  -7  -1   60.09    5.14   0
   1  -7  -2  332.34    8.31   0
   3  -7  -2  329.77    7.56   0
  -1  -6   0  383.49    8.15   0
   0  -7   4   41.24    5.15   0
   2  -7  -2   98.70    5.93   0
  -1  -6   1   56.72    6.44   0
   0  -7   1  122.11    6.39   0
   0  -6  -2  731.74   10.70   0
   1  -6  -3  155.98    6.82   0
  -1  -6   2   77.10    6.82   0
  -1  -6   3   35.98    6.43   0
   0  -7   2   75.49    5.77   0
   0  -7   3   71.14    5.43   0
   1  -7  -1  333.95    8.60   0
   4  -7   0  116.90    5.44   0
   5  -6   0   95.89    7.19   0
   2  -7  -1   41.95    5.66   0
   0  -6  -1  736.66   10.83   0
   1  -7   0  202.17    7.24   0
   1  -6  -2  177.76    7.07   0
   3  -5  -3  267.16    9.19   0
   2  -7   0   47.69    5.45   0
   4  -7   5   89.18    4.06   0
   4  -6  -1  157.85    7.57   0
   1  -7   2  285.63    7.47   0
   2  -6  -2  290.03    7.69   0
   4  -5  -2  208.85   10.13   0
   5  -6   1   34.62    5.50   0
   2  -7   1   83.98    5.68   0
   3  -7   6   77.21    3.84   0
   1  -6  -1  173.92    6.99   0
  -1  -5   2  828.99   12.48   0
   0  -6   1  257.77    7.99   0
   2  -7   2   36.59    5.16   0
   3  -7   2  187.25    6.58   0
   0  -6   2  432.15    9.46   0
   2  -7   3   42.47    4.97   0
   2  -7   4   32.72    3.61   0
   2  -6  -1  355.83    8.62   0
   3  -7   3  151.72    5.81   0
   3  -7   4   60.17    4.72   0
   4  -6   0  309.67    8.28   0
   0  -6   3  282.13    8.33   0
   0  -6   4  270.61    8.45   0
   5  -5   0  421.50   11.06   0
   1  -6   0  221.82    7.39   0
   5  -6   3   43.34    4.75   0
   1  -6   7   77.51    5.50   0
   4  -5  -1   87.88    7.62   0
   5  -6   4   26.89    4.22   0
   2  -6   0  402.33    9.12   0
   2  -6   8  176.34    5.35   0
  -1  -5   6  139.09    7.27   0
   0  -7  -1   84.04    6.00   0
   2  -8   0  162.69    5.06   0
   3  -8   3   44.23    3.29   0
  -1  -6   0  362.27    7.55   0
  -1  -6   1   58.91    5.98   0
  -1  -6   3   33.80    4.66   0
   0  -7   3   94.59    5.62   0
   0  -5   8   50.32    6.41   0
   1  -6   8   12.42    3.78   0
   3  -8   1   54.29    3.98   0
   0  -7   1  122.24    6.02   0
  -1  -5   5  392.30    9.34   0
   0  -6   6  128.27    6.08   0
   1  -7  -2  408.68    8.58   0
   1  -7   5  126.79    4.90   0
   2  -7   6   31.44    3.35   0
  -1  -5   4  501.04    9.76   0
  -1  -4   6   76.01    6.76   0
   2  -7  -2   96.04    5.77   0
  -1  -5   1  494.89    8.48   0
   1  -7   4  118.78    5.30   0
   1  -6  -3  155.31    7.03   0
   1  -6   7   77.73    4.79   0
   0  -6  -1  721.08   10.35   0
   0  -5   7   79.12    6.26   0
   1  -7   0  197.28    6.85   0
   1  -7   3  186.16    5.99   0
   2  -6   8  172.06    4.71   0
   3  -7   6   74.75    3.49   0
  -1  -4   5  126.56    6.62   0
   0  -6   4  265.80    7.80   0
   1  -7   1  254.97    6.87   0
   1  -7   2  267.04    7.08   0
   2  -7   5   55.67    3.89   0
   0  -6   0  665.21    9.87   0
   0  -6   1  260.53    7.33   0
   0  -6   2  431.36    8.73   0
   3  -7  -1  217.57    6.70   0
   4  -7   5   88.47    3.51   0
   0  -5   6   90.67    6.40   0
   2  -7   4   36.75    4.13   0
   2  -6  -3  212.86    8.30   0
   3  -7   5   92.14    3.88   0
   3  -6   8   30.79    3.05   0
   4  -7   0  112.17    5.27   0
   2  -7   3   45.13    4.44   0
   2  -7   2   32.23    4.54   0
   3  -7   0  234.35    6.51   0
   3  -7   4   77.30    4.18   0
   4  -7   1   65.76    5.25   0
   4  -7   4   48.80    3.24   0
   1  -6   5   87.38    5.79   0
   4  -7   2   71.48    4.79   0
   0  -4   7  310.42    8.62   0
   3  -7   1  200.84    5.79   0
   3  -7   3  164.04    5.20   0
   2  -6  -2  362.99    8.68   0
   1  -5   7  321.47    7.63   0
   3  -6   7   38.88    3.48   0
   0  -5   1  232.39    6.24   0
   0  -5   2  182.25    5.94   0
   1  -6   1   91.51    5.58   0
   1  -6   2  249.93    7.06   0
   1  -6   3   90.09    5.86   0
   4  -6   7   83.62    3.42   0
   3  -5   9  127.14    4.30   0
   2  -6  -1  423.69    8.60   0
   2  -5   8   39.63    4.50   0
   4  -5   9   22.69    3.29   0
   5  -6   6   44.24    2.94   0
   1  -5   6  367.41    8.13   0
   3  -6   6   36.64    4.11   0
   1  -4   8   35.78    5.71   0
   2  -6   0  450.37    8.41   0
   4  -6  -1  155.79    6.73   0
   3  -6  -1  143.16    6.30   0
   3  -4  10   35.08    3.87   0
   5  -6   5   22.38    2.97   0
   2  -6   2  342.42    7.50   0
   3  -6   5   51.01    4.55   0
   5  -6   1   40.83    4.50   0
   2  -5   7   23.49    5.09   0
   2  -4   9  248.00    6.69   0
   3  -6   0   54.74    5.29   0
   3  -5   8  252.20    5.92   0
   4  -6   5   83.75    4.25   0
   5  -6   4   30.16    3.52   0
   1  -5   4  245.09    6.91   0
   3  -6   4   76.43    5.08   0
   4  -4  10  125.91    4.50   0
   5  -6   2   67.97    4.62   0
   5  -5   8   51.61    2.75   0
   1  -5   1  527.37    7.72   0
   1  -4   7  149.96    6.78   0
   3  -6   3   56.53    5.12   0
   4  -6   1  216.52    6.54   0
   4  -6   4  175.12    5.38   0
   4  -5   8   26.72    3.56   0
   4  -6   3  217.14    5.96   0
   4  -3  11   87.36    4.45   0
   6  -5   6   47.54    2.80   0
   2  -5  -1  155.48    5.79   0
   3  -5   7  209.29    6.12   0
   1  -4   6   86.25    5.84   0
   1  -3   8  328.47    8.82   0
   2  -5   5  244.90    7.00   0
   3  -4   9   28.04    4.55   0
   5  -5   7   81.04    3.60   0
   6  -5   1   75.31    5.54   0
   4  -5   7   26.35    3.99   0
   2  -5   0  163.55    5.56   0
   2  -5   4  200.52    6.60   0
   2  -5   1  453.04    7.62   0
   3  -5  -1  277.19    7.53   0
   4  -4   9  178.22    5.09   0
   6  -5   3   86.26    4.29   0
   2  -3   9  166.89    7.07   0
   3  -3  10   72.76    5.19   0
   4  -5  -1  103.52    6.84   0
   6  -4   8   73.21    3.07   0
   2  -4   7  234.66    6.21   0
   3  -5   5  301.39    7.38   0
   5  -5   0  428.71    8.91   0
   7  -4   2   58.63    5.86   0
   3  -5   0  442.04    8.22   0
   3  -4   8   80.15    5.52   0
   5  -5   5  190.21    5.61   0
   7  -4   5   38.53    3.24   0
   3  -5   4  256.44    7.12   0
   4  -5   0  142.04    6.52   0
   4  -5   5   92.76    5.65   0
   5  -5   1  243.13    7.53   0
   7  -4   4   38.70    3.70   0
   3  -5   2  271.76    7.03   0
   3  -5   3  439.08    8.17   0
   4  -3  10   55.61    4.17   0
   5  -5   2  260.47    7.24   0
   5  -5   4  261.19    6.38   0
   5  -4   8   48.43    3.80   0
   5  -3  10  152.73    4.09   0
   4  -5   1   70.09    5.74   0
   4  -5   4    7.71    5.00   0
   6  -4   7   79.89    3.43   0
   2  -3   8    8.24    5.31   0
   4  -5   3   14.83    5.19   0
   4  -2  11  146.12    4.88   0
   2  -4   5  296.30    7.01   0
   3  -3   9  246.20    6.79   0
   5  -2  11   34.23    3.15   0
   6  -4   6  158.03    4.62   0
   4  -4   7  271.90    6.86   0
   5  -4   7   77.04    3.70   0
   7  -3   7   78.45    3.26   0
   2  -3   7   72.89    5.65   0
   3  -2  10   48.99    5.39   0
   4  -3   9   67.68    4.98   0
   6  -4   1  181.61    6.52   0
   6  -4   5  118.13    4.77   0
   4  -4   6  254.25    7.28   0
   5  -4   6   87.60    5.02   0
   6  -4   2  160.67    5.98   0
   3  -4   5  100.21    5.84   0
   3  -3   8  401.68    8.12   0
   4  -4  -1  281.52    8.88   0
   6  -4   3  119.93    5.58   0
   6  -3   8   19.28    3.36   0
   5  -4   0  257.89    8.52   0
   5  -4   5   25.16    5.17   0
   6  -1  11   36.60    3.16   0
   4  -4   5  240.41    7.26   0
   4  -2  10  250.37    6.18   0
   5  -2  10   23.12    3.56   0
   2  -3   6  158.82    4.97   0
   3  -4   3  135.48    5.53   0
   4  -4   0  432.03    9.13   0
   5  -4   1   68.70    6.63   0
   5  -4   4   47.01    5.68   0
   5  -3   8  190.01    5.59   0
   7  -3   2  191.57    6.72   0
   3  -4   2  122.31    4.50   0
   4  -4   4  451.14    8.81   0
   4  -1  11   52.70    4.73   0
   5  -4   2  125.56    6.98   0
   6  -3   7   36.69    3.82   0
   7  -3   3  115.11    5.62   0
   7  -2   8   21.60    2.78   0
   3  -2   9  175.61    6.64   0
   4  -4   1  446.18    9.02   0
   4  -4   3  437.49    8.59   0
   6  -2   9  106.75    4.12   0
   4  -3   7  191.04    7.02   0
   6  -3   0   53.49    6.96   0
   7  -2   7   32.34    3.44   0
   7  -1   9  111.52    3.92   0
   4  -2   9  206.41    6.62   0
   6  -1  10   66.19    3.90   0
   8  -1   6   16.18    3.13   0
   6  -3   5    2.09    3.54   0
   6   0  11  128.94    4.21   0
   3  -2   8  268.55    7.71   0
   4  -3   6  265.94    7.78   0
   6  -3   1   50.12    6.04   0
   6  -3   4   63.27    5.68   0
   6  -2   8  114.24    4.67   0
   7  -2   6   36.64    4.03   0
   8  -1   5   40.73    3.60   0
   4  -1  10   36.39    5.18   0
   6  -3   2   65.61    5.90   0
   6  -3   3   45.17    5.70   0
   8  -1   3   16.91    4.64   0
   8  -1   4   46.36    4.10   0
   5  -3   5  472.01    8.90   0
   5  -1  10  134.07    4.89   0
   7  -2   1   50.91    6.01   0
   4  -3   5  317.37    7.80   0
   5  -3   0  463.39   10.69   0
   5  -2   8   73.85    5.39   0
   5   0  11   44.28    4.21   0
   7  -2   5   36.77    4.57   0
   7  -1   8  109.60    3.94   0
   5  -3   4  327.80    8.29   0
   6  -2   7  179.44    5.62   0
   7  -2   2   51.76    5.72   0
   7  -2   3   50.78    5.27   0
   8   0   7   97.84    3.58   0
   3  -2   7  196.32    6.45   0
   4  -3   4  117.39    6.09   0
   5  -3   1  182.83    8.73   0
   6  -1   9   68.23    4.41   0
   5  -3   2  175.08    7.89   0
   7   0   9   52.24    3.39   0
   6  -2   6  268.17    6.79   0
   6   1  11   58.81    3.88   0
   8   0   6   99.73    3.95   0
   4  -2   7  367.86    8.13   0
   4  -1   9   27.22    5.41   0
   8   0   2  187.33    7.87   0
   6  -2   0  447.89   11.20   0
   8   0   3  124.11    5.77   0
   4   0  10  253.88    7.18   0
   5  -2   6  102.17    6.34   0
   5   0  10   74.94    5.03   0
   5   1  11  165.30    5.45   0
   8   1   7   32.40    3.06   0
   3  -1   8  464.39    8.68   0
   4  -2   6  283.72    7.48   0
   6  -2   1  195.43    8.80   0
   5  -1   8  183.13    6.58   0
   6  -2   2  269.32    8.57   0
   7  -1   1  269.66    8.67   0
   7  -1   5  127.63    5.88   0
  -3  -8  -5   67.79    4.36   0
  -1  -7  -8  276.25    8.11   0
   0  -5  -8  131.96    8.04   0
  -4  -7  -3   59.03    4.99   0
  -4  -4  -4  786.75   11.01   0
  -1  -8  -7   21.13    3.60   0
  -1  -5  -8  381.08    8.97   0
   0  -6  -8  227.35    7.89   0
  -3  -7  -6  277.14    7.21   0
  -3  -4  -6   99.87    5.47   0
  -2  -4  -7  442.57    8.10   0
  -1  -6  -8  135.04    7.02   0
   0  -9  -5   31.83    4.28   0
  -4  -7  -2   55.91    4.97   0
  -4  -7  -1   65.89    5.00   0
  -2  -9  -3   41.51    3.24   0
  -2  -8  -6  173.22    5.56   0
  -4  -5  -4   89.40    6.61   0
  -4  -4  -3  480.21    9.51   0
  -2  -9  -2   44.91    3.33   0
  -2  -6  -7  323.90    8.67   0
  -2  -5  -7  304.21    7.68   0
  -4  -6  -3  262.22    7.97   0
  -3  -7  -5  284.42    7.57   0
  -1  -9  -4  121.46    4.15   0
  -1  -7  -7  234.72    6.83   0
  -4  -5  -3   74.12    6.49   0
  -3  -4  -5  116.22    5.21   0
  -2  -8  -5  229.21    6.01   0
  -4  -4  -2  644.59   10.74   0
  -3  -8  -1   29.41    3.68   0
  -3  -8   0   44.24    4.00   0
  -2  -7  -6   52.85    5.72   0
   0  -9  -4   41.94    3.49   0
   0  -8  -6  121.46    4.99   0
  -4  -6   0  294.20    8.78   0
  -4  -5  -2  142.41    7.27   0
  -3  -6  -5   57.91    6.09   0
   0  -5  -7   72.08    6.51   0
  -1  -9  -3  126.79    4.07   0
   0  -6  -7  466.75    9.27   0
  -2  -8  -4  242.90    5.99   0
  -2  -6  -6  263.33    8.12   0
  -2  -5  -6  283.24    7.64   0
  -1  -9  -2  143.39    4.20   0
  -1  -8  -5   55.73    4.57   0
   1  -7  -6  215.33    7.39   0
  -3  -6  -4  138.69    6.68   0
  -2  -7  -5   59.11    5.55   0
  -3  -5  -4  206.51    7.03   0
  -2  -8  -3  357.13    6.65   0
  -1  -9   0   61.17    3.38   0
   0  -8  -5   50.75    4.18   0
   0  -7  -6  138.74    7.28   0
   0  -9  -2   18.73    2.74   0
  -2  -6  -5  363.32    8.52   0
  -1  -8  -4   62.30    4.63   0
   1  -6  -6   38.67    6.07   0
  -3  -6  -3   47.26    5.90   0
  -2  -8  -2  227.67    5.91   0
  -2  -5  -5  195.06    6.71   0
   0  -6  -6  610.10   10.70   0
  -3  -7   0  229.23    6.48   0
  -3  -7   1  232.57    6.44   0
  -1  -7  -5  243.51    7.85   0
   0  -9  -1   23.80    2.70   0
   0  -5  -6  135.61    6.12   0
  -2  -8  -1   73.88    4.59   0
   0  -9   0   29.04    2.79   0
   2  -8  -3  216.60    6.43   0
  -2  -7  -3   90.44    5.82   0
  -2  -6  -4  338.11    8.13   0
  -3  -5  -2  287.09    7.61   0
  -1  -6  -5  208.86    7.11   0
  -3  -6  -1   72.32    4.93   0
  -2  -5  -4  155.30    5.97   0
  -1  -7  -4  310.91    8.07   0
  -1  -5  -5  632.26    8.81   0
   0  -8  -3  124.84    5.28   0
  -3  -6   1   56.86    5.87   0
  -3  -6   2   51.32    6.58   0
  -1  -8   4   58.76    3.68   0
   1  -6  -5   46.42    6.39   0
  -2  -6  -3  398.90    8.32   0
  -1  -8  -1   81.53    4.66   0
  -2  -7  -1   96.46    5.80   0
  -1  -6  -4  192.33    6.77   0
   0  -8  -2  158.11    5.32   0
   1  -7  -4  282.32    8.18   0
  -3  -5   0  255.67    7.63   0
  -2  -5  -3  144.62    5.38   0
  -1  -8   0  151.78    4.91   0
  -1  -8   1   56.13    3.82   0
  -1  -8   2   63.35    3.73   0
   1  -8  -2   42.32    4.25   0
  -3  -5   1  308.60    8.25   0
  -2  -7   1   60.63    5.09   0
  -2  -7   3   48.09    4.74   0
  -2  -6  -2  575.34    9.15   0
   0  -8  -1  108.60    4.92   0
  -3  -5   2  301.93    8.33   0
  -2  -7   2   79.46    5.00   0
   0  -7  -3  157.31    6.42   0
   2  -7  -3  107.96    6.55   0
   3  -8   1   62.46    4.43   0
  -2  -6  -1   46.42    6.06   0
  -2  -5  -2  347.35    6.93   0
   0  -8   0  139.64    4.89   0
   0  -8   4   80.50    3.56   0
   1  -7  -3  215.55    6.39   0
   2  -8   0  196.56    5.79   0
   0  -8   2  114.39    4.24   0
   0  -8   3   73.16    3.58   0
   1  -8   0   31.27    3.81   0
  -2  -6   5  116.88    6.49   0
   0  -7  -2  144.86    6.23   0
  -1  -7   0  102.22    6.22   0
  -1  -7   5   77.24    4.45   0
  -1  -6  -2   40.66    5.02   0
   1  -8   1   11.75    3.42   0
   2  -7  -2  111.27    5.94   0
  -2  -6   1  311.98    7.91   0
  -2  -6   4  140.22    7.14   0
   1  -8   2   22.49    3.48   0
   1  -8   4   20.38    3.04   0
   1  -7  -2  382.11    7.58   0
   2  -8   4   64.21    3.31   0
  -2  -6   2  246.02    7.53   0
  -2  -6   3  180.09    6.84   0
  -1  -7   1  157.46    6.08   0
  -1  -7   4  159.38    5.42   0
   0  -7   7   31.51    3.51   0
   1  -8   3   11.08    3.09   0
   1  -6  -3  132.99    6.33   0
   2  -8   3   69.20    3.72   0
  -1  -7   2  168.75    6.06   0
  -1  -6  -1   92.13    5.71   0
   2  -7  -1   40.29    4.94   0
   3  -7   0  251.84    7.27   0
  -2  -5   1  100.92    5.79   0
   0  -7   6   16.98    3.53   0
  -1  -6   0  504.61    8.70   0
   4  -7   3   28.75    4.25   0
  -2  -5   2   74.70    5.87   0
  -2  -5   5  118.20    7.97   0
   0  -7   1   87.86    5.45   0
   1  -6  -2  156.96    5.83   0
   4  -7   4   40.58    4.09   0
  -2  -5   3   31.94    5.67   0
   0  -7   2   72.94    5.20   0
   0  -7   5   21.92    3.94   0
   1  -7   0  193.30    6.81   0
   1  -7   7   96.81    3.65   0
   3  -7   1  182.39    6.05   0
  -2  -5   4   14.45    5.88   0
  -1  -6   6   32.35    4.87   0
   0  -7   3   78.58    5.16   0
   0  -7   4   42.40    4.73   0
   0  -6  -1  758.32   10.18   0
   1  -7   1  246.61    6.85   0
   2  -7   7   15.22    3.34   0
   3  -6  -1  150.78    7.63   0
  -1  -6   2   70.74    5.83   0
  -1  -6   5   27.91    5.17   0
   1  -7   6  158.48    4.79   0
  -1  -6   4   77.66    6.10   0
   0  -6   8   73.05    4.38   0
   1  -7   2  276.50    7.03   0
   0  -6   0  736.02   10.06   0
   1  -7   5  126.89    4.93   0
   2  -7   2   32.01    5.04   0
   2  -6  -1  408.26    8.67   0
   3  -7   3  163.23    5.92   0
   1  -6   9   52.17    3.73   0
   2  -7   3   39.63    4.65   0
   2  -7   4   32.82    4.32   0
   2  -7   5   55.52    4.27   0
  -1  -5   1  511.90    8.25   0
   0  -6   1  237.75    7.08   0
   0  -6   7  131.10    5.69   0
  -1  -5   7  189.50    7.27   0
   1  -6   0  213.34    6.96   0
   0  -6   2  420.41    8.51   0
   0  -6   6  135.81    6.24   0
   2  -6   9   95.64    3.91   0
   0  -6   3  262.65    7.73   0
  -1  -5   3  471.70    9.08   0
  -1  -5   6  122.72    6.99   0
   1  -6   1   99.47    6.02   0
  -1  -5   5  359.57    8.88   0
   1  -6   7   68.70    5.04   0
   1  -5  10   93.57    4.58   0
   3  -6   2   82.90    6.65   0
   3  -6   8   25.11    3.45   0
   4  -6   4  173.78    6.41   0
   0  -5   1  295.23    6.79   0
   1  -6   3   87.49    6.29   0
   1  -6   6   72.83    5.66   0
   2  -6   2  278.01    8.23   0
   4  -6   5   77.25    4.96   0
   0  -5   8   56.23    5.67   0
   1  -6   4  200.72    7.25   0
   1  -6   5   64.10    6.03   0
   2  -6   3  248.69    7.70   0
   0  -5   2  159.08    5.89   0
   2  -6   6  216.45    6.87   0
   2  -5   0  189.35    6.32   0
   0  -5   7   92.67    6.60   0
   1  -5   9  154.11    5.92   0
   2  -6   5  186.03    6.79   0
   5  -5   4  258.50    8.07   0
   1  -5   1  611.55    8.85   0
   2  -4  12  106.73    4.38   0
   3  -5  10   75.24    3.88   0
   5  -5   7   77.09    4.50   0
  -1  -4   5  138.88    7.18   0
   0  -5   4  140.15    6.78   0
   3  -5   1  402.54    9.34   0
   4  -5   2   56.50    6.74   0
   5  -5   5  196.37    6.95   0
   5  -5   6   54.49    4.89   0
   2  -5   1  448.87    8.52   0
   4  -5   9   22.11    3.39   0
   1  -5   2  701.51    9.91   0
   2  -5   9  103.74    5.42   0
   2  -3  13   51.76    4.50   0
   4  -5   8   21.81    4.11   0
   1  -5   3  356.68    7.30   0
   1   6   0  410.83   12.60   0
   4   6  -4  134.92    7.57   0
   3   6  -1   44.40    6.20   0
   1   6  -1   57.08    7.88   0
   3   6  -7   16.68    4.90   0
   3   6  -2   61.37    7.67   0
   5   2  -1  150.96    7.60   0
   5   4  -7   58.35    6.92   0
   4   4   0  487.03   10.02   0
   3   6  -6   12.33    4.94   0
   3   6  -3   71.07    7.50   0
   2   6  -8   37.16    5.17   0
   3   6  -5   22.18    5.86   0
   3   6  -4   74.84    6.88   0
   5   3  -2  376.61    9.90   0
   1   6  -2   78.77    7.06   0
   4   5  -7   15.98    5.05   0
   5   2  -2  182.60    7.91   0
   4   4  -1  439.88    9.73   0
   5   3  -8   89.50    6.96   0
   2   6  -7   60.21    5.66   0
   2   6  -3  222.79    8.52   0
   4   5  -5   52.09    6.86   0
   4   5  -4  106.13    7.45   0
   1   6  -3   28.27    6.36   0
   2   6  -4   93.19    7.33   0
   3   5  -9   32.52    4.59   0
   2   6  -5   90.45    6.86   0
   4   4  -9   61.73    5.41   0
   5   2  -3  137.15    7.95   0
   1   6  -7   19.24    5.17   0
   1   6  -4   53.47    6.43   0
   4   4  -2  486.69   10.22   0
   5   3  -5  213.43    8.65   0
   5   2  -4  164.55    8.48   0
   3   5  -8  105.25    6.13   0
   4   4  -3  154.26    8.14   0
   4   4  -8   32.56    5.44   0
   5   2  -7   25.14    6.50   0
   5   2  -5  117.76    8.41   0
   3   5  -7  123.73    7.15   0
   3   5  -4  178.71    8.45   0
   4   4  -4  186.73    8.68   0
   5   2  -6    2.29    6.78   0
   3   5  -5  192.58    8.49   0
   4   4  -6   97.17    7.66   0
   4   4  -5   87.31    7.72   0
   2   5  -9    2.48    4.55   0
   1   5  -2  754.65   10.17   0
   3   4 -10    4.12    4.50   0
   0   5 -10   12.93    4.94   0
   1   5  -3  482.97    9.24   0
   2   4 -11   56.88    5.16   0
   2   5  -7   12.26    4.84   0
   2   5  -6   19.81    6.93   0
   0   5  -9   60.33    6.59   0
   4   1 -11   40.78    7.35   0
   4   2 -10   87.69    6.86   0
   4   2  -3  832.54   11.09   0
   0   5  -4  108.11    7.55   0
   1   5  -4  549.32   10.52   0
   3   3 -11   29.85    5.30   0
   3   4  -8   31.80    6.52   0
   3   4  -4  228.63    8.47   0
   0   4 -12   29.53    5.39   0
   3   4  -7   27.80    7.34   0
   3   4  -5   88.27    7.82   0
   4   2  -9  209.14    8.84   0
   3   1 -13   47.77    6.81   0
   4   1 -10   45.06    7.55   0
   4   2  -8  125.14    8.55   0
   4   2  -5  475.99   10.93   0
   4   2  -7  609.42   12.34   0
   4   2  -6  384.05   10.87   0
   1   3 -13   31.59    4.47   0
   2   4  -8  135.47    8.62   0
   3   3  -4  826.40   11.42   0
   4   1  -9   39.98    7.68   0
  -1   4 -11   26.23    5.19   0
   0   4 -11  112.27    6.35   0
   2   4  -5  372.28    9.65   0
   3   2 -11   38.99    6.62   0
   4   1  -5  376.09    9.90   0
   2   4  -6  389.51   10.52   0
   3   0 -13   49.55    6.92   0
   3   3  -8  271.49    9.92   0
   3   3  -5  492.31   10.40   0
   4   1  -8   59.79    8.52   0
   4   1  -6  338.12   10.47   0
   1   2 -14    6.12    4.52   0
   2   3 -11   17.12    4.56   0
   3   1 -12   70.40    7.13   0
   3   3  -6  503.59   11.17   0
   0   3 -13   42.76    4.77   0
  -1   3 -13   56.75    5.10   0
   0   4 -10   69.09    7.20   0
   1   3 -12   52.41    6.06   0
   3   2 -10    6.14    7.89   0
  -1   4 -10   48.46    5.78   0
   2   2 -12   47.60    6.59   0
   0   4  -9   85.46    7.87   0
   3   0 -12   24.93    7.22   0
   3   1 -11  161.62    8.98   0
  -1   4  -9   44.05    6.77   0
   0   2 -14   28.44    4.53   0
   2   3  -9   55.48    8.28   0
   3   2  -8  115.02    9.23   0
   0   4  -8  160.75    8.83   0
   0   4  -5  413.98    9.50   0
   1   2 -13   19.10    5.48   0
   2   1 -13   33.63    6.36   0
   3   2  -7   65.68    8.31   0
   0   4  -7  341.56   10.27   0
   0   4  -6  364.80    9.84   0
   2   3  -7   83.99    8.48   0
   2   3  -5  556.22    9.93   0
   3  -1 -12  119.47    9.22   0
  -1   2 -14   19.06    4.50   0
  -1   3 -12  168.66    7.14   0
  -1   4  -7  110.41    7.84   0
   0   1 -15   15.85    4.32   0
   1   0 -15   49.29    6.09   0
   2   2 -11  160.13    9.20   0
   3   1 -10  182.70   10.20   0
   1   1 -14   59.79    5.97   0
   1   3 -10  308.25   10.39   0
   3   0 -11   28.43    8.27   0
   2  -1 -14   22.52    6.82   0
   3   1  -9  476.29   12.88   0
   2   2 -10  118.21    9.52   0
  -2   3 -11   31.48    5.87   0
  -1   1 -15   28.60    4.68   0
   0   2 -13  104.35    6.57   0
   1   2 -12   21.69    6.92   0
   1   3  -9  238.40   10.44   0
   3   1  -8  440.85   12.18   0
  -1   3 -11   98.57    7.88   0
   3   0 -10   16.61    8.71   0
   1  -1 -15   60.14    6.40   0
   2   2  -9  172.74    9.87   0
   1   3  -6  401.74    9.47   0
   3   0  -9  410.30   12.72   0
  -2   2 -13   69.85    5.64   0
  -1   2 -13   28.95    6.14   0
   1   2 -11   57.81    8.29   0
   2   1 -11   51.06    9.08   0
   3  -1 -10  273.57   12.63   0
  -1   3 -10  100.89    8.10   0
   0   0 -15   60.52    5.44   0
   1  -2 -15   56.82    6.81   0
   1   0 -14   56.32    6.84   0
   2  -1 -13   33.11    8.31   0
   3   0  -8   69.63    9.29   0
   0   2 -12  142.50    8.46   0
   2   0 -12  175.89   10.10   0
  -3   1 -14   85.21    6.14   0
   1   2 -10   12.45    8.54   0
   2  -2 -13  106.05    9.26   0
   2   1 -10  101.57   10.18   0
   3  -1  -9  455.95   13.73   0
  -1   1 -14   50.45    5.72   0
  -1   3  -9  252.71    9.72   0
   0   3  -7  181.91    8.04   0
  -1   2 -12    9.56    6.75   0
  -1   0 -15   21.96    4.63   0
  -1   3  -8  285.17   10.36   0
   0   1 -13   26.29    6.99   0
   0   2 -11  420.18   11.26   0
   1   2  -9  198.34    9.56   0
   2   0 -11  558.26   14.07   0
   2   1  -9   70.94    8.56   0
  -1   3  -7  532.23   11.03   0
   1   0 -13   41.38    7.86   0
   2  -1 -12   19.71    8.50   0
   0  -1 -15   28.84    5.74   0
   1   2  -8  181.82    8.41   0
   2   1  -8  220.93    9.09   0
   2  -2 -12  188.50   11.85   0
  -1  -2 -16   17.33    4.36   0
   0   2 -10  224.95    9.73   0
   1  -2 -14   39.15    7.31   0
  -3   1 -13  142.50    7.09   0
  -2   2 -11  100.50    7.32   0
  -1   1 -13  135.72    7.45   0
   0   1 -12   -4.39    5.69   0
   0   2  -9  342.05    9.83   0
   1   1 -10  196.20    8.12   0
  -2  -2 -16   52.14    4.51   0
  -1  -1 -15   82.14    5.68   0
  -1   0 -14   19.13    5.66   0
  -1   2 -10  101.35    8.28   0
   0  -1 -14   54.35    6.84   0
   0   0 -13  121.99    8.03   0
   0   2  -8  605.84   10.45   0
   2  -2 -11  324.13   11.76   0
   2  -1 -10   35.52    8.65   0
  -3   0 -14   46.04    4.94   0
  -2   2 -10  164.40    8.10   0
   0   1 -11   10.02    7.58   0
  -2  -1 -15   14.03    4.14   0
  -2   0 -14  144.33    6.50   0
   1  -2 -13   46.16    7.79   0
   1   0 -11   82.69    8.53   0
  -3   1 -12  144.40    6.38   0
   1   1  -8  379.28    8.56   0
  -2   2  -9  396.47    9.36   0
  -1  -2 -15   23.07    5.04   0
   1  -3 -13  247.24    9.50   0
   2  -1  -9   89.15    7.82   0
  -1   0 -13   37.50    6.49   0
  -1   2  -8   40.04    5.65   0
   0   1 -10  173.03    7.91   0
   2  -3 -13   45.99    6.26   0
   2  -2 -12  217.31   10.39   0
  -3  -3 -11  165.58    8.22   0
  -1  -4 -14   20.48    4.91   0
  -1  -1 -11   72.10    7.24   0
   1  -4 -14    3.33    5.04   0
   1   0  -9  125.78    7.63   0
  -2  -6 -13   97.67    5.61   0
  -2  -4 -13  118.53    7.28   0
   0   0  -9  351.04    8.24   0
   1  -1 -11  266.98   10.04   0
  -3  -2  -9  273.15    9.01   0
   0  -1 -11  104.33    7.83   0
  -2  -5 -13   72.35    6.32   0
  -1  -2 -12   19.67    6.05   0
   0  -5 -14   21.27    4.43   0
   2  -1 -10   27.20    8.30   0
   3  -4 -12   40.19    8.43   0
  -3  -4 -11   43.66    7.11   0
   0  -3 -13   18.65    5.02   0
   3  -5 -12  155.46    9.56   0
   2  -5 -13   28.98    5.59   0
   3  -2 -10   40.98   10.19   0
  -1  -4 -13   38.08    6.46   0
   0  -1 -10  255.03    8.59   0
   2  -3 -12   74.31    8.04   0
   2  -2 -11  353.30   11.29   0
   3  -3 -11  143.02    9.49   0
  -2  -2 -10  222.99    6.84   0
  -1  -2 -11  193.28    9.42   0
   1  -4 -13   16.98    6.33   0
  -3  -4 -10   60.93    8.35   0
  -3  -3  -9  426.37   11.17   0
  -2  -6 -12   66.14    5.87   0
  -2  -3 -11   51.04    7.24   0
  -1  -5 -13  147.56    6.91   0
   0  -4 -13  133.63    7.89   0
   2  -1  -9   45.97    8.59   0
  -2  -7 -11    1.78    5.87   0
  -2  -5 -12  112.48    7.53   0
   0  -6 -13   83.51    5.46   0
   0  -3 -12   11.51    7.65   0
   0  -2 -11  444.53   10.86   0
   1  -5 -13   84.86    6.66   0
   1  -3 -12  192.07    9.40   0
  -2  -2  -9  431.81    8.92   0
  -1  -7 -12   62.29    5.06   0
   1  -1  -9  420.03   10.36   0
  -1  -4 -12   34.03    5.81   0
   2  -3 -11   81.43    9.05   0
  -2  -3 -10   15.85    6.64   0
  -1  -3 -11  114.09    9.41   0
   3  -6 -11   38.54    6.48   0
   3  -3 -10  252.96   11.72   0
  -2  -6 -11  227.68    8.31   0
  -2  -5 -11   32.59    7.43   0
  -1  -5 -12   97.41    7.77   0
   0  -7 -12   15.69    4.38   0
   0  -4 -12  145.27    8.90   0
   1  -7 -12   89.97    5.83   0
   1  -4 -12   28.42    7.56   0
   3  -5 -11  220.87    9.46   0
   0  -2 -10  223.13    8.57   0
  -2  -7 -10   33.73    5.89   0
   0  -3 -11   34.73    8.10   0
   1  -3 -11  319.18   10.77   0
  -1  -2  -9    8.56    5.54   0
   0  -5 -12   34.40    6.62   0
   1  -6 -12   28.25    5.30   0
   1  -5 -12   77.99    7.66   0
  -2  -4 -10  368.68   10.74   0
  -2  -3  -9  131.64    7.30   0
  -1  -7 -11   77.55    5.84   0
   2  -4 -11  174.94    9.90   0
  -1  -3 -10  439.23   11.59   0
   3  -4 -10   57.97    9.00   0
  -2  -5 -10   60.17    8.03   0
   2  -3 -10  114.45    9.57   0
   0  -4 -11  214.55   10.34   0
   0  -2  -9  574.80   10.28   0
   1  -4 -11  180.26    9.63   0
   2  -6 -11   90.03    6.80   0
  -2  -7  -9   54.02    7.18   0
   0  -7 -11   57.31    5.30   0
   0  -3 -10  126.77    8.26   0
   1  -7 -11   96.41    6.57   0
   3  -5 -10  207.43   10.40   0
   1  -8 -10   22.49    4.22   0
  -2  -4  -9  450.07   11.20   0
  -1  -4 -10   43.58    7.49   0
   0  -6 -11  142.31    7.92   0
   0  -5 -11   81.71    7.85   0
   1  -5 -11  210.25    9.57   0
  -1  -7 -10  194.13    7.55   0
  -1  -3  -9  568.09   10.99   0
  -2  -6  -9  173.38    8.69   0
  -2  -5  -9  198.03    9.50   0
   2  -8  -9   82.23    5.00   0
   2  -3  -9  340.63   11.02   0
   4  -6  -8  144.02    8.80   0
   4  -5  -8   47.52    8.77   0
  -1  -6 -10   49.09    7.59   0
   1  -4 -10   12.79    7.91   0
   3  -3  -8  330.15   12.81   0
   0  -7 -10   57.84    5.91   0
   0  -3  -9   85.49    7.19   0
   1  -7 -10  123.85    7.85   0
   2  -6 -10  120.82    7.37   0
   3  -6  -9   81.27    7.67   0
   4  -7  -7   61.27    6.86   0
  -1  -8  -8   21.23    4.70   0
   0  -6 -10  164.48    8.63   0
   1  -8  -9   80.64    4.89   0
   1  -5 -10  160.12    9.50   0
  -2  -5  -8   80.89    8.05   0
   1  -6 -10    9.05    4.54   0
   2  -7  -9   59.84    5.45   0
   2  -3  -8  216.30    9.33   0
   3  -4  -8   58.07    9.65   0
   1  -4  -9   50.38    7.64   0
   2  -8  -8   87.03    5.30   0
   3  -7  -8   91.72    6.49   0
   4  -5  -7  175.15   10.49   0
  -1  -8  -7   27.54    5.79   0
   1  -7  -9  213.72    8.96   0
   2  -6  -9  261.09    9.38   0
   2  -5  -9   50.60    8.82   0
   3  -3  -7  378.64   12.39   0
  -1  -7  -8  213.30    7.99   0
   0  -5  -9   78.09    7.54   0
   1  -8  -8   56.09    4.75   0
   3  -5  -8  211.67   10.72   0
  -2  -6  -7  306.00    9.97   0
   1  -5  -9  289.23   10.37   0
   3  -6  -8   75.98    8.18   0
   4  -7  -6   66.74    6.60   0
  -2  -5  -7  332.31   10.05   0
  -1  -6  -8  144.11    8.82   0
   0  -9  -5   32.20    4.92   0
   0  -4  -8  320.72    9.23   0
   0  -7  -8   73.77    6.56   0
   1  -4  -8  143.39    7.83   0
   3  -4  -7  277.75   11.95   0
   4  -6  -6   89.50    7.99   0
  -1  -7  -7  228.84    8.24   0
   1  -8  -7   79.50    5.00   0
   2  -6  -8  178.47    8.43   0
   2  -5  -8   33.97    8.32   0
  -2  -6  -6  256.57    9.71   0
   0  -6  -8  272.45    9.77   0
   0  -5  -8  139.65    7.40   0
   0  -9  -4   43.16    4.31   0
   1  -6  -8   66.74    7.48   0
   1  -5  -8  390.91   10.64   0
   3  -6  -7  193.81    9.40   0
   3  -5  -7  138.62   10.31   0
   4  -7  -5   14.82    5.76   0
  -1  -8  -5   58.48    5.62   0
   2  -8  -6  187.36    6.64   0
   3  -8  -5   35.38    4.51   0
   0  -9  -3   36.38    4.27   0
   0  -7  -7   51.61    6.43   0
  -1  -7  -6  179.68    7.87   0
   4  -6  -5  278.02   10.00   0
   2  -6  -7  328.24    9.41   0
   2  -5  -7   36.57    7.78   0
   3  -4  -6  116.72    9.41   0
   4  -5  -5   91.27    9.84   0
   0  -5  -7   84.70    6.36   0
   3  -6  -6   47.76    8.10   0
   4  -7  -4   31.89    6.00   0
   0  -8  -5   42.24    5.59   0
   1  -6  -7  107.37    7.76   0
   1  -5  -7  376.75    9.73   0
   2  -8  -5  168.71    6.30   0
   3  -8  -4   39.79    4.69   0
   3  -5  -6  457.27   13.10   0
  -1  -6  -6  203.62    8.69   0
   2  -7  -6   95.21    7.20   0
  -1  -5  -6  261.46    7.58   0
   1  -8  -5   60.76    5.18   0
   2  -6  -6  246.19    8.64   0
   0  -6  -6  625.90   11.45   0
   1  -9  -1   77.96    4.57   0
   2  -8  -4  182.02    6.37   0
   2  -5  -6   37.21    7.22   0
   3  -8  -3   43.06    4.68   0
   4  -5  -4  110.07   11.81   0
   0  -5  -6  128.77    6.36   0
   3  -4  -5   98.73    8.53   0
  -1  -8  -2   44.80    5.31   0
   1  -8  -4   83.20    5.35   0
   1  -5  -6  713.67   11.13   0
   2  -7  -5  106.86    7.76   0
   3  -5  -5  368.29   11.80   0
  -1  -7  -4  295.92    9.01   0
   3  -7  -4  212.66    8.30   0
   4  -7  -2   73.95    6.36   0
   2  -8  -3  177.62    6.36   0
   4  -6  -3  258.76   10.34   0
   0  -6  -5  337.16    9.27   0
   1  -8  -3   48.34    5.15   0
   2  -6  -5  365.66    9.39   0
   2  -7  -4   89.26    7.78   0
  -1  -7  -3  299.86    9.13   0
   0  -5  -5  293.24    7.77   0
   3  -8  -1   48.50    4.59   0
   3  -7  -3  211.60    8.41   0
   1  -7  -4  256.96    8.33   0
   2  -8  -2  222.19    6.76   0
   3  -5  -4  311.28   11.04   0
   4  -7  -1   67.29    6.05   0
   1  -8  -2   47.05    5.18   0
   4  -6  -2  313.10   10.67   0
  -1  -7  -2  345.25    9.36   0
   2  -8  -1  245.80    7.01   0
   2  -7  -3  106.06    7.77   0
   2  -6  -4  315.95    9.54   0
   3  -8   1   54.34    4.25   0
   4  -7   0  123.72    6.55   0
   2   3  -7  120.80    9.56   0
   2   3  -6  331.79   10.35   0
  -1   3  -8  271.31   10.86   0
   1   1 -14   53.44    5.87   0
   1   3  -9  235.53   10.94   0
   3   0 -13   50.32    6.84   0
   4   1  -8   66.20    9.87   0
  -1   2 -12   13.55    6.11   0
  -1   3  -7  624.14   14.20   0
   2   1 -13   41.46    6.75   0
   2   2 -11  187.49    9.69   0
   4   1  -7   97.24   10.27   0
   4   1  -6  337.86   12.71   0
   1   3  -8  386.81   11.51   0
   4   0 -10  231.28   10.18   0
   1   3  -7  510.71   11.24   0
   1   3  -6  363.05    9.06   0
   2   0 -14   65.08    5.93   0
   3   2  -6  137.89    8.42   0
   2   2 -10  122.01    9.44   0
   4  -1 -11   48.06    9.08   0
   0   0 -15   43.76    4.80   0
   1   2 -11   68.72    8.47   0
  -1   2 -11  105.20    7.68   0
   1   1 -13   83.69    6.92   0
   2   1 -12   24.10    7.23   0
   3   0 -12   41.96    7.24   0
   4   0  -9  413.83   12.51   0
   2   2  -9  189.04    9.78   0
   3  -1 -13  104.44    7.26   0
  -1   1 -13  138.86    6.78   0
   4   0  -8  446.16   12.94   0
   1   2 -10   22.00    7.95   0
   2   2  -8  343.16   10.16   0
   4  -1 -10   30.74    8.51   0
  -2  -1 -15   13.84    5.68   0
  -2   1 -12   61.50    6.48   0
  -1   2 -10   79.71    7.37   0
   1  -1 -15   47.89    4.69   0
   1   0 -14   30.13    5.57   0
   2   0 -13  167.80    7.97   0
   2  -1 -14   25.07    5.56   0
   2   1 -11   66.29    8.13   0
   3   0 -11   42.39    7.94   0
   1   1 -12  116.27    7.85   0
   1   2  -9  171.42    8.88   0
   3   1  -8  437.91   11.43   0
  -1   0 -14   24.00    5.34   0
   0   0 -14   89.65    5.83   0
   3  -2 -13   30.17    6.75   0
   3   1  -7  424.41   10.59   0
  -1   1 -12  318.24    8.65   0
   0  -1 -15   23.28    4.37   0
   0   1 -12    1.06    6.87   0
   1   2  -8  171.00    7.87   0
   3  -1 -12  128.45    8.45   0
   3   0 -10   14.89    8.04   0
   1   0 -13   33.45    6.67   0
   1   1 -11  217.98    9.21   0
   3  -3 -13   39.17    6.87   0
   1  -2 -15   64.77    5.32   0
   2  -1 -13   54.32    6.67   0
   2   1  -9   65.06    7.59   0
  -2   1 -10  118.69    7.42   0
  -1   1 -11  123.26    7.35   0
   0   0 -13  150.57    7.37   0
   0   1 -11    4.76    7.00   0
   3  -2 -12   29.09    8.16   0
   3  -1 -11  221.21    9.46   0
   3   0  -9  461.40   11.53   0
  -2  -1 -14   26.75    5.78   0
  -1   0 -13   47.02    6.11   0
   1   1 -10  308.90    9.74   0
   2   0 -11  541.75   11.77   0
   2   1  -8  193.97    7.88   0
   1   0 -12   40.00    7.05   0
   2  -3 -14   32.71    6.71   0
   3   0  -8   54.45    7.75   0
   0  -1 -14   59.45    5.79   0
   1  -3 -15  115.63    5.53   0
  -2   0 -12  233.61    7.93   0
  -2   1  -9  139.57    7.87   0
  -1   1 -10  194.56    7.59   0
   1   1  -9  263.55    8.58   0
   2  -4 -14   86.38    6.92   0
   3  -1 -10  284.94   10.36   0
   3   0  -7  270.67    9.10   0
   2  -1 -12   15.18    5.61   0
   2   0 -10  191.36    9.12   0
   3  -3 -12   83.61    7.54   0
  -1   0 -12   47.16    6.77   0
   1  -2 -14   32.57    5.75   0
   3  -4 -12   42.70    8.05   0
   3  -2 -11   13.87    7.48   0
  -1   1  -9  691.09   10.27   0
   0   1  -9  172.04    7.18   0
   1   0 -11   89.78    7.82   0
   1   1  -8  375.99    8.42   0
  -2  -3 -15   32.09    4.57   0
  -2  -1 -13   10.53    5.69   0
   0  -3 -15   25.18    4.59   0
   3  -1  -9  485.73   12.03   0
   0  -1 -13   66.81    6.81   0
   2   0  -9  520.71   10.87   0
  -2  -2 -14   71.70    6.42   0
   0  -2 -14  146.86    6.58   0
   2  -1 -11   68.80    8.36   0
   0   0 -11  469.36   10.29   0
   1  -3 -14  147.80    6.71   0
   1  -1 -12  169.96    8.63   0
   3  -3 -11  133.17    8.82   0
   3  -1  -8  285.25   10.15   0
  -2  -4 -15   76.25    4.40   0
  -1   0 -11  417.76    9.55   0
   1  -2 -13   50.22    7.13   0
   2  -5 -13   23.59    6.54   0
  -2   0 -10  855.60   11.57   0
  -2  -1 -12  115.26    7.56   0
  -1  -5 -15   54.97    4.33   0
   0  -1 -12   33.06    7.05   0
   0   0 -10  103.25    7.16   0
   1  -4 -14   10.78    5.33   0
  -3  -4 -14   29.33    4.97   0
   0  -3 -14   33.47    5.59   0
   1   0  -9   85.92    5.42   0
   3  -3 -10  276.31   12.06   0
   3  -2  -9  144.09    9.75   0
  -2  -3 -14   23.29    5.34   0
   0  -2 -13  212.51    8.23   0
   2  -3 -12   78.18    8.05   0
  -2  -2 -13  101.21    6.93   0
   1  -3 -13  243.55    8.81   0
   1  -2 -12   38.27    7.82   0
  -3  -3 -13   77.88    5.48   0
  -3  -2 -12   62.13    6.22   0
   0   0  -9  379.22    8.18   0
   3  -4 -10   49.53    8.12   0
  -2  -1 -11  107.90    7.02   0
   0  -6 -14   45.99    3.99   0
   0  -1 -11  121.75    7.90   0
   3  -3  -9  264.45   12.55   0
   0  -5 -14   21.80    4.73   0
   1  -4 -13   18.32    6.53   0
   2  -5 -12   12.45    6.67   0
   1  -6 -13   13.28    4.59   0
   2  -3 -11  119.75    9.24   0
   2  -1  -8  167.17    7.75   0
   1  -5 -13   95.12    6.78   0
  -2  -5 -14   15.21    3.93   0
  -2  -3 -13   47.01    6.42   0
  -2  -2 -12   79.72    6.95   0
  -1  -6 -14   16.06    3.68   0
   1  -3 -12  204.48    9.66   0
  -3  -4 -13   56.72    5.41   0
  -1  -3 -13  231.88    8.08   0
   0  -1 -10  277.66    8.55   0
   1  -1  -9  327.43    8.69   0
   3  -3  -8  297.02   12.03   0
  -3  -2 -11   86.07    7.50   0
  -2  -1 -10   67.31    6.65   0
   2  -6 -11   89.57    7.13   0
   2  -4 -11  175.30    9.72   0
   2  -2  -9  521.11   11.90   0
  -3  -3 -12  128.31    8.37   0
   0  -4 -13  136.29    7.52   0
  -3  -5 -13   82.47    5.34   0
   2  -5 -11   23.88    7.28   0
   2  -3 -10  131.73    9.78   0
  -2  -4 -13  120.82    6.98   0
   0  -6 -13   80.36    5.08   0
   0  -5 -13   43.62    6.12   0
   1  -2 -10  173.67    8.52   0
  -2  -2 -11  212.27    8.30   0
  -1  -4 -13   40.45    6.49   0
   1  -3 -11  341.42   11.16   0
  -2  -3 -12  125.42    7.84   0
  -1  -2 -11  198.82    8.36   0
   2  -2  -8  629.98   12.14   0
  -1  -5 -13  145.82    6.74   0
  -1  -3 -12  146.80    8.04   0
   2  -4 -10   81.71    9.64   0
  -3  -2 -10   99.54    7.83   0
  -1  -6 -13   29.41    4.34   0
   2  -3  -9  294.71   10.92   0
   0  -7 -12    9.58    3.77   0
   0  -4 -12  147.09    8.45   0
   1  -7 -11   95.45    5.90   0
   2  -5 -10   30.08    8.40   0
   1  -4 -11  188.09   10.30   0
   1  -2  -9  155.75    7.60   0
   0  -3 -11   32.57    5.97   0
   1  -3 -10  315.80   10.90   0
  -3  -5 -12  178.87    6.50   0
  -2  -4 -12   90.09    7.55   0
  -2  -2 -10  396.45    9.49   0
   0  -6 -12   50.51    6.15   0
   0  -5 -12   47.55    7.34   0
   1  -6 -11   79.10    7.46   0
  -2  -7 -12   27.01    3.94   0
  -1  -7 -12   67.95    5.14   0
   2  -4  -9  493.71   13.75   0
  -2  -3 -11   49.19    7.16   0
   1  -8  -9   97.80    6.85   0
   2  -6  -9  241.68    9.93   0
  -3  -4 -11   36.34    7.81   0
  -2  -6 -12   62.03    5.44   0
  -1  -6 -12   49.21    4.16   0
   1  -7 -10  119.41    6.72   0
   1  -4 -10   15.71    8.64   0
   2  -5  -9   51.23    9.26   0
   0  -7 -11   43.00    4.68   0
   0  -3 -10  128.36    7.94   0
   1  -3  -9  233.12    9.69   0
  -3  -3 -10  319.94   10.23   0
  -2  -2  -9  495.22    9.17   0
  -1  -4 -11  224.94    8.97   0
   0  -6 -11  145.79    7.74   0
   0  -5 -11   88.52    8.57   0
   1  -6 -10   -5.67    7.42   0
   2  -4  -8  253.67   11.55   0
  -3  -5 -11  203.85    6.99   0
  -1  -3 -10  349.83    9.20   0
  -4  -5 -10   16.92    5.79   0
  -3  -6 -11   19.05    5.06   0
  -2  -7 -11    5.23    4.74   0
  -2  -3 -10   22.41    6.41   0
   2  -6  -8  195.37    9.96   0
  -1  -5 -11  113.34    8.17   0
   0  -4 -10  233.53    9.64   0
   2  -5  -8   31.38    9.02   0
  -2  -8 -10   73.13    3.78   0
  -2  -5 -11   19.74    6.92   0
  -1  -6 -11  118.44    6.45   0
   1  -7  -9  195.29    8.16   0
   0  -7 -10   46.90    5.37   0
   0  -3  -9   91.89    6.89   0
   0  -5 -10  136.70    9.17   0
   2  -4  -7  508.54   12.99   0
  -1  -4 -10   52.33    7.08   0
   0  -6 -10  185.67    9.01   0
   1  -6  -9   79.94    8.71   0
  -1  -3  -9  466.13    9.05   0
   2  -6  -7  332.79   11.31   0
  -1  -4   6   61.89    4.54   0
   0  -6   3  227.24    6.77   0
   1  -6  -1  166.67    6.41   0
   1  -5   9  155.74    5.01   0
   2  -7   2   37.25    4.27   0
   2  -7   3   39.59    3.98   0
   2  -5  10   20.63    2.93   0
  -1  -3   7  520.53    9.29   0
   0  -5   7   90.58    5.86   0
   3  -7   4   67.47    3.85   0
   3  -7   3  166.11    4.76   0
  -1  -4   4  140.91    5.18   0
   2  -4  11  124.18    4.07   0
   3  -6   8   25.36    2.78   0
   0  -5   6   93.78    5.76   0
   1  -6   0  241.99    6.56   0
   1  -6   5   66.83    4.97   0
   1  -5   8  127.51    5.46   0
   2  -6   7  133.51    4.45   0
   0  -5   5   83.02    5.53   0
   1  -6   1  101.99    5.28   0
   1  -6   3  114.42    5.49   0
   2  -5   9   93.83    4.17   0
   0  -5   2  183.27    5.25   0
   0  -5   3  248.87    6.14   0
   2  -6   6  213.55    5.41   0
   3  -6   7   41.45    3.37   0
   3  -4  11   44.06    2.98   0
   4  -6   7   84.97    3.17   0
   1  -5   7  356.92    7.26   0
   1  -4   9   81.15    5.23   0
   2  -6   0  413.59    8.13   0
   4  -4  11   61.45    2.68   0
   5  -6   5   25.70    3.46   0
   1  -3  10  108.49    5.79   0
   2  -6   1  295.53    6.84   0
   3  -6   6   38.87    3.73   0
   3  -5   9  131.56    4.06   0
   2  -6   4  316.08    6.74   0
   2  -5   8   45.42    4.31   0
   4  -6   6   73.58    3.49   0
   4  -5   9   19.12    2.48   0
   5  -6   3   48.71    4.61   0
   5  -6   4   32.88    3.56   0
   2  -6   2  292.74    6.65   0
   0  -4   5  405.33    7.12   0
   3  -6   1   53.09    4.71   0
   3  -6   5   46.99    4.16   0
   1  -5   5  279.51    6.69   0
   2  -5   7   32.71    4.66   0
   3  -6   2   65.08    4.54   0
   3  -6   3   62.81    4.91   0
   3  -5   8  226.16    5.25   0
   4  -6   3  199.35    5.50   0
   4  -6   4  166.88    4.91   0
   5  -5   8   51.97    2.66   0
   1  -5   3  503.26    7.56   0
   5  -4  10   21.83    2.19   0
   4  -5   8   25.96    3.15   0
   4  -4  10   80.53    3.34   0
   1  -4   7  106.50    4.72   0
   2  -5   6  156.62    5.75   0
   3  -3  11  128.53    4.32   0
   2  -3  10   37.19    4.86   0
   3  -5   7  228.44    5.69   0
   6  -5   5   46.00    3.62   0
   5  -3  11  112.19    3.03   0
   1  -4   6   92.32    5.17   0
   2  -4   8  225.55    6.38   0
   4  -5   7   30.71    3.71   0
   4  -3  11   65.32    3.25   0
   4  -2  12   94.83    3.47   0
   6  -5   3   88.46    4.49   0
   6  -5   4   68.45    3.71   0
   1  -3   8  328.66    7.49   0
   2  -5   1  464.57    7.29   0
   2  -5   4  194.62    5.89   0
   1  -4   5  235.81    5.85   0
   1  -2   9   50.59    5.37   0
   2  -5   2  278.88    6.17   0
   2  -5   3  141.47    5.54   0
   5  -5   6   55.96    3.43   0
   5  -4   9   33.44    2.74   0
   4  -5   6   38.92    4.19   0
   4  -4   9  165.57    4.49   0
   6  -4   8   63.04    2.65   0
   6  -3  10   22.19    2.38   0
   2  -4   7  303.93    6.95   0
   2  -3   9  155.43    6.06   0
   3  -5   0  399.06    8.37   0
   3  -5   5  302.31    6.78   0
   3  -3  10   75.44    4.57   0
   1  -3   7  619.81    8.68   0
   3  -4   8   85.25    5.05   0
   3  -5   1  400.27    7.60   0
   3  -5   4  230.29    6.40   0
   3  -2  11  134.33    4.92   0
   4  -5   5   92.69    5.03   0
   5  -5   2  213.88    6.57   0
   5  -5   4  274.50    6.26   0
   3  -5   2  314.04    6.91   0
   3  -5   3  437.47    7.61   0
   5  -5   3  158.35    5.65   0
   5  -4   8   40.76    3.26   0
   5  -3  10  126.81    3.53   0
   6  -4   7   76.96    3.60   0
   1  -2   8   42.23    4.96   0
   4  -5   2   46.06    5.02   0
   4  -5   3   17.75    4.58   0
   4  -4   8  165.21    5.18   0
   3  -4   7   65.94    5.29   0
   4  -1  12   37.07    3.56   0
   5  -1  12   76.87    3.78   0
   2  -4   5  286.87    6.44   0
   4  -2  11  154.50    4.63   0
   5  -2  11   26.31    2.93   0
   6  -3   9   33.08    2.63   0
   5  -4   7   79.26    4.23   0
   4  -4   7  238.00    6.16   0
   3  -4   6   82.57    5.42   0
   3  -2  10   39.94    4.77   0
   4  -3   9   58.86    4.74   0
   2  -3   7   69.15    5.22   0
   2  -1  10  137.69    6.77   0
   3  -1  11  212.24    6.18   0
   6  -4   5  119.95    4.63   0
   7  -2   9   22.10    2.35   0
   4  -4   6  236.65    6.74   0
   5  -4   6   79.47    4.71   0
   6  -4   4  135.86    5.15   0
   6  -2  10   86.80    3.19   0
   6  -4   3  115.77    5.30   0
   6  -3   8   13.98    3.08   0
   4  -2  10  251.53    5.96   0
   5   0  12   48.74    3.81   0
   2  -3   6  197.36    5.52   0
   3  -4   4  185.14    5.98   0
   4  -4   5  257.15    7.04   0
   4  -1  11   74.23    4.38   0
   5  -4   5   18.53    3.72   0
   5  -3   8  171.29    5.05   0
   5  -1  11  139.53    4.06   0
   7  -3   5  133.14    4.34   0
   3  -3   7  262.69    7.11   0
   3  -2   9  168.91    6.26   0
   5  -4   1   66.00    6.58   0
   7  -3   4  124.11    5.25   0
   7  -2   8   26.50    2.73   0
   5  -4   3   92.47    5.95   0
   6  -2   9  110.85    3.99   0
   7  -3   3  124.72    5.32   0
   3  -1  10  131.64    6.03   0
   4  -4   1  485.61    9.29   0
   4  -4   2  469.05    8.79   0
   4  -4   3  433.57    8.53   0
   4  -3   7  194.69    6.64   0
   5  -3   7  184.38    6.02   0
   3  -3   6  336.82    7.23   0
   5  -2   9   43.52    4.31   0
   6  -3   6   12.88    2.99   0
   6  -1  10   62.35    3.70   0
   6   0  11  124.34    3.91   0
   7  -1   9  115.03    3.39   0
   4  -1  10   30.26    4.81   0
   4   0  11  261.31    6.35   0
   6  -2   8  102.19    4.36   0
   4  -3   6  245.90    7.13   0
   5  -3   6  132.39    6.00   0
   5  -1  10  131.67    4.76   0
   5   0  11   42.06    3.92   0
   6  -3   4   65.32    5.43   0
   7  -2   6   30.70    3.69   0
   4  -2   8  285.00    7.30   0
   5  -2   8   75.35    5.22   0
   8  -1   5   36.38    3.41   0
   4  -3   5  350.80    7.85   0
   5  -3   5  436.99    8.40   0
   6  -3   2   71.03    6.09   0
   6  -3   3   45.48    5.42   0
   6   1  11   50.84    3.54   0
   7  -1   8   97.86    3.73   0
   3  -2   7  185.41    6.09   0
   6  -2   7  175.60    5.46   0
   8  -1   3   30.21    4.89   0
   8  -1   4   46.49    4.01   0
   8   0   7   91.76    3.78   0
   4  -3   4  107.34    5.95   0
   4  -1   9   30.36    5.36   0
   5  -1   9  185.33    5.97   0
   4  -2   7  348.90    7.82   0
   4   0  10  240.82    6.91   0
   5  -3   3  185.18    7.80   0
   5  -2   7  123.78    6.09   0
   7  -2   2   53.44    6.26   0
   7  -2   3   44.77    5.15   0
   7  -1   7  139.88    4.77   0
   4  -3   3  304.77    7.27   0
   5   0  10   74.98    4.82   0
   6  -2   6  270.31    6.72   0
   3  -2   6  224.14    5.41   0
   3  -1   8  453.53    8.29   0
   4  -3   2  272.80    7.33   0
   6  -1   8   73.25    5.01   0
   3   0   9  177.84    7.00   0
   4  -2   6  296.61    7.53   0
   5  -2   6  102.80    6.26   0
   5   2  11   39.81    5.06   0
   6  -2   5  210.51    7.03   0
   7  -1   6  148.77    5.36   0
   7   0   8   63.13    4.13   0
   8   1   7   21.85    2.90   0
   5  -1   8  186.09    6.47   0
   6   0   9  147.01    5.53   0
   6   1  10   63.50    4.40   0
   7   1   9  129.42    4.30   0
   6  -1   7  116.38    5.75   0
   7  -1   5  135.34    5.85   0
   8   0   4   83.85    4.68   0
   4  -2   5  351.89    7.88   0
   4   0   9  242.45    7.32   0
   4   1  10    9.01    5.31   0
   5  -2   5   29.09    4.47   0
   5   1  10  180.20    6.12   0
   6  -2   3  177.46    7.65   0
   8   0   2  170.76    6.53   0
   8   0   3  144.21    5.75   0
   7   0   7   75.43    4.61   0
   8   1   6   27.97    3.30   0
   5  -1   7  203.27    7.03   0
   6  -2   1  188.68    8.70   0
   6  -2   2  282.38    8.90   0
   6   2  10   92.41    4.48   0
   5  -2   4   73.49    5.07   0
   7   1   8  105.62    4.72   0
   4  -2   4  543.57    8.90   0
   7  -1   1  329.25   10.64   0
   7  -1   2  301.95    9.90   0
   7  -1   3  150.84    7.33   0
   8   1   5   48.04    3.95   0
   6   3  10   27.16    4.17   0
   7   0   6  137.17    5.91   0
   8   2   6  103.04    4.61   0
   5   0   8  113.52    6.35   0
   5   2  10   73.03    6.04   0
   5  -2   2  150.96    7.76   0
   5   1   9  174.61    6.88   0
   8   1   1   46.81    6.42   0
   3  -2   9  154.72    7.13   0
   5   1  11  149.42    5.90   0
   2   0   9  921.36   11.30   0
   3   0  10   -0.66    5.54   0
   6  -4   6  148.09    4.86   0
   6  -3   8   15.98    3.33   0
   3   1  10  307.73    7.55   0
   2  -3   6  159.12    5.63   0
   4  -4   6  269.53    8.58   0
   3  -3   7  282.60    8.53   0
   4  -2   9  225.93    7.91   0
   5  -1  10  137.00    6.18   0
   2  -2   7  652.48   10.33   0
   3  -1   9  673.03   10.91   0
   5  -2   9   47.20    5.22   0
   7  -2   8   22.18    3.23   0
   3  -2   8  256.79    8.41   0
   4   0  10  246.60    7.74   0
   6   0  10  112.16    6.12   0
   4   1  10   12.96    5.70   0
   6  -3   7   31.79    4.48   0
   4  -3   7  194.24    8.26   0
   3   0   9  161.85    7.50   0
   5  -4   5   22.67    6.39   0
   5   1  10  188.33    7.89   0
   3  -3   6  361.85    9.39   0
   3   1   9  855.21   11.55   0
   6  -2   8  105.12    5.52   0
   6  -1   9   70.94    5.74   0
   5  -1   9  186.92    7.63   0
   7  -2   7   25.41    4.21   0
   3  -2   7  200.58    8.13   0
   3  -1   8  441.40    9.70   0
   5  -2   8   61.66    6.25   0
   7  -3   5  133.17    5.37   0
   7  -1   8   96.99    4.87   0
   5  -4   4   47.39    7.28   0
   6  -3   6   10.40    5.58   0
   8   0   7   86.27    4.66   0
   4  -3   6  235.61    9.04   0
   4   0   9  244.76    8.58   0
   6  -4   3  136.90    8.14   0
   5  -3   6  140.91    8.12   0
   6   2   9  111.86    7.41   0
   8  -1   6   20.75    3.63   0
   6  -2   7  166.63    6.89   0
   6   1   9   75.57    6.63   0
   3   0   8   31.41    4.83   0
   4  -2   7  315.85    9.35   0
   4  -1   8   91.56    7.38   0
   6  -1   8   67.12    6.45   0
   7  -2   6   31.49    5.05   0
   5   1   9  184.63    8.43   0
   6  -4   2  155.12    8.29   0
   3  -2   6  196.77    6.35   0
   5  -4   2  109.52    8.98   0
   6  -4   1  206.40    9.59   0
   7  -3   3  143.00    6.60   0
   6  -2   6  283.43    8.54   0
   4  -2   6  258.49    8.80   0
   6  -1   7  115.00    7.57   0
   7   0   7   71.65    5.79   0
   8   1   6   23.51    3.95   0
   4  -1   7  113.71    7.43   0
   4   1   8  131.34    7.39   0
   6   1   8  106.21    7.41   0
   6   2   8  144.87    8.01   0
   4  -3   4  124.35    8.42   0
   5  -4   1   67.42    9.99   0
   5  -1   7  193.24    8.41   0
   5   1   8  200.63    9.90   0
   5   2   8   95.49    7.86   0
   7   1   7  208.70    7.55   0
   8  -1   4   51.99    4.64   0
   8   0   5   86.97    4.71   0
   7  -2   4   42.72    5.83   0
   6  -3   3   37.82    7.35   0
   6   0   7  319.38    9.37   0
   7  -3   1  300.70    8.91   0
   4  -2   5  344.94    9.04   0
   6  -1   6   34.33    7.19   0
   5  -3   3  171.43    9.53   0
   5  -2   5   29.84    7.14   0
   5   0   7  228.11    9.19   0
   7   0   6  124.24    6.80   0
   7  -3   0  254.95    9.11   0
   8   0   4   86.71    5.17   0
   6  -3   2   65.47    7.70   0
   6   2   7  280.88    9.34   0
   7  -2   3   42.96    6.37   0
   4   1   7  107.35    6.98   0
   6  -2   4  186.62    8.62   0
   5   1   7  295.29   10.75   0
   8   1   4   36.37    4.54   0
   5  -3   2  214.73    9.83   0
   5   2   7  131.47    9.21   0
   6  -1   5  111.29    8.22   0
   6   0   6  435.75   10.19   0
   7  -1   4  151.63    7.23   0
   7   0   5  130.55    7.27   0
   5  -2   4   88.83    7.32   0
   5   0   6  127.45    7.75   0
   7   3   5  194.20    7.13   0
   5  -1   5  657.68   10.62   0
   6  -2   3  196.47    8.84   0
   6   3   6    8.36    6.70   0
   6  -3   0   57.00    8.13   0
   7   1   5  132.93    7.43   0
   8   0   2  155.18    5.88   0
   8   1   3   51.15    4.78   0
   7  -2   1   32.36    6.86   0
   7  -1   3  197.40    8.02   0
   7   2   5   58.51    6.01   0
   5  -2   3  197.43    8.15   0
   5   1   6  523.50   11.63   0
   6  -1   4  242.57    9.19   0
   8  -1  -1   68.30    5.30   0
   8  -1  -2   87.72    5.48   0
   5   2   6  118.33    8.73   0
   8   0   1   80.62    5.76   0
   8   1   2   39.77    4.98   0
   5  -3   0  378.45   12.21   0
   5  -1   4  447.74    9.08   0
   5   0   5   59.62    6.43   0
   7  -1   2  336.18    8.89   0
   7   1   4  213.90    7.87   0
   7   3   4  399.13    8.36   0
   8   0   0  136.01    5.83   0
   6  -1   3  156.77    8.20   0
   7   0   3  121.34    7.05   0
   7   2   4   57.31    5.95   0
   8   1   1   45.62    5.12   0
   8   2   1  111.92    5.83   0
   6   0   4  295.12    9.04   0
   6   2   5  221.16    8.80   0
   7  -2  -2  159.17    7.91   0
   8   0  -1  174.13    5.79   0
   7  -2  -4  149.07    7.46   0
   7  -2  -3  145.40    7.46   0
   7  -1   1  354.10    9.26   0
   5   1   5  739.26   11.79   0
   7   1   3  284.32    8.07   0
   8   1   0   60.22    4.91   0
   8   2   0  216.06    6.22   0
   5  -1   3  398.72    8.46   0
   7   0   2  175.42    7.27   0
   5   0   4  177.82    6.91   0
   5   2   5   72.79    7.23   0
   6  -2   0  465.24   10.82   0
   6   1   4  230.67    8.41   0
   7  -1   0  204.97    8.51   0
   8   1  -3   30.82    4.78   0
   8   1  -1   25.79    4.36   0
   8   2  -1  272.42    6.36   0
   5  -2   1  157.67    7.53   0
   6   0   3  515.17   10.21   0
   6   2   4  278.33    9.05   0
   6   3   4  124.77    7.26   0
   7   4   1   14.91    5.16   0
   7   1   2  490.82    9.12   0
   7   3   2  383.90    7.99   0
   7  -1  -6  311.59    8.77   0
   5  -1   2  521.53    9.22   0
   5  -2   0  331.94    8.85   0
   6   1   3  219.84    8.15   0
   7   0   0  106.53    7.01   0
   5   0   3  207.17    6.98   0
   6   0   2  685.46   10.81   0
   7  -1  -4  248.03    7.57   0
   7  -1  -3  264.90    7.82   0
   7   3   1  154.26    8.24   0
   5   2   4  251.10    7.74   0
   7   4  -1   40.96    4.98   0
   6  -1   0  215.95    8.44   0
   7   0  -1  190.84    7.20   0
   7   2   1  -10.89    5.64   0
   7   4  -2   18.95    5.02   0
   5  -2  -1   49.75    6.42   0
   6  -2  -5  394.93   10.20   0
   6   4   2  211.88    8.12   0
   7   1   0  176.52    7.33   0
   5  -1   1  889.25   11.20   0
   7   0  -2   63.02    6.12   0
   5   1   3  682.63    9.58   0
   6   0   1  604.00   10.91   0
   7   0  -6   16.93    4.90   0
   5   0   2  249.34    6.92   0
   7   0  -5   40.54    5.62   0
   7   0  -3   49.73    5.82   0
   7   1  -1  194.51    7.24   0
   5  -2  -2  223.59    8.28   0
   6   3   2   65.44    6.30   0
   6  -1  -8   47.48    7.88   0
   6   4   1  201.09    7.98   0
   7   2  -1  172.67    6.63   0
   5  -1   0 1180.74   12.74   0
   6   0   0 1510.93   14.61   0
   5  -2  -3  137.62    7.71   0
   7   1  -5  100.57    5.83   0
   7   1  -4  128.07    6.60   0
   7   2  -2   93.10    6.09   0
   6  -1  -3  114.27    8.04   0
   7   2  -3   90.72    5.92   0
   5   0   1  431.54    7.89   0
   6  -1  -7   41.15    6.65   0
   6   2   1  270.58    9.00   0
   5  -2  -4  169.67    8.51   0
   5   4   2  126.75    7.41   0
   6  -1  -6   39.57    6.46   0
   6  -1  -5   40.46    6.86   0
   6  -1  -4  111.99    7.87   0
   6   4   0  312.89    8.30   0
  -3  -7  -3  249.86    6.89   0
  -3  -6  -4  142.49    6.54   0
  -1  -5  -6  330.98    7.33   0
  -4  -6   1  317.41    7.52   0
  -4  -4  -1  287.28    8.06   0
  -4  -5  -1  226.40    7.57   0
  -2  -6  -5  351.50    8.47   0
  -1  -7  -5  251.48    7.00   0
   0  -9  -1   28.78    3.17   0
   0  -8  -4  118.83    4.96   0
  -3  -7  -2  295.91    7.35   0
  -3  -7   4   86.32    4.61   0
  -2  -7  -4   44.59    5.34   0
  -4  -5   0  151.76    6.85   0
  -3  -6  -3   57.19    5.79   0
  -2  -8  -2  209.09    5.52   0
  -4  -5   1  133.84    6.69   0
  -4  -5   2  177.61    6.92   0
  -4  -4   1  432.57    9.39   0
  -3  -7   3  145.70    4.97   0
  -3  -5  -3  288.73    7.14   0
  -1  -6  -5  221.37    7.05   0
   1  -8  -3   50.99    5.11   0
  -3  -7   0  231.50    6.63   0
  -2  -6  -4  335.30    7.93   0
  -3  -6  -2  136.65    6.46   0
  -2  -8   0  170.25    4.43   0
  -2  -8   1  142.60    4.50   0
  -2  -8   2  123.38    4.06   0
  -2  -5  -4  163.36    5.89   0
  -1  -8  -2   41.73    4.16   0
  -3  -5  -2  283.92    7.23   0
  -3  -6  -1   89.71    6.01   0
  -2  -7  -2  113.46    5.62   0
  -2  -6  -3  435.71    8.31   0
  -1  -8  -1   93.46    4.70   0
   0  -8  -2  154.52    5.17   0
  -3  -6   4   87.93    5.27   0
  -3  -6   1   69.92    5.84   0
  -3  -5  -1  367.75    7.68   0
  -2  -7  -1   94.62    5.39   0
  -2  -7   5   84.24    4.61   0
  -1  -8   0  163.51    4.82   0
  -1  -8   4   48.93    3.10   0
  -3  -6   2   54.41    5.46   0
  -3  -6   3   84.94    5.46   0
  -2  -5  -3  140.52    5.43   0
  -2  -7   0  115.83    5.60   0
  -1  -8   2   61.78    3.65   0
   0  -7  -3  161.10    5.91   0
   0  -6  -4  499.45    9.32   0
   1  -8  -1   32.64    4.80   0
   1  -7  -3  218.47    7.26   0
  -2  -7   4   59.11    4.23   0
  -1  -7  -2  363.14    7.70   0
   0  -8   5   61.42    3.47   0
  -3  -5   1  295.29    7.64   0
  -2  -7   2   74.10    4.83   0
  -3  -5   2  309.13    8.19   0
  -3  -5   4  190.60    7.04   0
  -2  -6  -1   55.73    5.71   0
  -2  -5  -2  324.73    6.63   0
   0  -8   1   70.09    3.88   0
  -3  -5   3  258.60    7.65   0
  -1  -7  -1  279.61    7.00   0
   0  -8   2  122.29    4.32   0
   0  -8   4   82.81    3.42   0
   0  -8   3   67.56    3.62   0
   0  -6  -3  651.89    9.46   0
   1  -8   1   16.10    3.30   0
   1  -7  -2  330.21    7.20   0
  -3  -4   2  131.52    5.98   0
  -2  -6   0  378.95    8.03   0
  -1  -6  -2   33.12    4.91   0
   2  -8   2  127.78    4.74   0
  -3  -4   3  127.41    6.45   0
  -1  -7   0   84.55    4.61   0
   1  -8   3   13.29    3.44   0
   1  -8   4   21.30    2.94   0
   2  -8   3   79.02    4.06   0
  -2  -6   1  338.86    8.03   0
  -2  -6   5  114.53    5.53   0
  -2  -6   2  334.52    7.78   0
  -1  -6   8   30.60    3.74   0
   2  -7  -1   31.35    4.92   0
  -2  -6   4  133.11    6.13   0
  -1  -7   2  161.65    5.68   0
  -1  -7   3  162.34    5.60   0
  -1  -7   4  158.86    5.25   0
  -2  -5   0  133.69    5.40   0
  -2  -5   7   18.83    4.78   0
   0  -7   0  114.88    5.75   0
  -1  -6   0  512.19    8.44   0
   0  -7   1  109.90    5.51   0
   0  -7   6   20.70    3.19   0
   0  -6   9   48.80    3.53   0
   1  -7   0  218.75    6.74   0
   1  -6  -2  185.81    5.97   0
  -2  -5   5  100.96    6.33   0
   0  -7   2   72.26    5.15   0
   0  -7   5   17.60    3.78   0
   1  -7   7   92.42    3.61   0
  -2  -5   3   25.98    5.39   0
  -2  -5   4   24.39    5.83   0
  -1  -6   6   33.59    4.69   0
   2  -7   1   88.32    5.43   0
   2  -7   7   16.27    2.98   0
   3  -7   2  194.53    6.21   0
  -1  -6   2   66.92    4.44   0
   1  -7   2  281.80    6.79   0
   1  -7   6  158.63    4.64   0
  -1  -6   4   70.52    5.74   0
   0  -6   0  735.16   10.05   0
   0  -6   8   76.14    4.48   0
   1  -7   5  130.71    4.77   0
   2  -7   2   35.15    4.57   0
   2  -6  -1  413.18    9.06   0
   3  -7   3  168.84    5.75   0
  -1  -5   8   99.09    5.34   0
   1  -7   3  167.03    5.68   0
   2  -7   6   34.35    3.30   0
   3  -7   4   77.24    4.74   0
   3  -7   5   97.60    4.17   0
  -2  -4   6  323.30    8.79   0
   2  -7   5   56.14    3.77   0
  -2  -4   4  607.30    9.90   0
  -2  -4   5  334.19    8.61   0
   0  -6   1  260.95    6.94   0
  -1  -5   7  179.50    6.60   0
   0  -6   2  417.29    8.13   0
   2  -6   0  435.53    8.78   0
   0  -6   6  127.95    5.77   0
   2  -6   9  107.48    3.69   0
   3  -6   9   16.64    2.72   0
  -1  -5   6  139.25    6.65   0
   0  -6   4  259.26    7.23   0
   1  -6   8   12.15    3.68   0
   3  -6   1   53.43    6.82   0
  -1  -5   5  326.61    8.25   0
   0  -5   9   96.98    5.08   0
   2  -6   1  295.64    7.57   0
   4  -6   7   79.57    4.24   0
   1  -6   2  236.54    6.82   0
   0  -5   1  298.39    6.17   0
   3  -6   2   75.73    6.04   0
   4  -6   4  166.15    5.95   0
   4  -6   6   61.62    4.13   0
   0  -5   8   59.76    5.29   0
   4  -6   5   71.79    4.71   0
   3  -6   7   42.36    3.79   0
  -1  -4   7  113.50    6.62   0
   0  -5   2  190.77    5.65   0
   3  -6   3   59.04    5.51   0
   2  -6   4  265.00    6.93   0
   2  -6   5  182.35    6.03   0
   2  -6   6  217.89    6.03   0
   2  -5  10   22.10    3.31   0
   2  -4  12   98.82    3.85   0
   3  -6   4   72.92    5.38   0
   3  -6   6   37.49    4.23   0
  -1  -4   5  142.42    6.10   0
  -1  -4   6   62.88    5.96   0
   0  -5   6   82.31    5.88   0
   0  -5   4  137.65    5.84   0
   0  -5   5   78.89    5.58   0
   3  -5  10   78.42    3.42   0
   3  -4  12   14.86    2.68   0
   5  -5   7   81.85    4.09   0
   0  -4   9  108.24    5.80   0
   1  -5   8  118.60    5.58   0
   2  -3  13   29.15    3.36   0
   3  -5   1  367.35    8.47   0
   4  -5   9   20.56    2.81   0
   5  -5   5  162.55    5.99   0
   1  -5   2  795.97    8.91   0
   2  -5   9   98.55    4.54   0
   1  -5   7  340.89    7.29   0
   3  -5   9  123.60    4.41   0
   1  -5   3  416.12    7.26   0
   1  -5   4  209.39    6.15   0
   1  -5   6  313.01    7.15   0
   2  -5   2  261.46    6.24   0
   2  -5   8   45.33    4.79   0
   3  -5   2  294.48    7.56   0
   3  -3  13   81.43    3.09   0
   4  -5   3   13.10    5.00   0
   4  -5   8   20.68    3.42   0
   4  -4  11   66.55    2.85   0
   0  -4   7  338.37    7.56   0
   2  -5   7   30.53    4.61   0
   3  -4  11   53.36    3.28   0
   4  -5   4   11.32    5.04   0
   3  -5   3  470.79    8.44   0
   4  -5   5   88.50    5.39   0
   0  -4   5  441.13    7.13   0
   2  -5   4  155.19    5.57   0
   2  -5   5  177.27    5.94   0
   3  -5   7  215.18    5.84   0
   2  -3  12   29.34    3.45   0
   3  -5   4  251.34    6.82   0
   3  -5   6  201.65    6.05   0
   4  -4  10  104.16    3.40   0
   3  -4  10   33.18    3.63   0
   3  -3  12   76.80    3.20   0
   4  -3  12   35.60    2.38   0
   5  -4   8   48.40    3.46   0
   0  -3   8   43.19    4.88   0
   1  -4   7  141.43    5.33   0
   2  -4   9  312.21    6.26   0
   1  -3  10  113.18    5.18   0
   4  -4   9  156.91    4.39   0
   5  -4   7   83.23    3.97   0
   5  -3  11  125.02    3.00   0
   6  -3   9   37.77    2.87   0
   3  -4   9   23.38    3.72   0
   5  -4   5   24.56    4.16   0
   6   3  -2  163.36    7.31   0
   1   5  -2  869.52   14.89   0
   3   5  -1  294.57    7.87   0
   4   5  -2  195.08    8.07   0
   5   4  -1   43.61    6.65   0
   3   5  -8  117.28    5.83   0
   4   5  -6   61.45    5.52   0
   6   3  -3  140.36    7.03   0
   4   4   0  484.10    9.55   0
   4   5  -5   74.90    6.15   0
   4   5  -4   91.00    6.92   0
   5   4  -2   71.41    7.06   0
   6   3  -4  102.34    6.59   0
   2   5  -8   25.10    6.01   0
   3   5  -2  292.81    8.49   0
   6   2  -2  302.20    8.57   0
   3   5  -7   92.84    6.30   0
   5   4  -3   98.41    7.23   0
   6   2  -8   84.78    5.95   0
   3   4   0  426.00    7.24   0
   5   4  -6   10.62    4.93   0
   5   4  -5   53.80    5.89   0
   2   5  -7   22.11    6.30   0
   2   5  -3   35.31    6.36   0
   3   5  -6  160.51    7.26   0
   4   4  -1  524.75   10.31   0
   6   2  -3  185.79    7.96   0
   5   3  -9   74.52    5.12   0
   6   2  -7   90.91    5.82   0
   2   5  -6   23.59    6.28   0
   2   5  -5   63.52    6.42   0
   3   4 -10    2.04    4.40   0
   6   2  -4  203.57    8.10   0
   4   4  -8   43.17    5.29   0
   4   4  -2  476.83   10.30   0
   6   1  -3  118.74    7.78   0
   6   2  -6  131.51    6.90   0
   6   2  -5  292.80    8.28   0
   5   2  -1  108.85    6.59   0
   4   4  -3  168.79    8.25   0
   5   3  -8  120.08    6.13   0
   6   1  -8   26.55    5.08   0
   2   4 -10   64.79    5.89   0
   4   4  -7  128.20    6.85   0
   5   2 -10    5.27    4.30   0
   6   1  -4  167.97    7.77   0
   3   4  -9   26.40    5.46   0
   3   4  -2  143.33    6.47   0
   4   3  -1   26.11    5.04   0
   4   4  -6  138.72    7.76   0
   4   4  -5   99.51    7.77   0
   5   1  -1  742.89   12.07   0
   5   3  -4  184.81    8.27   0
   6   1  -7   68.01    6.36   0
   6   1  -5   14.78    6.01   0
   4   3 -10   13.99    4.44   0
   5   3  -6  355.12    9.09   0
   5   3  -5  251.93    8.64   0
   6   0  -8  158.46    7.27   0
   6   1  -6   30.51    6.08   0
   2   3 -12   22.37    5.50   0
   5   2  -2  185.08    7.50   0
   3   4  -8   61.13    6.28   0
   3   4  -3  145.81    7.20   0
   2   4  -9  134.61    7.26   0
   3   3 -11   45.95    5.21   0
   4   3  -2  176.17    7.00   0
   5   2  -9   31.02    5.09   0
   2   4  -3  813.08   10.35   0
   4   3  -9   35.97    5.58   0
   5   2  -8   29.36    6.01   0
   2   4  -8  160.00    7.89   0
   2   4  -4  480.78    9.30   0
   4   2 -11   42.80    5.03   0
   4   3  -3   22.71    4.66   0
   4   3  -8   13.85    4.82   0
   5   1 -10   86.57    5.84   0
   5   2  -7   38.89    6.83   0
   2   4  -6  354.49   10.08   0
   2   4  -5  349.38    9.10   0
   4   3  -7   31.21    6.86   0
   5   2  -6   -5.51    5.14   0
   2   2 -13   43.66    4.79   0
   2   3 -11   13.65    5.59   0
   4   3  -6   85.51    7.87   0
   4   1 -12   20.86    4.92   0
   5   1  -9  140.43    7.01   0
   1   3 -11  155.04    7.83   0
   4   2 -10  103.15    6.91   0
   5  -1 -11   39.23    5.80   0
   5   1  -4  398.27   10.41   0
   5   0 -10   43.38    6.17   0
   5   1  -5  203.52    9.21   0
   3   1 -13   58.73    4.96   0
   3   3  -8  287.46    9.73   0
   3   3  -4  837.69   11.54   0
   4   2  -9  229.26    8.51   0
   5   1  -6  662.30   12.63   0
   3   2 -11   39.11    6.02   0
   4   1 -11   50.00    6.25   0
   5   0  -4  486.41   11.23   0
   3   3  -6  499.89   10.94   0
   4   2  -8  134.64    8.30   0
   5  -1 -10   82.92    6.88   0
   5   0  -9   88.69    7.32   0
   2   2 -12   87.72    6.45   0
   2   3  -9   61.63    7.91   0
   4   0 -12   77.93    5.95   0
   4   2  -5  482.42   10.50   0
   5  -2 -10   37.98    6.88   0
   5   0  -8  100.02    7.91   0
   5   0  -5  497.96   11.33   0
   1   1 -14   61.32    6.00   0
   2   3  -8  126.22    8.67   0
   4   1 -10   56.56    7.29   0
   5  -1  -9  119.30    8.18   0
   5   0  -6   71.63    8.09   0
   1   3  -9  211.75    9.35   0
   2   3  -7  123.07    8.36   0
   1   2 -12   12.63    6.22   0
   5  -1  -8  113.95    8.22   0
   1   3  -8  359.18   10.40   0
   3  -1 -14   70.06    5.78   0
   5  -1  -7  358.07   10.93   0
   1   3  -7  423.00   10.33   0
   3   0 -13   46.30    5.85   0
   3   2  -8  105.71    8.79   0
   4   1  -8   53.31    8.55   0
   2   0 -14   62.47    5.60   0
   3   1 -11  188.96    8.69   0
   4   1  -7  102.72    8.82   0
   3   2  -6  142.08    7.90   0
   4  -3 -12   34.35    6.62   0
   4  -2 -12   63.63    6.55   0
   4   0 -10  270.79   10.27   0
   3  -2 -14   19.61    5.19   0
   1   1 -13   81.53    6.74   0
   2   1 -12   31.69    6.98   0
   3   0 -12   46.89    7.17   0
   3   1 -10  197.02    9.62   0
   4   0  -9  397.22   11.56   0
   2  -2 -15   35.75    5.46   0
   3  -1 -13   98.62    6.82   0
   0   1 -13   46.44    6.31   0
   2   2  -8  324.62   10.69   0
   4  -2 -11  107.39    8.23   0
   4   0  -5  737.36   12.31   0
   1   0 -14   55.66    5.92   0
   2   2  -7  558.48   11.03   0
   4  -3 -11   27.83    7.07   0
   4   0  -6  379.20   10.52   0
   0   2 -10  207.99    9.42   0
   2  -1 -14   29.56    5.93   0
   2   1 -11   50.56    8.47   0
   3   0 -11   29.14    7.92   0
   1   1 -12  121.09    8.21   0
   1   2  -9  195.05    9.41   0
   3  -2 -13   18.39    6.46   0
   4  -1  -9   76.50    9.29   0
   3  -1 -12  127.33    8.68   0
   3   1  -7  416.37   10.55   0
   3   1  -6  649.85   11.21   0
   1   2  -8  190.91    8.69   0
   3  -3 -13   50.70    7.96   0
   4  -1  -8   91.33    9.98   0
   0  -1 -15   31.79    4.93   0
   0   1 -12   -2.39    7.12   0
   0   2  -9  302.87   10.15   0
   2   0 -12  170.58    9.37   0
   3   0 -10   28.48    8.96   0
   4  -1  -6  616.22   12.92   0
   4  -2  -9  243.50   10.63   0
   1  -2 -15   47.86    5.60   0
   2  -2 -14   64.73    6.85   0
   4  -3  -9   44.09    8.34   0
   2   1  -9   74.09    8.38   0
   3  -2 -12   27.61    7.80   0
   3  -1 -11  225.51   10.62   0
   3   0  -9  443.76   12.35   0
   4  -2  -8  336.11   11.88   0
   1  -1 -14   89.27    6.79   0
   4  -3  -8    6.23    8.74   0
   2  -3 -14   36.79    6.34   0
   2   0 -11  667.96   14.17   0
   2   1  -8  211.18    8.82   0
   3  -4 -12   30.64    7.05   0
   3   0  -8   68.91    8.32   0
   0   0 -13  175.35    8.14   0
   0   1 -11   15.28    7.88   0
   3  -1 -10  308.53   11.96   0
   3   0  -7  260.61    9.17   0
   1  -3 -15  117.10    6.42   0
  -1   0 -13   43.45    6.83   0
   1  -4 -15   32.67    5.39   0
   2  -2 -13  104.43    8.64   0
   2  -1 -12   29.37    8.37   0
   0  -1 -14   57.53    6.60   0
   2   0 -10  233.82   10.61   0
   0   1 -10  186.78    9.57   0
   1  -1 -13  121.36    8.83   0
   3  -3 -11  128.99    9.65   0
   2  -5 -13   19.19    6.64   0
   3  -4 -11   57.08    8.27   0
  -1  -1 -14  110.85    6.78   0
   0   0 -12  145.60    9.12   0
   1   0 -11   97.31    9.25   0
   2   0  -9  570.58   12.48   0
   0  -3 -15   21.90    5.47   0
   0   1  -9  145.64    8.34   0
   2  -2 -12  219.28   10.99   0
   3  -3 -10  229.19   11.32   0
  -1   0 -12   52.21    7.87   0
   1  -3 -14  162.01    8.12   0
   2   0  -8 1109.97   14.39   0
   3  -4 -10   58.52    8.78   0
   0  -4 -15   67.80    5.70   0
   1  -1 -12  184.40   10.27   0
   1  -4 -14   13.89    6.54   0
   1  -2 -13   54.96    8.44   0
   1   0 -10   56.73    8.35   0
   2  -1 -10   41.98    9.15   0
   3  -2  -8   30.59    8.47   0
   2  -3 -12   40.71    7.18   0
   5   5   7  254.24    7.27   0
   6   1   5  226.50    7.54   0
   6   6   5  117.39    4.81   0
   7   4   5  100.60    4.36   0
   5   3   7  212.65    7.37   0
   5   6   6   62.32    5.04   0
   6   5   6   67.24    4.93   0
   7   5   4  192.09    5.03   0
   3   6   6   55.62    6.42   0
   4   5   7   44.65    6.42   0
   7   2   4   63.41    5.13   0
   2   5   6  236.42    5.97   0
   4   3   7  247.64    7.88   0
   6   3   6    7.05    5.55   0
   6   4   6  213.34    6.46   0
   4   4   7  338.74    8.42   0
   4   7   4   70.11    5.40   0
   7   4   4   80.86    4.16   0
   7   5   3  121.04    4.57   0
   5   2   6   72.40    4.61   0
   5   7   3  108.38    5.13   0
   6   6   4  218.36    5.47   0
   5   5   6  346.27    7.91   0
   5   6   5   43.76    5.11   0
   6   1   4  206.22    7.19   0
   6   2   5  221.50    7.31   0
   6   5   5  198.96    5.94   0
   4   2   6  399.32    7.29   0
   7   2   3   76.52    5.07   0
   5   3   6  290.99    7.39   0
   6   3   5  138.78    6.38   0
   6   6   3  134.64    5.02   0
   7   5   2   96.37    4.26   0
   3   6   5   59.25    5.96   0
   4   7   3   55.22    5.36   0
   7   3   3  511.67    7.46   0
   4   3   6  180.75    6.89   0
   7   5   1   64.79    4.09   0
   5   2   5   64.73    5.35   0
   5   7   1  102.85    4.88   0
   6   2   4  292.91    7.71   0
   6   5   4  127.42    5.15   0
   7   2   2  102.82    5.50   0
   5   1   4  469.28    8.46   0
   6   6   2  124.06    4.92   0
   7   4   2   77.28    4.51   0
   7   5   0   81.35    4.21   0
   7   3   2  380.50    7.13   0
   4   7   2   46.94    4.92   0
   5   3   5  310.71    7.43   0
   5   4   5   22.86    5.72   0
   6   3   4  133.75    6.19   0
   6   4   4  294.39    6.80   0
   3   5   5  346.73    7.50   0
   4   6   4  290.01    6.60   0
   6   5   3   84.24    5.15   0
   6   6   1  119.70    4.69   0
   7   4   1   13.72    4.01   0
   4   3   5  215.57    6.55   0
   4   4   5  401.22    9.19   0
   4   7   1   49.47    5.35   0
   5   5   4  476.36    8.62   0
   6   1   2  146.33    6.55   0
   6   2   3  441.00    8.45   0
   7   3   1  161.23    5.86   0
   7   4   0   83.07    4.57   0
   6   4   3  348.34    7.26   0
   7   2   0  152.66    5.72   0
   5   1   3  694.08    9.20   0
   6   3   3  107.96    5.83   0
   6   5   2   44.22    4.68   0
   4   6   3  309.84    7.40   0
   4   7   0   23.78    5.14   0
   5   3   4  204.85    6.83   0
   5   4   4  177.52    6.70   0
   7   2  -1  151.18    5.88   0
   3   5   4  215.78    6.96   0
   6   5   1   22.94    4.58   0
   7   3  -1  185.74    5.75   0
   4   7  -2    8.43    4.25   0
   6   1   1   45.81    6.11   0
   6   4   2  237.91    7.23   0
   7   2  -4   63.22    6.48   0
   7   2  -2  108.69    5.59   0
   7   3  -2  188.90    5.88   0
   4   3   4  327.70    6.97   0
   4   4   4  697.00    9.78   0
   6   3   2   73.50    5.63   0
   7   2  -3  104.36    5.70   0
   7   3  -3  149.96    5.45   0
   4   6   2  320.15    8.11   0
   5   1   2  868.39   10.28   0
   5   3   3  394.88    7.93   0
   6   4   1  248.36    7.58   0
   6   2   1  263.33    8.25   0
   6   5  -1   23.06    4.57   0
   6   3   1   76.95    6.29   0
   6   5  -2   22.01    3.95   0
   4   6   1  132.46    7.32   0
   4   4   3  428.33    8.02   0
   5   4   2  140.14    6.40   0
   6   4   0  295.42    7.56   0
   4   3   3  110.64    5.48   0
   6   2   0  582.62    9.22   0
   5   3   2  312.24    7.45   0
   6   1  -1   84.17    6.17   0
   6   3   0  132.02    6.48   0
   6   4  -1  187.86    6.76   0
   3   6   1   78.98    5.98   0
   4   6   0  276.72    7.96   0
   6   4  -6   51.98    4.79   0
   5   5   0  445.50    9.46   0
   3   5   2  272.89    6.19   0
   5   4   1   72.75    6.00   0
   6   2  -1  224.69    6.82   0
   6   4  -5  139.81    5.65   0
   4   4   2  705.10    9.58   0
   4   6  -1  314.39    7.98   0
   6   1  -2  170.87    6.97   0
   6   3  -7   52.59    5.61   0
   6   4  -4  148.61    5.66   0
   6   4  -3  122.69    6.19   0
   3   6   0   94.65    6.51   0
   5   3   1  245.34    7.11   0
   5   5  -1  238.91    7.69   0
   4   6  -2  201.35    6.94   0
   6   1  -3  117.43    7.88   0
   6   2  -2  334.37    8.06   0
   4   6  -3  106.15    5.89   0
   5   1   0  898.65   10.92   0
   5   4   0   65.37    6.14   0
   5   5  -6   74.09    4.76   0
   5   5  -2  258.50    7.84   0
   6   3  -6   59.93    5.16   0
   4   6  -4  132.13    5.96   0
   5   5  -3  119.66    6.38   0
   6   1  -4  182.78    8.38   0
   6   2  -7  128.76    6.48   0
   6   2  -3  191.37    7.28   0
   3   6  -1   52.35    6.28   0
   5   5  -5   68.30    5.11   0
   6   1  -5   16.04    6.70   0
   4   4   1  293.55    7.84   0
   5   4  -1   30.08    6.05   0
   6   2  -6  127.25    6.59   0
   6   2  -4  183.38    7.24   0
   5   4  -8   14.53    4.05   0
   3   6  -2   41.04    5.98   0
   4   3   1  373.27    7.11   0
   5   1  -1  827.21   10.89   0
   4   5  -8   12.46    4.42   0
   3   6  -6   12.26    4.60   0
   3   6  -3   73.09    6.20   0
   5   4  -7   48.93    4.92   0
   2   6  -2  254.68    8.02   0
   3   6  -5   38.10    5.13   0
   3   6  -4   85.49    6.36   0
   4   5  -2  191.84    7.68   0
   5   4  -6    8.13    5.19   0
   5   4  -4  104.44    6.61   0
   2   5   0  155.25    5.78   0
   4   5  -7   12.07    4.28   0
   4   5  -3   73.51    6.99   0
   5   1  -2  938.73   11.31   0
   5   3  -2  379.78    8.71   0
   5   4  -5   58.04    5.85   0
   2   6  -7   69.14    5.39   0
   2   6  -3  161.24    7.45   0
   4   3   0  171.08    5.65   0
   5   1 -10   99.99    7.33   0
   5   2  -2  171.59    6.89   0
   4   5  -5   82.20    6.41   0
   5   3  -8  122.43    5.98   0
   5   3  -3  320.67    8.59   0
   2   6  -6   85.42    5.78   0
   2   6  -4   87.08    6.47   0
   5   2  -9   24.88    5.96   0
   4   4  -9   68.54    4.84   0
   5   1  -3  622.80   10.06   0
   5   2  -3  112.26    6.94   0
   5   3  -7  181.73    7.23   0
   5   3  -4  183.70    7.76   0
   4   4  -2  466.69    9.43   0
   5   3  -6  359.61    8.72   0
   5   3  -5  222.68    8.06   0
   2   5  -1   94.83    5.79   0
   5   1  -9  138.60    6.94   0
   5   1  -4  374.52    8.86   0
   4   4  -8   34.47    5.08   0
   5   1  -8  165.99    7.27   0
   5   2  -7   18.14    6.51   0
   5   2  -6   -5.12    6.18   0
   5   2  -5  134.11    7.44   0
   3   4  -1  270.06    6.75   0
   4   3 -10   15.63    4.41   0
   4   4  -4  209.88    8.00   0
   2   5  -2   82.32    5.95   0
   4   4  -6  111.05    6.85   0
   4   4  -5  102.89    7.05   0
   4   2 -11   44.34    5.39   0
   2   5  -9    1.51    4.21   0
   3   4 -10    7.72    3.94   0
   2   5  -3   32.39    5.82   0
   3   4  -2  155.10    5.99   0
   4   3  -9   24.18    5.41   0
   4   3  -3   18.01    5.19   0
   1   5 -10   81.61    5.03   0
   2   5  -8   28.09    4.87   0
   4   3  -8   12.28    5.63   0
   4   3  -4   92.42    6.31   0
   2   5  -4   21.12    5.86   0
   3   4  -9   26.76    5.06   0
   3   4  -3  135.27    6.05   0
   4   2  -3  755.36    9.09   0
   4   3  -5   78.29    6.45   0
   1   5  -3  497.37    9.89   0
   2   4 -11   52.39    4.20   0
   2   5  -7   13.65    5.16   0
   2   5  -5   89.47    6.46   0
   3   3 -11   29.20    4.47   0
   4   3  -7   21.09    4.74   0
   4   3  -6   87.81    6.80   0
   1   4 -12    6.54    4.02   0
   1   5  -9   56.25    4.80   0
   2   5  -6   17.19    4.21   0
   3   4  -8   39.54    5.60   0
   3   4  -4  213.04    7.01   0
   3   1 -13   68.85    5.09   0
   4   2  -4  774.46    9.70   0
   3   2 -12   23.68    4.27   0
   3   4  -7   19.96    4.40   0
   3   4  -6   33.34    6.00   0
   4   1  -4  121.22    5.07   0
   7  -2   1   36.94    7.00   0
   7   0   5  138.27    6.80   0
   8   3   4   86.45    4.48   0
   5  -1   5  677.56   10.48   0
   5   4   7   62.45    6.01   0
   6   2   7  256.10    8.32   0
   6   3   7   26.01    6.15   0
   7   2   6   64.02    6.06   0
   4   0   6  549.24    9.02   0
   5  -2   3  223.08    8.53   0
   5   0   6  139.91    6.89   0
   4   2   7  374.65    8.66   0
   8   1   3   45.16    4.28   0
   5   3   7  234.83   10.00   0
   6   1   6   29.48    6.44   0
   7   0   4  152.68    7.09   0
   7   1   5  131.20    6.69   0
   8   0   1   86.71    6.47   0
   8   3   3   63.44    4.34   0
   6   4   6  226.59    7.49   0
   8   2   3  365.04    6.52   0
   6  -2   1  192.10    9.12   0
   6   2   6  338.67    8.89   0
   6   3   6    7.93    6.23   0
   7   2   5   57.40    5.69   0
   8   0   0  143.63    5.77   0
   8   1   2   30.90    4.54   0
   8   3   2   43.15    4.13   0
   7   4   4   80.22    5.03   0
   8   0  -1  208.77    6.53   0
   5   0   5   51.97    5.61   0
   5   4   6   52.74    5.93   0
   6  -1   3  128.18    7.45   0
   7  -1   1  346.03    9.07   0
   7   0   3  133.39    6.94   0
   7   1   4  212.21    7.24   0
   8   3   1   81.81    4.57   0
   5   3   6  385.63   10.77   0
   6   0   4  288.46    8.59   0
   6   4   5  151.56    6.92   0
   6   5   4  127.99    6.47   0
   8   2   1  124.28    5.66   0
   4   3   6  142.24    6.17   0
   7  -1   0  212.27    8.37   0
   7   2   4   61.10    5.76   0
   7   3   4  363.23    7.41   0
   5  -2   1  153.71    8.04   0
   5  -1   3  456.48    8.57   0
   6   2   5  236.36    8.31   0
   7   4   3  132.71    5.53   0
   5   1   5  765.64   10.74   0
   6   3   5  142.94    7.28   0
   7   1   3  383.90    8.40   0
   8   1  -2   55.47    4.62   0
   8   2   0  209.41    5.83   0
   5   0   4  183.98    6.55   0
   7  -1  -1  158.10    7.87   0
   8   2  -1  277.39    6.20   0
   5   4   5   28.10    6.11   0
   6   0   3  539.36   10.03   0
   6   1   4  211.49    7.83   0
   6   5   3   97.72    6.97   0
   7   2   3   77.71    5.71   0
   7   3   3  480.82    8.08   0
   6   4   4  299.57    7.87   0
   7  -1  -3  321.32    9.78   0
   7   4   2   72.15    5.31   0
   6  -1   1   63.19    6.77   0
   5  -1   2  566.86    9.92   0
   5   3   5  270.76    7.66   0
   7   0   0   92.76    6.77   0
   5   1   4  434.89    8.58   0
   6   0   2  751.40   11.19   0
   6  -1   0  226.05    8.50   0
   6   1   3  231.28    8.12   0
   7   1   1  173.60    7.60   0
   7   0  -1  190.04    7.19   0
   5   5   3  430.57    9.98   0
   7   2   1   -5.92    5.60   0
   7   3   1  127.49    6.88   0
   5  -1   1  760.37   11.08   0
   6   2   3  290.80    7.44   0
   6   3   3  115.79    7.00   0
   7   1   0  154.63    7.56   0
   6  -1  -1  120.28    8.33   0
   6   5   1   31.71    5.57   0
   7   4  -2   21.68    4.45   0
   4   4   4  723.06   11.46   0
   6   1   2  152.67    7.37   0
   7   0  -4   49.36    5.92   0
   7   2   0  158.14    6.68   0
   7   3   0  251.60    7.72   0
   5   0   2  259.16    7.10   0
   7   1  -6  124.28    7.25   0
   6  -1  -2  112.21    8.22   0
   6   5   0   33.52    5.56   0
   7   3  -1  143.30    6.68   0
   5  -1   0 1160.50   13.17   0
   5   5   2  232.00    9.33   0
   7   1  -2  239.68    7.74   0
   5   2   3  311.18    7.91   0
   7   1  -5  119.22    6.20   0
   7   3  -4  113.16    5.82   0
   7   3  -2  204.98    7.05   0
   7   1  -4  122.37    6.28   0
   7   2  -5   68.25    5.46   0
   7   2  -2  104.16    6.26   0
   7   3  -3  146.17    5.93   0
   6  -1  -4  123.76    8.41   0
   6   5  -2   26.51    5.18   0
   7   2  -4   47.44    5.47   0
   7   2  -3   93.89    6.01   0
   5   1   2  857.48   10.82   0
   6  -1  -5   50.40    7.72   0
   6   0  -1  808.71   11.95   0
   6   2   1  307.60    9.32   0
   6   3   1   76.44    7.05   0
   4   4   3  489.82    9.66   0
   5  -1  -1  650.32   11.51   0
   6   2   0  582.72   10.31   0
   6   3   0  131.95    7.47   0
   5  -1  -2 1282.64   14.58   0
   6   4  -6   42.05    5.10   0
   5   5   0  422.10    9.86   0
   6   0  -7  249.48    8.60   0
   6   0  -3  527.57   10.48   0
   6   4  -2  128.67    7.20   0
   6   0  -4  396.40    9.78   0
   6   1  -8   38.42    6.79   0
   6   3  -1   72.67    7.17   0
   6   4  -5  110.27    6.02   0
   6   0  -6  279.15    8.61   0
   6   0  -5  538.01   11.05   0
   6   1  -2  169.21    7.88   0
   6   4  -4  153.76    6.70   0
   6   4  -3  125.30    6.97   0
   4   5   1  228.29    8.93   0
   5  -1  -3  844.28   13.30   0
   5   2   1  319.25    7.77   0
   5   3   1  196.30    8.18   0
   5   5  -1  220.94    8.27   0
   6   3  -7   61.86    5.59   0
   5   0  -1  115.61    6.19   0
   6   1  -3  121.29    7.74   0
   5   1   0  876.27   10.99   0
   5   4   0   60.04    7.02   0
   6   1  -7   61.44    6.50   0
   6   2  -7   81.01    6.40   0
   6   3  -6   63.65    5.86   0
   6   3  -3  126.15    7.25   0
   5  -1  -4  569.42   11.92   0
   5   5  -2  273.21    8.24   0
   6   1  -6   24.90    6.33   0
   6   3  -5   16.29    5.74   0
   6   3  -4  129.64    7.12   0
   6   2  -6  123.62    6.94   0
   6   2  -4  175.94    8.29   0
   5  -1  -5  151.18    9.01   0
   5   0  -2  407.56    8.51   0
   5   3   0  429.43    9.17   0
   6   2  -5  275.05    8.57   0
   4   4   1  359.64    8.76   0
   4   5   0  146.67    7.95   0
   5  -1  -6  445.58   11.58   0
   5   1  -1  817.09   10.81   0
   5   4  -8   17.62    4.45   0
   5   2 -10    9.31    5.02   0
   5   0  -3  202.04    7.22   0
   5   0  -9  110.37    8.00   0
   5   2  -1  135.00    6.18   0
   5   3  -9   81.04    5.95   0
   5   3  -1  283.26    8.43   0
   4   5  -1  138.91    7.97   0
   5   1  -2  821.03   10.99   0
   5   4  -7   62.48    5.44   0
   4   4   0  511.76    9.34   0
   5   0  -4  423.11    9.37   0
   5   4  -3   86.41    7.19   0
   5   1  -9  116.28    6.68   0
   5   2  -2  167.55    6.63   0
   5   3  -2  379.68    8.99   0
   5   4  -6    7.06    5.13   0
   5   4  -5   61.38    6.24   0
   5   4  -4  113.29    7.05   0
   4   5  -2  164.29    7.49   0
   5   0  -7   81.31    7.57   0
   5   0  -6   54.35    6.60   0
   5   3  -8  124.16    6.43   0
   5   3  -3  313.74    8.60   0
   2  -3 -12   43.92    8.77   0
  -1  -2 -10   48.90    7.71   0
   4  -2  -9  229.27   12.55   0
  -1  -3 -11  114.66    9.36   0
   1  -3 -12  206.36   10.79   0
   1  -2 -11  219.18   10.89   0
   4  -3 -10   19.49    9.66   0
   4  -1  -7   78.84   11.95   0
   5  -3  -8  207.16   12.19   0
   3  -3 -11  189.47   11.19   0
   3  -2 -10   46.80   10.94   0
   2  -1  -9   84.63    9.58   0
   0  -4 -12  156.13   10.03   0
   1  -1  -9  439.68   11.05   0
   3  -1  -8  308.80   12.40   0
   0  -6 -12   46.85    8.04   0
   1  -4 -12   12.54    9.08   0
   2  -6 -12  108.44    6.05   0
   4  -4 -10  207.92   10.89   0
  -1  -4 -11  222.21   10.99   0
   0  -5 -12   46.07    7.56   0
   2  -5 -12   18.34    7.21   0
   2  -3 -11  119.36   10.18   0
   4  -2  -8  310.58   14.48   0
   4  -1  -6  569.84   16.54   0
   5  -4  -8   61.42   10.41   0
   1  -2 -10  152.92    9.52   0
   4  -3  -9   29.70   10.41   0
   5  -3  -7  312.36   13.82   0
   1  -3 -11  355.03   12.00   0
   2  -1  -8  133.62    8.78   0
   3  -5 -11  204.93    9.55   0
   3  -3 -10  231.68   12.52   0
   5  -5  -8  154.61   10.20   0
  -1  -5 -11  112.68   10.01   0
   3  -1  -7  351.94   11.83   0
   0  -7 -11   50.96    6.27   0
   2  -4 -11  175.76   10.42   0
   2  -2  -9  541.55   12.93   0
   3  -7 -10   73.67    5.86   0
   4  -2  -7  480.06   15.15   0
   5  -4  -7   46.64   11.31   0
   2  -6 -11  101.72    7.13   0
   2  -3 -10  136.04   10.61   0
   3  -4 -10   41.24   10.18   0
   5  -6  -7   47.99    8.15   0
  -1  -4 -10   45.75    8.94   0
   0  -5 -11   84.89    8.16   0
   1  -3 -10  294.08   11.10   0
   4  -3  -8    6.07    8.19   0
  -1  -3  -9  569.45   12.16   0
   1  -5 -11  199.41   10.26   0
   3  -3  -9  262.80   12.53   0
   5  -5  -7  177.94   10.42   0
  -1  -5 -10  311.30   12.16   0
   0  -4 -10  205.62   11.16   0
   2  -7 -10   71.41    5.90   0
   2  -4 -10   77.25   10.10   0
   0  -8  -9  101.06    6.75   0
   0  -7 -10   52.55    6.28   0
   2  -8  -9   91.52    5.92   0
   5  -4  -6   39.10   10.25   0
   1  -4 -10    5.39    6.69   0
   3  -7  -9  114.29    6.53   0
   3  -2  -7  252.41   10.57   0
   5  -6  -6   29.71    7.56   0
  -1  -4  -9   65.09    8.10   0
   1  -8  -9   75.79    4.76   0
   1  -3  -9  264.61    9.77   0
   2  -6 -10  144.34    8.16   0
   2  -5 -10   18.94    6.61   0
   3  -3  -8  314.10   12.75   0
   5  -5  -6  205.68   11.11   0
   0  -6 -10  176.64    9.23   0
   4  -2  -5  468.16   14.53   0
  -1  -5  -9  315.66   11.66   0
   5  -4  -5  219.76   12.24   0
  -1  -6  -9  110.85    9.06   0
   2  -7  -9   67.79    5.97   0
   2  -8  -8   94.41    5.75   0
   2  -3  -8  211.84    9.43   0
   3  -8  -7   35.89    4.80   0
   3  -4  -8   88.79   10.65   0
   4  -3  -6  305.66   13.05   0
   0  -8  -8   91.92    5.94   0
   0  -7  -9   37.51    6.32   0
   1  -4  -9   66.06    8.34   0
   2  -5  -9   53.92    9.36   0
   3  -7  -8   70.00    6.39   0
   5  -5  -5  195.68   10.55   0
   1  -3  -8  418.05    9.47   0
   2  -6  -9  260.74    9.60   0
   0  -6  -9  213.75    9.81   0
   1  -8  -8   54.58    5.09   0
   3  -6  -8   86.81    8.97   0
   1  -6  -9   77.10    7.76   0
   1  -5  -9  313.96   11.30   0
   5  -4  -4   85.61   11.88   0
   5  -6  -4   51.15    7.93   0
   2  -7  -8   90.65    6.54   0
   4  -3  -5   33.55   10.26   0
   2  -8  -7  180.32    6.71   0
   3  -4  -7  259.16   11.57   0
   0  -8  -7  164.98    7.18   0
   0  -7  -8   72.28    6.88   0
   1  -4  -8  175.94    8.48   0
   2  -5  -8   26.01    8.92   0
   4  -5  -6  226.66    9.98   0
   0  -5  -8  133.36    8.01   0
   3  -6  -7  190.03   10.13   0
   4  -8  -3   88.28    6.18   0
   5  -6  -3   59.31    7.78   0
   1  -6  -8   56.51    7.40   0
   3  -8  -5   25.70    4.98   0
   4  -3  -4   45.00    9.20   0
   2  -8  -6  176.15    6.87   0
   2  -7  -7   41.15    4.98   0
   3  -7  -6  314.07    9.11   0
   4  -6  -5  337.03   11.16   0
  -1  -6  -7  151.54    8.86   0
  -1  -5  -7  540.26   11.47   0
   3  -4  -6  116.32    9.89   0
   5  -6  -2   22.34    7.23   0
   0  -8  -6  121.07    5.96   0
   0  -7  -7   42.91    6.24   0
   1  -9  -4   87.64    5.07   0
   1  -4  -7  202.02    7.49   0
   2  -6  -7  337.94   10.18   0
   3  -5  -6  448.61   13.17   0
   3  -8  -4   53.74    5.25   0
  -1  -7  -6  182.72    8.10   0
   0  -6  -7  545.30   12.18   0
   0  -5  -7   87.16    6.62   0
   1  -6  -7  103.49    7.42   0
   1  -5  -7  395.25   10.17   0
   2  -8  -5  178.04    6.53   0
   4  -6  -4  206.36   10.41   0
   1  -9  -3   93.84    5.71   0
   2  -7  -6   64.71    6.62   0
   4  -7  -3   69.01    6.86   0
   2  -4  -6  391.12    9.82   0
   5  -6   0  100.20    8.47   0
  -1  -8  -4   40.11    5.64   0
  -1  -6  -6  197.04    8.79   0
   0  -7  -6  112.44    6.71   0
   2  -5  -6   46.17    7.64   0
   3  -6  -5   66.85    8.79   0
  -1  -5  -6  372.65    9.73   0
   2  -8  -4  196.08    6.94   0
   4  -7  -2   65.98    6.17   0
   3  -7  -4  222.94    8.58   0
  -1  -7  -5  240.35    8.41   0
   0  -6  -6  617.92   11.99   0
   1  -6  -6   33.95    6.32   0
   1  -5  -6  637.28   10.86   0
   3  -8  -2   97.20    5.43   0
   4  -5  -3  120.48   10.59   0
   0  -5  -6  149.80    6.42   0
   1  -8  -4   78.88    5.44   0
   4  -7  -1   62.49    5.82   0
  -1  -8  -3   63.07    5.20   0
   0  -7  -5  113.07    6.31   0
   2  -8  -3  206.96    6.47   0
   2  -5  -5  123.72    7.76   0
   3  -8  -1   46.63    4.71   0
   3  -7  -3  229.18    8.50   0
   3  -5  -4  308.73   10.84   0
  -1  -6  -5  239.58    8.50   0
   2  -7  -4   83.95    6.57   0
   4  -4  -2  792.89   15.53   0
  -1  -7  -4  299.90    8.44   0
   0  -8  -3  141.17    5.63   0
   2  -8  -2  227.79    6.36   0
   1  -7  -1  328.75    9.11   0
   4  -7  -3   58.37    6.30   0
   0  -6  -1  756.57   12.11   0
   0  -6   2  416.95   10.59   0
   1  -7   1  244.12    8.34   0
   3  -6  -5   48.03    6.77   0
   0  -6   0  634.72   11.62   0
   1  -6   5   92.90    8.20   0
   3  -7  -3  207.86    7.60   0
   2  -7  -2   93.85    6.64   0
   5  -7  -1  103.15    5.22   0
   1  -6  -3  130.14    7.25   0
   0  -5   4  165.12    8.82   0
   2  -7  -1   37.11    5.98   0
   2  -6  -4  357.32    9.89   0
   3  -7  -2  302.21    8.30   0
   3  -6   7   47.03    4.98   0
   2  -7   0   48.54    5.83   0
   2  -7   1   95.16    6.33   0
   2  -7   2   35.25    5.69   0
   2  -5  -5  135.54    7.73   0
   4  -7   4   47.96    3.82   0
   4  -6  -4  204.69    8.46   0
   5  -7   1   49.26    4.07   0
   5  -7   2   74.18    4.25   0
   5  -6  -3   54.26    6.80   0
   1  -6  -2  173.49    7.56   0
   3  -6  -4  128.42    6.91   0
   0  -5   3  252.83    9.08   0
   3  -7  -1  241.97    7.51   0
   3  -7   3  153.78    5.79   0
   4  -7   3   34.00    4.03   0
   1  -6  -1  173.21    7.30   0
   1  -6   3  121.26    7.85   0
   3  -7   0  238.02    7.48   0
   3  -7   2  184.24    6.37   0
   4  -7   0  120.30    5.95   0
   1  -6   0  230.72    7.94   0
   4  -7   1   61.08    4.90   0
   1  -6   1   91.67    6.82   0
   2  -6   5  192.98    7.18   0
   2  -5  -4  147.83    7.07   0
   3  -6  -3   82.15    6.75   0
   3  -6   6   36.04    4.82   0
   4  -6  -3  229.72    7.78   0
   2  -6  -2  327.98    8.71   0
   1  -5   5  335.27    9.62   0
   4  -6   6   72.09    4.45   0
   6  -6   1   73.25    4.66   0
   2  -6  -1  380.26    9.16   0
   3  -5  -4  285.02    8.28   0
   4  -5  -4   86.20    9.12   0
   3  -6   5   54.45    5.40   0
   5  -6  -1   79.89    5.71   0
   5  -6   5   26.06    3.40   0
   2  -6   1  277.83    8.24   0
   2  -6   2  343.71    8.65   0
   2  -5  -3  153.82    6.69   0
   1  -5   4  205.81    6.83   0
   3  -6  -1  141.29    7.03   0
   2  -5   6  182.92    8.62   0
   5  -6   4   31.62    4.09   0
   1  -5   1  590.36    9.16   0
   1  -5   3  378.81    7.90   0
   3  -6   0   50.99    6.15   0
   5  -6   1   40.17    5.19   0
   5  -6   3   50.53    4.45   0
   3  -6   1   50.91    6.05   0
   3  -6   2   75.42    6.29   0
   3  -5  -3  273.32    8.27   0
   4  -6   0  290.97    8.48   0
   4  -5  -3  110.89    7.08   0
   5  -6   2   64.84    5.20   0
   4  -6   1  212.39    7.43   0
   4  -6   3  214.51    6.82   0
   6  -5   6   45.14    3.28   0
   2  -5   5  261.36    8.20   0
   5  -5  -2  344.14    8.98   0
   4  -5   7   20.06    4.46   0
   5  -4   9   41.93    4.30   0
   7  -4   0   56.52    6.78   0
   3  -5  -2  258.27    8.02   0
   6  -5   0   53.09    5.23   0
   2  -5   4  194.86    7.86   0
   3  -5   6  204.90    7.08   0
   6  -5   5   49.50    3.74   0
   2  -5   0  139.07    6.01   0
   5  -5  -1  429.04    9.38   0
   5  -5   6   54.24    4.25   0
   6  -5   1   85.46    5.44   0
   6  -4   8   69.34    3.54   0
   2  -5   1  371.08    7.83   0
   4  -5   6   36.28    5.27   0
   6  -5   2   71.23    4.74   0
   6  -5   4   72.97    4.42   0
   3  -5   5  297.00    8.16   0
   3  -4   8   66.88    5.93   0
   7  -4   1   32.74    4.81   0
   4  -4  -3  414.25   10.03   0
   5  -5   5  210.88    6.04   0
   3  -5   0  357.19    8.15   0
   7  -4   2   49.39    4.68   0
   2  -4   6  460.31    9.70   0
   3  -5   1  342.33    8.25   0
   3  -5   3  428.98    8.97   0
   4  -5   0  144.24    7.24   0
   4  -4   8  183.58    6.44   0
   5  -5   1  274.99    9.05   0
   5  -5   4  252.90    6.98   0
   5  -4   8   44.81    4.05   0
   7  -4   4   31.02    3.68   0
   3  -5   2  261.92    7.80   0
   4  -5   4   12.57    5.64   0
   5  -5   2  226.49    8.01   0
   5  -5   3  174.11    6.85   0
   5  -4  -2   69.93    6.97   0
   6  -4   7   89.63    3.94   0
   4  -5   2   54.11    6.18   0
   6  -3   9   36.85    3.44   0
   4  -4  -2  747.25   11.52   0
   6  -4   6  149.45    5.11   0
   7  -3   0  231.99    8.20   0
   4  -4   7  297.34    7.73   0
   2  -4   4  716.82   10.04   0
   3  -4   6   76.95    6.53   0
   5  -4  -1   64.94    6.83   0
   6  -4   1  199.13    7.34   0
   6  -4   5  125.60    5.28   0
   4  -4  -1  292.55    8.75   0
   4  -3   9   72.73    5.53   0
   5  -4   6   82.07    5.66   0
   5  -3   9  172.33    5.26   0
   6  -4   2  135.76    6.82   0
   6  -4   3  111.66    6.05   0
   6  -4   4  124.37    5.89   0
   7  -3   1  289.02    7.92   0
   3  -4   5  122.81    7.02   0
   5  -4   0  260.42    8.81   0
   7  -3   6   93.18    4.18   0
   8  -2   4   86.61    4.62   0
   6  -3  -1  116.28    7.81   0
   7  -3   2  233.98    7.46   0
   3  -4   4  222.55    7.46   0
   5  -4   5   30.95    5.85   0
   5  -3  -2  290.23   10.40   0
   7  -3   5  141.87    5.21   0
   3  -4   1   78.67    5.19   0
   3  -4   3  145.10    6.22   0
   5  -4   4   54.85    6.33   0
   3  -4   2  120.82    4.85   0
   4  -4   1  458.12    9.62   0
   4  -4   4  480.64    9.73   0
   5  -4   3   94.61    7.27   0
   8  -1   2   73.59    7.42   0
   4  -4   2  418.23    9.26   0
   4  -4   3  437.03    9.38   0
   4  -3   8  101.72    6.39   0
   6  -3   0   51.10    6.89   0
   6  -3   7   38.36    4.38   0
   3  -3   7  280.97    8.24   0
   5  -3  -1  262.41    8.83   0
   6  -3   6   15.49    4.82   0
   6  -2   9  104.72    4.44   0
   8  -1   3   22.24    5.71   0
   6  -3   1   49.16    6.80   0
   8  -1   6   15.02    3.26   0
   6  -3   5   14.86    5.16   0
   8  -1   4   43.11    4.50   0
   6  -3   4   55.61    6.23   0
   7  -1   9  125.04    4.05   0
   5  -3   0  459.58   10.32   0
   5  -3   6  156.12    7.18   0
   5  -2   9   45.99    4.93   0
   6  -3   3   40.08    4.90   0
   7  -2   2   52.63    6.21   0
   7  -2   6   31.76    4.44   0
   7  -2   5   30.24    4.98   0
   3  -3   5  573.95    9.65   0
   3  -2   8  289.83    8.83   0
   4  -3   5  334.99    8.70   0
   5  -3   2  185.87    8.52   0
   5  -3   3  179.78    8.50   0
   5  -3   4  301.24    9.11   0
   6  -2   0  495.14   11.84   0
   7  -1   8  115.41    4.73   0
   8   0   3  139.57    6.82   0
   4  -3   1  277.78    7.75   0
   8   0   6  106.29    4.51   0
   4  -3   2  255.15    7.43   0
   4  -3   3  229.46    7.47   0
   8   0   5   89.64    4.87   0
   4  -1  10   28.75    6.18   0
   6  -2   1  206.75    9.40   0
   1  -2   8   47.88    4.72   0
   4  -2  11  153.67    4.66   0
   4   0  13  125.30    4.04   0
   5  -4   4   43.53    6.33   0
   5  -3   9  157.27    4.40   0
   5  -2  11   22.55    2.89   0
   5   0  13   37.03    2.92   0
   6  -3   8   19.90    3.08   0
   3  -4   4  225.53    6.23   0
   4  -4   5  234.43    6.71   0
   2  -3   7   60.42    4.74   0
   3  -4   3  149.48    5.47   0
   5  -1  12   58.38    2.90   0
   6  -2  10   92.31    3.18   0
   3  -3   8  366.42    7.27   0
   4  -4   4  484.67    8.50   0
   6  -3   7   29.82    3.36   0
   7  -2   8   23.33    2.68   0
   5  -3   8  194.01    5.06   0
   2  -3   6  199.43    5.27   0
   4  -3   8  100.35    5.25   0
   4   1  13   50.00    4.12   0
   6  -1  11   30.87    2.66   0
   6   0  12   70.71    3.04   0
   3   0  12   47.62    4.37   0
   4  -2  10  253.32    6.03   0
   5  -2  10   21.22    3.24   0
   2   0  11  406.70    7.99   0
   6  -2   9  110.38    3.58   0
   7  -2   7   28.95    3.53   0
   2  -2   8  244.53    5.94   0
   6  -3   5    5.50    4.56   0
   3  -2   9  135.55    5.55   0
   4  -1  11   72.52    4.35   0
   4   0  12   65.01    3.92   0
   5  -1  11  134.06    3.82   0
   5   2  13   67.37    4.02   0
   3  -3   6  336.35    6.61   0
   6  -3   4   55.06    4.68   0
   7  -2   6   37.67    4.01   0
   3   1  12  223.29    5.84   0
   5  -3   6  150.22    5.65   0
   5  -2   9   52.33    3.95   0
   6  -2   8  104.18    4.05   0
   6  -1  10   61.49    3.28   0
   2  -1   9  127.47    4.51   0
   6   0  11  120.19    3.62   0
   7  -2   5   30.96    3.98   0
   7   0  10   43.25    2.58   0
   2   0  10  839.38   10.12   0
   4  -3   5  309.38    6.98   0
   4  -1  10   28.49    4.50   0
   4   1  12   61.08    4.05   0
   5  -3   4  319.31    7.56   0
   5   1  12   95.26    4.52   0
   4  -2   8  313.32    7.07   0
   6   2  12   79.26    3.07   0
   4  -3   4  116.09    5.48   0
   5   0  11   38.12    3.51   0
   6  -1   9   76.59    3.94   0
   3  -1   9  613.53    8.42   0
   4  -3   3  277.78    6.80   0
   6  -2   6  290.24    6.26   0
   7   0   9   49.47    3.01   0
   3   1  11  269.89    6.95   0
   4  -2   7  373.26    7.29   0
   4   2  12  103.70    4.61   0
   5  -2   7  114.85    5.39   0
   7   1  10   81.03    3.05   0
   2   0   9  963.16   10.26   0
   2   1  10   68.57    6.03   0
   3   0  10    7.72    4.72   0
   4  -1   9   36.38    4.86   0
   8   0   5  107.84    4.61   0
   5   3  12  143.12    4.91   0
   6  -2   5  205.57    6.11   0
   6  -1   8   70.20    4.42   0
   4   1  11  127.07    5.34   0
   5   0  10   67.12    4.39   0
   7  -1   6  141.89    4.82   0
   8   1   7   32.18    2.81   0
   4  -2   6  289.16    6.80   0
   7   0   8   61.56    3.67   0
   3   2  11   76.06    5.55   0
   7  -1   5  138.83    5.37   0
   7   2  10   20.53    2.58   0
   4  -1   8   97.67    5.59   0
   5  -2   5   29.02    5.23   0
   6   0   9  127.53    4.79   0
   7   1   9  131.59    4.02   0
   3   0   9  180.74    6.18   0
   6   3  11   25.48    3.71   0
   8   1   6   29.28    3.16   0
   4   2  11  363.54    7.32   0
   5   0   9   96.35    5.21   0
   4   0   9  230.58    6.45   0
   5  -1   7  204.45    6.39   0
   5   1  10  176.39    5.67   0
   4  -1   7  119.76    5.71   0
   4   1  10   11.34    4.98   0
   5  -2   3  222.92    7.50   0
   6   0   8  173.00    5.82   0
   7   1   8   97.52    4.19   0
   7   2   9   28.14    3.21   0
   4   3  11  100.49    5.53   0
   6   2  10   86.88    4.22   0
   5  -2   2  160.21    7.88   0
   6   1   9   81.25    4.91   0
   8   1   3   48.81    5.28   0
   3   2  10  113.11    6.26   0
   5  -1   6  229.56    6.71   0
   5   0   8  106.27    5.66   0
   3   1   9  802.87   10.18   0
   4  -1   6  124.72    5.37   0
   4   0   8  484.71    8.11   0
   6   0   7  285.64    7.00   0
   6   4  10   88.42    4.66   0
   7   0   5  120.53    5.73   0
   7   1   7  198.72    5.56   0
   8   2   5  109.16    4.59   0
   4   2  10  172.45    6.61   0
   5   1   9  180.16    6.21   0
   7   2   8   16.43    3.61   0
   7   0   4  137.14    6.42   0
   6  -1   3  162.27    7.33   0
   6   1   8   90.96    5.49   0
   6   2   9  123.33    5.34   0
   8   2   4  203.31    6.00   0
   5   0   7  223.50    6.76   0
   5   3  10  185.39    6.31   0
   5   5  10   63.41    4.57   0
   6   0   6  438.15    8.42   0
   7   0   3  109.88    6.48   0
   7   1   6  144.31    5.78   0
   7   3   8   81.93    4.08   0
   8   2   3  314.97    7.60   0
   7   0   2  195.38    8.73   0
   4   0   7  442.30    7.79   0
   5  -1   4  485.04    9.02   0
   5   4  10   57.40    5.38   0
   7   2   7   31.33    4.23   0
   8   3   4   79.34    4.48   0
   3   2   9  298.38    7.77   0
   4   4  10  112.30    6.27   0
   5   1   8  201.79    6.86   0
   5   2   9   50.98    5.93   0
   6   3   9   37.66    4.68   0
   6   5   9   84.52    4.22   0
   6   1   7   95.12    6.02   0
   4   2   9  359.30    8.12   0
   5  -1   3  480.77    9.45   0
   5   0   6  144.43    6.11   0
   6   2   8  143.54    6.19   0
   7   2   6   61.10    4.87   0
   4   0   6  584.44    8.41   0
   7   4   7   49.58    3.69   0
   3   3   9  442.93    9.48   0
   5  -1   2  622.63   11.28   0
   6   1   6   28.80    5.74   0
   5   1   7  260.99    7.51   0
   5   5   9  133.51    5.80   0
   6   3   8   35.82    5.21   0
   7   1   3  279.74    8.13   0
   4   3   9  327.30    8.87   0
   5   0   5   58.31    5.37   0
   5   4   9   64.62    5.53   0
   6   2   7  293.06    7.75   0
   6   5   8   65.28    4.30   0
   7   2   5   64.95    5.25   0
   7   3   6  118.16    5.08   0
   7   5   6   37.98    3.42   0
   4   1   7  103.09    5.16   0
   6   4   8  123.16    5.56   0
   7   1   2  395.99    9.36   0
   4   4   9  348.07    9.33   0
   7   1   1  190.61    8.51   0
   7   4   6   93.40    4.26   0
   5   6   8   49.11    5.14   0
   6   0   2  829.10   12.93   0
   6   1   5  201.82    7.45   0
   5   1   6  507.02    9.33   0
   6   3   7   13.72    5.40   0
   7   3   5  187.63    5.98   0
   6   2   6  339.19    8.15   0
   7   5   5  128.24    4.54   0
   7   4   5  106.39    4.82   0
   4   3   8  255.55    7.75   0
   5   4   8  104.62    6.15   0
   5   5   8  204.39    6.46   0
   6   4   7  230.82    6.48   0
   3   3   8  269.17    7.60   0
   5   0   3  256.83    6.97   0
   7   2   2  107.43    6.20   0
   5   1   5  783.65   10.13   0
   7   2   1  -10.89    5.56   0
   7   4   4   75.38    4.55   0
   6   3   6    0.86    3.86   0
  -3  -7  -4  296.74    8.35   0
  -1  -6  -8  137.64    7.76   0
  -1  -5  -8  346.31    8.35   0
   0  -7  -8   80.42    7.22   0
   1  -8  -7   79.39    5.41   0
  -3  -6  -5   52.07    7.16   0
  -2  -6  -7  328.04    9.35   0
  -1  -9  -4  113.41    4.40   0
   0  -9  -5   25.09    4.03   0
   1  -9  -5   75.65    5.02   0
   1  -5  -8  425.48   11.18   0
  -3  -5  -5  394.70    9.50   0
   1  -6  -8   66.44    6.53   0
   2  -7  -7   41.47    6.44   0
  -3  -7  -3  241.22    7.98   0
  -1  -8  -6   47.02    4.94   0
   2  -8  -6  191.22    6.25   0
  -2  -8  -4  267.90    6.89   0
  -1  -7  -7  234.56    7.78   0
  -3  -6  -4  159.41    7.76   0
  -1  -9  -2  154.89    4.80   0
   0  -9  -4   29.09    3.41   0
  -3  -5  -4  215.23    8.20   0
  -2  -6  -6  248.89    8.50   0
  -2  -5  -6  260.40    8.22   0
  -1  -6  -7  148.58    7.95   0
  -1  -5  -7  483.23    9.38   0
   0  -7  -7   45.68    5.94   0
   1  -9  -4   85.80    4.34   0
   2  -6  -7  333.03    9.90   0
  -2  -8  -3  325.75    7.15   0
  -3  -6  -3   49.47    6.90   0
  -1  -8  -5   54.53    5.15   0
  -2  -8  -2  230.39    6.69   0
  -1  -7  -6  180.56    7.65   0
   0  -9  -3   33.63    3.41   0
   0  -6  -7  521.90   11.06   0
   1  -6  -7   90.76    6.74   0
   1  -5  -7  372.78    9.94   0
  -3  -6  -2  156.70    8.04   0
  -2  -8  -1   79.72    5.30   0
   1  -9  -3  109.70    4.58   0
   2  -7  -6   77.10    6.01   0
  -2  -6  -5  334.40    9.06   0
   0  -9  -2   27.03    3.34   0
   0  -8  -5   40.52    5.14   0
  -1  -8  -4   42.25    4.00   0
  -1  -6  -6  190.76    8.09   0
   0  -7  -6  103.45    6.35   0
   1  -8  -5   54.48    4.63   0
  -3  -5  -2  298.37    9.77   0
   0  -9  -1   30.02    3.26   0
   1  -9  -2  115.11    4.50   0
  -2  -7  -3   74.55    6.69   0
   2  -6  -6  263.43    9.12   0
   3  -8  -3   52.42    5.69   0
  -1  -8  -3   61.76    5.12   0
   1  -9  -1   75.28    3.80   0
   2  -8  -4  192.72    6.43   0
   2  -5  -6   46.91    7.63   0
   0  -8  -4  126.24    5.83   0
   1  -6  -6   33.30    7.06   0
  -2  -7  -2  108.81    6.83   0
   1  -8  -4   96.32    5.13   0
   1  -5  -6  640.41   10.76   0
   2  -7  -5  103.30    7.03   0
  -1  -7  -4  319.82    8.75   0
   0  -7  -5  121.68    7.03   0
  -2  -6  -3  466.65   10.19   0
  -1  -5  -5  608.04   10.11   0
   1  -7  -5  232.62    8.61   0
  -2  -7  -1   90.16    6.50   0
  -1  -8  -1   80.89    5.38   0
   0  -8  -3  128.33    5.88   0
   3  -8  -2   93.75    5.06   0
  -2  -7   0  118.40    6.69   0
  -1  -8   0  162.41    5.69   0
  -1  -8   2   71.46    4.83   0
  -2  -7   1   66.12    5.82   0
  -2  -5  -3  157.79    6.67   0
  -1  -8   1   52.44    4.67   0
  -1  -7  -3  322.83    8.74   0
   0  -6  -5  359.02    9.03   0
   1  -8  -3   41.03    3.83   0
   2  -6  -5  374.06    9.43   0
  -2  -6  -2  623.75   11.43   0
  -1  -6  -4  193.11    7.66   0
   0  -8  -2  155.55    6.10   0
   0  -7  -4  147.62    7.40   0
   2  -5  -5  118.66    7.39   0
   3  -7  -3  233.53    8.87   0
   3  -6  -4  128.18    8.62   0
   1  -8  -2   40.65    4.85   0
   1  -5  -5  598.32    9.75   0
   2  -8  -2  212.80    6.87   0
  -2  -6  -1   46.34    7.02   0
  -1  -7  -2  354.02    8.71   0
   0  -8  -1  108.63    5.59   0
   0  -7  -3  153.71    7.36   0
   3  -8   0   42.63    4.16   0
   4  -7  -1   63.56    6.11   0
   0  -8   0  147.73    5.57   0
   2  -8  -1  233.48    6.89   0
  -2  -6   0  409.48    9.97   0
   0  -8   2  111.72    4.99   0
   0  -8   3   72.38    4.31   0
   2  -6  -4  361.45   10.56   0
   1  -6  -4  285.79    9.08   0
   3  -7  -2  329.79    8.46   0
  -2  -6   1  335.26    9.48   0
  -1  -7   0  126.50    7.09   0
   0  -7  -2  153.05    7.25   0
   2  -8   0  197.02    6.39   0
   3  -8   2   42.54    3.87   0
   3  -6  -3   62.11    7.24   0
  -1  -6  -2   34.14    5.86   0
   2  -5  -4  136.07    6.82   0
   3  -8   3   48.54    3.86   0
   4  -7   0  114.23    6.24   0
  -1  -7   1  176.17    7.13   0
   0  -6  -3  617.37   10.66   0
   1  -8   1   15.58    4.11   0
   2  -8   1  118.62    5.12   0
  -2  -5   0  167.37    7.87   0
  -1  -7   2  159.76    6.80   0
   1  -8   2   24.16    4.11   0
   1  -8   3    9.58    3.57   0
   1  -7  -2  377.60    8.78   0
   2  -8   4   75.93    3.96   0
   0  -7  -1   64.31    6.45   0
   2  -8   3   77.71    4.14   0
   3  -7  -1  237.77    7.50   0
   3  -5  -3  266.23    9.80   0
   4  -7   1   71.36    5.36   0
   0  -7   0  111.71    6.71   0
   0  -6  -2  756.60   11.39   0
   1  -7  -1  329.16    8.69   0
   3  -6  -2  208.16    8.93   0
  -1  -6   0  520.43   10.14   0
   3  -7   0  262.43    7.47   0
   4  -7   2   70.83    4.97   0
   0  -7   1  103.42    6.49   0
   0  -7   5   20.87    5.48   0
   1  -7   0  188.24    7.50   0
   1  -6  -2  166.01    6.66   0
   4  -7   3   33.57    4.19   0
   4  -7   4   43.29    4.64   0
  -1  -6   1   60.43    6.42   0
   0  -7   3   84.23    6.00   0
   2  -7   0   58.31    6.15   0
  -1  -6   2   72.22    6.83   0
   1  -7   1  249.40    7.71   0
   1  -7   6  168.56    5.51   0
   3  -6  -1  157.69    8.05   0
   3  -5  -2  286.96    9.43   0
  -1  -6   3   44.39    6.51   0
  -1  -6   4   78.83    7.05   0
   3  -7   2  197.22    6.97   0
   5  -6   4   30.54    5.77   0
   0  -6   0  673.02   10.90   0
   1  -6  -1  172.39    7.13   0
   2  -6  -1  316.16    9.00   0
   3  -7   6   67.81    4.03   0
   5  -6   5   27.11    4.72   0
   1  -7   4  125.07    5.97   0
   2  -7   2   37.27    5.47   0
   3  -7   4   54.65    5.22   0
   3  -7   5   89.16    4.84   0
   4  -6   1  204.33    8.35   0
   2  -7   3   47.23    5.20   0
   2  -7   5   55.40    4.76   0
   0  -6   1  238.00    7.94   0
   2  -7   4   45.85    5.02   0
   3  -6   0   44.27    5.31   0
   1  -6   0  219.40    7.71   0
   2  -6   0  433.90    9.35   0
   4  -5   0  131.86    8.77   0
   0  -6   6  144.12    6.60   0
   0  -6   3  275.66    8.85   0
   1  -6   1   85.05    6.70   0
   1  -6   8   16.14    4.42   0
   4  -6   3  185.37    7.02   0
   0  -6   5  239.76    7.87   0
   2  -6   1  260.79    8.49   0
   4  -6   7   81.40    4.84   0
  -1  -5   3  486.02   10.17   0
   4  -6   4  173.60    6.42   0
   5  -5   3  167.13    7.97   0
  -1  -5   4  577.21   11.32   0
  -1  -5   5  334.16    9.64   0
   1  -6   2  271.95    8.21   0
   3  -6   8   31.54    3.79   0
   4  -6   6   59.89    4.76   0
   4  -5   1   63.49    7.73   0
   1  -6   7   73.75    5.56   0
   2  -6   2  320.52    8.97   0
   2  -6   8  168.49    5.48   0
   1  -6   3   95.59    6.85   0
   3  -6   3   60.48    7.14   0
   5  -5   4  253.94    8.48   0
   1  -6   4  203.32    7.73   0
   1  -6   5   93.38    6.96   0
   1  -5  10   96.15    5.40   0
   2  -6   7  126.80    5.81   0
   3  -6   7   37.47    4.43   0
   3  -6   5   42.81    5.45   0
   1  -5   4  211.41    8.71   0
   2  -5   6  139.44    8.32   0
   5  -6  -3   58.40    5.56   0
   5  -6   5   20.37    3.78   0
   6  -6  -1  117.96    5.86   0
   2  -6  -2  276.32    9.03   0
   6  -6   3   79.66    4.59   0
   3  -6  -3   75.84    7.31   0
   1  -5   3  506.84   10.42   0
   2  -6  -1  340.68    9.55   0
   2  -6   1  278.97    9.05   0
   2  -5  -4  157.58    7.55   0
   3  -6   4   71.99    6.42   0
   4  -6  -3  269.27    8.52   0
   6  -6   1   61.65    4.32   0
   6  -6   2   72.57    4.35   0
   4  -5   7   30.75    5.05   0
   5  -6  -2   28.36    5.51   0
   5  -5   7   77.64    4.48   0
   2  -5   5  218.29    8.67   0
   3  -6   3   52.93    6.72   0
   4  -6  -2  319.67    9.29   0
   6  -5   6   59.35    3.80   0
   3  -6  -1  151.19    7.72   0
   3  -6   2   73.83    7.38   0
   3  -5   6  235.70    8.35   0
   3  -5  -4  301.97    9.51   0
   4  -6  -1  179.35    8.12   0
   5  -6   0   99.82    6.72   0
   5  -6   2   73.21    5.44   0
   2  -5   4  198.03    8.77   0
   4  -6   2  197.58    7.80   0
   4  -5   6   31.40    5.55   0
   5  -5   6   59.64    4.84   0
   6  -5  -2   66.82    5.88   0
   5  -5  -3  305.93    9.03   0
   6  -5   5   51.35    3.94   0
   3  -5   5  256.12    8.66   0
   2  -5   2  275.55    8.31   0
   4  -5  -3  104.50    7.93   0
   6  -5  -1   45.99    6.32   0
   2  -5   1  393.70    8.91   0
   3  -4   7   67.36    7.69   0
   6  -5   4   78.88    4.83   0
   5  -5  -2  360.71    9.99   0
   6  -4   7   95.51    4.91   0
   7  -4  -1   62.33    7.07   0
   6  -5   3  101.12    5.46   0
   3  -5   3  475.45   10.32   0
   4  -5  -2  210.82    9.37   0
   6  -5   1   63.87    5.56   0
   6  -5   2   72.35    5.82   0
   7  -4   5   38.77    3.64   0
   4  -5   4    2.28    6.55   0
   4  -4   7  295.06    8.34   0
   5  -5   4  245.64    7.41   0
   3  -5   0  337.14    9.01   0
   3  -5   1  358.15    9.20   0
   3  -5   2  273.60    8.75   0
   7  -4   0   59.33    5.63   0
   4  -5   3   12.90    6.62   0
   2  -4   4  652.79   10.59   0
   4  -5   0  128.78    7.79   0
   4  -5   1   70.98    7.28   0
   4  -5   2   45.73    6.97   0
   5  -5   1  256.01    9.17   0
   6  -4  -2  156.95    7.72   0
   7  -4   3   49.08    4.51   0
   7  -4   2   40.12    4.83   0
   6  -3   8   12.65    3.94   0
   4  -4  -3  451.30   10.67   0
   4  -4   6  187.75    6.79   0
   5  -4   6   87.02    6.25   0
   6  -4   5  141.43    5.76   0
   4  -3   8  106.46    7.26   0
   6  -4  -1  260.99    8.61   0
   5  -3   8  200.66    6.70   0
   3  -4   4  209.88    8.32   0
   4  -4   5  264.78    9.35   0
   7  -3  -1  183.73    8.13   0
   7  -3   6   83.95    4.28   0
   4  -4  -2  832.43   13.14   0
   6  -4   3  135.92    6.76   0
   6  -2   9  114.26    4.93   0
   7  -2   8   24.77    3.63   0
   3  -4   3  162.70    7.14   0
   6  -4   1  189.82    8.23   0
   6  -4   2  155.21    7.61   0
   8  -2   1  159.53    7.07   0
   8  -2   5   89.51    4.34   0
   4  -4   4  485.00   10.53   0
   7  -3   5  141.13    5.26   0
   3  -4   1   78.57    5.71   0
   3  -4   2  154.13    6.46   0
   4  -3   7  189.91    8.14   0
   5  -4   0  228.21    9.71   0
   5  -2   9   44.45    5.99   0
   8  -2   4   89.48    4.52   0
   4  -4   3  449.87   10.42   0
   5  -4   1   77.21    8.05   0
   5  -4   3   98.64    7.52   0
   5  -3  -3  391.19   12.13   0
   5  -3   7  194.16    7.12   0
   6  -3  -2  127.37    8.06   0
   7  -3   4  116.21    5.36   0
   8  -2   3   74.94    5.11   0
   3  -3   6  373.32    9.30   0
   4  -4   1  410.50    9.69   0
   4  -4   2  382.89    9.53   0
   6  -3   6    5.92    4.95   0
   7  -3   3  130.59    6.43   0
   8  -1   0   79.34    8.12   0
   4  -3   6  290.65    8.81   0
   5  -3   6  162.59    7.54   0
   6  -3  -1  116.55    7.64   0
   6  -3   5   16.67    5.48   0
   6  -2   8  114.34    5.16   0
   7  -2  -1  129.74    8.67   0
   3  -3   5  577.13   10.15   0
   5  -3  -2  278.36    9.62   0
   8  -1   6   20.76    3.44   0
  -1  -9  -3  100.47    3.65   0
  -4  -5  -3   76.17    6.37   0
   0  -9  -3   24.24    3.12   0
  -3  -5  -5  395.03    8.50   0
  -2  -6  -6  230.62    7.61   0
  -2  -5  -6  258.95    6.98   0
  -3  -8  -1   26.48    3.49   0
  -3  -8   0   40.20    4.47   0
   1  -5  -6  827.27   12.34   0
   0  -9  -2   26.00    3.73   0
  -1  -9  -1   83.53    3.65   0
  -1  -6  -6  176.88    7.77   0
   1  -8  -4  101.15    5.29   0
  -3  -7  -3  241.63    7.26   0
  -3  -6  -4  148.76    7.12   0
   1  -7  -5  225.85    7.51   0
  -1  -8  -4   51.20    4.74   0
   0  -9  -1   25.92    3.13   0
  -3  -5  -4  233.36    7.79   0
  -2  -6  -5  330.06    8.83   0
  -1  -7  -5  232.29    7.33   0
  -2  -7  -4   40.61    5.89   0
  -2  -5  -5  181.17    6.86   0
   0  -9   0   27.31    3.09   0
   0  -7  -5  100.19    6.80   0
  -3  -7  -2  254.64    7.33   0
  -2  -8  -2  189.17    5.93   0
   1  -6  -5   57.15    6.35   0
  -3  -6  -3   55.28    6.65   0
  -1  -8  -3   56.67    4.82   0
   1  -5  -5  653.26   11.12   0
   2  -6  -4  294.09   10.33   0
  -2  -8  -1   77.85    4.73   0
   0  -8  -3  148.22    5.62   0
   0  -6  -5  346.58    9.86   0
   1  -7  -4  260.90    8.79   0
  -3  -7  -1  223.88    6.92   0
  -3  -5  -3  298.88    8.25   0
  -2  -6  -4  330.46    8.89   0
  -1  -7  -4  294.24    8.14   0
  -1  -5  -5  572.57    8.88   0
   2  -7  -3  112.99    7.21   0
  -2  -7  -3   69.22    6.17   0
  -3  -7   0  214.55    6.69   0
  -3  -6  -2  147.54    7.21   0
  -1  -8  -2   32.19    3.63   0
  -3  -7   1  192.03    6.55   0
  -2  -8   2  110.22    4.36   0
   0  -8  -2  146.69    5.75   0
  -3  -7   2  163.17    5.93   0
   1  -6  -4  284.35    8.40   0
  -3  -5  -2  266.36    8.13   0
  -1  -8  -1   77.12    5.00   0
  -1  -7  -3  293.90    8.31   0
  -3  -6  -1   70.02    6.45   0
   2  -6  -3  224.92    9.33   0
  -1  -8   0  154.33    5.38   0
   0  -8  -1  114.51    5.56   0
  -2  -7  -1  103.01    6.22   0
  -3  -6   0  103.33    6.74   0
  -1  -8   1   52.19    4.39   0
   2  -8   2  133.11    5.66   0
  -3  -5  -1  311.56    8.60   0
  -2  -6  -2  634.11   10.13   0
  -1  -8   3   30.55    3.55   0
  -1  -6  -3  188.67    6.94   0
   0  -8   0  147.15    5.50   0
   1  -6  -3  155.22    8.12   0
   2  -8   3   92.09    4.75   0
   2  -7  -1   38.32    5.85   0
  -3  -6   1   57.00    6.17   0
   0  -8   1   77.91    4.85   0
   0  -6  -3  595.03   10.60   0
   1  -8   1   12.48    4.39   0
   3  -7   1  172.26    7.60   0
  -3  -6   2   61.24    6.09   0
  -2  -7   5   77.87    4.68   0
  -1  -7  -1  287.05    8.12   0
   0  -8   2  106.57    4.79   0
   2  -6  -2  351.92    9.91   0
  -3  -5   0  254.56    8.30   0
   0  -8   3   73.09    4.05   0
   0  -8   4  102.05    4.10   0
   1  -8   2   25.23    4.21   0
   1  -8   4   18.28    3.90   0
  -2  -7   2   68.16    5.37   0
  -2  -7   3   42.75    4.78   0
  -2  -7   4   64.32    5.04   0
   1  -8   3    7.95    3.58   0
  -1  -6  -2   20.34    4.38   0
   0  -7  -1   75.06    6.12   0
   2  -7   0   57.86    6.05   0
   3  -7   2  198.68    7.05   0
  -1  -7   0   94.72    6.49   0
  -3  -5   1  258.45    8.64   0
   0  -6  -2  682.86    9.84   0
  -1  -7   1  177.64    7.03   0
   2  -6  -1  415.97   10.59   0
  -3  -5   2  349.17    9.82   0
  -2  -5  -1  104.62    5.11   0
  -1  -6  -1   89.05    6.56   0
   2  -7   1   93.78    6.22   0
   3  -7   4   67.58    5.32   0
  -1  -7   6   71.83    4.59   0
  -3  -5   3  340.40    9.98   0
  -1  -7   4  157.55    6.35   0
   0  -6  -1  711.40   10.69   0
   2  -7   2   27.47    5.92   0
   3  -6   1   56.01    8.21   0
   2  -4 -14   58.17    6.96   0
   2   0 -11  589.45   13.70   0
   0   0 -13  162.80    8.42   0
   0   1 -11    6.84    8.39   0
   1   1 -10  326.14   11.24   0
   3   0  -7  271.61   10.20   0
   1   0 -12   30.68    8.49   0
   3  -2 -11    8.12    9.08   0
  -1   0 -13   45.94    8.22   0
  -1   1 -11  133.58    8.80   0
   1  -4 -15   26.22    5.29   0
   2  -2 -13   91.17    9.03   0
   2  -1 -12   40.59    8.94   0
   0  -1 -14   54.44    7.13   0
   1   1  -9  256.50    9.51   0
   2   0 -10  225.97   10.60   0
   3  -1  -9  434.57   12.86   0
   0   1 -10  185.43    9.29   0
   1  -1 -13  120.62    8.45   0
   3  -4 -11   50.86    9.61   0
   3  -3 -11  103.54    9.21   0
  -2  -2 -15   76.55    5.86   0
   2  -5 -13   26.76    6.69   0
  -1  -2 -15   26.05    5.09   0
  -1  -1 -14   88.27    6.48   0
  -1   1 -10  229.58    9.15   0
   1   0 -11   87.29    8.88   0
   1   1  -8  463.34    9.66   0
   2   0  -9  531.11   11.70   0
   3  -1  -8  320.35   10.87   0
  -2   0 -12  240.91    8.45   0
   0   1  -9  167.98    7.87   0
   2  -2 -12  193.04   10.05   0
   1  -3 -14  166.16    7.77   0
   2   0  -8 1029.45   13.37   0
   3  -4 -10   43.62    8.41   0
   3  -2  -9  164.89   10.36   0
   0  -4 -15   66.18    5.41   0
   0  -2 -14  182.61    7.57   0
   0  -1 -13   69.50    7.71   0
   1  -5 -14   49.19    5.97   0
   1  -1 -12  165.76    9.51   0
   1   0 -10   50.63    7.57   0
  -1   1  -9  664.23   11.39   0
   1  -4 -14    6.49    5.84   0
  -1  -3 -15   52.40    5.16   0
   2  -5 -12    8.87    7.49   0
  -2  -1 -13    9.89    5.76   0
   2  -2 -11  318.45   11.56   0
   1  -6 -13    7.75    5.35   0
   1   0  -9   97.93    7.00   0
   2  -4 -12  205.04    9.28   0
   2  -1  -9   52.93    7.60   0
   3  -2  -7  247.77    9.74   0
  -2  -2 -14   62.28    5.89   0
  -2   0 -11  443.42   10.07   0
  -1  -4 -15   17.06    4.53   0
   1  -3 -13  226.37    9.50   0
   1  -1 -11  234.91   10.01   0
  -1  -5 -15   50.94    4.07   0
   0  -3 -14   32.04    4.88   0
   0  -1 -12   38.09    7.70   0
   1  -2 -12   38.77    6.50   0
   2  -3 -11  106.17    9.42   0
   1  -4 -13   30.15    7.48   0
   0  -5 -14   24.77    4.98   0
   0  -4 -14  109.93    7.09   0
   2  -5 -11   17.83    7.41   0
  -3  -3 -14  101.24    6.03   0
  -1  -3 -14   92.25    6.34   0
  -1  -1 -12  168.94    7.03   0
  -1   0 -10  360.38    9.61   0
  -3  -2 -13   43.97    6.55   0
  -2  -1 -12  108.43    7.35   0
  -2   0 -10  836.02   12.65   0
   0  -1 -11  109.67    8.13   0
  -2  -3 -14   26.03    5.26   0
   1  -6 -12   26.26    5.94   0
   2  -3 -10  119.20    9.80   0
  -2  -2 -13   97.54    6.61   0
  -1  -6 -14   15.44    3.54   0
   0  -3 -13   20.20    5.47   0
   0  -2 -12  288.33   10.06   0
  -1  -4 -14   18.82    5.58   0
   1  -1  -9  320.61    9.19   0
   2  -5 -10   23.94    8.00   0
  -3  -4 -14   19.05    4.41   0
  -1  -5 -14  103.53    5.43   0
   1  -5 -12   90.57    8.51   0
   2  -2  -8  642.38   11.97   0
  -2  -6 -14   65.76    5.03   0
  -1  -1 -11   79.25    7.67   0
   0  -4 -13  164.02    8.76   0
  -3  -5 -14   91.90    4.74   0
  -1  -3 -13  212.11    8.55   0
   0  -5 -13   47.60    6.63   0
   1  -3 -11  335.72   11.82   0
   1  -2 -10  154.14    8.96   0
  -2  -5 -14   13.29    4.13   0
  -2  -1 -11   88.84    7.48   0
  -1  -2 -12   26.75    7.56   0
  -4  -4 -13   97.51    6.45   0
  -3  -3 -13   84.82    6.98   0
  -3  -2 -12   63.53    7.13   0
   0  -3 -12   13.36    8.42   0
   0  -2 -11  437.84   11.41   0
   1  -6 -11   94.34    7.93   0
   2  -5  -9   49.01    8.92   0
  -1  -4 -13   42.63    7.36   0
   1  -5 -11  192.89   10.32   0
  -1  -1 -10  336.22    9.42   0
   1  -2  -9  157.91    8.27   0
  -4  -3 -12   62.63    6.39   0
  -1  -5 -13  145.44    7.42   0
  -3  -4 -13   56.50    6.49   0
  -2  -1 -10   56.62    7.29   0
  -1  -3 -12  140.88    9.40   0
   0  -7 -11   47.78    5.83   0
   0  -5 -12   51.09    8.54   0
   2  -5  -8   33.53    9.95   0
   2  -4  -8  294.29   12.26   0
  -3  -6 -13   32.57    4.78   0
  -2  -6 -13   90.99    5.25   0
   0  -3 -11   40.84    9.49   0
   0  -2 -10  233.69    9.68   0
   1  -6 -10   -8.18    7.58   0
   3   0 -10   17.22   10.69   0
  -1   1 -13  141.69    8.00   0
   0   2 -10  228.37   10.93   0
   2  -2 -14   48.65    7.62   0
   2   0 -12  208.82   10.83   0
   0   0 -14   86.88    7.22   0
   1   2  -8  193.49    9.69   0
   2  -1 -13   34.03    8.40   0
   3  -3 -12   79.64    9.35   0
   1  -2 -15   53.89    6.34   0
   1   0 -13   48.98    8.05   0
   2   1  -9   52.67    9.05   0
   3   0  -8   49.45    8.92   0
   0   1 -12    4.78    8.00   0
   0   2  -9  345.19   11.20   0
   1   1 -11  225.65   11.16   0
   1  -1 -14   80.76    7.91   0
   2   0 -11  539.98   13.56   0
   3  -2 -11   23.39    9.22   0
  -2  -1 -15   14.28    6.27   0
   0   2  -8  614.24   11.88   0
   3  -3 -11   88.40    9.09   0
  -1   1 -12  294.47    9.78   0
   2  -2 -13   96.60    9.19   0
   1   1 -10  263.57   10.63   0
   2  -1 -12   18.56    6.79   0
   0   1 -11    7.55    7.83   0
   1   0 -12   40.63    8.49   0
   2   0 -10  205.75   10.47   0
   3  -1  -8  298.68   10.68   0
   0  -2 -15   97.48    6.28   0
   2  -4 -13  130.29    8.08   0
   3  -3 -10  201.84   10.74   0
   0  -1 -14   53.53    6.67   0
   1  -1 -13  124.37    8.47   0
   1   1  -9  316.02    9.73   0
  -1   1 -11  116.05    8.53   0
   1  -5 -14   41.76    5.90   0
   2  -5 -12   21.14    8.22   0
   2  -1 -11   74.44    9.32   0
   2   0  -9  578.29   12.02   0
  -2   0 -13  247.59    7.85   0
   1   0 -11   82.48    8.82   0
   1  -3 -14  171.36    8.32   0
   1   1  -8  492.78    9.73   0
   3  -2  -8   28.45    7.97   0
  -1  -1 -14   85.31    6.31   0
   2  -3 -12   46.85    8.46   0
  -2  -2 -15   68.60    5.02   0
   0  -4 -15   67.57    5.45   0
   2  -1 -10   26.82    8.22   0
   3  -3  -8  341.16   12.06   0
  -2  -1 -14   32.27    5.31   0
  -1   1 -10  215.52    9.03   0
   0   1  -9  146.27    7.64   0
   1  -2 -13   47.62    7.83   0
   2  -2 -11  314.61   11.53   0
   0  -1 -13   67.58    7.76   0
   1   0 -10   33.22    5.79   0
   2  -5 -11   26.65    8.17   0
   2  -1  -9   63.34    7.83   0
  -1  -3 -15   55.48    5.35   0
   1  -3 -13  233.39    9.76   0
   2  -3 -11   98.47    9.61   0
  -3  -3 -15   29.38    4.51   0
  -2   0 -12  233.23    8.50   0
  -1  -5 -15   42.02    3.91   0
   1  -6 -12   34.16    7.45   0
   1  -1 -11  207.26   10.07   0
   1   0  -9  114.35    7.15   0
  -1  -4 -15    9.23    4.32   0
  -1  -1 -13  241.06    8.38   0
  -1   1  -9  686.85   11.56   0
   0  -3 -14   23.49    6.47   0
   1  -2 -12   40.11    8.72   0
   2  -1  -8  145.64    7.52   0
  -1  -2 -14   16.70    5.98   0
   0  -4 -14  114.63    7.42   0
   0  -2 -13  228.37    9.46   0
   0  -1 -12   22.52    5.99   0
  -3  -2 -14   28.41    5.36   0
  -2  -4 -15   69.25    5.56   0
  -2  -2 -14   59.42    5.93   0
  -2  -1 -13   12.69    6.03   0
  -1   0 -11  376.22   10.15   0
   2  -3 -10  125.71    9.66   0
   2  -2  -9  614.17   13.10   0
   1  -3 -12  186.17   10.62   0
   1  -1 -10  420.12   10.82   0
   2  -4 -10   90.11    9.28   0
  -4  -3 -14   26.36    4.97   0
  -2   0 -11  440.53   10.47   0
   0  -6 -13   71.61    5.85   0
   1  -5 -12   92.61    8.16   0
   1  -2 -11  203.85   10.30   0
   2  -2  -8  673.15   12.17   0
   0  -3 -13   21.76    7.66   0
   0  -1 -11   95.20    8.40   0
   2  -3  -9  388.71   12.00   0
  -1  -4 -14   19.05    6.10   0
  -1   0 -10  312.40    9.36   0
   0  -2 -12  276.89   10.72   0
   1  -1  -9  340.41    9.55   0
   2  -4  -9  537.71   13.66   0
  -2  -3 -14   20.24    5.60   0
  -1  -5 -14  106.21    5.76   0
   0  -4 -13  177.67    9.56   0
  -3  -3 -14  100.01    5.96   0
  -2  -6 -14   75.38    4.96   0
  -2  -1 -12  105.94    7.48   0
   1  -2 -10  157.83    9.20   0
   2  -3  -8  230.83   10.17   0
  -2  -2 -13   90.11    7.25   0
  -2   0 -10  789.48   12.73   0
   1  -5 -11  208.35   10.30   0
  -3  -2 -13   46.41    6.00   0
  -2  -4 -14   68.88    5.91   0
   0  -1 -10  221.19    9.03   0
   1  -6 -10   -0.87    7.08   0
   1  -4 -11  191.83   11.11   0
   1  -4  -7  161.64    6.72   0
   4  -5  -7  184.62    9.04   0
   1  -6  -6   30.51    7.69   0
   2  -8  -2  222.32    7.28   0
   2  -8   0  180.50    6.64   0
   4  -8  -2   69.41    5.18   0
   5  -7  -4   96.86    5.50   0
   2  -8  -1  216.07    6.97   0
   4  -8  -1   55.60    4.73   0
   4  -7  -5   17.81    5.04   0
   0  -5  -5  258.13    8.20   0
   1  -7  -4  267.19    9.44   0
   2  -7  -5   93.08    7.20   0
   2  -5  -7   49.00    8.74   0
   3  -8  -2   92.64    5.40   0
   3  -5  -7  121.23    8.95   0
   3  -8   0   50.65    4.75   0
   3  -7  -5  220.63    7.54   0
   4  -6  -6   85.11    7.40   0
   5  -6  -5   92.98    6.58   0
   0  -6  -3  622.84   12.72   0
   1  -5  -6  782.88   12.92   0
   2  -6  -6  272.62    9.50   0
   1  -6  -5   54.59    7.85   0
   5  -7  -3   56.57    4.99   0
   1  -7  -2  402.93   10.66   0
   2  -7  -4   86.37    7.63   0
   4  -7  -4   34.35    5.28   0
   1  -7   1  266.20   10.41   0
   4  -5  -6  245.11    9.49   0
   1  -7  -1  332.63    9.89   0
   1  -7   0  218.91    9.24   0
   0  -6   0  733.68   14.65   0
   1  -6  -4  285.55    9.58   0
   2  -7  -3  108.60    7.66   0
   2  -6  -5  386.91   11.05   0
   3  -5  -6  470.20   14.30   0
   4  -4  -6  149.32   12.12   0
   5  -7  -2   85.92    5.30   0
   5  -6  -4   49.24    7.21   0
   5  -5  -5  182.04    8.97   0
   2  -4  -6  424.09   10.71   0
   3  -6  -5   37.86    7.02   0
   4  -7  -3   58.83    6.02   0
   3  -7  -3  200.81    8.12   0
   6  -6  -2  103.31    6.43   0
   2  -7  -2   87.36    7.50   0
   3  -4  -6  103.33    8.75   0
   1  -6  -3   97.05    6.33   0
   4  -7  -2   74.88    6.34   0
   2  -7   2   29.78    6.07   0
   2  -5  -5  111.89    7.62   0
   4  -6  -4  216.92    9.47   0
   4  -5  -5   98.24    9.09   0
   5  -7   1   53.24    5.46   0
   5  -7   2   70.98    4.71   0
   6  -5  -3   41.85    6.93   0
   1  -5  -4  499.74    9.17   0
   2  -7   0   55.98    6.69   0
   2  -7   1   76.58    6.79   0
   3  -6  -4  118.48    7.47   0
   3  -7  -1  231.41    8.18   0
   4  -7  -1   54.21    6.24   0
   5  -5  -4  300.93    9.49   0
   4  -7   0  100.82    6.54   0
   1  -6  -1  183.86    8.35   0
   3  -7   1  193.34    7.25   0
   3  -7   2  196.36    7.08   0
   4  -7   1   65.85    5.33   0
   4  -7   2   67.81    5.48   0
   6  -6   0  147.87    6.78   0
   4  -6  -3  279.88    8.92   0
   5  -6  -2   26.05    5.68   0
   6  -4  -3  169.24   10.59   0
   1  -6   0  187.21    7.18   0
   1  -6   1   90.30    7.69   0
   1  -6   2  231.02    9.69   0
   2  -5  -4  124.05    7.21   0
   3  -6  -3   72.30    7.31   0
   3  -4  -5  111.38    8.93   0
   6  -5  -2   74.65    6.83   0
   2  -6  -2  324.43    9.46   0
   5  -4  -4   82.48    8.85   0
   5  -5  -3  285.65    9.59   0
   6  -6   2   75.43    4.71   0
   6  -6   3   84.77    4.43   0
   3  -6  -2  174.34    8.16   0
   5  -6  -1   74.48    5.90   0
   2  -6  -1  357.05    9.57   0
   2  -5  -3  119.12    6.83   0
   6  -5  -1   47.69    6.41   0
   7  -4   0   55.45    7.07   0
   4  -6  -1  181.52    8.23   0
   4  -4  -4  768.94   13.81   0
   5  -6   0   98.53    6.07   0
   2  -6   1  262.19    8.68   0
   2  -6   3  254.18    8.62   0
   3  -4  -4  188.95    8.42   0
   2  -6   2  336.01    9.13   0
   3  -6   5   45.41    5.68   0
   5  -6   1   45.02    5.52   0
   5  -4  -3  108.17    8.11   0
   2  -5  -2  356.26    8.43   0
   4  -6   0  301.94    9.12   0
   3  -6   4   77.15    7.29   0
   7  -4   1   35.86    5.45   0
   4  -6   1  217.73    8.41   0
   4  -5  -2  208.57    8.64   0
   4  -6   2  203.78    7.93   0
   5  -5  -1  471.06   10.67   0
   5  -3  -3  421.04   13.62   0
   6  -5   1   80.56    6.04   0
   6  -3  -2  108.62    9.96   0
   6  -5   6   60.32    3.89   0
   6  -5   2   68.07    6.00   0
   7  -4   2   60.61    5.46   0
   4  -5  -1   99.77    7.97   0
   5  -4  -2   59.97    6.40   0
   6  -5   5   52.50    4.30   0
   5  -5   0  364.07    8.61   0
   5   6   3   98.64    5.58   0
   4   3   5  225.15    6.75   0
   6   1   2  122.43    6.41   0
   6   2   3  395.11    8.38   0
   7   4   0   83.17    4.83   0
   5   2   4  230.21    6.52   0
   5   1   3  635.32    9.30   0
   6   3   3  112.47    6.28   0
   6   5   2   39.84    5.22   0
   7   4  -2   16.43    4.19   0
   5   3   4  205.74    7.67   0
   5   4   4  186.13    7.52   0
   4   6   3  344.14    8.73   0
   7   2  -4   53.83    6.96   0
   4   7   0   13.91    5.29   0
   6   1   1   56.29    7.26   0
   6   5   1    8.30    5.33   0
   7   2  -3   87.64    6.26   0
   7   2  -2   96.84    6.31   0
   7   3  -3  145.86    6.96   0
   7   3  -2  169.11    6.78   0
   3   5   4  225.43    8.21   0
   6   3   2   72.99    6.61   0
   6   4   2  226.30    8.03   0
   4   7  -1   17.22    5.97   0
   5   2   3  311.29    7.85   0
   5   6   1   74.88    6.22   0
   4   3   4  255.37    6.14   0
   6   5   0   26.60    5.43   0
   4   7  -2   11.70    5.28   0
   5   3   3  415.17    9.31   0
   5   4   3  145.82    7.66   0
   6   4   1  226.73    8.56   0
   5   5   2  268.26    9.53   0
   5   6   0   59.30    5.93   0
   6   5  -1   22.05    5.43   0
   6   5  -3   30.77    5.05   0
   6   5  -2   21.44    5.21   0
   6   2   0  608.56   10.96   0
   4   4   3  569.98   10.32   0
   4   6   1  150.09    8.92   0
   5   1   1 1045.24   12.74   0
   5   4   2  145.50    7.51   0
   5   5   1  276.98    9.93   0
   6   3   0  135.31    7.60   0
   4   3   3   76.34    4.90   0
   6   4  -6   41.12    5.42   0
   6   4  -1  179.71    7.64   0
   6   1  -2  175.64    8.60   0
   6   3  -7   41.88    6.91   0
   6   3  -1   81.36    7.33   0
   6   4  -5  106.04    7.00   0
   3   6   1   77.29    7.17   0
   4   6   0  288.00    9.07   0
   5   4   1   75.49    6.96   0
   5   5   0  397.02   10.01   0
   6   1  -3  117.40    7.81   0
   6   4  -3  118.75    6.69   0
   6   2  -2  334.25    9.18   0
   6   3  -2  118.32    7.69   0
   3   5   2  281.59    7.55   0
   4   4   2  766.49   11.02   0
   5   1   0  937.83   11.96   0
   5   3   1  182.89    6.44   0
   6   1  -4  146.99    8.32   0
   6   2  -7  103.27    7.04   0
   6   3  -6   61.73    6.73   0
   4   6  -1  309.53    9.21   0
   5   5  -1  211.92    8.35   0
   6   1  -5   16.70    6.41   0
   6   2  -3  179.51    8.01   0
   6   3  -3  147.19    7.61   0
   4   6  -6   39.37    5.77   0
   5   4   0   65.36    6.96   0
   3   6   0   88.32    7.51   0
   4   6  -2  195.49    7.68   0
   5   5  -2  247.22    8.27   0
   5   3   0  416.78    9.15   0
   5   5  -3  134.03    7.12   0
   4   6  -5   87.44    5.66   0
   4   6  -3  108.86    6.92   0
   5   1  -1  794.05   11.48   0
   5   4  -8   16.87    4.65   0
   5   5  -4   46.66    6.29   0
   3   5   1  361.95    9.14   0
   3   6  -1   68.00    7.21   0
   4   3   1  353.98    7.63   0
   5   3  -9   70.52    6.17   0
   5   3  -1  305.79    8.73   0
   5   4  -2   71.46    7.28   0
   5   1  -2  951.56   12.31   0
   5   4  -7   39.23    5.50   0
   3   6  -7   18.33    5.78   0
   3   6  -2   65.49    7.00   0
   4   4   0  412.16    9.29   0
   4   5  -8   10.48    4.46   0
   5   3  -2  381.55    9.80   0
   5   4  -6    6.83    6.00   0
   5   4  -5   49.41    6.81   0
   5   4  -4  113.69    7.63   0
   3   6  -3   81.48    7.29   0
   4   5  -2  183.87    8.70   0
   5   1  -9  116.20    8.63   0
   5   1  -3  667.16   11.70   0
   5   2  -9   28.47    6.49   0
   4   3   0  156.58    6.29   0
   4   5  -7   16.96    5.19   0
   5   3  -3  348.42   10.03   0
   3   6  -5   32.58    6.29   0
   3   6  -4   58.64    6.90   0
   5   3  -7  210.22    8.41   0
   2   6  -2  267.68    9.78   0
   4   5  -6   66.86    6.62   0
   4   5  -4  106.95    8.22   0
   5   3  -4  186.81    9.23   0
   3   3 -11   56.37    5.90   0
   5   1  -2  910.20   11.58   0
   5   2  -3  126.82    7.16   0
   3   4  -7   34.48    6.37   0
   4   3  -9   34.52    5.26   0
   5   0  -2  413.14    8.48   0
   3   4  -6   25.25    6.68   0
   3   4  -5   90.78    7.29   0
   4   3  -3   14.29    5.79   0
   5   2  -8   25.88    4.49   0
   5   2  -4  229.46    8.41   0
   4   3  -8    8.24    5.92   0
   5   2  -7   19.57    6.35   0
   5   2  -6   -1.59    6.64   0
   5   2  -5  143.63    8.28   0
   2   4  -8  137.83    7.49   0
   2   4  -4  522.81    9.75   0
   4   3  -4   98.56    7.14   0
   5   1  -3  707.33   10.83   0
   4   3  -7   31.62    6.78   0
   4   3  -6   79.79    7.49   0
   4   3  -5   81.41    7.35   0
   3   3 -10   86.51    6.43   0
   4   1 -12   24.08    4.77   0
   5   0  -3  193.80    7.25   0
   5   1  -9  121.03    7.09   0
   4   2 -10   80.56    6.13   0
   2   2 -13   40.86    5.70   0
   2   3 -11   21.54    5.49   0
   5  -2 -10   39.87    7.13   0
   5   1  -8  172.95    8.03   0
   3   3  -9  125.74    7.57   0
   4   2  -3  723.97   10.45   0
   5  -1 -10   87.12    7.42   0
   5  -1  -4  515.78   10.89   0
   5   1  -7  333.51    9.84   0
   5   1  -6  615.62   11.81   0
   4   2  -9  221.41    8.52   0
   3   1 -13   32.28    4.77   0
   5   0  -5  422.60   10.20   0
   4   2  -8  117.13    8.26   0
   5  -1  -9  111.82    7.31   0
   5  -1  -5  148.80    8.42   0
   5   0  -6   56.41    7.75   0
   4   0 -12   95.19    6.13   0
   4   2  -5  500.52   10.73   0
   5  -2  -8   18.27    6.87   0
   5   0  -7   99.14    8.23   0
   4   2  -6  335.94   10.11   0
   5  -1  -8  129.52    8.13   0
   5  -1  -7  339.24   10.49   0
   5  -1  -6  430.62   10.86   0
   1   2 -13    9.85    5.35   0
   4   1 -10   57.73    7.13   0
   2   2 -12   82.55    6.39   0
   2   3  -9   55.39    7.97   0
   3   2 -10   -7.15    7.06   0
   2   3  -8  122.29    8.67   0
   3   1 -12   79.67    6.56   0
   4   1  -9   56.91    7.90   0
   2   3  -7  152.06    9.07   0
   3   2  -9  214.85    9.83   0
   4   1  -8   52.63    6.79   0
   4   1  -7   87.53    8.92   0
   4   1  -6  323.59   10.00   0
   2   2 -11  181.43    8.62   0
   4   0 -10  275.05   10.06   0
   1   2 -12   11.52    6.20   0
   3   1 -11  177.73    8.98   0
   1   3  -8  358.77   11.45   0
   3   2  -7   63.00    7.99   0
   3   2  -6  160.71    8.06   0
   4  -2 -11  116.01    8.18   0
   4   0  -9  340.52   11.32   0
   1   3  -7  468.50   11.58   0
   4  -3 -10   29.41    8.37   0
   4   0  -5  644.52   11.34   0
   2   2 -10  115.35    9.14   0
   3  -1 -13   86.41    6.99   0
   3   0 -12   40.59    7.79   0
   4   0  -8  438.81   12.11   0
   3   1 -10  232.76   10.50   0
   4  -2 -10  115.92    8.81   0
   2   1 -12   27.92    7.46   0
   4  -1  -9   74.90    9.46   0
   4  -1  -5  380.20    9.79   0
   1   2 -11   52.76    7.93   0
   3   1  -9  399.65   12.05   0
   4  -2  -9  227.41   11.84   0
   4  -1  -8   87.23    9.40   0
   0   0 -15   57.74    5.44   0
   1   1 -13   78.03    6.86   0
   3   0 -11   30.74    8.20   0
   2   0 -13  145.89    7.91   0
   3  -1 -12  119.94    8.68   0
   3   1  -8  457.55   12.11   0
   4  -2  -8  281.25   11.10   0
   4  -2  -7  425.94   12.06   0
   2   1 -11   48.63    8.53   0
   3   1  -7  441.28   10.90   0
   3   1  -6  782.17   11.79   0
   1   2 -10    6.21    7.47   0
   2  -4 -14   45.29    6.44   0
   3   0 -10    9.84    6.51   0
   0   1 -13   30.80    6.57   0
   1   1 -12  103.52    8.00   0
   2  -2 -14   45.45    6.38   0
   3  -3 -12   79.35    7.78   0
   3  -1 -11  215.92    9.89   0
   1   2  -9  187.90    8.98   0
   2   0 -12  188.34    9.09   0
   2   1 -10   97.42    8.75   0
   3   0  -9  421.03   11.73   0
   2  -1 -13   41.97    6.72   0
   1  -4   7  189.53    6.73   0
   2  -5   6  142.02    6.07   0
   3  -5  -1  250.11    7.55   0
   4  -4  10   96.89    3.75   0
   6  -5   3   81.19    4.96   0
   3  -5   7  230.91    6.12   0
   5  -5   7   73.00    3.53   0
   2  -5   5  215.06    6.60   0
   2  -3  10   38.80    5.20   0
   4  -5   7   19.33    3.81   0
   1  -4   6   95.92    5.73   0
   3  -4   9   23.46    4.38   0
   5  -3  11  136.07    3.43   0
   2  -5   2  244.92    6.18   0
   2  -5   3  136.60    5.51   0
   3  -5   0  415.77    8.06   0
   3  -5   6  233.14    6.52   0
   4  -3  11   70.66    3.57   0
   5  -5   1  208.74    6.97   0
   5  -5   6   57.00    4.00   0
   1  -4   5  267.16    6.62   0
   4  -5   6   36.48    4.42   0
   4  -2  12  119.91    4.63   0
   5  -4   9   29.30    2.76   0
   3  -5   5  305.83    7.25   0
   4  -4   9  161.29    4.85   0
   5  -5   2  222.58    6.82   0
   5  -5   5  186.56    5.38   0
   6  -3  10   26.16    2.49   0
   3  -5   1  332.37    7.37   0
   4  -5   1   67.26    5.79   0
   2  -3   9  165.72    6.58   0
   3  -5   3  419.93    7.96   0
   3  -3  10   77.34    4.97   0
   4  -5   2   60.73    5.48   0
   4  -5   4    4.18    4.92   0
   6  -4   7   81.71    3.50   0
   5  -4   8   53.88    3.88   0
   3  -2  11  123.55    5.35   0
   4  -4   8  170.75    5.68   0
   4  -3  10   55.98    4.22   0
   3  -4   7   58.97    5.67   0
   6  -4   6  133.87    4.30   0
   2  -4   5  286.87    6.81   0
   6  -3   9   38.39    2.92   0
   7  -3   7   78.49    3.40   0
   2  -3   8    6.08    5.12   0
   4  -4   7  255.88    6.90   0
   5  -4   7   86.36    4.54   0
   2  -4   4  584.06    8.23   0
   3  -3   9  193.88    5.61   0
   4  -2  11  164.26    4.94   0
   5  -2  11   35.01    3.24   0
   6  -4   3  124.42    5.69   0
   6  -4   4  129.99    5.48   0
   5  -1  12   72.89    3.54   0
   7  -2   9   22.43    2.49   0
   4  -4   6  221.62    6.98   0
   5  -4   6   72.10    4.13   0
   5  -3   9  177.05    5.02   0
   2  -3   7   68.59    5.48   0
   3  -4   5   97.43    5.67   0
   4  -4   0  439.85    9.75   0
   5  -4   1   66.62    6.52   0
   6  -3   8   14.47    3.13   0
   7  -3   3  132.93    5.96   0
   7  -3   5  126.66    4.64   0
   3  -4   4  204.97    6.44   0
   3  -2  10   47.82    5.77   0
   5  -4   5   18.96    4.00   0
   6  -2  10   89.78    3.49   0
   7  -3   4  123.13    5.06   0
   3  -4   3  139.47    5.50   0
   4  -4   1  524.74    9.59   0
   4  -4   5  233.15    7.23   0
   5  -4   2  122.96    6.93   0
   4  -4   4  468.03    8.84   0
   7  -1  10   69.55    3.05   0
   4  -3   8  104.61    5.97   0
   5  -3   8  171.70    5.54   0
   6  -3   7   36.19    3.95   0
   3  -3   7  246.20    7.12   0
   6  -3   6   12.60    4.20   0
   2  -2   8  220.29    5.97   0
   3  -2   9  174.50    6.63   0
   5  -3   7  186.33    6.08   0
   5  -1  11  145.69    4.55   0
   7  -2   7   29.23    3.38   0
   4  -3   7  184.33    6.83   0
   3  -3   6  374.63    7.67   0
   6  -3   2   67.49    5.97   0
   7  -1   9  128.20    3.65   0
   5  -3   6  147.05    6.38   0
   6  -3   3   43.51    5.65   0
   6  -3   4   62.17    5.47   0
   4  -3   6  273.14    7.45   0
   6  -2   8  122.99    4.85   0
   6  -1  10   63.43    3.84   0
   7  -2   2   45.37    6.48   0
   3  -3   5  504.97    8.13   0
   7  -2   5   34.08    4.60   0
   3  -2   8  278.79    7.26   0
   5  -3   5  417.36    8.48   0
   6   0  11  126.21    4.14   0
   7  -2   3   41.81    5.39   0
   7  -2   4   41.17    4.96   0
   4  -3   5  326.12    7.61   0
   5  -3   1  197.73    8.30   0
   7  -1   8  110.32    4.06   0
   4  -2   8  299.01    7.49   0
   5  -3   2  198.94    7.93   0
   5  -2   8   55.95    4.05   0
   6  -2   7  169.66    5.49   0
   5   0  11   42.92    3.78   0
   6  -1   9   73.89    4.27   0
   8   0   6  110.87    4.40   0
   4  -3   2  276.13    6.94   0
   5  -1  -1  625.84    9.25   0
   5   1  -2  915.42   11.34   0
   6  -2  -5  349.22    8.06   0
   6  -1  -4  106.29    7.02   0
   6   0  -6  254.02    7.84   0
   5   1  -9  173.44    7.02   0
   6  -1  -6   33.52    6.13   0
   4   2  -9  210.50    8.53   0
   5  -2  -2  239.41    7.18   0
   5   1  -3  681.78   10.58   0
   5  -4 -10   43.08    5.19   0
   5   0  -2  387.83    7.51   0
   4   2  -3  781.30   10.77   0
   5  -4  -6   36.79    7.14   0
   4   1 -11   47.01    5.51   0
   5  -4  -9   33.00    5.89   0
   5   0 -10   43.82    5.76   0
   4   2  -8  118.68    7.52   0
   5  -4  -8   67.50    6.69   0
   5  -4  -7   45.31    5.78   0
   5  -3  -4  311.21    8.44   0
   5   0  -3  202.53    6.99   0
   5   1  -6  651.35   11.73   0
   5  -2 -11   37.84    5.12   0
   4   0 -12   99.64    5.94   0
   4   2  -7  568.53   11.34   0
   5   0  -9  100.24    6.92   0
   5  -3  -5  132.66    7.21   0
   5  -1 -10  105.97    6.73   0
   5   0  -4  345.99    7.62   0
   4   1 -10   54.58    6.72   0
   5  -2  -4  175.38    7.26   0
   5   0  -8  103.97    7.71   0
   5   0  -5  490.86   10.29   0
   4  -2 -13   29.92    5.20   0
   5  -3  -6  264.80    8.14   0
   5   0  -7  118.67    8.16   0
   5   0  -6   83.90    7.77   0
   4  -4 -12   80.67    6.19   0
   4   1  -9   45.01    7.23   0
   5  -2  -9   49.87    6.48   0
   5  -1  -8  125.94    7.99   0
   5  -2  -8   33.53    7.35   0
   5  -2  -7   42.41    7.26   0
   5  -1  -7  393.52   10.39   0
   4   1  -4  117.11    5.27   0
   4   1  -8   69.65    8.16   0
   3   1 -11  139.01    7.50   0
   4  -3 -12   37.64    5.34   0
   4  -2 -12   59.94    6.09   0
   3   2  -7   45.78    7.63   0
   3   2  -6  149.03    7.74   0
   3  -3 -14   23.71    5.14   0
   4  -4  -6  159.72    8.13   0
   4  -3  -4   45.79    5.93   0
   4  -1 -11   56.72    7.34   0
   3  -5 -12  161.79    6.92   0
   4  -4 -10  187.59    7.18   0
   4   0  -9  349.37   10.60   0
   3   0 -12   38.74    6.80   0
   4  -4  -9  301.13    8.48   0
   4  -3 -11   24.25    5.88   0
   3   1 -10  195.03    8.88   0
   4  -4  -8  241.57    8.37   0
   4  -1 -10   45.20    7.75   0
   4   0  -8  421.13   11.27   0
   4   0  -5  693.27   10.35   0
   4  -3  -5   33.51    5.90   0
   4  -2  -4  607.71    8.66   0
   4   0  -7  948.62   13.26   0
   4   0  -6  382.85    9.28   0
   3  -5 -11  245.59    7.57   0
   4  -3 -10   21.41    5.05   0
   4  -2 -10  121.02    7.96   0
   3  -2 -13   16.79    5.72   0
   3   1  -9  428.97   10.63   0
   4  -3  -6  286.11    8.53   0
   4  -1  -5  323.04    7.64   0
   3  -3 -13   42.87    5.39   0
   3   0 -11   36.31    7.25   0
   4  -3  -8   23.55    7.58   0
   4  -3  -7   39.30    6.82   0
   4  -2  -9  228.50    9.01   0
   4  -1  -8   91.49    8.16   0
   4  -1  -7   88.59    7.43   0
   4  -1  -6  563.91   10.18   0
   2   0 -13  159.36    7.22   0
   3  -5 -10  197.25    7.62   0
   3   1  -8  397.40   10.23   0
   4  -2  -8  310.87    9.53   0
   4  -2  -6  203.69    7.80   0
   3  -5  -9  186.35    7.88   0
   3   1  -7  428.41    9.24   0
   3   1  -6  918.83   11.04   0
   1   0 -14   42.42    5.21   0
   2  -4 -14   46.02    4.64   0
   3  -4 -11   47.10    5.58   0
   2   0 -12  150.08    6.66   0
   3  -4 -10   47.56    5.46   0
   3  -4  -6   87.30    5.73   0
   3  -3 -11  130.17    6.92   0
   3  -2 -11   14.23    5.79   0
   2  -5 -12   15.40    4.22   0
   3  -4  -9   70.59    5.32   0
   3   0  -7  241.12    6.05   0
   4   3   0  195.11    5.54   0
   4   5  -7   16.85    4.49   0
   5   3  -7  163.41    6.89   0
   2   6  -2  357.80    8.50   0
   4   5  -4  115.03    6.76   0
   5   1  -4  369.07    9.18   0
   5   2  -8   27.57    5.52   0
   2   5   0  176.60    5.84   0
   5   1  -5  138.67    7.66   0
   4   3  -1   21.20    3.91   0
   4   4  -2  399.97    8.47   0
   5   2  -5  130.20    6.84   0
   2   6  -7   67.35    4.83   0
   2   6  -6   88.82    5.24   0
   2   6  -5   98.50    5.84   0
   2   6  -4  136.86    6.40   0
   3   5  -2  310.25    8.04   0
   4   2 -11   40.95    5.52   0
   4   4  -8   47.47    4.82   0
   4   4  -3  178.98    7.11   0
   1   6  -8   29.92    4.36   0
   1   6  -3   31.59    5.31   0
   3   5  -8  109.68    5.01   0
   2   5  -1   99.39    5.43   0
   3   5  -3  334.89    8.10   0
   4   4  -7  131.14    6.22   0
   2   5 -10    6.49    3.57   0
   4   1 -11   48.84    6.18   0
   4   4  -6  175.40    6.91   0
   1   6  -7   20.87    4.48   0
   1   6  -4   49.64    5.39   0
   1   6  -5   22.31    4.97   0
   3   4 -10    8.84    3.82   0
   3   5  -6  126.70    5.23   0
   4   3  -3   20.70    3.69   0
   2   5  -2   89.46    5.59   0
   2   5  -9   13.48    3.78   0
   4   2  -3  676.57    8.80   0
   4   3  -8   13.77    5.45   0
   4   3  -4   96.00    6.02   0
   4   1 -10   41.94    6.13   0
   4   3  -7   23.32    6.38   0
   2   5  -3   42.39    5.41   0
   3   3 -11   38.67    4.58   0
   3   4  -9   22.90    4.62   0
   4   2  -9  273.66    7.71   0
   1   5 -10   85.11    4.60   0
   1   5  -2  889.18   10.38   0
   2   5  -8   27.57    5.10   0
   3   2 -12   20.27    4.55   0
   4   2  -4  731.75    9.58   0
   2   4 -11   57.04    4.30   0
   2   5  -4   21.78    5.63   0
   3   4  -8   47.29    5.48   0
   4   1  -9   46.51    7.32   0
   4   2  -8  146.54    7.27   0
   4   2  -5  416.49    8.58   0
   4   2  -7  655.09   10.65   0
   4   2  -6  343.69    8.60   0
   1   4 -12    7.60    3.28   0
   3   4  -7   21.76    4.38   0
   3   4  -5  116.47    6.59   0
   4   1  -8   43.91    6.61   0
   4   1  -5  340.03    7.74   0
   1   5  -3  502.79    8.69   0
   3   3 -10   80.43    5.70   0
   4   1  -7   96.56    6.81   0
   4   1  -6  281.80    8.02   0
   0   5 -10   21.97    4.22   0
   2   4 -10   54.68    5.05   0
   1   5  -8   78.17    5.70   0
   1   5  -4  574.30    9.61   0
   3   0 -12   28.15    6.57   0
   3   3  -9  119.62    6.94   0
   1   5  -7  189.20    7.16   0
   1   5  -5  379.26    8.52   0
   2   4  -9  155.60    6.91   0
   3   3  -4  814.10    9.71   0
   0   5  -9   80.76    5.35   0
   1   5  -6  121.81    6.73   0
   3   3  -5  490.80    8.88   0
   1   2 -14   11.58    4.14   0
   2   4  -4  672.59    9.48   0
   3   1 -11  119.10    7.15   0
   3   3  -7  197.45    7.93   0
   3   3  -6  489.55    9.54   0
   0   5  -8   56.40    6.55   0
   2   3 -11   13.13    5.17   0
   2   4  -7  423.07    9.35   0
   3   0 -11   33.71    6.62   0
  -1   4 -12    4.68    3.75   0
   0   5  -7   84.84    6.39   0
   0   5  -6   80.17    6.39   0
   1   4 -10    0.22    5.13   0
   2   3 -10   42.85    6.30   0
   3   1 -10  184.48    8.45   0
   3   2  -5  180.52    6.12   0
   1   3 -12   52.63    5.43   0
   3   2  -7   66.72    6.95   0
   3   2  -6  154.22    6.94   0
   1   4  -9   66.74    6.76   0
   3   0 -10   16.58    7.14   0
   2   0 -13  179.19    7.75   0
   2   3  -9   61.10    7.15   0
   3   1  -9  415.27   10.46   0
   1   2 -13    7.78    4.66   0
   1   4  -8   83.47    7.36   0
   2   2 -11  159.92    7.91   0
  -1   4 -11   31.53    4.98   0
   2   1 -12   28.77    6.57   0
   2   3  -8  127.22    8.13   0
   3   0  -9  367.91   10.58   0
  -2  -4 -10  378.03   11.08   0
  -1  -7 -11   72.14    6.07   0
   0  -4 -11  221.68    9.30   0
   2  -2  -8  627.17   11.40   0
   3  -7  -9  110.88    6.32   0
   3  -4  -9   84.09    9.53   0
   3  -3  -8  344.40   11.89   0
   4  -4  -7  276.05   11.59   0
   0  -3 -10  118.36    7.64   0
   1  -5 -11  187.30    8.90   0
   2  -4 -10   73.41    9.29   0
  -1  -5 -11  107.02    7.30   0
   1  -8 -10   27.98    4.73   0
   1  -6 -11   86.63    6.83   0
   2  -7 -10   57.08    5.53   0
   0  -5 -11   86.79    8.62   0
   2  -8  -9   83.14    4.86   0
   3  -5  -9  178.28   10.50   0
   4  -6  -7  123.49    8.68   0
   4  -5  -7  176.99   10.56   0
   0  -6 -11  160.81    7.33   0
   2  -5 -10   39.39    9.07   0
  -2  -5 -10   55.98    8.29   0
   1  -4 -10   22.82    8.49   0
  -1  -4 -10   58.69    8.80   0
   1  -3  -9  284.00    9.72   0
   3  -3  -7  384.47   12.72   0
   4  -4  -6  163.31   12.49   0
   0  -4 -10  230.88    9.90   0
   3  -7  -8   63.14    7.10   0
  -2  -4  -9  437.65   11.37   0
   0  -3  -9   94.00    7.16   0
   1  -7 -10  108.49    6.14   0
   2  -3  -8  250.29   10.11   0
  -1  -7 -10  171.54    6.95   0
  -1  -5 -10  271.51    9.72   0
   1  -6 -10   -1.87    6.96   0
   2  -7  -9   67.39    6.59   0
   4  -5  -6  252.34   12.97   0
  -1  -8  -9   22.84    4.53   0
   0  -5 -10  178.84   10.07   0
  -2  -7  -9   44.85    6.54   0
   2  -6  -9  288.50   11.09   0
   0  -8  -9   93.64    5.57   0
   1  -4  -9   77.99    8.41   0
   3  -8  -6    4.08    5.28   0
   3  -4  -7  275.50   12.41   0
   3  -3  -6  793.28   15.28   0
  -2  -5  -9  213.34    9.80   0
   1  -3  -8  475.96   10.27   0
   3  -7  -7  139.16    8.29   0
  -2  -6  -9  177.62    9.33   0
   0  -4  -9  433.41   11.01   0
   2  -4  -8  288.30   11.33   0
   1  -5  -9  306.60   11.11   0
   3  -5  -7  126.81   11.44   0
  -2  -4  -8  320.98    9.89   0
  -1  -7  -9  193.04    7.47   0
   1  -8  -8   47.29    5.67   0
   1  -6  -9   66.26    7.86   0
   2  -8  -7  151.13    6.34   0
   2  -7  -8   86.12    7.23   0
   3  -6  -7  137.05   10.20   0
   2  -5  -8   37.98   10.07   0
   3  -8  -5   35.44    5.63   0
  -1  -8  -8   18.92    4.50   0
   0  -5  -9   93.98    8.77   0
   1  -9  -6   73.40    4.35   0
  -2  -8  -7  166.98    6.68   0
  -2  -7  -8   34.89    5.98   0
   0  -8  -8  105.71    5.72   0
   1  -4  -8  184.70    8.33   0
  -2  -5  -8   89.48    7.80   0
   0  -9  -6   26.89    3.63   0
   1  -7  -8  151.46    6.91   0
   1  -5  -8  400.43   10.88   0
   2  -7  -7   40.11    6.93   0
   3  -8  -4   59.92    5.70   0
   3  -6  -6   52.17    8.96   0
  -1  -7  -8  262.88    7.88   0
   1  -9  -5   71.01    5.01   0
   1  -6  -8   60.19    7.79   0
  -1  -8  -7   22.54    4.23   0
   2  -6  -7  359.10   11.27   0
   3  -7  -5  230.60    8.97   0
  -1  -9  -5   89.31    4.67   0
  -1  -5  -8  364.71    9.15   0
   0  -8  -7  174.87    6.45   0
   0  -5  -8  152.05    8.07   0
   3  -4  -5   95.77    8.58   0
  -2  -8  -6  150.70    6.05   0
  -2  -7  -7  104.60    6.58   0
   1  -4  -7  236.05    7.67   0
   3  -8  -3   50.43    5.41   0
   1  -7  -7  187.59    7.10   0
   2  -8  -5  168.85    6.38   0
   3  -6  -5   55.97    8.58   0
   1  -8  -6   47.30    5.54   0
   3  -5  -5  314.94   11.93   0
  -2  -6  -7  312.09    9.21   0
  -2  -5  -7  307.40    8.61   0
   1  -5  -7  382.55    9.91   0
   3  -7  -4  221.45    8.57   0
  -1  -9  -4  123.33    4.71   0
  -1  -8  -6   52.60    4.53   0
  -1  -7  -7  255.57    7.70   0
   2  -6  -6  276.49   10.42   0
   2  -5  -6   45.54    7.83   0
   3  -8  -2   94.69    5.63   0
   0  -9  -4   48.32    3.67   0
   0  -8  -6  133.98    5.84   0
  -1  -5  -7  487.93    9.21   0
   0  -5  -7   77.77    6.64   0
   1  -8  -5   51.63    5.35   0
   1  -7  -6  188.35    7.26   0
  -1  -9  -3  103.96    4.53   0
   3  -7  -3  208.32    8.86   0
   3  -5  -4  303.90   11.35   0
   0  -9  -3   31.81    3.61   0
   1  -9  -2   90.43    4.77   0
   3  -8   0   44.66    5.11   0
  -1  -7  -6  199.99    7.26   0
   0  -7  -6  137.50    8.90   0
   1  -5  -6  722.57   12.02   0
   2  -8  -3  223.48    7.25   0
   2  -6  -5  349.95   10.88   0
  -1  -7 -12   62.66    5.87   0
  -1  -3 -11  118.22    8.88   0
   4  -4  -7  238.09   12.09   0
   3  -7  -9  118.67    7.16   0
  -1  -5 -12   94.55    7.07   0
   4  -5  -7  161.09   10.37   0
  -1  -6 -12   67.20    5.90   0
   1  -4 -11  187.66   10.14   0
   1  -2  -9  156.86    7.97   0
   2  -2  -8  586.02   11.68   0
   2  -4 -10   87.94   10.25   0
   3  -6  -9   76.22    8.04   0
  -2  -7 -11    7.89    6.09   0
   1  -7 -11   93.23    5.49   0
   2  -7 -10   61.12    5.98   0
   2  -3  -9  355.35   11.56   0
   4  -5  -6  367.15   13.86   0
  -2  -5 -11   27.28    7.51   0
  -1  -4 -11  213.00    9.51   0
   1  -6 -11   94.98    7.39   0
   3  -7  -8  113.78    7.52   0
   3  -4  -8   91.39   10.55   0
  -1  -3 -10  442.00   10.63   0
   2  -6 -10  135.76    8.87   0
   0  -7 -11   49.55    5.19   0
   0  -5 -11   77.68    8.42   0
   2  -4  -9  510.90   13.37   0
   0  -8 -10   59.80    5.45   0
   0  -6 -11  168.31    7.85   0
   1  -3  -9  305.45    9.91   0
   2  -3  -8  229.27    9.77   0
  -1  -8 -10    9.60    3.47   0
  -1  -6 -11  105.88    6.59   0
   2  -7  -9   76.00    6.95   0
   3  -7  -7  160.09    9.13   0
   3  -3  -6  761.36   14.37   0
   1  -5 -10  156.93    9.85   0
   3  -4  -7  239.31   11.47   0
   0  -4 -10  196.78    9.24   0
   1  -8  -9   88.12    5.07   0
   1  -6 -10    7.68    7.16   0
   2  -5  -9   40.17    7.37   0
  -2  -7 -10   34.05    5.36   0
  -1  -3  -9  504.54   10.09   0
  -2  -5 -10   61.66    6.78   0
   3  -6  -7  146.39    9.51   0
   0  -5 -10  181.25    9.32   0
   1  -4  -9   62.82    8.28   0
   2  -3  -7  280.54    9.24   0
  -1  -5 -10  292.30    9.98   0
   0  -6 -10  159.16    8.06   0
   3  -7  -6  281.31    9.25   0
   3  -4  -6  110.54    9.75   0
   0  -8  -9  108.45    6.05   0
   1  -7  -9  171.62    7.27   0
  -2  -4  -9  449.30   11.83   0
   1  -8  -8   57.08    5.14   0
   1  -5  -9  294.75   10.93   0
   2  -6  -8  194.16   10.45   0
   2  -5  -8   43.13    9.23   0
   0  -9  -7   16.14    4.16   0
   0  -4  -9  434.52   10.26   0
   1  -9  -6   55.82    4.64   0
   1  -6  -9   78.79    8.30   0
   3  -6  -6   54.35    8.47   0
   3  -5  -6  423.83   13.54   0
   3  -7  -5  247.52    9.01   0
  -2  -7  -9   42.81    5.34   0
   2  -8  -6  173.33    6.98   0
   2  -4  -7  497.94   12.08   0
   0  -5  -9   92.15    8.14   0
  -2  -5  -9  183.98    7.85   0
   0  -6  -9  184.61    8.49   0
   1  -8  -7   95.73    5.75   0
   2  -5  -7   29.67    8.65   0
   3  -6  -5   65.30    8.75   0
   3  -5  -5  385.46   12.45   0
  -1  -6  -9  117.44    7.08   0
   0  -9  -6   19.27    3.42   0
   1  -6  -8   61.90    8.30   0
   1  -5  -8  399.63   11.33   0
   0  -4  -8  388.84    9.01   0
   2  -8  -5  170.48    7.06   0
  -2  -4  -8  324.27    9.80   0
  -1  -4  -8  145.21    6.79   0
   0  -7  -8   74.58    6.42   0
  -2  -7  -8   39.31    5.34   0
   0  -8  -7  171.75    6.33   0
   1  -8  -6   34.54    5.36   0
   1  -7  -7  185.82    8.00   0
   3  -6  -4  104.84    9.10   0
   3  -5  -4  306.18   11.31   0
  -3  -8  -6   46.51    4.70   0
  -2  -8  -7  170.04    5.36   0
   0  -9  -5   36.39    3.63   0
   0  -6  -8  251.17    8.99   0
   2  -8  -4  202.29    7.08   0
  -2  -6  -8  163.19    7.40   0
  -2  -5  -8   93.80    6.38   0
  -1  -8  -7   18.82    4.22   0
  -1  -9  -5  100.68    4.16   0
   2  -7  -5   96.31    7.48   0
   3  -6  -3   72.97    8.00   0
   0  -9  -4   38.83    3.55   0
   0  -7  -7   36.98    5.65   0
   1  -9  -2  105.12    4.53   0
   1  -8  -5   53.68    5.23   0
   2  -8  -3  208.88    7.04   0
   4   0   8  529.93   11.58   0
   6  -3   4   55.59    7.72   0
   6  -2   6  257.34    8.65   0
   6   0   8  156.84    7.73   0
   7  -2   5   34.53    5.57   0
   4  -2   6  256.68    9.24   0
   5  -4   1   72.20    9.39   0
   6  -1   7  113.71    7.93   0
   8  -2   2  173.82    6.82   0
   4  -3   4  125.75    8.64   0
   5  -3   4  310.69   10.96   0
   5  -2   6  111.26    8.38   0
   7  -1   6  138.05    6.78   0
   7   0   7   80.90    6.52   0
   8   1   6   25.00    4.33   0
   4  -4   0  420.70   13.75   0
   5  -4   0  231.51   11.53   0
   5  -4  -1   83.67   11.31   0
   6  -3   3   32.72    7.96   0
   6   1   8   95.85    7.54   0
   7  -2   4   40.73    6.37   0
   7  -3  -2  205.72   10.55   0
   7  -3   0  241.84    9.71   0
   5   1   8  216.56   11.04   0
   7  -3  -1  223.74    9.61   0
   7   1   7  207.37    7.75   0
   4  -2   5  321.80    9.71   0
   5  -2   5   23.32    7.94   0
   6   0   7  326.08   10.11   0
   8  -1   3   42.15    5.33   0
   7  -2   3   51.37    6.81   0
   7  -1   5  144.09    7.46   0
   8   2   5  112.49    6.09   0
   5  -1   6  263.49    9.31   0
   5   0   7  219.91    9.45   0
   6  -3   1   47.68    8.82   0
   6  -2   4  188.67    9.29   0
   6   1   7   88.73    7.61   0
   6  -1   5  100.13    8.67   0
   7  -1   4  143.93    7.61   0
   5  -3   1  173.65   10.42   0
   6  -3  -1  116.20    9.85   0
   6  -2   3  185.96    9.37   0
   6   2   7  262.05    9.38   0
   7   0   5  134.75    7.56   0
   5   1   7  298.22   10.86   0
   8  -1  -1   61.77    6.17   0
   5  -1   5  770.00   11.94   0
   5  -3   0  403.48   13.02   0
   7  -2   0   82.32    8.27   0
   7  -1   3  184.48    8.25   0
   8   0   2  187.99    6.67   0
   7  -2  -3  120.12    8.58   0
   7  -2  -1  141.10    8.59   0
   8   1   3   52.65    5.12   0
   7  -2  -2  171.72    8.79   0
   7   0   4  142.99    7.94   0
   6   0   5  335.08   10.30   0
   8   0   1   88.30    6.41   0
   5  -3  -2  288.45   13.50   0
   8   1   2   32.21    5.27   0
   5  -2   2  133.32    8.07   0
   5  -1   4  484.78   10.32   0
   7   2   5   64.64    6.25   0
   7   3   5  161.19    7.21   0
   6  -1   3  148.00    8.73   0
   7   1   4  219.16    8.43   0
   8   2   2  192.25    6.70   0
   6   0   4  319.77    9.95   0
   6   1   5  239.67    9.13   0
   7  -1   0  210.65    9.75   0
   8   1  -1   22.92    5.03   0
   8   2   1  185.66    6.78   0
   6  -2  -2  210.04    9.90   0
   6  -1   2  177.79    8.70   0
   7  -1  -4  266.90    9.27   0
   7   0   2  186.88    8.18   0
   7   3   4  353.43    8.48   0
   6  -2  -4  234.74   10.77   0
   6  -2  -3  357.84   11.56   0
   7  -1  -3  273.18    9.36   0
   7  -1  -2  314.89   10.44   0
   7   1   3  324.19    9.57   0
   8   2   0  207.96    6.71   0
   5  -2   0  345.94   10.47   0
   6   2   5  241.31    9.23   0
   8   2  -1  259.61    7.01   0
   6   0   3  578.01   11.60   0
   6   3   5  143.96    8.31   0
   7   0   1   67.98    7.58   0
   7   4   3  137.82    6.62   0
   5  -2  -1   67.15    8.70   0
   5  -1   2  571.86   10.70   0
   7   1   2  484.22   10.49   0
   7   0   0  104.48    8.49   0
   5   2   5   71.12    7.29   0
   7   0  -5   51.77    7.13   0
   6   0   2  813.47   13.24   0
   6   2   4  310.60   10.38   0
   4  -6   0  299.67    8.23   0
   2  -6   1  257.63    7.81   0
   2  -5  -2  457.41    8.64   0
   3  -6   0   45.61    6.11   0
   4  -5  -2  203.62    8.96   0
   5  -6   2   65.13    4.95   0
   5  -6   5   21.64    3.48   0
   2  -6   4  337.53    8.26   0
   3  -6   6   33.92    4.67   0
   4  -6   6   69.27    4.38   0
   5  -6   4   22.28    4.00   0
   6  -5   1   69.49    5.95   0
   1  -5   6  354.40    9.06   0
   2  -6   3  266.60    7.77   0
   2  -5   8   39.28    5.32   0
   3  -6   1   45.75    5.90   0
   3  -6   5   50.69    5.26   0
   4  -6   5   68.41    4.96   0
   3  -6   2   81.21    6.11   0
   3  -6   4   69.51    5.87   0
   4  -6   2  213.29    7.50   0
   4  -6   3  200.38    6.83   0
   1  -5   1  555.74    8.65   0
   1  -5   2  781.28   10.15   0
   5  -5   0  410.53    9.42   0
   6  -5   3   78.39    5.76   0
   2  -5   7   26.93    5.55   0
   3  -5  -1  252.69    7.71   0
   3  -5   8  254.50    6.52   0
   2  -5   0  167.71    6.06   0
   5  -4  10   19.53    2.95   0
   2  -5   6  164.83    7.30   0
   2  -4   9  259.19    7.72   0
   4  -5   0  128.29    7.55   0
   5  -5   1  213.24    7.61   0
   1  -4   7  169.85    7.99   0
   4  -4  10  129.31    4.63   0
   2  -5   2  276.87    7.31   0
   4  -5   7   23.02    4.55   0
   5  -5   2  240.16    7.78   0
   5  -5   6   54.29    4.82   0
   2  -5   3  136.70    6.26   0
   2  -5   4  190.81    7.08   0
   3  -5   1  341.03    8.21   0
   4  -5   6   32.58    5.28   0
   5  -5   4  244.98    7.46   0
   2  -4   8  252.24    7.98   0
   3  -5   2  315.36    7.96   0
   3  -5   5  291.12    8.18   0
   3  -4   9   17.35    4.91   0
   4  -5   2   59.00    6.60   0
   3  -5   3  394.06    8.67   0
   4  -5   3   12.98    5.88   0
   4  -5   5   89.21    6.06   0
   4  -4  -1  260.74    9.10   0
   5  -3  11  141.79    4.22   0
   4  -5   4   10.87    4.34   0
   6  -4   7   92.47    4.14   0
   6  -3  10   12.65    2.92   0
   4  -3  11   89.26    4.43   0
   6  -4   6  131.63    4.88   0
   4  -4   0  402.12    9.43   0
   4  -4   8  187.83    6.45   0
   5  -4   1   60.73    6.57   0
   7  -3   5  122.35    5.30   0
   2  -3   9  174.05    7.34   0
   3  -3  10   68.64    5.52   0
   5  -4   2   98.64    6.86   0
   4  -4   1  518.02   10.14   0
   4  -4   7  253.77    7.34   0
   3  -4   6   86.38    6.34   0
   5  -4   4   43.51    6.44   0
   5  -4   5   23.49    4.53   0
   3  -4   2  109.40    4.47   0
   3  -4   5  105.44    6.19   0
   5  -3   0  360.24   11.02   0
   6  -3   2   62.12    6.73   0
   2  -3   8   11.20    5.44   0
   3  -4   3  132.31    5.73   0
   3  -4   4  201.72    6.68   0
   4  -4   3  435.15    9.35   0
   4  -4   4  484.26    9.43   0
   7  -2   8   21.13    3.23   0
   3  -2  11  127.38    5.80   0
   5  -2  11   29.31    3.41   0
   6  -3   7   32.82    4.48   0
   6  -3   3   45.56    5.92   0
   6  -2  10   89.40    3.62   0
   7  -1  10   75.76    3.37   0
   6  -3   4   58.67    6.11   0
   7  -2   4   40.36    5.33   0
   5  -3   1  178.64    7.59   0
   5  -3   8  187.61    6.01   0
   7  -2   5   36.49    4.72   0
   7  -2   6   34.54    4.46   0
   5  -1  12   86.47    4.07   0
   4  -3   8  101.80    6.08   0
   5  -3   7  184.05    6.32   0
   6  -2   9  106.83    4.32   0
   5  -3   2  153.51    5.97   0
   5  -2  10   26.24    3.89   0
   6  -1  11   33.20    2.97   0
   7  -1   9  135.27    3.96   0
   3  -7   3  150.88    5.58   0
   4  -6  -1  177.05    7.55   0
   1  -6   0  212.71    7.53   0
   1  -6   6   52.65    5.77   0
   2  -6  -1  361.37    9.10   0
   3  -6   8   31.99    3.92   0
   5  -6   1   38.82    5.43   0
   4  -5  -2  209.35    9.34   0
   1  -6   5   84.68    6.21   0
   4  -6   0  298.95    8.32   0
   5  -6   2   69.02    5.23   0
   5  -6   6   45.02    4.07   0
   1  -6   2  274.36    8.06   0
   1  -6   4  225.31    7.97   0
   2  -6   0  384.66    9.13   0
   3  -6   0   50.26    6.42   0
   3  -5  -2  311.36    9.04   0
   6  -5   2   80.28    5.99   0
   0  -5   4  159.11    7.67   0
   2  -6   6  221.25    6.85   0
   5  -6   4   23.73    4.05   0
   0  -5   3  278.74    7.94   0
   2  -6   1  252.37    7.85   0
   5  -5   0  416.44   10.25   0
   2  -6   2  307.04    8.18   0
   3  -6   1   49.99    6.24   0
   4  -6   6   55.71    4.19   0
   4  -5  -1   93.45    7.81   0
   6  -5   3   84.04    5.65   0
   2  -6   3  268.11    7.83   0
   2  -6   4  302.46    8.08   0
   2  -5  -1  154.49    6.27   0
   3  -6   6   39.34    4.92   0
   3  -6   2   76.51    6.21   0
   3  -5  -1  236.98    7.25   0
   4  -6   3  207.12    7.26   0
   4  -6   4  164.13    6.29   0
   4  -6   5   63.82    4.85   0
   6  -5   4   68.67    5.08   0
   3  -6   3   52.77    5.56   0
   3  -6   4   68.98    5.79   0
   3  -6   5   53.44    5.29   0
   1  -5   1  524.58    8.12   0
   3  -5   9  141.25    5.05   0
   5  -5   1  222.64    7.96   0
   1  -5   6  339.59    8.68   0
   2  -5   0  135.18    5.79   0
   2  -5   8   39.47    5.84   0
   3  -4  11   60.46    4.92   0
   5  -5   8   38.98    3.41   0
   1  -5   2  827.03   10.00   0
   1  -5   5  332.02    8.15   0
   5  -5   2  216.16    7.23   0
   4  -4  -1  326.78   10.27   0
   2  -4  10   69.86    5.19   0
   4  -5   1   66.16    6.37   0
   4  -5   8   26.13    3.60   0
   5  -5   3  156.62    6.58   0
   3  -5   1  355.30    7.98   0
   5  -4  10   28.21    2.71   0
   2  -5   2  254.49    6.63   0
   2  -5   6  156.53    6.67   0
   6  -4   8   66.45    3.36   0
   1  -4   8   30.22    5.99   0
   4  -5   7   28.41    4.29   0
   2  -5   4  174.77    6.38   0
   4  -5   3   13.12    5.81   0
   7  -3   6   84.94    4.65   0
   3  -5   3  376.44    8.10   0
   3  -5   6  231.32    6.87   0
   4  -5   4    2.50    5.46   0
   4  -4   0  376.79    8.86   0
   4  -4  10  126.20    4.48   0
   1  -4   7  146.21    6.79   0
   3  -5   4  236.08    7.17   0
   5  -4   9   37.51    3.25   0
   6  -3  10   18.71    2.53   0
   5  -4   2  109.42    6.37   0
   1  -4   6   97.48    5.73   0
   1  -4   5  233.76    6.51   0
   2  -4   8  238.35    6.95   0
   3  -4   9   19.79    4.52   0
   4  -4   9  177.31    5.14   0
   5  -4   8   41.36    3.85   0
   5  -3  11  135.74    3.55   0
   5  -4   3   85.41    6.20   0
   5  -4   7   86.47    4.94   0
   6  -3   9   36.40    3.08   0
   3  -3  11  145.29    5.26   0
   4  -3  11   81.69    3.94   0
   5  -4   5   22.91    5.33   0
   5  -4   6   72.95    5.48   0
   6  -3   3   43.41    6.15   0
   7  -2   8   22.47    3.78   0
   5  -3   1  199.57    8.36   0
   7  -2   5   34.47    5.03   0
   2  -4   6  416.69    8.61   0
   2  -3  10   39.39    5.41   0
   3  -4   2  119.44    4.44   0
   4  -4   3  460.51    9.52   0
   4  -4   7  263.45    7.20   0
   5  -3  10  159.03    4.32   0
   6  -3   4   51.44    5.94   0
   7  -2   6   31.19    4.44   0
   7  -2   7   28.59    4.02   0
   2  -4   4  589.66    8.38   0
   3  -4   6   92.42    6.19   0
   4  -4   5  238.04    7.98   0
   6  -3   5   10.51    5.10   0
   3  -4   5  107.11    6.08   0
   0  -8  -4  125.70    6.22   0
   1  -7  -5  235.95   10.17   0
  -3  -7  -1  223.68    8.66   0
   0  -9   0   15.08    3.64   0
  -1  -8  -3   56.11    5.67   0
   2  -7  -4   89.94    8.27   0
  -2  -8   0  121.99    6.17   0
  -1  -6  -5  218.71    8.92   0
  -3  -6  -2  140.51    8.47   0
  -2  -8   1  135.76    6.00   0
   1  -6  -5   51.99    7.36   0
  -2  -5  -4  137.82    6.19   0
   1  -7  -4  292.52   11.30   0
   0  -7  -4  148.48    7.43   0
   2  -6  -4  276.61   10.71   0
  -1  -7  -3  320.21    9.32   0
   2  -8  -1  242.14    7.24   0
   2  -7  -3  111.30    7.79   0
  -3  -5  -1  347.72    9.87   0
  -3  -6   1   48.75    6.79   0
  -1  -8   0  156.17    5.76   0
  -1  -8   1   58.93    4.69   0
   0  -8  -1  111.24    5.94   0
   0  -7  -3  161.22    6.96   0
   0  -6  -4  518.48   10.66   0
   1  -8  -1   26.53    5.11   0
  -2  -7   0  104.20    6.50   0
  -1  -8   2   63.28    4.38   0
   2  -7  -2   92.87    6.81   0
  -2  -7   1   63.82    5.68   0
  -2  -7   4   54.48    5.28   0
   1  -8   0   25.96    4.57   0
   2  -6  -3  222.87    8.93   0
  -2  -7   2   89.36    5.82   0
  -3  -5   1  275.04    9.30   0
   0  -7  -2  131.12    6.63   0
   2  -8   2  102.12    5.09   0
   0  -8   2  125.21    4.73   0
   0  -8   3   73.08    4.11   0
   0  -6  -3  618.80    9.52   0
   1  -8   1   17.25    3.98   0
   1  -8   2   24.36    3.84   0
  -2  -6   0  447.34    9.11   0
  -1  -7   0  105.36    6.24   0
  -1  -6  -2   20.39    4.17   0
   1  -8   4   17.45    3.13   0
  -1  -7   6   68.44    4.73   0
  -2  -5  -1  113.44    4.70   0
   1  -7  -1  317.35    7.75   0
   2  -6  -2  377.12    9.78   0
   3  -7   1  159.57    6.12   0
  -2  -6   1  363.79    8.61   0
   0  -6  -2  695.34    9.78   0
  -1  -6  -1   80.86    5.71   0
   0  -7   0  105.22    5.88   0
   2  -7   0   49.72    5.26   0
  -2  -6   2  298.21    8.13   0
  -1  -7   4  150.40    5.47   0
  -2  -6   3  192.72    6.92   0
  -2  -6   4  103.65    6.17   0
   3  -7   2  190.46    5.91   0
   0  -7   1  105.86    5.91   0
  -1  -6   0  522.03    8.71   0
   0  -6  -1  746.89   10.29   0
   2  -7   1  100.64    5.91   0
   2  -6  -1  419.61   10.09   0
   3  -7   3  151.11    5.53   0
   3  -6   0   46.96    6.34   0
   0  -7   6   14.00    3.63   0
   3  -7   5   89.03    5.00   0
   0  -7   3   83.99    5.23   0
   2  -7   7   16.32    3.39   0
  -1  -6   1   60.73    5.61   0
   0  -7   4   46.09    4.60   0
  -2  -5   2   63.11    5.87   0
   2  -7   3   39.67    5.33   0
  -1  -6   7   24.17    4.44   0
   0  -6   9   58.75    3.97   0
   1  -7   6  137.45    5.00   0
   2  -7   4   28.73    4.70   0
   2  -6   0  409.72    9.26   0
   3  -6   1   50.74    6.35   0
   1  -7   4  128.48    5.62   0
   1  -7   5  113.88    5.23   0
   1  -6   0  205.36    6.95   0
  -2  -5   3   29.25    5.97   0
  -2  -5   6   13.41    6.27   0
  -1  -6   6   27.86    5.06   0
   4  -6   7   80.56    4.80   0
  -2  -5   4   26.94    6.48   0
  -2  -5   5  100.41    7.43   0
   1  -2  -5  202.14    4.04   0
   1  -1  -4 1862.41    4.73   0
  -3   1   2 1634.29    7.14   0
  -3   2   1  530.60    6.48   0
  -2  -2   2 1957.92    9.51   0
   1  -3  -5  810.52    8.74   0
   1  -2  -3  978.51    5.70   0
   0   1  -6   63.61    4.81   0
   1  -3  -4  917.22    8.02   0
   0  -3   0  103.29    3.26   0
   1  -1  -3 2076.04    4.73   0
  -3   2   0  460.22    7.16   0
   1  -3  -3  951.05    7.45   0
   0  -2   1  114.91    2.58   0
  -2   2  -2 3343.75   15.71   0
  -2   1   1  806.86    3.94   0
  -1   1   0 2982.50    6.88   0
   0  -3   1  594.64    5.63   0
  -3   1   1  397.91    4.05   0
  -2  -2   3 1584.14    8.99   0
   1  -3  -1 1252.67    7.85   0
   1  -2  -1  940.79    5.21   0
   0   0  -7 1741.21   13.58   0
  -2  -1   3  209.81    2.16   0
  -1  -2   3  931.28    6.23   0
  -1   1  -1 4775.34    9.92   0
  -3   0   2 1099.69    4.79   0
  -3   1   0 1156.28    8.74   0
  -1   1  -4  921.90    7.23   0
  -1   1  -2 3573.83   10.10   0
   0   0  -6 1072.34    7.93   0
   1  -1  -1 2977.02    6.67   0
   0  -1   2 2499.39    6.66   0
  -1  -1   3 1079.72    4.19   0
  -2   1  -3  449.66    5.98   0
  -2   1  -2 1366.06    8.01   0
   2  -3  -3  206.74    5.24   0
   2  -3  -2  632.92    7.17   0
  -2  -2  -2 4164.23   10.37   0
   1  -1  -4 2016.43    9.48   0
   0   2   1 3405.55    9.02   0
   1  -1  -3 2432.06    8.41   0
  -1  -3  -4  877.02    7.49   0
   0  -1  -1  418.11    2.50   0
   2   0  -5  751.94    7.44   0
  -1   1   1 3136.55    7.75   0
   1  -2  -4  872.31    7.02   0
   2   0  -4 2385.78    9.80   0
  -1  -3  -3 1092.69    7.80   0
   0  -2  -2   34.22    2.76   0
   1  -1  -2 3144.26    8.43   0
   2  -1  -5  103.61    4.10   0
   1   3  -2  935.88    7.18   0
  -3   0   0 1556.24    7.10   0
   1  -2  -3  783.96    5.79   0
   0   2   0 9691.39   14.82   0
   2  -1  -4  366.15    5.06   0
   2   1  -3  173.83    1.89   0
   2   0  -3 1397.49    6.17   0
  -2   2   0 4459.62   13.50   0
   1   3  -3  912.22    9.38   0
  -1  -3  -2 2343.56    9.60   0
   2  -1  -3  256.40    3.89   0
  -2  -3  -2  325.86    4.17   0
   0  -2  -1 3580.80    9.31   0
   0   3  -2  756.36    8.21   0
   0  -3  -2  608.70    5.45   0
   1  -1  -1 2915.22    7.33   0
   1   0   0 1379.68    4.99   0
   1   4   3  602.74    7.47   0
   2  -2   1 1856.78    6.94   0
   2   2   1 2942.65   12.42   0
   0  -2   1  122.12    1.82   0
   1   1   0 2403.54    6.66   0
   0  -3   3  313.84    4.60   0
   2  -1   0  502.06    3.24   0
  -1   0   1 4066.67    6.23   0
   1   3   1 1270.53    5.69   0
   0  -3   4  414.25    6.22   0
   2   3   1  608.22    5.21   0
  -2   2   4 2987.55   10.60   0
   2   2   0 2854.79    8.84   0
   1   4   2   53.70    2.47   0
   3  -2   1  126.16    2.77   0
  -1  -1   2 2190.68    6.05   0
   2   0  -1  953.31    4.31   0
   2   1  -1  515.04    3.88   0
  -1  -1   3 1173.59    5.58   0
  -1   2   2 1039.22    2.96   0
  -1   0   2  584.86    3.18   0
   1   1  -1 3108.92    6.72   0
   2   2  -1 2204.56    8.98   0
   1   3   0 1731.35    7.44   0
   2  -1  -1  872.80    4.14   0
  -1   1   2 3122.00    6.50   0
   3  -2   0  562.58    4.90   0
   2  -2   0 4481.67    7.64   0
  -1   0   3   98.74    2.37   0
   0  -1   1  113.40    1.49   0
  -1   0  -3 1195.37    6.18   0
   0  -1   6   62.28    3.79   0
   0   0   4 4240.14    8.60   0
   1  -3  -2 1140.61    9.19   0
  -2   1   5  113.92    2.42   0
   1  -1   3 2861.91    9.75   0
   1  -1   1 4912.91   10.80   0
  -2  -1  -5  483.90    5.51   0
  -3   1   4  918.37   10.04   0
   1  -2  -2 1040.28    6.31   0
  -2   1   1  801.97    5.44   0
   1  -1   5  792.85    6.14   0
  -3   1   2 1965.05   12.10   0
  -2   1   2  478.15    4.00   0
  -2   1   3  216.43    3.05   0
   1  -1   6 1434.04    8.84   0
   0   0   6  984.16    4.75   0
   2  -2   1 1490.38   10.38   0
  -2  -1  -4   77.62    2.98   0
   2  -2   0 4243.99   15.56   0
   1  -2  -3  778.94    4.67   0
  -1   0  -1  323.26    2.29   0
   2  -1   3  373.63    4.74   0
  -3   0   0 1549.65   10.23   0
   1   0   5 1083.79    5.30   0
   2  -1   1  339.85    4.08   0
   1   0   2 4138.45    7.40   0
  -3   0   0 1382.94    7.37   0
  -1  -3  -3 1194.62    6.94   0
   0   2   6 1049.83    6.13   0
   1   1   3 1886.12    6.44   0
  -3   1   3  451.49    4.79   0
   0   2   5 1132.08    5.34   0
  -2   0   0 3218.62    7.87   0
  -3   0   1 1427.72    7.72   0
   2   0   2 1800.87    7.79   0
   1   2   6   44.65    2.61   0
   2   1   4   78.81    3.22   0
   3  -1   2  893.16    7.98   0
  -1   0   0 1331.79    3.27   0
   1   2   5  114.59    2.82   0
  -3   0   2 1167.01    7.70   0
   1   1   2 6095.94    9.96   0
   3  -2   1   97.83    4.54   0
   0   2   4  770.57    3.56   0
   2   1   3  926.92    6.06   0
  -2   0   1  921.72    4.13   0
   1   2   4  346.07    3.51   0
  -2   1   3  165.89    1.76   0
   3  -1   1 1963.68   10.20   0
   3   0   2  768.62    6.58   0
   2   1   2  741.96    4.83   0
  -2  -2   0 2476.07   10.04   0
   1   0   0 1267.35    3.29   0
   3  -2   0  552.01    5.97   0
  -2   1   4  397.04    3.16   0
   2  -2  -1 2855.10    6.22   0
   1   3   6  482.89    5.03   0
   1   1   1 3736.01    6.67   0
   2   2   3 1883.23    8.14   0
  -2  -3   6  325.14    7.11   0
   0  -5   1  247.77    5.82   0
  -1  -4   5  147.50    5.84   0
   0  -3   4  376.69    5.33   0
  -3  -2   7   59.57    6.75   0
  -1  -5   4  533.87    8.83   0
   0  -5   2  184.13    6.19   0
  -2  -2   7  562.20    9.16   0
  -1  -1   6  635.38    6.21   0
  -1   0   5   16.86    2.30   0
   0  -1   4  762.05    5.04   0
   0  -4   4  686.33    8.24   0
  -2  -3   7   90.43    4.98   0
  -2  -1   7  112.35    4.67   0
   0  -3   5   42.56    3.83   0
   1  -3   0 1777.92    9.08   0
  -1  -4   6   82.10    5.52   0
   0   0   2 5112.44    9.03   0
  -1  -2   7  334.78    6.63   0
   0  -4   5  514.01    7.85   0
   1  -4   0  509.76    6.66   0
   1  -4   1  104.07    4.48   0
   1  -3   2 1445.93    8.75   0
   0  -5   4  146.99    6.30   0
   0   0   3 5251.69   10.45   0
   1  -4   2  587.27    7.10   0
   1  -2   2  505.98    4.94   0
  -1  -1   7  424.70    6.01   0
  -1   0   6  138.01    3.45   0
   1  -4  -2  463.38    6.82   0
   1  -2   3  100.90    3.53   0
   0  -5   5   68.03    5.45   0
   0  -4   6  390.69    7.61   0
   1  -5   2  818.05   10.14   0
   1  -4   4  451.93    7.20   0
   1  -2  -1 1063.40    5.64   0
   1  -2   4  214.71    4.33   0
  -1  -3   8  338.92    7.78   0
   0  -3   7  172.48    5.86   0
   1  -5   3  494.86    8.71   0
   0  -4   7  284.32    7.19   0
   1  -5   4  264.83    7.32   0
   0  -1   7  465.15    5.81   0
   0   0   5 2698.92    9.40   0
   0  -2   8  575.56    7.74   0
   1  -6   2  285.56    9.43   0
   1  -4   6   88.05    5.18   0
   1  -2   6   43.68    3.86   0
  -1  -2   9  172.91    6.90   0
   0   0   6 1070.29    6.83   0
   1  -1   5  805.42    6.54   0
   1  -3   7  540.30    7.67   0
  -1   0   8   32.37    3.70   0
   2  -4   3  451.49    7.43   0
   2  -3   2  549.46    6.54   0
   2  -4   1  711.56    8.47   0
   2  -3   4   53.33    3.33   0
   0   0   7 1430.61    8.47   0
   2  -3   1  331.04    5.35   0
   2  -3   5  287.79    6.12   0
   2  -5   3  151.01    6.80   0
   2  -4   6  421.44    7.91   0
   2  -3   6  152.37    4.72   0
   2  -2   2 3191.27   12.52   0
   2  -2   5  689.29    7.21   0
   2  -3   0  100.73    4.02   0
   1   0   5 1190.76    6.73   0
   2  -4   7  276.12    6.65   0
   2  -3   8   13.03    4.14   0
   2  -1   4   61.12    3.59   0
   2  -1   5  608.00    6.34   0
   1  -1   9  592.65    7.28   0
   2  -2   8  255.91    6.18   0
   2  -1   6  474.72    6.12   0
   2  -1   7  334.24    5.83   0
   2  -3  -1  391.57    5.44   0
   2  -2   9  411.60    7.19   0
   2  -1   2 1260.05    7.01   0
   3  -4   4  182.82    6.81   0
   3  -4   5  116.26    6.19   0
   3  -3   4  792.77    9.16   0
   0   1   5  482.22    3.83   0
   3  -4   6   81.83    5.63   0
   3  -3   3  967.82    9.94   0
   0   1   4  749.16    4.16   0
   3  -3   2  803.74    9.22   0
   3  -3   7  249.11    6.69   0
   3  -2   5  207.71    5.68   0
   3  -2   6  254.82    5.26   0
   3  -2   7  204.65    6.01   0
   2   0   5  888.51    6.63   0
   2   0   6  542.56    5.83   0
   2  -1   1  344.88    3.96   0
   2   0   7 1123.74    8.31   0
   3  -2   8  226.25    6.24   0
   0   1   8  234.21    4.13   0
   2  -1  10  143.15    5.61   0
   2   0   4 1394.03    7.50   0
   3  -2   2  344.95    5.63   0
   3  -1   5  826.37    7.97   0
   3  -1   6  473.03    6.82   0
   3  -1   7  308.83    6.37   0
   1   0   1  302.28    2.59   0
   1   1   6  871.54    5.97   0
   2   0   9  912.56    9.13   0
   3  -1   8  453.77    7.54   0
   0   1   3  966.63    3.87   0
   1   1   8  328.69    5.13   0
   4  -3   5  315.05    8.02   0
   4  -3   6  236.66    7.25   0
   2   0  10  865.73    9.61   0
   4  -4   4  527.94   11.12   0
   4  -3   4  118.24    6.39   0
   3   0   7  123.25    4.65   0
   4  -2   7  333.01    7.41   0
   2   0   2 1671.28    7.02   0
   3   0   6   91.89    3.33   0
   3   0   8   31.67    4.48   0
   4  -2   4  400.17    6.83   0
   2   1   8   92.49    4.09   0
   3   0   4  435.47    5.38   0
   4  -1   6  137.06    5.60   0
   4  -1   7  119.75    5.46   0
   2   1   5  525.86    4.93   0
   4  -1   5  137.14    5.53   0
   4  -1   8   83.54    5.14   0
   3   0  10    8.26    3.35   0
   3  -2   0  380.92    5.08   0
   2   1   4   94.22    3.00   0
   2   1  10   71.22    4.95   0
   3   0   3   33.30    3.11   0
   4  -2   2  540.94    8.03   0
   2   0   1  543.30    4.08   0
   3   1   7  445.01    6.23   0
   4  -3   1  241.44    7.52   0
   4   0   7  485.58    7.50   0
   4   0   8  485.12    7.83   0
   3   1   6  610.87    6.63   0
   3   1   9  838.65    9.14   0
   4   0   9  243.03    6.23   0
   4   0   5  704.51    7.89   0
   2   1   3  915.10    5.38   0
   3   0   2  717.11    5.80   0
   3   1   5 1364.98    8.66   0
   3   1  10  328.19    7.11   0
   5  -3   4  321.95   10.01   0
   5  -2   5   34.38    5.51   0
   4  -1   2  141.77    4.62   0
   5  -2   4  108.14    6.82   0
   1   0   0 1607.61    4.28   0
   1   1   2 5726.28    9.57   0
   1   2   8   14.26    2.47   0
   3   1   4  913.28    6.87   0
   2   2   7  586.77    5.77   0
   2   2   8  490.80    5.82   0
   3  -1   0 1038.45    6.41   0
   4   1   8  136.83    5.50   0
   2   2   9  545.84    6.78   0
   4   0   3 1221.65    9.26   0
   4   1   7  114.97    5.13   0
   5  -2   3  160.49    7.21   0
   2  -1  -1  921.95    4.34   0
   2   2   6  791.07    6.14   0
   4   1   6  118.99    4.89   0
   5   0   7  204.58    6.23   0
   2   1   2  730.17    4.55   0
   3   0   1  203.65    3.50   0
   3   1   3  562.62    5.44   0
   5   0   6  144.74    5.89   0
   0   2   6 1041.84    5.19   0
   4  -1   1  291.67    5.35   0
   4   1   5   86.70    4.26   0
   3   2   7  457.26    6.08   0
   3   2   9  263.44    6.03   0
   5  -1   3  485.13    8.71   0
   5   0   5   62.86    5.22   0
   2   0   0 2911.19    7.49   0
   4  -2   0  553.04    7.44   0
   3   2  10  119.00    5.48   0
   4   1   4  210.63    5.00   0
   5   0   4  187.66    6.43   0
   2   2   4 2299.44    8.70   0
   3   2   5  252.31    4.61   0
   3   1   2 1926.04    8.64   0
   5   1   7  227.02    6.42   0
   0   2   5 1139.62    4.64   0
   4   2   7  342.55    6.70   0
   4   2   8  339.37    6.80   0
   4   2   9  328.72    7.05   0
   5   1   6  437.26    7.95   0
   2  -2  -2 1784.41    5.54   0
   4   1   3  239.95    4.99   0
   3   2   4  483.18    5.49   0
   4  -1   0  675.69    6.93   0
   4   2   6  466.54    7.14   0
   5   1   5  817.61    9.69   0
   3  -1  -1  424.45    4.18   0
   5   1   4  457.32    7.91   0
   4   1   2  169.99    4.47   0
   5   0   2  275.77    6.71   0
   2   3   8   40.55    3.40   0
   3   1   1 2058.29    8.53   0
   3   2   3  189.05    3.98   0
   2   3   7  144.25    3.62   0
   3   3   8  243.77    5.67   0
   3   3   9  378.85    6.99   0
   4   2   4  963.41    8.61   0
   5   2   7  126.33    5.41   0
   3   3   7  419.65    6.31   0
   5   2   6  101.44    5.33   0
   2   3   6  337.33    4.38   0
   0   2   4  724.93    3.33   0
   4   0   0 1395.68    8.90   0
   2   2   2 3979.36   10.31   0
   4   3   8  199.06    6.05   0
   2   3   5   64.95    2.76   0
   3   2   2  595.02    5.51   0
   4   1   1  563.08    6.32   0
   4   3   7  151.36    4.82   0
   5   0   1  423.85    7.55   0
   6   0   3  466.64   10.33   0
   1   3   6  508.02    4.85   0
   3   0  -1 1236.30    6.35   0
   5   2   4  221.15    6.30   0
   3   1   0  969.67    6.03   0
   1   2   2 1128.42    4.69   0
   2   3   4   68.05    2.92   0
   3   3   4  770.92    7.22   0
   6   0   2  748.73   12.43   0
   0   1  -1  115.05    1.58   0
   0   4  -1  406.61    5.06   0
   2   5   0  163.66    5.36   0
   2   6   1   58.20    5.16   0
   3   4   0  531.83    8.03   0
   4   3   1  420.11    7.62   0
  -1   3  -1 1390.60    6.32   0
   4   2   1  555.49    7.35   0
  -1   5   0  855.55    7.89   0
   4   4   1  368.39    8.92   0
  -1   4  -1   80.25    3.09   0
   1   3  -2 1182.36    7.27   0
   1   6   0  520.91    8.04   0
   3   3  -1 1489.13   11.15   0
   0   5  -1  229.02    4.78   0
   1   2  -2  809.42    5.26   0
   2   0   0 3136.28    6.71   0
   2   5  -1   99.52    5.26   0
   1   4  -2  155.92    4.61   0
   3   0   1  204.76    2.54   0
   0   2  -2 1028.11    5.21   0
   4   4   0  468.70   10.06   0
   0   4  -2 1047.58    7.75   0
   2   2  -2 1653.49    7.87   0
   4   2   0  921.72    9.43   0
   3   5  -1  324.52    8.15   0
  -1   5  -1  609.09    7.59   0
   1   1  -2 2246.50    6.90   0
   1   3  -3  926.83    7.09   0
   3   4  -2  164.34    6.89   0
   4   3  -1   18.24    5.98   0
   2   1  -2  411.08    4.53   0
   4   4  -1  524.89   11.03   0
  -1   4  -2  587.95    6.45   0
   1   4  -3   73.28    4.64   0
   2   3  -3  425.29    6.25   0
   4   2  -1  891.41    9.95   0
   2   4  -3  853.19   10.00   0
   4   1   0  663.92    7.17   0
   0   1  -2 2524.98    6.94   0
   0   4  -3  654.81    6.98   0
   1   6  -2   73.48    5.72   0
   0   2  -3  757.14    5.29   0
   1   5  -3  471.01    8.56   0
   2   5  -3   26.45    5.50   0
   3   0   0 1346.66    6.15   0
   3   4  -3  141.61    7.20   0
   4   3  -2  187.69    7.99   0
   4   4  -2  498.31   11.61   0
   0   5  -3  264.68    7.29   0
   1   0  -1 4212.86    7.47   0
   1   3  -4 1126.97    8.82   0
   1   4  -4  135.72    6.03   0
   2   3  -4  259.37    5.91   0
  -1   4  -3  232.11    5.54   0
   2   2  -4 1335.50    9.99   0
   0   4  -4  669.15    8.00   0
   2   5  -4   13.02    5.44   0
   3   3  -4  844.10   11.08   0
   3   4  -4  246.38    8.49   0
   4   3  -3   28.38    7.17   0
   0   1  -3  740.65    4.69   0
   0   5  -4  154.18    6.98   0
   3   1  -3  729.40    7.28   0
  -1   2  -3   75.14    2.62   0
   1   3  -5 1211.16   10.51   0
   3   0  -1 1082.68    6.26   0
   4   2  -3  783.24   11.03   0
   2   4  -5  409.55    9.22   0
   1   1  -4 1272.77    7.05   0
   0   3  -5   42.37    4.50   0
   1   0  -2  596.71    3.74   0
   1   2  -5  535.67    6.53   0
  -1   3  -4  441.35    6.01   0
   0   4  -5  460.93    8.16   0
   1   5  -5  278.53    8.72   0
   3   3  -5  502.06    9.80   0
   3   1  -4 1294.82   10.12   0
   4   2  -4  743.37   11.72   0
   0   2  -5  920.64    7.58   0
   0   5  -5   79.50    7.11   0
   3   0  -2 1132.17    7.18   0
   4   1  -3  210.11    6.36   0
   0   1  -4 1049.45    6.23   0
   2   3  -6  296.27    7.35   0
   2   4  -6  349.13    9.41   0
   2   1  -5  264.33    5.38   0
   1   0  -3  103.28    2.56   0
   1   2  -6  386.04    6.59   0
   0   3  -6   97.39    5.54   0
   0   4  -6  370.34    8.89   0
  -1   3  -5  516.64    7.41   0
  -1   4  -5  250.00    7.62   0
   3   0  -3  136.73    3.89   0
   4   1  -4  143.51    6.80   0
   4   2  -5  460.82   10.77   0
   1   3  -7  492.95    9.79   0
   1   4  -7   96.18    6.76   0
   2   3  -7   77.97    5.05   0
  -1   2  -5  109.67    3.89   0
   1   0  -4   29.62    2.64   0
   1   1  -6  560.44    6.51   0
   0   0  -2 5223.87    9.26   0
   1   2  -7  314.53    7.26   0
   0   3  -7  173.42    7.40   0
   3   0  -4  716.91    7.26   0
  -1   3  -6  604.08    8.76   0
   0   4  -7  274.91    8.90   0
   4   2  -6  378.04   11.12   0
   2   0  -5 1039.39    7.88   0
   0   1  -6   54.86    3.89   0
   1   1  -7  360.24    6.43   0
   4   0  -3 1431.93   11.40   0
   2   2  -8  326.73    9.64   0
   3   0  -5  490.85    7.08   0
   0   0  -4 4137.60   11.10   0
   2   0  -6  708.88    7.55   0
   4   1  -6  351.21   10.28   0
  -1   3  -7  544.15    9.99   0
   0   1  -7  367.78    6.40   0
   1   0  -6  140.15    4.31   0
   0   0  -5 2931.05   10.66   0
   1   1  -8  421.97    7.72   0
   3   0  -6  389.20    7.29   0
  -2   2  -3 1233.37    7.32   0
  -2   2  -2 3333.84    9.54   0
  -1   2  -7   68.64    5.24   0
   1   2  -9  190.06    8.11   0
   2   0  -7 1065.08    9.82   0
   4   0  -5  739.18   11.15   0
   1   0  -7  212.05    5.33   0
  -2   2  -4 2020.26   10.26   0
  -1   3  -8  252.03    9.41   0
   0   1  -8   77.77    5.40   0
   0   2  -9  302.79    8.96   0
   2   1  -9   72.99    8.11   0
  -1   2  -8   41.07    5.83   0
   1   1  -9  258.42    7.17   0
   2  -1  -4  345.01    4.80   0
   2  -1  -3  220.10    3.57   0
   4   0  -6  388.60   10.36   0
  -1   1  -7  966.45    8.87   0
   0   0  -7 1158.22    9.08   0
   1   0  -8   40.91    4.84   0
   2   0  -8 1036.97   10.92   0
   2  -1  -5  125.07    4.08   0
   2  -1  -2  485.69    3.95   0
   0   1  -9  137.85    6.95   0
   1  -1  -4 1978.78    8.49   0
   3  -1  -4  921.91    8.49   0
   3  -1  -3  500.33    5.90   0
   3   0  -8   59.00    6.84   0
   1  -1  -3 2361.54    8.26   0
  -2   2  -6  482.63    7.35   0
   1   1 -10  222.16    7.43   0
   3  -1  -5  961.28    9.81   0
   3  -1  -2 1737.64    8.67   0
  -1   0  -5 1059.46    6.95   0
  -1   1  -8  355.93    6.32   0
  -1   2  -9   47.55    6.63   0
   1  -1  -6 1463.14    9.41   0
   1   0  -9  118.24    6.20   0
  -1   0  -6 1175.77    8.14   0
  -1   0  -3 1190.39    5.82   0
   1  -1  -7  700.50    7.75   0
   1  -1  -2 3298.49    8.50   0
   3   0  -9  360.15   10.48   0
  -2   2  -7  595.95    9.27   0
  -1   0  -7  691.87    7.53   0
  -1   1  -9  602.57    9.55   0
   0  -1  -5  641.32    5.84   0
   1   0 -10   54.74    5.65   0
   2  -1  -1  923.39    4.68   0
  -1   2 -10   67.70    8.19   0
   0  -1  -6   12.99    2.46   0
   0  -1  -4  740.03    5.47   0
   0  -1  -7  287.63    5.41   0
   3  -1  -8  293.72    8.84   0
   0   0 -10  101.51    6.71   0
  -1   1 -10  180.20    7.82   0
   0  -1  -8  177.16    5.60   0
   0  -1  -3 1039.72    5.61   0
  -1   0  -2 4362.98    9.13   0
   3  -1  -9  409.34   10.54   0
  -2   1  -8   41.55    5.49   0
   0  -1  -9  159.22    6.26   0
   1  -1 -10  360.56    8.68   0
  -2   1  -3  346.62    3.86   0
  -2   1  -9  123.23    7.45   0
   0  -1 -10  229.78    7.26   0
   2  -2  -6  636.01    7.66   0
  -1  -1  -7 1015.30    8.82   0
   1  -2  -7  737.65    8.00   0
   2  -2  -5  893.87    7.88   0
  -1  -1  -5  485.96    5.48   0
   2  -2  -8  594.69    9.84   0
  -2   0  -7  996.77    9.21   0
  -2   0  -6  483.91    6.22   0
   3  -2  -6  121.54    6.21   0
  -1  -1  -9  582.27    9.01   0
   0  -1 -11   87.18    6.54   0
   0  -1  -2 1291.07    5.37   0
   1  -2  -9  163.48    6.56   0
   2  -2  -9  613.94   10.95   0
   2  -2  -4 2318.60   10.70   0
   3  -2  -7  287.49    8.77   0
  -2   0  -5  864.09    6.89   0
   3  -2  -8   37.73    7.24   0
  -1  -1 -10  223.35    7.69   0
  -1  -1  -4 1672.82    8.02   0
   0  -2  -9  557.71    8.68   0
   1  -2 -10  136.83    6.94   0
   2  -2 -10   72.47    7.15   0
   0  -2  -5 1026.56    7.41   0
   3  -2  -9  138.90    9.56   0
  -2   0  -4 1394.80    7.56   0
   2  -2  -3 1005.46    6.63   0
  -2  -1  -7  253.20    5.83   0
  -1  -2  -9    5.27    5.13   0
  -1  -2  -7  191.41    5.08   0
  -1  -1  -3 1898.33    7.69   0
   0  -2  -4  866.98    6.24   0
  -2  -1  -9  109.57    6.55   0
  -2  -1  -6  659.03    7.09   0
  -1  -2 -10   48.77    5.87   0
  -1  -2  -6   36.38    3.73   0
   2  -3  -7  283.56    7.26   0
   2  -3  -9  347.35   10.08   0
  -1  -2  -5  114.45    3.95   0
   1  -3  -6  971.35    8.97   0
   0  -3  -8   72.78    3.98   0
  -2   0  -3  805.27    5.23   0
   0  -3 -10  119.09    6.59   0
   0  -2  -3  774.17    5.42   0
   0  -3 -11   33.69    5.65   0
   0  -3  -6   87.05    4.54   0
   2  -3  -5  322.15    5.70   0
  -2  -2 -10  304.03    8.36   0
   2  -2  -2 1997.78    7.56   0
  -2  -2  -7  623.56    7.95   0
  -1  -3  -9  521.51    8.95   0
  -1  -3  -8  396.40    7.47   0
  -1  -2  -4  372.06    4.80   0
   1  -2  -2 1280.78    6.16   0
  -2  -2 -11  189.85    7.90   0
   0  -1  -1  328.93    2.39   0
  -1  -3  -2 2336.39   11.03   0
  -2  -4  -7  526.77   10.32   0
   0  -1  -1  455.24    3.05   0
  -4  -5  -4   73.93    6.67   0
  -1  -3  -1 1104.50    7.85   0
  -3  -5  -4  198.76    8.42   0
  -2  -4  -1  353.86    6.83   0
  -2  -4  -8  313.47   10.46   0
  -4  -5  -2  147.94    7.58   0
  -4  -4   1  378.88    9.63   0
  -3  -5  -7  223.40    9.27   0
  -3  -5  -2  270.66    8.34   0
  -3  -4   1  265.57    6.62   0
  -2  -4   0  710.65    8.18   0
  -1  -4  -4  289.78    6.65   0
  -4  -5  -1  208.59    8.71   0
  -1  -4  -5  386.47    7.44   0
  -2  -5  -4  146.14    7.25   0
  -3  -5  -1  314.56    8.52   0
  -2  -5  -3  142.87    6.86   0
  -1  -4  -6  162.39    6.49   0
   0  -2  -5 1183.01    7.75   0
  -1  -3   1  660.42    6.18   0
  -2  -5  -2  342.60    7.99   0
  -1  -4  -1   17.96    4.41   0
  -3  -5   0  282.79    8.12   0
  -3  -4   2  160.68    6.31   0
  -2  -5  -1  101.06    4.73   0
   0  -3  -4  544.28    6.48   0
  -2  -3   3  357.36    5.72   0
  -1  -4   0 2239.35   12.35   0
   0  -3  -2  609.70    6.05   0
   0  -2   0 9770.80   16.28   0
   0  -3  -5  527.26    6.77   0
  -2  -5   0  142.38    6.58   0
  -1  -5  -5  554.72   10.39   0
  -1  -5  -3 1139.71   12.56   0
   0  -3  -1  565.21    5.77   0
  -3  -5   1  326.52    8.52   0
  -2  -2   4 1441.48    8.45   0
  -1  -5  -6  300.35    9.31   0
  -1  -5  -2 1079.27   11.92   0
  -1  -2   3  821.63    5.88   0
  -1  -4   1  202.33    5.27   0
   0  -3  -6   54.50    4.58   0
  -1  -5  -1 1209.60   11.95   0
   0  -4  -3  918.74    9.19   0
   0  -3   0   97.84    3.74   0
   0  -1   1  122.23    2.33   0
  -2  -5   1   98.17    6.12   0
   0  -4  -2 1254.97   10.24   0
   0  -4  -5  848.81    9.78   0
  -2  -6  -1   42.77    6.32   0
  -2  -4   3  955.54   10.33   0
  -1  -5   0  444.50    7.55   0
  -2  -3   4  239.39    5.37   0
  -1  -6  -4  173.75    8.75   0
  -1  -4   2  153.94    4.84   0
  -1  -3   3  897.63    7.32   0
   0  -4  -6 1069.11   11.83   0
   0  -3   1  572.25    5.61   0
  -1  -6  -3  190.34    8.19   0
   0  -5  -4  222.93    7.28   0
   0  -5  -3  237.53    6.96   0
   0  -5  -5  301.42    8.65   0
   0  -5  -2  292.73    7.13   0
   0  -2   2  976.80    5.64   0
  -1  -6  -1   68.81    6.50   0
   0  -5  -6  140.32    8.31   0
   0  -5  -1  122.72    5.67   0
   0  -3   2  763.66    6.24   0
  -1  -4   3   78.50    4.52   0
  -1  -2   4  451.95    4.71   0
  -1  -6   0  440.96    9.15   0
  -1  -5   2  851.18   10.28   0
   0  -5   0   66.00    4.42   0
  -1  -3   4 1120.06    8.58   0
  -1  -1   4 1208.24    5.52   0
   0  -6  -5  347.66   10.80   0
   1  -3  -3  949.65    8.14   0
   1  -3  -2 1182.66    8.62   0
   1  -3  -1 1202.89    8.50   0
   0  -6  -6  608.59   14.24   0
   0  -6  -1  746.65   11.57   0
   0  -3   3  304.61    4.69   0
   1  -4  -2  462.36    7.43   0
   1  -3  -4  873.43    8.32   0
   1  -4  -1  248.65    5.87   0
  -1  -4   4  136.97    5.61   0
   1  -2  -3  888.84    6.58   0
   0  -6   0  720.61   11.10   0
   1  -2   0  857.21    6.18   0
   0  -4   3  657.76    7.69   0
   1  -5  -4  832.15   12.02   0
   1  -5  -2 1010.50   11.43   0
   1  -5  -1 1117.31   11.71   0
   1  -3  -5  764.19    8.48   0
   0  -6   1  278.52    7.93   0
   1  -5  -5  702.45   12.30   0
   1  -4   1   97.81    4.47   0
   1  -5   0  848.96   10.32   0
   0  -3   4  345.08    5.13   0
   1  -4  -6  117.46    8.20   0
   0  -5   3  271.62    7.14   0
   0  -1   3  666.91    4.13   0
   1  -6  -3  131.21    8.13   0
   1  -6  -2  151.48    7.55   0
   1  -3   2 1446.77    8.76   0
   0  -6   2  391.07    8.77   0
   0  -2   4 1375.59    7.21   0
   1  -5   1  621.18    8.91   0
   1  -4   2  569.91    7.07   0
   0  -4   4  734.66    8.86   0
   1  -2   2  557.05    5.11   0
   1  -3   3 1555.85    9.21   0
   0  -5   4  173.79    6.72   0
   1  -6   1   99.11    6.18   0
   1  -1  -1 2916.97    8.80   0
   1  -2  -5  149.94    3.70   0
   1  -2   3   91.15    3.23   0
   2  -5  -1  164.90    7.21   0
   2  -4  -3  355.93    8.22   0
   2  -4   0 1177.40   11.04   0
   0  -4   5  493.12    8.49   0
   1  -6   2  213.57    7.29   0
   2  -5  -3  141.18    7.66   0
   1  -1   1 4978.57   11.32   0
   2  -5  -4  116.40    8.14   0
   2  -5   0  176.56    6.87   0
   2  -4  -4  898.56   11.54   0
   2  -4   1  680.54    8.57   0
   1  -4   4  231.75    5.03   0
   2  -3  -3  199.82    5.59   0
   2  -3   1  366.31    5.96   0
   0  -2   5  855.09    6.46   0
   2  -6  -3  220.08    9.56   0
   2  -6  -1  341.88    9.41   0
   2  -5   1  395.14    8.02   0
   0  -1   4  859.81    5.05   0
   1  -5   4  245.18    7.49   0
   2  -6  -4  311.75   11.25   0
   2  -4   2 1008.80    9.77   0
   2  -5  -5  107.77    9.32   0
   2  -3   2  571.70    6.86   0
   1  -2   4  204.86    4.01   0
   2  -4  -5  679.44   11.57   0
   2  -3  -4  593.60    8.02   0
   2  -2  -1 3052.58   12.88   0
   1  -4   5  262.98    6.86   0
   2  -2   1 1655.41   10.24   0
   1  -3   5  493.87    6.60   0
   2  -5   3  125.12    6.06   0
   2  -3   3   51.39    4.00   0
   2  -2  -2 1692.73   10.08   0
   1  -5   5  321.87    8.97   0
   2  -2   2 3372.11   13.37   0
   1  -1   3 2527.89    9.02   0
   2  -2  -3 1002.73    8.25   0
   1  -2   5  121.91    3.83   0
   2  -2   3 1532.37    9.56   0
   3  -5  -2  282.31    9.95   0
   3  -5   0  377.91    9.63   0
   3  -4   0  125.00    5.85   0
   3  -5  -3  271.80   10.43   0
   3  -5   1  373.43    9.04   0
   3  -4   1   78.22    4.96   0
   2  -4   5  294.42    7.22   0
   3  -5   2  285.31    7.92   0
   3  -4  -3  147.69    8.46   0
   3  -4   2  130.04    4.95   0
   3  -3   0 1803.34   14.01   0
   3  -3   1 1754.68   13.85   0
   3  -5  -4  321.88   12.70   0
   0  -1   5  293.59    3.40   0
   1  -1   4 1278.40    7.02   0
   2  -3   5  246.89    5.75   0
   2  -2   4 1726.56   10.15   0
   3  -3  -2 1335.24   13.12   0
   3  -4  -4  152.42    9.05   0
   2  -2  -4 1995.96   11.20   0
   2  -1   0  528.72    5.50   0
   3  -3  -3 1400.16   13.37   0
   2  -1   2 1260.09    7.98   0
   2  -4   6  402.87    9.10   0
   2  -2   5  803.24    7.90   0
   2  -1  -1  848.84    6.55   0
   3  -2   0  494.28    7.35   0
   3  -2   1  123.11    5.41   0
   3  -3   4  755.97    9.75   0
   3  -2   2  413.62    6.83   0
   2  -1   3  426.13    5.35   0
   1  -1   5  785.16    6.11   0
   3  -4   5   97.40    6.15   0
   3  -3  -4 1052.39   12.89   0
   4  -4  -1  281.62   11.02   0
   4  -4   1  464.30   11.00   0
   4  -4   2  462.75   10.34   0
   2  -1   4   65.56    3.77   0
   3  -2   4  637.13    8.27   0
   4  -4  -2  778.50   15.20   0
   2  -2   6  528.04    7.35   0
   4  -4   3  413.19    9.57   0
   3  -4   6   87.42    6.57   0
   4  -3   2  282.21    8.56   0
   2  -3   7   63.78    6.13   0
   4  -4  -3  428.15   14.27   0
   4  -4   4  482.17    9.66   0
   4  -3  -1  174.39    8.64   0
   4  -3   3  266.42    8.14   0
   3  -3   6  374.96    8.09   0
   2  -1   5  635.23    6.87   0
   4  -3  -2  238.94    9.53   0
   3  -1   2  681.88    8.30   0
   1  -1   6 1119.35    7.04   0
   1   0   1  384.48    3.38   0
   1   0   2 4472.01   10.42   0
   3  -1   0 1108.43    9.59   0
   3  -1   3  504.23    7.40   0
   2  -1  -3  212.39    4.11   0
   3  -2   6  280.15    6.35   0
   4  -3  -3   66.18    9.86   0
   4  -3   5  339.52    8.66   0
   4  -2   3  356.09    7.88   0
   1   0   3 1132.01    5.81   0
   3  -3   7  284.78    8.46   0
   3  -1  -1  436.70    6.80   0
   2  -1   6  489.41    6.53   0
   4  -2   4  469.75    8.44   0
   3  -1   5  680.76    7.54   0
   0   0   3 4968.40    8.96   0
   2   0   2 1691.03    8.83   0
   4  -2  -2 1284.58   14.08   0
   5  -3   2  162.67    9.00   0
   1   0   4 2160.91    8.25   0
   2   0   1  530.81    5.57   0
   2   0   3  847.12    6.70   0
   3  -1  -2 1940.57   12.64   0
   5  -3   0  410.02   12.62   0
   5  -3   3  176.14    8.39   0
   3  -1   6  575.24    8.41   0
   4  -1   3  209.74    7.03   0
   5  -3  -1  261.70   12.77   0
   2  -1   7  313.85    5.52   0
   2   0   0 3025.93   11.08   0
   4  -1   4   68.10    5.89   0
   5  -2   2  152.23    8.92   0
   4  -2  -3  869.29   13.22   0
   5  -2   3  153.03    7.14   0
   1   0  -1 3887.75    8.50   0
   2   0   5  928.40    7.38   0
   3   0   2  770.43    8.13   0
   4  -1   5  110.74    5.60   0
   5  -2   4  111.93    7.64   0
   1   1   4 1687.33    8.13   0
   1   1  10  377.83    8.11   0
   2  -2   7  651.99    8.94   0
   2  -1   6  370.08    6.41   0
   2  -1   7  259.17    6.23   0
   1  -1   1 5030.11   11.01   0
   2  -2   8  250.87    7.08   0
   2  -1   5  574.17    6.98   0
   2  -1   8   42.75    4.95   0
   2  -3   7   65.92    5.82   0
   2  -2   9  410.74    8.19   0
   2  -1   9  153.69    6.14   0
   2   0   7 1023.72    9.27   0
   2   0   8  831.87    9.21   0
   2  -1   4   69.61    4.02   0
   1   2   8    9.89    3.82   0
   2  -3   8    6.11    5.30   0
   2  -1  10  109.79    5.73   0
   2   0  10  657.25    9.44   0
   1   1   3 1888.86    7.57   0
   1   2   6   42.31    3.20   0
   2  -3   3   41.53    3.87   0
   2  -1   3  323.84    4.81   0
   2   1  10   50.87    5.67   0
   1   2   5  118.97    3.21   0
   0   2   3  587.74    3.50   0
   2   1  11   92.10    5.93   0
   3  -1   7  172.32    5.45   0
   3  -1   9  548.41    9.14   0
   1  -2   0  749.10    4.41   0
   2  -3   2  578.37    6.84   0
   2   0   3  833.65    6.32   0
   3  -1   6  376.38    7.11   0
   2  -1   2 1238.55    7.29   0
   3   0   7  121.29    5.42   0
   3   0   9  149.64    6.29   0
   2   2   9  520.39    8.07   0
   3  -3   6  343.27    8.33   0
   3  -1   5  788.37    8.59   0
   1  -3   0 1924.83    7.45   0
   2   2  10  331.90    7.74   0
   3   0   6  115.04    5.10   0
   1   2   4  312.54    3.58   0
   2   1   4   95.73    3.62   0
   3  -3   5  577.24    9.41   0
   1   1   2 6225.69   11.11   0
   3  -1   4  986.82    8.89   0
   3   1   7  471.49    7.52   0
   1   3   7 1255.97    8.75   0
   2   2   5 1317.49    8.18   0
   1  -1   0 2703.04    6.54   0
   2  -3   1  356.56    4.97   0
   2   1   3  945.34    6.17   0
   3  -1   3  469.08    6.32   0
   3  -3   3  939.72    9.92   0
   3   1   5 1427.48   10.13   0
   3   2   9  294.05    7.52   0
   3   2  10   97.11    6.10   0
   2  -1   1  366.46    4.21   0
   2   3   9  161.11    6.20   0
   3   2   8  179.02    6.12   0
   4  -1   6  115.58    6.27   0
   4   0   7  431.26    8.32   0
   3   2   7  459.12    7.09   0
   3   0   3   30.14    3.69   0
   4  -2   5  329.75    7.96   0
   4  -1   5  105.38    5.63   0
   4   0   6  613.41    9.04   0
   4   1   9   61.59    5.81   0
   3  -2   2  367.08    5.80   0
   4   1   8  154.44    6.56   0
   4   0   5  661.38    8.76   0
   3  -3   2  764.21    8.51   0
   4  -2   4  595.27    9.27   0
   2   0   1  695.92    4.89   0
   2   1   2  682.54    4.86   0
   2   3   6  358.25    5.17   0
   3   3   9  408.05    8.40   0
   4   2   9  333.93    8.10   0
   3   0   2  784.47    6.73   0
   3   3   8  313.35    7.17   0
   4   0   4 1064.21   10.19   0
   4   2   8  342.00    7.80   0
   4   1   5   86.71    5.03   0
   3   3   7  495.88    7.66   0
   3   2   4  460.88    5.88   0
   4   2   6  431.33    7.97   0
   5   0   6  110.45    6.48   0
   1   0   0 1544.78    4.50   0
   3  -3   1 1821.60   11.56   0
   3   3   6  711.65    7.98   0
   5  -2   5   32.04    6.29   0
   2  -3   0   69.51    2.81   0
   3   1   2 1247.93    7.45   0
   4   2   5  361.50    7.28   0
   5   1   6  418.57    8.86   0
   1   2   2 1042.17    4.40   0
   3   0   1  223.34    4.16   0
   4   3   8  213.61    7.06   0
   2   1   1  892.24    4.93   0
   3   2   3  197.71    4.30   0
   5  -2   4   78.09    6.82   0
   2   3   4   72.85    3.17   0
   3   3   5 1313.39    9.56   0
   4   3   7  223.09    6.86   0
   5   0   4  179.91    6.77   0
   5   1   5  765.83   10.62   0
   2   0   0 3158.41    8.39   0
   4   2   4  940.26    9.33   0
   5  -2   3  220.65    8.21   0
   3  -2   0  449.07    4.95   0
   4  -2   1  534.24    7.98   0
   5   0   3  235.31    7.39   0
   3   1   1 2304.03    9.56   0
   3   3   4  791.56    7.41   0
   4   1   2  218.39    5.21   0
   5   2   5   73.62    5.93   0
   4   0   1 1241.34    9.48   0
   4   2   3  404.29    5.89   0
   3   0   0 1261.19    7.15   0
   5  -2   2  161.39    8.79   0
   5   1   3  692.04    9.78   0
   2   3   3  133.55    3.08   0
   5   2   4  209.72    6.94   0
   5   3   6  303.29    7.75   0
   2   1   0  656.79    4.20   0
   3   3   3 1265.15    8.63   0
   4   1   1  683.02    7.25   0
   4   3   4  248.27    5.45   0
   2   2   1 2668.38    8.27   0
   5   1   2  937.83   10.70   0
   3   1   0  977.11    6.35   0
   3   2   1  104.31    3.42   0
   5   2   3  282.77    7.13   0
   5   3   5  298.37    7.61   0
   4   4   6  406.55    8.48   0
   5   0   1  464.83    8.42   0
   2   0  -1 1093.93    5.21   0
   3  -2  -1  485.56    4.38   0
   4   3   3  190.80    5.55   0
   3   0  -1 1434.31    7.36   0
   3   3   2 1915.18    9.89   0
   6  -1   2  168.85    8.48   0
   4   1   0  824.99    7.55   0
   4   4   5  409.11    8.15   0
   5   1   1 1113.09   11.33   0
   5   2   2  371.14    7.44   0
   3   4   4  314.23    5.76   0
   1   0  -1 4251.81    7.16   0
   6   1   2  115.07    6.31   0
   4  -2  -1  878.13    7.60   0
   4   0  -1 1512.70    9.68   0
   2   1  -1  541.10    4.17   0
   3   1  -1 1012.72    6.63   0
   4   4   4  728.83    9.49   0
   6  -1   1   74.64    7.38   0
   1   3   2 2391.52    6.88   0
   5   2   1  345.78    7.12   0
   3   3   1 1702.00    9.25   0
   4   2   0  934.98    8.17   0
   3  -1  -2 1713.59    7.66   0
   3   4   3  229.97    4.80   0
   2   3   1  643.32    4.75   0
   6   1   1   39.33    4.59   0
   2  -1  -2  540.40    3.72   0
   2   4   3  588.72    5.59   0
   3   0  -2 1426.43    7.58   0
   4   4   3  574.39    8.26   0
   3  -2  -2  708.28    5.97   0
   6  -1   0  231.16    9.04   0
   5   2   0  189.15    5.95   0
   3   2  -1  406.49    4.68   0
   1   1  -1 3236.98    7.05   0
   3   4   2  316.02    5.36   0
   4  -2  -2 1302.73    8.95   0
   2  -2  -2 1642.35    5.85   0
   2   2  -1 2190.42    8.45   0
   3   1  -2 1646.07    8.29   0
   4   2  -1  759.68    7.45   0
   4   4   2  755.51    8.96   0
   4   1  -2  383.78    5.83   0
   2   1  -2  407.55    3.99   0
   5  -1  -2 1187.93   11.64   0
   2   3   0  503.39    4.69   0
   1   3   1  764.04    3.96   0
   3   0  -3  131.16    3.41   0
   3   4   1  213.29    4.69   0
   4  -1  -3  242.16    4.61   0
   4   4   1  340.73    7.36   0
   4   2  -2 1290.43    9.55   0
   4   3  -1   23.96    4.13   0
   2   0  -3 1677.05    6.69   0
   3   1  -3  673.97    6.24   0
   4   1  -3  206.63    5.29   0
   2   2  -2 2096.83    8.66   0
   3  -2  -3   80.79    2.65   0
   5  -1  -3  789.76    9.77   0
   5   0  -3  187.77    6.51   0
   1   2  -1 2223.61    6.46   0
   2   3  -1  517.93    4.83   0
   1   1  -2 2309.30    6.82   0
   2   1  -3  228.52    3.35   0
   4   2  -3  626.24    7.48   0
   1   3   0 1674.23    6.22   0
   3   0  -4  620.18    5.56   0
   3   2  -3   17.73    2.40   0
   4  -1  -4  142.41    4.35   0
   3  -1  -4  909.70    6.87   0
   3   1  -4 1170.74    8.28   0
   4   1  -4  110.68    5.05   0
   4   4  -1  412.60    7.43   0
   5   0  -4  363.07    7.85   0
   2   2  -3 1586.37    7.78   0
   2   0  -4 2716.87    9.56   0
   1   2  -2  696.33    4.28   0
   3  -2  -4  165.74    3.72   0
   4   3  -3   12.80    4.07   0
   1   0  -3   99.69    2.15   0
   2   1  -4  112.25    3.15   0
   3   2  -4  296.63    5.44   0
   3   3  -3  918.57    8.25   0
   1  -2   7   62.24    3.54   0
   1  -1   6 1265.52    7.64   0
   1  -2  -1 1279.48    4.56   0
  -1   0   9  151.02    4.99   0
  -1   1   7  639.24    5.67   0
   0   0   8  780.18    7.03   0
   1  -2   8   38.50    4.04   0
   2  -3   4   56.60    3.88   0
   1  -1   8  626.84    7.06   0
   2  -4   4  739.37    9.01   0
   0  -1  10  187.70    5.90   0
   1  -2   9   51.19    4.37   0
   1   0   4 2131.32    8.09   0
   2  -4   2 1028.96    9.51   0
  -1   0  10   33.11    4.65   0
  -1   1   8  739.44    7.01   0
   1   0   6 1103.19    7.16   0
   0   1   5  538.66    4.36   0
   2  -4   6  415.64    7.99   0
   2  -2   6  505.21    6.61   0
   0   1   6   14.01    2.54   0
   1  -1   9  774.61    8.47   0
   1   0   7  838.17    7.05   0
   2  -2   2 3265.35   11.85   0
   2  -2   7  676.68    7.97   0
   0   1   7  297.16    4.45   0
   2  -3   8    0.95    4.29   0
   2  -1   5  526.82    6.02   0
   2  -1   6  446.57    6.06   0
   1  -1  10  239.54    6.27   0
   2  -1   4   60.10    3.53   0
   2  -1   7  252.53    5.44   0
   1   0   2 4301.98    9.57   0
   2  -1   3  446.22    4.87   0
   2  -1   8   44.65    4.32   0
   2  -2   1 1431.23    8.20   0
   2  -1   9  181.01    5.84   0
   2  -3   0  101.03    3.74   0
   3  -3   6  350.15    8.09   0
   2  -1  10   93.42    4.32   0
   2   0   8  851.04    8.53   0
   3  -3   4  762.64    9.52   0
   3  -3   7  263.12    7.41   0
   1   0  11  415.58    7.98   0
   3  -4   6   80.81    7.19   0
   3  -2   5  164.55    5.47   0
   2   0   4 1408.36    7.94   0
   2   0   9  937.44    9.69   0
   3  -2   4  651.05    7.80   0
   3  -2   8  243.57    7.04   0
   3  -3   3  847.74    9.60   0
   3  -2   9  136.39    5.81   0
   3  -1   7  193.90    5.29   0
   3  -1   8  455.56    8.10   0
   3  -2   3  180.35    5.10   0
   3  -1   5  704.64    7.78   0
   2   0   3  820.24    5.84   0
   3  -1   9  611.05    8.90   0
   1   0   1  253.67    2.51   0
   2   0  11  430.93    8.08   0
   3  -3   2  782.69    9.02   0
   3  -1   4 1192.95    9.24   0
   2   1   7  302.08    5.53   0
   0   2   8  694.81    6.65   0
   3   0   8   26.61    4.88   0
   2   1  10   56.95    5.47   0
   3   0   6   86.75    3.55   0
   3   0   9  179.27    6.23   0
   2   1   5  498.61    5.42   0
   3   0   5   49.00    4.01   0
   3   0  10    7.52    4.66   0
   1   2   7  191.15    4.12   0
   1   2   8   12.91    3.42   0
   2   0   2 1745.96    7.46   0
   4  -2   6  292.20    7.86   0
   4  -3   5  367.90    9.62   0
   3   1   8  327.57    6.97   0
   3   1   9  869.60   10.04   0
   4  -2   4  561.72    8.96   0
   1   2   5  115.92    2.99   0
   2   2   8  533.31    6.85   0
   2   2   9  564.01    7.81   0
   4   0   8  515.13    8.79   0
   2   2   7  687.66    6.97   0
   3   0   3   28.99    3.33   0
   4   0   7  462.21    8.19   0
   2   1   3  934.16    5.90   0
   3   1   5 1526.47    9.82   0
   4  -1   4   57.29    4.83   0
   4  -2   3  410.49    7.92   0
   2  -1   0  519.21    3.72   0
   4   0   5  725.35    8.61   0
   2   0   1  460.44    3.98   0
   3   2   9  277.04    6.94   0
   4  -1   3  233.32    5.90   0
   4   1   8  148.98    6.06   0
   3  -1   1 1780.33    9.00   0
   4   1   7  112.74    5.59   0
   4   0   4 1310.12   10.47   0
   4  -2   2  579.19    8.64   0
   4   1   6  136.05    5.60   0
   5  -1   6  266.56    8.28   0
   3   2   6  267.41    5.53   0
   5  -2   5   29.44    7.40   0
   3   1   3  585.56    5.91   0
   5  -1   5  797.00   11.56   0
   1   3   7 1180.20    7.76   0
   2   3   9  164.51    5.57   0
   2   3  10   18.23    5.00   0
   3  -2   0  559.02    5.52   0
   4   2   9  303.37    7.15   0
   2   3   7  154.80    4.39   0
   4   1   4  221.84    5.58   0
   4   2   7  355.41    7.27   0
   5  -1   4  482.16    9.58   0
   1   3   6  514.56    4.93   0
   5   0   5   57.38    5.92   0
   3   3   9  414.12    7.73   0
   3   3  10  296.89    7.53   0
   0   2   3  531.29    2.89   0
   1   1   1 4117.49    7.73   0
   2   2   3 1871.27    8.01   0
   3   3   8  266.43    6.37   0
   3   1   2 1097.33    6.73   0
   3   3   7  463.53    7.11   0
   4   0   2 1724.20   10.74   0
   5   1   6  436.11    8.85   0
   3  -1   0 1176.60    6.68   0
   5  -1   3  435.37    9.47   0
   4   1   3  244.45    5.33   0
   4   2   5  368.40    6.92   0
   1   3   5  707.21    5.18   0
   4  -1   1  289.04    5.56   0
   5   1   5  772.63   10.44   0
   4   2   4  945.86    9.05   0
   5   0   3  228.93    7.07   0
   3   3   5 1422.90    9.77   0
   4   3   7  187.74    6.28   0
   1   2   2 1125.17    4.75   0
   2   2   2 4157.76   10.80   0
   5   2   6   62.38    4.28   0
   3   1   1 2017.77    8.67   0
   4   0   1 1117.47    8.60   0
   4   3   6  189.49    6.00   0
   3   0   0 1096.42    6.31   0
   0   3   5  587.46    4.06   0
   5   2   5   66.22    5.71   0
   3   2   2  601.21    5.55   0
   3   3   4  875.38    7.81   0
   3   4   9  113.64    6.16   0
   3   4   8  117.70    5.63   0
   4  -1   0  766.62    7.39   0
   3   4   7  171.37    5.73   0
   5   2   4  182.80    6.64   0
   2   1   0  689.54    4.19   0
   3   4   6  112.09    5.02   0
   4   3   4  429.08    6.97   0
   2   2   1 2976.80    8.97   0
   4   2   2  902.92    8.29   0
   5   1   2  889.46   10.40   0
   1   3   3 1243.34    5.89   0
   3  -1  -1  394.70    3.94   0
   3   1   0  984.72    6.20   0
   3   2   1  105.79    3.43   0
   5   0   1  491.32    8.61   0
   0   2   2   31.76    1.15   0
   2   4   5  635.62    6.34   0
   3   4   5  134.43    4.87   0
   4   4   6  410.10    8.22   0
   1   2   1 1290.70    5.34   0
   0   3   4  561.36    3.60   0
   5   3   4  187.66    6.66   0
   6   1   3  194.93    8.37   0
   2   3   2  267.27    3.38   0
   3   0  -1 1070.97    6.20   0
   3   3   2 2093.31   10.70   0
   4   2   1  559.82    7.02   0
   5   1   1 1094.63   11.58   0
   2   4   4  869.91    6.91   0
   4  -1  -1  309.94    5.04   0
   4   4   4  772.64    9.71   0
   5   3   3  368.54    7.96   0
   1   0  -1 4101.49    6.73   0
   2   2   0 2536.97    8.68   0
   3   2   0  503.37    5.21   0
   5   0   0  277.46    7.47   0
   3   1  -1 1111.07    6.94   0
   4   0  -1 1428.77    9.44   0
   2   4   3  584.27    6.05   0
   3   3   1 1697.52    9.79   0
   1   4   4  320.31    4.16   0
   2   3   1  679.27    5.47   0
   3   5   6  437.20    8.07   0
   4   2   0  915.54    8.57   0
   4   4   3  547.49    8.60   0
   5   3   2  281.96    8.07   0
   4   1  -1  114.91    4.56   0
   4   3   1  407.81    6.95   0
   0   3   3  713.27    4.07   0
   1   2   0 4757.29   10.01   0
   3   5   5  377.42    7.59   0
   6   1   1   91.06    8.67   0
   3   4   2  378.65    6.22   0
   1   4   3  591.80    5.16   0
   2   4   2 1770.11    9.58   0
   3   0  -2 1351.43    7.23   0
   3   2  -1  389.02    5.08   0
   4   4   2  730.22    9.56   0
   5   0  -1  118.35    6.74   0
   5   2   0  168.49    6.85   0
   2   2  -1 2348.50    9.52   0
   5   3   1  197.85    7.48   0
   2   0  -2 1030.95    4.93   0
   2   3   0  517.69    5.63   0
   4   2  -1  957.86    9.08   0
   4   3   0  214.70    6.01   0
   4   5   4  102.35    6.12   0
   5   1  -1  758.92   11.59   0
   2   5   4  166.26    5.45   0
   3   4   1  236.98    6.06   0
   6   1   0  231.43   11.14   0
   4   4   1  340.65    7.99   0
  -2   1 -10  147.91    9.55   0
  -1   0  -8  276.85    7.73   0
  -1  -1  -4 1637.30    9.51   0
  -1  -1  -5  475.08    6.86   0
  -1  -1  -3 1821.60    8.90   0
  -4  -1  -6  125.13    6.53   0
  -1  -1  -6  968.93    9.19   0
   1   1  -6  523.05    8.27   0
  -4  -1  -7  120.46    7.40   0
  -3   0 -10   -2.48    4.45   0
  -1   0  -9  293.83    9.59   0
  -1   1 -10  164.95   10.16   0
  -2  -1  -8   89.02    6.74   0
  -2   0 -10  677.05   13.71   0
  -1  -1  -2 5923.45   12.87   0
  -2  -1  -1  991.63    5.13   0
  -1  -1  -7 1028.44   10.49   0
   0   1  -9  106.31   10.34   0
  -3  -1  -9  876.59   12.96   0
   0   0  -8  770.78   11.45   0
  -2  -1  -9  128.34    7.39   0
   1   1  -7  442.84    9.49   0
  -1  -1  -8  334.70    8.25   0
  -3  -1 -10  291.92    9.75   0
  -2  -1 -10   56.27    7.40   0
   0  -1  -5  548.02    6.98   0
   0  -1  -4  724.41    6.50   0
   0   0  -9  353.28   10.94   0
   1   0  -5   21.59    4.08   0
   1   0  -4   29.42    3.20   0
  -1  -1  -9  364.87    8.23   0
  -3  -2  -6  279.77    7.28   0
  -1   0 -11  402.83   12.43   0
  -3  -2  -7  433.07    8.75   0
  -3  -2  -8  182.98    7.90   0
  -1  -1 -10  338.57   10.68   0
   0  -1  -3  623.44    4.96   0
  -2  -2  -8  347.81    8.00   0
   0  -1  -8  238.11    8.22   0
   0   0 -10  123.09   10.52   0
   1   0  -7  212.37    7.19   0
  -2  -2  -9  531.36   11.61   0
  -1  -1  -1 3713.39    8.34   0
   0   0 -11  472.26   15.84   0
  -1  -2  -4  358.53    5.48   0
   0  -1 -10  288.58   11.48   0
  -2  -2 -11  175.39    8.97   0
  -1  -2 -10   53.77    7.57   0
   0  -2  -7  847.94   10.20   0
   1  -1  -7  763.77   10.12   0
   1  -1  -6 1321.70   10.98   0
  -1  -2 -11  194.23    9.58   0
  -1  -2  -3  195.14    3.38   0
   0  -2  -5 1150.00    8.99   0
  -3  -3  -8  251.30    9.00   0
  -3  -3  -7  518.97   10.43   0
  -2  -3  -9  160.63    9.13   0
   1  -1  -4 2122.16   10.16   0
  -3  -3  -6  894.85   11.37   0
  -2  -3 -10   10.19    8.22   0
  -1  -3  -8  530.28   10.46   0
  -1  -3  -9  537.66   11.58   0
  -2  -2  -2 4038.23   11.85   0
  -1  -3 -10  417.51   11.01   0
  -3  -3  -5 1628.36   13.13   0
  -1  -3 -11   87.14    7.99   0
   1  -1  -3 2027.09    8.68   0
   1  -2  -8  327.24    8.84   0
   0  -3  -8  132.33    7.16   0
   0  -2  -3  448.04    4.46   0
   1  -2  -6  525.89    7.83   0
   2   0  -5  826.53    7.69   0
  -2  -3  -4   76.17    4.56   0
   1  -2  -9  175.83    9.24   0
   0  -3 -10  123.65    9.19   0
   0  -3  -6   87.73    5.28   0
   1  -2  -5  198.83    5.34   0
   0  -1  -1  598.30    3.65   0
   1  -2 -10  184.45   10.37   0
  -2  -4  -9  417.94   11.02   0
  -2  -4  -8  319.84    9.74   0
   0  -3 -11   41.69    8.53   0
   0  -3  -5  569.39    7.11   0
  -2  -4  -7  535.87   10.45   0
   2  -1  -7   39.23    5.65   0
  -3  -4  -7  204.78    8.81   0
  -1  -4 -10   52.70    7.86   0
  -1  -4  -7  315.93    8.62   0
  -2  -3  -3  152.61    4.40   0
   1  -1  -2 2989.73    8.88   0
   1  -3  -7  471.52    9.06   0
  -3  -4  -6  113.10    7.43   0
   0  -4  -9  403.37   10.17   0
   0  -4 -10  216.26    9.03   0
  -2  -4  -5  676.58    9.25   0
   0  -4  -7  744.36   10.60   0
   2  -2  -7  650.98    9.64   0
   2  -2  -9  698.20   13.97   0
   2  -1  -4  319.65    4.70   0
   0  -4  -6 1085.98   10.93   0
   2  -2  -6  642.26    8.33   0
   2   0  -3 1640.12    7.04   0
   0  -3  -3  696.85    6.40   0
  -2  -5  -8   87.08    8.19   0
  -2  -2  -1 2707.73    8.28   0
   0  -4  -5  965.79    9.52   0
   2  -2  -5  909.03    8.41   0
   1  -4  -9   54.35    7.73   0
   1  -4  -8  181.82    8.23   0
   1  -3  -4 1014.66    8.12   0
  -2  -5  -7  334.99    9.53   0
   1  -4  -7  277.17    8.06   0
  -1  -3  -2 2304.45    9.41   0
   2  -3  -9  335.46   10.96   0
   2  -3  -8  256.93    8.92   0
   0  -5  -9   90.18    7.43   0
   1  -4  -6  110.17    5.73   0
   2  -2  -4 2960.16   12.50   0
   2  -1  -3  177.68    3.43   0
   0  -5  -8  146.13    7.75   0
   2  -3  -6  487.46    8.07   0
  -1  -5  -6  363.13    8.68   0
   0  -5  -7   73.38    6.76   0
   0  -2  -1 3524.73    9.68   0
   1  -4  -5   35.13    4.52   0
   1  -3  -3 1056.46    7.65   0
  -1  -4  -3  584.58    6.69   0
   0  -5  -6  149.34    6.46   0
  -1  -5  -5  652.76    9.79   0
  -2  -5  -5  194.95    7.61   0
   1  -5  -8  375.70    9.40   0
   2  -4  -9  478.03   12.07   0
   2  -4  -8  243.43    9.18   0
   1  -5  -7  362.92    8.80   0
   1  -4  -4  451.46    6.66   0
   0  -5  -5  267.25    7.13   0
   2  -4  -6  370.25    8.64   0
   1  -3  -2 1202.11    7.73   0
   3  -2  -6  134.05    6.22   0
  -1  -5  -4  678.71    9.28   0
   1  -2  -1 1573.58    6.96   0
   2   0  -2  892.95    4.44   0
  -1  -3  -1  868.81    5.89   0
   0  -5  -4  216.33    6.35   0
   0  -1   0  975.58    4.11   0
   1  -4  -3  430.65    6.56   0
  -2  -5  -4  155.85    6.86   0
  -1  -4  -2   60.23    3.68   0
   0  -3  -1  575.62    5.01   0
   1  -5  -5  583.42    9.14   0
   2  -3  -3  212.93    4.92   0
   3  -3  -7  408.67   10.17   0
   3  -2  -5  163.09    5.45   0
   0  -4  -2 1171.10    8.35   0
   2  -2  -2 1982.31    8.99   0
   2  -5  -7   29.27    6.28   0
   3  -3  -6  774.33   10.83   0
  -2  -4  -2 1824.10   10.97   0
   1  -5  -4  847.58   10.05   0
   2  -5  -6   53.62    6.19   0
   3  -3  -5 1229.50   11.47   0
   3  -2  -4  151.92    4.66   0
   0  -2   0 9510.62   15.75   0
   1  -4  -2  449.11    6.38   0
   1  -3  -1 1198.35    7.40   0
   3  -4  -7  247.56    9.07   0
   1  -6  -6   25.22    5.42   0
   2  -5  -5  123.61    6.35   0
   3  -4  -5  112.19    6.34   0
   3  -2  -3   91.52    3.85   0
  -1  -6  -4  216.93    8.65   0
  -1  -4  -1   20.90    3.49   0
   0  -6  -4  492.11   10.01   0
   1  -1   0 3010.61    7.90   0
   2  -5  -4  119.69    5.91   0
   3  -1  -3  461.48    5.56   0
   0  -5  -2  264.98    5.76   0
   1  -2   0  676.03    4.86   0
  -1  -5  -2 1100.01   10.34   0
   0  -3   0   89.63    3.39   0
   3  -4  -4  157.42    6.17   0
   1  -6  -4  233.56    7.55   0
   1  -5  -2 1007.41   10.16   0
   2  -5  -3  145.26    6.00   0
   0  -6  -3  629.52   10.28   0
   1  -3   0 1911.08    9.13   0
   3  -2  -2  597.07    6.04   0
  -1  -6  -3  206.11    7.91   0
   1  -6  -3  108.30    6.37   0
   2  -4  -1  979.28    9.07   0
   0  -5  -1  125.71    4.93   0
   0  -4   0 2233.26   11.30   0
   2  -5  -2  408.63    7.66   0
   1  -5  -1 1089.59   10.23   0
   2  -2   0 4382.32   12.97   0
   1  -4   0  528.36    6.58   0
   2  -3   0  132.17    4.32   0
   3  -4  -2  390.97    7.60   0
   0  -6  -2  748.99   11.02   0
   3  -5  -3  254.14    7.93   0
  -1  -4   0 1695.36    9.99   0
   2   0  -1  897.51    4.43   0
   3  -2  -1  453.18    5.58   0
   4  -4  -5  516.22   12.19   0
   4  -3  -4   40.96    6.65   0
  -1  -6  -2   30.27    7.15   0
   2  -5  -1  172.57    6.41   0
   2  -4   0 1058.30    9.48   0
   4  -4  -4  760.71   12.63   0
   3  -5  -2  250.59    7.88   0
   4  -3  -3   68.45    6.12   0
   0  -5   0  105.54    5.18   0
   2  -6  -2  296.83    8.23   0
   3  -1  -1  422.10    5.13   0
   4  -4  -3  439.72   10.14   0
   0  -4   1  439.07    6.36   0
   1  -4   1   66.61    3.64   0
   1   0   0 1481.68    3.96   0
   2  -3   1  330.11    5.41   0
   2  -2   1 1751.07    9.29   0
   0  -1   1  117.31    2.03   0
   2  -5   0  195.86    6.91   0
   3  -5  -1  277.19    8.08   0
  -1  -2   1 2166.21    6.43   0
   2  -6  -1  349.30    9.05   0
   4  -4  -2  821.48   11.92   0
  -2   3  -5  269.63    6.88   0
   3   2  -2  100.32    4.80   0
   3   3  -3 1024.26   13.51   0
   0   1  -4  869.91    6.10   0
   0   4  -6  404.06    9.86   0
   0   3  -6  106.72    6.54   0
   1   2  -5  534.79    7.49   0
  -2   1  -3  344.28    3.77   0
   1   1  -4 1323.11    8.22   0
   1   4  -6   47.40    5.77   0
   3   4  -4  252.70   12.22   0
  -2   2  -5  680.69    7.44   0
  -2   4  -6  386.63   10.72   0
   2   1  -3  223.04    4.43   0
   3   3  -4  809.36   13.54   0
  -2   3  -6  219.02    7.47   0
  -1   2  -6   41.01    4.22   0
   3   2  -3   17.02    4.59   0
   0   1  -5  251.06    4.42   0
   0   4  -7  273.67    9.12   0
   0   0  -1 6196.09    8.37   0
   0   3  -7  155.81    7.46   0
   2   4  -6  381.88   12.06   0
  -2   1  -4   60.91    2.91   0
   1   1  -5 1726.29   10.27   0
   1   3  -7  463.44    9.57   0
   3   1   0  952.21    6.25   0
   3   4  -5  105.89   11.70   0
  -2   2  -6  538.73    7.56   0
   0   0  -2 5378.20    9.86   0
   2   1  -4  100.41    4.19   0
   0   2  -7 1198.89   12.97   0
   3   2  -4  292.35    7.57   0
   3   3  -5  524.81   12.81   0
   1   0  -1 4256.15    8.26   0
   1   2  -7  300.30    7.73   0
   0   0  -3 5338.21   11.50   0
   0   3  -8   32.36    6.68   0
   1   0  -2  630.79    4.34   0
  -2   1  -5  559.28    5.89   0
   2   3  -7   89.22    7.08   0
  -2   2  -7  653.78    9.05   0
   1   3  -8  325.23    9.10   0
   3   2  -5  179.35    8.04   0
   0   0  -4 3984.35   11.45   0
  -2   3  -8    4.10    6.77   0
   0   1  -7  328.14    5.85   0
  -1   0  -3 1152.88    5.51   0
  -1   0  -2 4097.26    8.32   0
  -1   1  -7  958.72    9.06   0
   1   2  -8  194.03    7.74   0
  -2   1  -6  425.84    5.98   0
   1   1  -7  385.48    7.45   0
  -1   0  -4 2253.89    8.40   0
   0   0  -5 2824.09   11.01   0
  -2   2  -8  238.92    7.83   0
   3   1  -4 1227.23   10.81   0
   3   2  -6  151.83    8.67   0
   0   1  -8   65.33    4.72   0
   1   0  -5   19.48    3.65   0
  -1   0  -5 1172.86    7.02   0
   2   2  -8  311.73    9.62   0
  -2   1  -7  276.50    5.93   0
   1   1  -8  457.16    9.04   0
   1   2  -9  169.76    7.72   0
   2   0  -3 1516.80    7.83   0
   2   0  -2  952.47    5.53   0
   3   1  -5  774.88   10.02   0
  -1   0  -6 1183.17    7.97   0
   2   0  -4 2583.74   11.35   0
  -2   2  -9  362.59    9.62   0
   2   0  -5  849.75    7.79   0
  -2   1  -8   47.76    4.94   0
   1   0  -7  228.61    5.93   0
   1   1  -9  310.98    9.00   0
   2   1  -8  171.82    7.68   0
   3   1  -6  878.29   12.07   0
   2   0  -6  670.68    7.89   0
   2   0  -1  974.24    4.59   0
  -2   0  -5  924.94    6.51   0
  -2   0  -4 1375.53    6.84   0
  -1   0  -8  275.61    6.07   0
   0   1 -10  176.10    7.28   0
   1   0  -8   39.46    5.06   0
   3   1  -7  443.28   10.72   0
  -2   0  -6  532.91    5.96   0
  -2   1  -9  165.94    7.13   0
   2   0  -7  953.62   10.16   0
   2   1  -9   60.95    7.34   0
  -2   0  -7 1086.66    8.91   0
  -2   0  -3  788.66    4.64   0
   1   0  -9  123.50    6.60   0
   2   0  -8 1048.39   12.07   0
   3   1  -8  420.29   12.05   0
  -2   0  -8  817.57    8.94   0
  -2   1 -10  118.86    7.45   0
   3   0  -5  457.59    7.27   0
   0  -1  -6   12.67    3.47   0
   0   0 -10  116.87    6.10   0
   1  -1  -5 2628.81   11.70   0
   0  -1  -7  301.01    5.57   0
   0  -1  -4  746.96    5.58   0
   1  -1  -6 1476.05   10.47   0
   1   0 -10   46.06    6.35   0
   3   0  -6  384.85    8.32   0
  -2   0  -9  871.33   10.40   0
   1  -1  -7  793.65    9.03   0
   2   0  -9  513.11   10.50   0
  -1  -1  -6  841.81    7.10   0
   0  -1  -8  205.89    5.88   0
   3   0  -7  309.36    9.10   0
  -1  -1  -7 1040.12    8.66   0
  -1  -1  -5  500.46    5.31   0
   1  -1  -8  728.77    9.78   0
   1  -1  -3 2372.53    8.55   0
  -2   0 -10  762.94   11.21   0
   0  -1  -3  588.82    4.21   0
   2  -1  -6  279.83    6.01   0
   2  -1  -5  108.97    4.20   0
   2   0 -10  197.75    8.75   0
   3   0  -2 1139.26    6.52   0
  -1  -1  -4 1623.52    7.59   0
   1  -1  -9  410.99    9.03   0
   2  -1  -7   30.71    4.92   0
  -1  -1  -9  369.98    6.57   0
   2  -1  -4  322.55    4.86   0
   2  -1  -8  138.69    6.54   0
  -3   0  -7  128.68    5.49   0
  -2   0 -11  407.83    9.90   0
   1  -1 -10  410.87    9.44   0
   3   0  -9  484.33   13.16   0
  -2  -1  -7  250.41    5.45   0
   2  -1  -9   52.81    6.66   0
  -2  -1  -8   90.39    5.03   0
  -2  -1  -6  582.74    6.36   0
   0  -1 -11  107.59    6.50   0
   2  -1  -3  211.13    3.52   0
  -2  -1  -9  102.80    5.90   0
  -1  -1  -3 1781.82    7.06   0
   1  -1  -2 3192.41    8.63   0
   2  -1 -10   34.19    6.70   0
  -2  -1  -5  501.70    5.28   0
   3  -1  -7  371.50    9.28   0
  -2  -1 -10   39.95    6.20   0
   0  -2  -7  800.45    8.02   0
   0  -1  -2 1292.64    5.39   0
   0  -2  -9  611.00    8.88   0
   0  -2  -6 1032.39    8.17   0
   1  -2  -8  311.59    7.34   0
   3  -1  -8  358.95   10.46   0
   1  -2  -9  163.69    7.42   0
  -2  -1 -11   90.74    7.02   0
  -1  -2  -7  192.81    5.07   0
   0  -2 -10  204.38    7.17   0
   3  -1  -9  476.76   12.85   0
   1  -2 -10  158.75    7.86   0
  -2  -1  -4   86.60    2.97   0
  -1  -2  -6   43.75    3.76   0
   2  -2  -8  587.58    9.71   0
   2  -2  -7  635.51    8.77   0
   2  -2  -9  550.90   10.52   0
   2  -2  -6  636.02    7.83   0
   2  -1  -2  476.48    3.77   0
  -3  -1  -8  346.57    8.05   0
   0  -2  -4  823.12    6.39   0
   1  -2  -4  871.60    6.55   0
   2  -2 -10   66.43    7.35   0
   2  -2  -5 1004.58    8.35   0
  -2  -2  -9  416.53    8.21   0
  -2  -2  -8  424.03    7.33   0
  -2  -2 -10  305.13    8.37   0
   3  -1  -3  445.50    4.89   0
  -2  -2  -7  632.63    7.53   0
  -2  -2 -11  207.41    8.07   0
  -3  -1  -6  633.86    7.47   0
  -1  -1  -2 5934.33   10.89   0
   3  -2  -8   31.55    7.25   0
   3  -2  -7  247.31    8.08   0
  -2  -2  -6  822.16    7.76   0
  -1  -2  -4  338.08    4.48   0
   0  -3 -10  127.79    6.69   0
   0  -3  -8   65.76    4.39   0
   1  -3  -9  305.87    8.80   0
   1  -3  -8  582.60    9.55   0
   3  -2  -9  170.82   10.10   0
   0  -3  -7   93.58    4.98   0
   1  -3 -10  321.87    9.62   0
   1  -3  -7  392.31    7.62   0
  -1  -3 -10  364.38    8.65   0
  -1  -3  -9  540.03    9.18   0
  -1  -3  -8  396.93    7.57   0
   0  -2  -3  739.97    5.50   0
   0  -3  -6   75.09    4.53   0
   1  -3  -6  944.03    9.08   0
   1  -1  -1 2845.78    6.84   0
  -1  -3  -7 1169.25   10.17   0
   2  -3  -9  286.51    9.03   0
   2  -3  -8  237.98    8.17   0
  -2  -2  -5 1281.27    8.53   0
   2  -3  -7  318.75    7.83   0
   2  -2  -3 1061.25    6.79   0
  -1  -3  -6  553.94    7.13   0
   0  -3  -5  546.68    6.53   0
   1  -3  -5 1078.47    8.62   0
   2  -3  -6  425.03    7.19   0
  -2  -3 -10   16.01    6.18   0
  -2  -3  -9  145.82    6.67   0
   0  -1  -1  312.44    2.36   0
  -2  -3  -8   38.79    5.50   0
   3  -2  -4  129.98    4.05   0
  -1  -2  -3  203.17    3.03   0
  -1  -3  -5  654.88    7.28   0
   2  -3  -5  178.65    4.26   0
   3  -3  -8  359.32   10.76   0
   0  -4  -9  385.10    8.66   0
   1  -3  -4  960.86    7.60   0
   1  -2  -2 1475.22    6.67   0
   3  -3  -7  354.56    9.25   0
  -2  -2  -4 2324.77   10.27   0
   1  -4  -8  168.78    7.08   0
  -1  -4  -9   56.64    6.07   0
   0  -2  -2   34.80    2.67   0
  -2  -3  -6  353.26    6.24   0
  -1  -4  -8  139.26    6.53   0
   1  -4  -7  256.43    7.14   0
   3  -3  -6  819.58   10.65   0
   2  -3  -4  596.40    6.41   0
   2  -2  -2 1824.15    7.75   0
   2  -4  -7  485.04    9.34   0
  -3  -3  -8  282.69    8.43   0
  -3  -1  -4 1142.74    7.50   0
  -2  -4  -9  411.92    9.24   0
  -2  -3  -5   63.77    4.13   0
  -2  -4  -8  289.69    7.96   0
  -1  -4  -6  192.40    5.83   0
   2  -4  -6  378.62    7.97   0
   0  -4  -5  837.03    8.68   0
  -3  -2  -5  269.03    5.25   0
   2  -3  -3  229.24    4.35   0
  -2  -2  -3 1636.47    8.28   0
  -1  -1  -1 3610.30    7.74   0
   0  -5  -8  146.20    6.63   0
   2  -4  -5  720.78    8.81   0
   3  -3  -4 1036.68    9.05   0
  -1  -5  -9  269.10    7.92   0
   0  -5  -7   90.65    5.98   0
   0  -4  -4  944.38    8.35   0
   1  -4  -4  475.19    6.44   0
   1  -2  -1 1495.95    6.00   0
  -2  -4  -6  535.30    8.20   0
  -2  -3  -4   78.50    4.21   0
   3  -4  -6   96.58    6.89   0
   1  -3  -2 1195.71    6.86   0
  -1  -5  -7  549.87    9.36   0
   0  -5  -6  130.83    6.14   0
   1  -5  -6  748.28   10.05   0
   2  -4  -4  925.78    8.83   0
   3  -2  -2  674.22    5.53   0
  -1  -4  -4  348.75    6.00   0
   2  -5  -7   32.36    5.95   0
  -3  -4  -8  112.24    8.14   0
   2  -2  -1 2766.76    8.65   0
  -2  -4  -5  658.48    8.39   0
  -1  -5  -6  370.61    7.91   0
   1  -4  -3  422.86    5.95   0
   3  -4  -5   99.11    6.07   0
   3  -3  -3 1327.85    9.11   0
  -3  -2  -4  510.65    5.74   0
   0  -5  -5  264.06    6.81   0
   0  -4  -3  961.81    8.10   0
   1  -5  -5  637.64    9.04   0
   2  -5  -6   42.50    5.61   0
  -3  -3  -5 1583.15   11.67   0
  -2  -5  -7  322.98    8.16   0
  -2  -3  -3  135.25    4.23   0
   1  -1   0 2777.48    6.63   0
   2  -4  -3  361.60    6.13   0
  -5  -2  -2  397.98    8.18   0
  -1  -3  -9  564.05    9.29   0
  -1  -3  -5  696.00    6.25   0
  -4  -3  -3  184.00    5.99   0
  -2  -3  -3  120.58    3.66   0
  -5  -3  -4  202.43    7.42   0
  -3  -4  -9  104.06    6.49   0
  -3  -4  -7  157.18    6.32   0
  -1  -3  -4  890.22    6.56   0
  -3  -4  -6  109.77    5.61   0
  -4  -4  -6  385.87    8.32   0
  -3  -3  -2 1928.88   10.94   0
  -2  -4  -8  289.31    8.03   0
  -2  -1   1  317.94    2.80   0
   0  -2  -3  605.49    4.18   0
  -3  -4  -5  111.37    5.56   0
  -3  -2   0  519.70    5.08   0
  -2  -4  -9  418.68    9.70   0
  -2  -4  -6  534.68    8.14   0
   0  -1  -1  482.68    2.63   0
  -5  -3  -3  376.58    8.95   0
  -4  -4  -5  420.91    8.86   0
  -2  -3  -2  270.79    3.80   0
  -1  -3  -3 1353.56    7.59   0
  -2  -4 -10  376.77   10.45   0
  -2  -4  -5  672.00    8.18   0
  -3  -4  -4  316.11    6.92   0
  -2  -4  -4  848.93    8.45   0
   0  -3  -7   86.68    4.43   0
   0  -3  -6   67.34    3.90   0
  -1  -4  -7  295.47    6.75   0
  -1  -4  -6  173.22    5.28   0
  -3  -4  -3  240.70    6.45   0
   0  -3  -5  505.91    5.63   0
   0  -2  -2   32.10    2.27   0
  -4  -4  -3  547.47    9.65   0
  -4  -3  -1  448.50    7.33   0
  -1  -4  -9   63.94    7.40   0
  -1  -4  -5  412.75    6.28   0
  -3  -5  -7  231.21    7.58   0
  -2  -4  -3  586.19    7.27   0
  -3  -5  -6  372.54    8.63   0
  -1  -2   0 4785.03   10.54   0
  -3  -5  -5  347.90    8.36   0
  -3  -4  -2  343.06    6.65   0
  -2  -5  -8   85.64    7.14   0
  -2  -5  -6  280.24    7.89   0
  -3  -3   0 1450.64    9.46   0
  -2  -4  -2 1794.15   10.84   0
  -1  -1   1 3170.14    7.11   0
   0  -3  -3  714.41    5.65   0
  -2  -5  -5  185.90    6.74   0
  -2  -2   1 1962.18    7.81   0
  -1  -4  -3  622.67    6.56   0
  -1  -3  -1  714.46    5.28   0
   0  -2  -1 3505.03    8.88   0
  -3  -4  -1  218.31    5.84   0
  -3  -1   2 1648.39    8.08   0
  -1  -5  -7  479.81    9.65   0
  -3  -5  -3  302.49    7.95   0
  -1  -5  -8  381.27   10.28   0
  -1  -5  -6  385.00    8.28   0
  -4  -4  -1  356.80    8.56   0
  -2  -4  -1  365.52    5.89   0
  -1  -4  -2   83.12    3.83   0
   0  -3  -2  659.19    5.28   0
  -2  -5  -3  146.17    5.89   0
   1  -2  -5  151.13    3.12   0
   0  -1   0 1010.83    3.71   0
  -1  -3   0 1639.97    7.98   0
  -3  -3   1 1495.34    9.68   0
   1  -2  -4  863.78    5.35   0
  -3  -4   0  525.94    7.43   0
  -1  -4  -1   27.39    2.70   0
  -4  -4   0  490.24    9.43   0
   0  -2   0 9999.99   14.54   0
  -3  -5  -1  368.56    8.15   0
  -2  -2   2 1849.30    8.04   0
   0  -5  -7   91.05    7.28   0
   0  -5  -6  135.65    6.84   0
  -1  -5  -2 1067.55    9.99   0
   1  -3  -5  909.27    7.20   0
   1  -2  -3  918.31    5.10   0
  -4  -5  -1  236.95    8.71   0
  -2  -5  -1  124.37    4.54   0
  -1  -4   0 2190.27   10.93   0
  -1  -3   1  726.95    5.66   0
   0  -5  -4  216.73    6.20   0
  -3  -4   1  263.30    6.33   0
  -2  -4   1  939.42    8.16   0
  -1  -6  -4  188.43    7.01   0
   0  -3   0  106.44    3.23   0
  -3  -5   0  294.68    7.56   0
  -3  -3   2 1346.68    9.97   0
  -1  -5  -1 1174.29   10.09   0
   0  -5  -3  242.89    6.04   0
   0  -4  -1 2669.63   11.78   0
   1  -3  -3  921.61    6.40   0
  -2  -3   2  632.68    6.16   0
   1  -2  -2 1334.65    6.06   0
  -1  -6  -3  170.18    6.47   0
   1  -4  -5   30.84    4.04   0
   1  -4  -4  474.93    6.38   0
  -1  -4   1  221.23    4.84   0
   0  -2   1  105.06    2.45   0
  -1  -6  -2   29.46    4.90   0
   0  -6  -5  337.67    9.45   0
  -1  -5   0  517.70    6.82   0
   0  -4   0 2293.01   10.89   0
   1  -4  -3  426.42    5.99   0
   0  -6  -4  467.07    9.89   0
   0  -3   1  592.62    5.16   0
   0  -1   1  125.87    2.01   0
  -3  -4   2  159.49    5.91   0
  -2  -5   1   91.66    4.73   0
  -2  -4   2  963.61    8.61   0
   0  -5  -1  121.24    4.75   0
  -1  -6  -1   80.54    5.39   0
   1  -3  -1 1144.63    6.68   0
   1  -1  -2 3002.10    6.67   0
   1  -5  -5  632.43   10.02   0
   1  -5  -4  504.91    7.54   0
  -2  -3   3  463.45    6.16   0
   0  -6  -2  682.79   10.06   0
   1  -5  -3  709.22    8.96   0
   1  -4  -1  249.78    4.71   0
  -2  -1   3  218.33    2.75   0
  -1  -6   0  422.38    8.01   0
  -2  -5   2   84.71    5.01   0
   0  -3   2  806.19    6.06   0
   0  -2   2 1119.91    5.53   0
   1  -3   0 1903.02    8.38   0
  -1  -3   3  904.94    6.62   0
  -1  -2   3  649.80    4.92   0
   1  -2   0  747.94    4.70   0
   0  -5   1  323.82    6.22   0
   1  -6  -4  264.08    8.57   0
  -1  -6   1   51.09    4.91   0
   1  -6  -3  130.69    6.88   0
   1  -3   1 1516.57    7.66   0
   1  -6  -2  166.24    6.68   0
   1  -5   0  878.20    9.13   0
  -2  -5   3   36.93    5.09   0
  -1  -1   3 1335.22    5.16   0
   0  -1   2 2345.37    6.65   0
  -2  -3   4  244.24    5.20   0
   0  -3   3  282.84    4.48   0
  -1  -6   2   68.81    5.20   0
  -1  -5   3  485.33    7.95   0
   0  -2   3  809.73    5.21   0
  -1  -3   4 1164.98    8.67   0
   1  -5   1  559.04    7.65   0
   2  -4  -4  855.35    9.75   0
  -2  -4   4  649.61    9.38   0
   1  -3   2 1318.40    7.40   0
   2  -4  -2  903.99    8.55   0
  -1  -2   4  403.89    4.25   0
   1  -6   0  201.53    6.54   0
   1  -1   0 3157.20    7.68   0
   2  -5  -3  132.93    6.48   0
   2  -3  -2  644.27    6.28   0
   2  -5  -2  392.27    7.81   0
   2  -4  -1 1007.86    8.77   0
   1  -2   2  545.01    4.49   0
   2  -3  -1  377.91    5.18   0
   1  -5   2  747.31    8.61   0
   2  -5  -1  171.11    6.08   0
   1  -6   1   99.95    5.37   0
  -1  -5   4  546.03    9.01   0
   1  -3   3 1476.83    8.28   0
   2  -6  -2  285.51    8.82   0
   0  -1   3  708.43    4.37   0
   2  -4   1  672.10    7.34   0
   1  -6   2  204.59    6.16   0
   1  -5   3  504.97    7.79   0
   1  -1   1 4852.19    9.92   0
   2  -6  -1  367.52    8.90   0
   2  -3   1  352.59    5.05   0
   1  -2   3   95.79    3.04   0
   2  -5   1  443.17    7.50   0
   2  -2  -1 2775.13   10.21   0
   2  -6   0  385.93    8.44   0
   2  -4   2 1008.41    8.69   0
   0  -4   5  497.15    7.52   0
   0  -3   5   39.41    3.70   0
   1  -4   4  261.84    5.26   0
   1  -3   4  491.94    5.77   0
   2  -3   2  601.39    6.20   0
   2  -2  -3 1038.97    6.63   0
  -1  -5   5  344.05    9.12   0
   2  -5   2  247.87    6.28   0
   1  -5   4  225.87    6.59   0
   1  -1   2 3725.15    9.61   0
   2  -2   1 1792.22    9.03   0
   0  -5   5   75.55    5.52   0
   2  -4   3  486.68    6.97   0
   0  -2   5  840.74    6.35   0
   2  -5   3  137.77    5.62   0
   2  -3   3   33.70    2.58   0
   1  -4   5  234.89    6.37   0
  -1  -3   6  328.30    6.29   0
   3  -5  -1  278.20    9.14   0
   3  -4  -1  370.66    7.94   0
   0  -4   6  451.50    8.95   0
   1  -1   3 3050.32    9.67   0
   2  -4   4  689.83    8.38   0
   3  -5   0  429.84    9.57   0
   3  -4   0  131.99    4.88   0
   0  -3   6   96.04    4.88   0
   2  -5   4  160.57    5.87   0
   2  -2   3 1368.26    8.61   0
   3  -5   1  372.75    8.74   0
   3  -3  -1 1021.78   10.13   0
   3  -3   0 1771.53   12.75   0
   1  -4   6   94.11    5.84   0
   3  -5   2  313.28    8.07   0
   0  -2   6  692.24    5.96   0
   2  -4   5  283.76    6.81   0
  -1  -1   5 2119.96    8.20   0
   2  -3   5  273.57    5.90   0
   2  -2   4 2093.64   11.02   0
   3  -4   3  154.59    6.36   0
   0  -1   5  267.71    3.67   0
   1  -1   4  979.31    6.17   0
   0  -4   7  347.13    9.91   0
   2  -1   1  428.79    4.77   0
   2  -4   6  418.35    8.64   0
   1  -4   7  173.43    7.24   0
   2  -2   5  857.66    8.22   0
   1  -3   7  642.50    9.26   0
   2  -3   6  172.71    5.22   0
   0   0   2 4798.17    8.33   0
   1  -1   5  635.24    5.71   0
   0  -2   7 1188.19    9.06   0
   2  -1  -1  785.66    5.34   0
   3  -2  -1  506.88    6.71   0
   3  -2   3  185.46    4.85   0
   0  -1   6   47.50    2.80   0
   4  -4   0  455.03   14.70   0
   3  -4   6   86.58    6.22   0
   4  -3   0  479.66   11.68   0
   1   0   2 4277.07   10.69   0
  -3  -3   5  446.95    8.96   0
   0  -2  -3  744.17    5.18   0
  -3  -5   2  304.17    8.33   0
  -2  -4   3  838.55   10.00   0
  -1  -4   1  208.99    5.88   0
  -3  -4   4  218.27    7.59   0
   0  -2   1  124.74    3.34   0
  -2  -1   6  250.83    5.32   0
   0  -3  -1  565.30    5.91   0
  -2  -3   5  529.71    8.26   0
  -1  -5  -2 1067.49   12.24   0
   0  -3   0   97.53    4.03   0
   0  -1   2 2470.90    7.99   0
  -2  -5   2   64.49    5.87   0
  -1  -5  -3 1103.29   12.63   0
  -2  -6  -3  364.46   11.26   0
  -2  -6  -2  598.04   12.10   0
  -2  -2   6  267.73    6.32   0
  -1  -5  -4  667.23   11.12   0
  -1  -3   4 1132.58    9.06   0
  -1  -1   5 1888.48    8.53   0
   0  -3  -3  588.77    5.96   0
  -3  -4   5   92.91    6.73   0
  -2  -6  -1   59.90    7.74   0
  -1  -5   0  454.96    8.30   0
  -1  -4   3   78.12    4.99   0
  -1  -2   5  528.26    6.02   0
  -1   0   5   15.33    2.18   0
   0  -2   3  781.00    5.89   0
  -2  -4   5  387.74    8.63   0
   0  -4  -2 1107.95    9.76   0
   0  -1   3  696.07    4.78   0
  -2  -3   6  335.00    7.57   0
  -1  -5   2  796.14   10.36   0
  -1  -4   4  133.57    5.61   0
  -1  -3   5 1222.54    9.89   0
   0  -4  -3  860.72    8.70   0
  -1  -6  -3  159.08    9.15   0
  -1  -6  -2   33.59    7.27   0
  -1  -6  -1   91.30    8.08   0
   0  -4   2 1064.81    9.21   0
   0  -2  -4  818.92    4.69   0
  -1  -2   6  432.07    6.06   0
  -1  -1   6  649.55    6.08   0
   0  -2   4 1414.78    7.77   0
  -2  -4   6  331.71    8.93   0
  -1  -6   1   58.00    6.01   0
   0  -5  -2  240.60    6.76   0
   0  -3   4  380.14    5.48   0
  -1  -3   6  402.60    7.18   0
   0   0   2 4991.51    8.16   0
   0  -4   4  789.89    8.80   0
   0  -2   5  873.02    6.63   0
  -1  -4   6   47.75    5.48   0
   0  -5   3  230.43    6.65   0
  -1  -2   7  333.69    6.26   0
   0  -1   5  260.14    3.70   0
  -1  -3   7  503.45    8.76   0
   0  -6  -2  716.74   12.67   0
   0  -6  -1  765.33   12.37   0
   0  -6   0  774.31   11.82   0
   1  -3   0 1937.80   10.25   0
   1  -3   1 1622.47    9.56   0
   0  -6   1  296.42    8.41   0
   0  -4   5  416.37    7.39   0
   1  -3   2 1544.63    9.33   0
   0  -5   4  141.79    6.20   0
   0  -2   6  672.46    6.44   0
   1  -4   0  514.76    7.12   0
   1  -4   1  108.61    4.75   0
   0  -6   2  392.53    8.76   0
   0  -3   6   82.10    4.34   0
   1  -4  -1  229.77    5.58   0
   1  -4   2  587.39    7.43   0
   1  -2   0  833.93    6.12   0
   1  -2   2  491.18    5.13   0
  -1  -4   7   98.71    6.33   0
   1  -4   3  243.87    5.64   0
   1  -2   3   69.91    3.36   0
   0  -5   5   68.50    5.27   0
   0  -4   6  394.84    7.71   0
   1  -5   1  584.55    9.04   0
   0  -1   6   32.45    2.68   0
   1  -5  -1 1095.21   11.60   0
   1  -5   2  840.29   10.14   0
   1  -4   4  397.37    6.64   0
   0  -3   7  158.25    5.65   0
   1  -3   5  535.00    6.67   0
   0  -4   7  282.49    7.54   0
   1  -4   5  265.68    6.28   0
   1  -6   0  220.26    8.01   0
   1  -5   4  221.95    6.53   0
   1  -1   2 3389.53    9.83   0
   1  -6   2  231.09    7.62   0
   1  -5  -3  715.37   10.90   0
   1  -6  -2  194.77    9.98   0
   1  -3  -3  988.66    7.61   0
   1  -3   6  623.81    7.40   0
   1  -1   1 5018.51   11.13   0
   1  -5   5  277.41    6.92   0
   1  -1   4 1269.70    6.86   0
   1  -2  -2 1061.46    6.31   0
   1  -2   6   43.50    3.51   0
   2  -4   1  705.08    8.78   0
   1  -3   7  550.11    7.70   0
   2  -4   3  472.72    7.57   0
   2  -3   1  363.14    6.03   0
   2  -3   3   48.69    4.03   0
   1  -4   7  142.30    5.83   0
   1  -2   7   76.33    4.04   0
   2  -5   0  187.01    7.36   0
   2  -5   3  146.06    6.32   0
   2  -3   4   51.78    3.33   0
   2  -4  -1 1025.02   10.40   0
   1  -1   6 1288.43    7.95   0
   2  -5   4  178.12    6.23   0
   2  -4   5  304.77    6.89   0
   2  -3   5  265.64    5.93   0
   2  -2   3 1386.06    9.24   0
   0   0   6 1069.85    5.97   0
   2  -6   1  265.91    8.54   0
   2  -2   4 2112.15   11.20   0
   1  -3   8  340.35    7.60   0
   2  -6   0  429.68   10.63   0
   2  -3  -1  381.52    6.04   0
   2  -2   1 1568.60   10.08   0
   2  -4   6  405.45    7.68   0
   2  -2   5  785.21    7.64   0
   1  -2   8   49.71    5.38   0
   2  -5  -2  468.43   10.06   0
   2  -2   0 4585.64   14.82   0
   1  -3  -4  811.22    6.76   0
   1  -1  -1 3018.09    7.95   0
   2  -4   7  255.18    7.03   0
   2  -3   7   57.76    4.98   0
   2  -3  -2  621.48    7.20   0
   1  -2  -3  795.65    5.11   0
   2  -2   7  738.58    8.17   0
   2  -1   3  410.24    4.99   0
   2  -1   4   65.81    3.54   0
   3  -4   2  126.13    5.41   0
   3  -4   4  225.02    6.95   0
   3  -5   3  381.62    8.52   0
   3  -3   3  936.41   10.42   0
   1   0   3 1128.31    5.38   0
   2  -3   8    0.82    4.46   0
   2  -1   2 1155.99    7.29   0
   1   0   5  929.07    5.65   0
   3  -5   0  489.71   10.98   0
   3  -4   0  234.70    7.43   0
   3  -3   1 1693.27   13.50   0
   3  -3   5  584.85    8.79   0
   2  -1   6  480.71    5.97   0
   3  -4   6   80.25    5.29   0
   2  -1   1  443.72    4.92   0
   3  -3   6  360.49    7.66   0
   3  -2   3  199.43    5.47   0
   3  -2   4  595.07    7.77   0
   3  -4  -1  366.80    8.57   0
   3  -2   2  396.60    6.59   0
   3  -2   5  238.22    5.98   0
   2  -1   7  325.48    5.57   0
   3  -3   7  260.30    7.20   0
   2  -3  -3  178.50    4.63   0
   3  -2   1  109.30    5.05   0
   3  -3  -1  974.57   10.84   0
   3  -2   7  214.10    6.36   0
   1   0   7  772.77    6.10   0
   3  -4  -2  378.58    9.33   0
   4  -4   4  436.69    9.21   0
   3  -1   4 1083.73    9.32   0
   3  -2   8  289.63    7.15   0
   4  -4   1  464.77   11.22   0
   4  -3   3  258.17    7.81   0
   4  -3   5  339.86    8.27   0
   4  -3   2  245.60    8.23   0
   3  -1   2  833.67    8.11   0
   2   0   6  501.05    5.52   0
   3  -3  -2 1217.70   12.03   0
   4  -4   0  359.02   11.09   0
   4  -2   4  642.48    9.58   0
   4  -2   5  354.26    7.98   0
   3  -2  -1  448.32    6.62   0
   4  -2   6  287.79    7.60   0
   2   0   7 1113.83    8.11   0
   3  -1   1 1783.89   10.93   0
   4  -2   2  671.82    9.99   0
   4  -3   0  299.19    8.82   0
   4  -2   7  401.66    8.35   0
   4  -2   1  547.65    9.29   0
   4  -1   4   49.52    4.86   0
   4  -1   5  127.98    5.61   0
   2   0   1  667.94    5.23   0
   3   0   4  469.13    5.99   0
   3   0   6  137.66    4.56   0
   4  -3  -1  100.24    6.06   0
   4  -2   0  579.76    8.82   0
   3   0   7  133.62    4.78   0
   4  -1   2  129.66    5.43   0
   5  -2   4  113.25    6.60   0
   5  -2   5   31.47    5.69   0
   3   0   2  731.18    6.77   0
   3   0   8   33.98    4.65   0
   5  -2   3  192.02    7.79   0
   4  -3  -2  207.21    8.37   0
   2  -1  -2  471.49    4.31   0
   5  -2   2  138.52    7.73   0
   4   0   5  725.82    8.59   0
   4   0   4  980.71    9.04   0
   5  -1   4  484.78    9.39   0
   5  -1   5  729.25   10.83   0
   5  -1   6  293.74    7.99   0
   4   0   3 1251.61   10.60   0
   2   1   6  547.64    5.24   0
   1   1   6 1069.80    6.08   0
   3  -2  -3   73.47    3.81   0
   4   0   2 1614.84   11.68   0
   5  -2   0  388.44    9.86   0
   5  -1   2  580.64   10.36   0
   3  -1  -2 1457.92    9.04   0
   3   1   4  911.83    7.52   0
   3   1   6  586.64    6.85   0
   3   1   7  489.64    6.66   0
   4  -1  -1  277.35    6.24   0
   5  -1   1  961.56   12.33   0
   4   0   1 1208.74   10.18   0
   5   0   5   60.94    5.93   0
   2   0  -1 1072.75    5.79   0
   5   0   3  245.91    7.37   0
   4   1   6  134.52    5.70   0
   1   0  -1 4334.16    7.87   0
   2  -2  -4 2501.82    9.44   0
   3   1   2 2090.52   10.48   0
   4   1   4  228.94    5.88   0
   4   1   7  118.85    5.84   0
   3   0  -1 1268.60    8.19   0
   4   0   0 1314.58   10.43   0
   5   0   2  281.12    7.68   0
   1   1   2 5367.55   10.02   0
   4  -2  -3  899.04   11.10   0
   2   1   2  804.13    6.15   0
   3   0   5   47.41    3.88   0
   1   5   4  659.15    8.81   0
   3   1   4  934.22    8.37   0
   3   2   4  448.88    6.93   0
   3   4   6  102.22    6.47   0
   2   0   2 1757.45    7.52   0
   4   2   9  309.25    8.29   0
   2   5   5  174.85    6.73   0
   3  -1   6  581.90    7.67   0
   3   0   4  402.21    5.50   0
   3   3   4  713.32    9.25   0
   4   1   8  140.01    6.79   0
   4   1   9   70.22    6.82   0
   4   3   8  194.40    7.42   0
   1   4   2   66.65    3.36   0
   3   4   5  120.51    6.48   0
   1   3   1 1015.37    6.23   0
   2   4   3  545.92    7.37   0
   3   5   7  233.22    7.89   0
   4   3   7  208.26    7.55   0
   3   1   3  575.25    6.88   0
   3   2   3  196.47    5.31   0
   4   2   6  368.63    8.37   0
   2   5   4  158.77    6.24   0
   3   5   6  356.74    8.82   0
   3   3   3 1178.69   10.62   0
   4   0   7  512.50    8.68   0
   4   2   5  328.37    7.95   0
   4   4   7  323.65    8.55   0
   4   0   6  648.94    8.54   0
   4   3   5  179.84    6.91   0
   3   5   5  335.64    8.46   0
   4   4   6  305.88    8.75   0
   1   1   0 2776.72    6.79   0
   2   4   2 1687.90   10.49   0
   3  -1   4 1153.95    7.96   0
   3   1   2 1212.32    8.09   0
   2   0   1  613.26    4.20   0
   4   3   4  255.30    6.58   0
   3   5   4  197.56    7.30   0
   4   0   4 1310.11   10.20   0
   5   1   7  255.55    8.01   0
   4   1   3  250.72    5.90   0
   4   4   4  571.82   10.21   0
   1  -1   1 4783.61    6.60   0
   3  -1   3  458.68    4.77   0
   4   3   3  181.83    6.99   0
   5   1   6  463.13    9.29   0
   2   1   0  701.25    4.62   0
   2   2   0 2935.60    9.99   0
   5   3   5  223.47    7.91   0
   2   4   1  358.80    5.51   0
   3   5   3  298.59    7.68   0
   4   2   2 1071.45   10.39   0
   4   1   2  224.34    5.60   0
   5   2   4  189.83    7.85   0
   2   3   0  441.99    5.05   0
   3   0   1  221.81    3.62   0
   4   3   2  192.52    7.08   0
   3  -1   2  796.41    5.58   0
   5   0   5   52.19    5.79   0
   4   0   2 1623.11   10.21   0
   5   2   3  293.86    8.04   0
   4   4   2  689.76   10.16   0
   4   2   1  519.60    7.02   0
   4   5   3   70.96    6.19   0
   4   3   1  470.39    8.26   0
   5   0   4  201.36    6.70   0
   1   2  -1 2121.23    6.41   0
   1   4   0 1612.83    7.73   0
   2   4   0  672.62    6.37   0
   5   2   2  392.71    8.68   0
   2   1  -1  433.77    3.70   0
   3   0   0 1379.59    6.89   0
   5   0   3  234.52    6.63   0
   5   1   2  881.25   11.11   0
   5   3   2  245.39    8.62   0
   3  -1   1 1842.53    7.80   0
   2   3  -1  535.55    5.25   0
   3   4   0  521.22    7.31   0
   4   5   2  151.77    7.15   0
   4  -1   2  153.90    4.16   0
   4   1   0  557.73    6.45   0
   3   1  -1 1075.38    6.92   0
   4   3   0  160.03    5.47   0
   5   0   2  289.66    6.93   0
   5   2   1  374.72    8.44   0
   3   3  -1 1453.13   10.02   0
   4   0   0 1375.93    8.94   0
   4   4   0  518.25    9.09   0
   3   0  -1 1008.12    6.36   0
   4  -1   1  285.71    4.82   0
   5  -1   3  521.28    9.25   0
   2   4  -1  938.06    7.53   0
   3  -1   0 1232.58    6.44   0
   5   2   0  205.92    7.31   0
   3   4  -1  248.59    5.86   0
   5   1   0 1014.28   11.69   0
   0   2  -1   93.67    1.51   0
   3   2  -2  130.50    4.03   0
   6   0   3  512.09   11.46   0
   3   1  -2 1672.05    8.38   0
   2   3  -2  670.78    6.04   0
   4   0  -1 1534.19    9.39   0
   1   2  -2  712.66    4.24   0
   3   3  -2 1330.76    9.77   0
   5   0   0  322.69    6.85   0
   4   4  -1  487.50    9.08   0
   5   2  -1  127.63    6.72   0
   4   1  -2  364.03    6.03   0
   4   2  -2  978.10    9.50   0
   5   1  -1  761.14   10.94   0
   3   0  -2 1098.70    7.68   0
   5  -1   1  973.32   10.61   0
   4   3  -2  177.27    6.32   0
   1   3  -2  995.96    5.52   0
   0   1  -1  119.47    1.47   0
   3   4  -2  137.76    5.39   0
   4   0  -2 2031.55   11.21   0
   2   2  -3 1575.63    7.67   0
   2   4  -2  975.13    8.57   0
   3   1  -3  735.49    6.55   0
   4  -1  -1  285.89    5.05   0
   5   2  -2  162.48    7.14   0
   0   3  -1  571.04    3.23   0
   3  -2   1  123.72    2.89   0
   5  -1   0 1137.88   11.21   0
   5   1  -2  843.92   10.96   0
   3   3  -3 1020.35    9.35   0
   4   2  -3  782.54    9.50   0
   4   4  -2  515.76    9.49   0
   3  -1  -2 1598.38    7.45   0
   5   0  -2  364.48    7.37   0
   4   3  -3   25.17    4.05   0
   4  -1  -2  315.50    5.60   0
   4   0  -3 1484.52   10.64   0
   5  -1  -1  592.33    8.85   0
   1   2  -3  914.55    5.85   0
   3  -2   0  411.33    4.20   0
   5   2  -3  110.56    6.70   0
   3   1  -4 1287.31    9.00   0
   4  -2   0  553.86    7.07   0
   1   1  -3 1064.33    5.22   0
   2  -2   1 1893.90    6.24   0
   3   4  -3  150.80    6.13   0
   6  -1   0  223.41    9.43   0
   4   1  -4  122.57    5.18   0
   4   4  -3  160.51    7.96   0
   2   1  -4   85.79    2.74   0
   3  -1  -3  543.50    5.26   0
   3   3  -4  808.32    9.45   0
   1  -1  -1 3005.69    6.60   0
   4  -2  -1  886.50    8.46   0
   2   0  -4 2724.98   10.29   0
   2  -2   0 4368.51    9.73   0
   3   1  -5  756.77    7.94   0
   5  -1  -3  716.91   10.23   0
   5   0  -4  387.00    7.93   0
   3   2  -5  191.33    5.76   0
   4  -2  -2 1255.55    9.85   0
   4   1  -5  299.51    6.79   0
   5  -2  -1   57.45    6.32   0
   3  -2  -2  507.55    5.21   0
   3  -1  -4  897.39    6.87   0
   4  -1  -4  152.65    5.52   0
   0   2  -2  938.68    4.07   0
   1   2  -4  427.90    4.67   0
   2   1  -5  249.03    4.82   0
   3   0  -5  471.44    6.58   0
   4   0  -5  656.71    9.41   0
   2  -2  -1 2552.11    8.12   0
   2   2  -5  424.48    5.69   0
   3   3  -5  522.64    8.93   0
   5  -2  -2  219.85    7.35   0
   2  -1  -4  395.26    4.67   0
   2   0  -5 1011.19    7.43   0
   4  -2  -3  864.59    8.82   0
   3  -2  -3  101.40    3.57   0
   2   3  -5  519.57    7.38   0
   3  -1  -5  920.62    7.79   0
   3   1  -6  835.10    9.15   0
   4  -1  -5  354.72    7.83   0
   4   1  -6  285.69    7.16   0
   2  -2  -2 1575.83    7.16   0
   3   2  -6  157.95    6.08   0
   4   2  -6  365.15    8.58   0
   5  -2  -3  125.06    6.62   0
   1  -1  -3 2603.00    8.25   0
   4  -2  -4  929.49    9.61   0
   3  -2  -4  151.94    4.27   0
   2   0  -6  782.48    7.59   0
   3  -1  -6  587.95    7.37   0
   4  -1  -6  620.78   10.42   0
   1   0  -5   24.99    2.96   0
   3   0  -7  283.11    7.35   0
   4  -2  -5  401.65    7.60   0
   4   0  -7  784.30   10.70   0
   0   2  -3  733.82    4.51   0
   1  -1  -4 2178.12    8.52   0
   3   2  -7   72.30    6.30   0
   2  -1  -6  342.47    5.64   0
   5  -2  -5  206.00    8.25   0
   2   1  -7  103.27    5.53   0
   1   1  -6  647.92    6.58   0
   3  -1  -7  428.19    7.28   0
   4  -1  -7   85.27    6.09   0
   2   2  -7  663.70    8.85   0
   1   2  -6  398.75    5.97   0
   3  -3  -2 1189.45    9.03   0
   3  -3  -3 1435.66   10.10   0
   3   0  -8   70.60    6.67   0
   0   0  -3 5117.92   10.97   0
   0   1  -4  747.70    5.14   0
   4  -3  -4   43.94    6.05   0
   0   2  -4 1417.28    7.10   0
   2   1  -8  204.41    7.09   0
   3  -2  -7  235.54    6.84   0
   3  -1  -8  267.82    6.96   0
   1   1  -7  445.20    6.75   0
   4  -3  -5   30.06    6.21   0
   0   0  -4 4232.78   11.31   0
   3  -3  -5 1231.21   10.78   0
   2   2  -8  348.99    8.49   0
   0   1  -5  241.39    4.07   0
   1   2  -7  320.88    6.72   0
   2  -1  -8  123.82    5.04   0
   4  -3  -6  248.77    8.54   0
   1  -2  -1 1102.82    5.20   0
   3  -2  -8   24.43    5.53   0
   0   0  -5 2739.03   10.45   0
   1  -2  -5  201.74    4.49   0
   2  -3  -3  204.02    4.22   0
   3  -1  -9  396.51    8.49   0
   2  -3  -2  605.01    5.52   0
   2   1  -9   53.48    6.42   0
  -1   1  -2 3049.71    8.37   0
   2   1  -4  106.20    4.08   0
  -1   2  -4  219.67    4.48   0
   3   0  -1 1423.27    8.12   0
   2   3  -6  333.17    8.74   0
   2   4  -6  343.78   10.55   0
   3   2  -5  178.29    7.64   0
   0   3  -6  111.45    6.38   0
   0   4  -6  447.37   10.17   0
   1   2  -6  451.65    7.98   0
   2   2  -6  308.57    7.62   0
   3   3  -6  481.49   11.31   0
  -1   1  -3 2414.17    8.15   0
   3   0  -2 1296.30    8.27   0
  -1   2  -5  113.03    3.99   0
   0   0  -1 6125.78    8.22   0
   1   3  -7  522.62   10.32   0
   1   4  -7  108.12    7.78   0
   3   2  -6  129.83    7.20   0
  -2   2  -2 3543.88    9.55   0
   2   3  -7   94.95    5.49   0
   4   2  -5  467.69   11.45   0
  -1   3  -6  590.85    8.88   0
   0   0  -2 5420.06    9.54   0
   1   1  -6  592.66    6.59   0
   3   0  -3  133.60    4.12   0
   0   4  -7  275.86    8.81   0
   1   0  -4   31.61    2.81   0
  -1   1  -4 1069.94    6.17   0
   0   1  -6   40.83    3.85   0
   3   2  -7   50.97    6.40   0
   2   0  -5 1041.03    8.16   0
   3   0  -4  700.40    7.35   0
   4   2  -6  360.48   10.66   0
  -2   2  -3 1349.24    7.15   0
   2   1  -7  109.13    6.48   0
   4   1  -5  326.76    9.33   0
   2   2  -8  298.99    9.17   0
  -1   1  -5  679.38    5.89   0
   0   3  -8   23.40    5.03   0
   3   0  -5  468.31    6.89   0
   0   2  -8  550.97    9.13   0
   1   0  -6  141.83    4.19   0
   2   0  -6  718.39    7.69   0
   4   0  -3 1426.49   11.44   0
  -2   2  -4 1826.68    9.44   0
  -1   2  -7   65.63    4.88   0
   0   0  -5 2705.67   10.13   0
   4   1  -6  287.77    9.50   0
   1   1  -8  379.56    6.91   0
   2   1  -8  231.31    8.26   0
  -1   1  -6 1234.30    8.53   0
   1   2  -9  150.94    8.04   0
   4   0  -4 1186.63   11.81   0
  -1   3  -8  287.05    9.61   0
   0   0  -6 1095.92    7.66   0
   0   1  -8   64.49    5.22   0
   1   0  -7  205.50    5.19   0
   0   2  -9  315.21    8.86   0
   4   0  -5  710.95   10.90   0
  -1   2  -8   49.77    5.89   0
  -1   1  -7  945.64    8.58   0
   2   1  -9   53.45    6.11   0
   0   0  -7 1434.71    9.67   0
   1   0  -8   32.90    4.63   0
   2   0  -8 1047.57   11.08   0
   2  -1  -4  330.57    4.75   0
   2  -1  -3  176.56    3.44   0
   4   0  -6  402.47   10.17   0
   1  -1  -5 2656.47   11.10   0
   1  -1  -4 1811.86    8.29   0
   2  -1  -2  518.30    4.27   0
   3   0  -8   77.76    7.37   0
  -1   1  -8  335.57    6.18   0
   0   0  -8  814.41    8.80   0
   1  -1  -3 2289.36    8.26   0
   1   1 -10  225.57    7.50   0
   3  -1  -4  878.34    8.54   0
   3  -1  -3  494.41    6.24   0
   1  -1  -6 1376.95    9.44   0
   1   0  -9  141.60    6.34   0
   2   0  -9  497.48    9.37   0
   3  -1  -5  949.62   10.15   0
   4   0  -7 1040.06   15.98   0
  -1   0  -3 1158.61    5.69   0
   0   1 -10  165.81    8.02   0
   3  -1  -6  613.18    9.34   0
   3  -1  -2 1671.28    9.00   0
  -1   1  -9  579.97    9.85   0
   0   0  -9  361.05    7.93   0
  -2   1  -5  494.79    5.78   0
  -1   2 -10   82.46    9.02   0
   0  -1  -5  664.34    6.02   0
   2  -1  -8  129.19    7.01   0
   3  -1  -7  392.00    9.07   0
  -2   1  -6  370.28    5.99   0
   0  -1  -6    9.82    2.50   0
   0  -1  -4  738.78    5.62   0
  -1   0  -8  284.92    6.31   0
   0  -1  -7  292.67    5.62   0
  -1   1 -10  155.47    8.25   0
   2  -1  -9   52.90    6.74   0
   3  -1  -8  290.56    9.10   0
   0  -1  -8  194.62    6.00   0
   0  -1  -3 1036.63    5.83   0
   3  -1  -9  448.75   10.69   0
  -2   1  -8   45.01    6.08   0
  -2   1  -3  427.24    4.16   0
   0  -1  -9  180.82    6.75   0
   1  -1 -10  386.18    9.10   0
   0  -1 -10  269.72    8.17   0
   2  -2  -7  646.23    9.13   0
   2  -2  -6  640.33    8.04   0
  -1  -1  -6  538.96    5.81   0
   1  -2  -7  864.90    8.94   0
   1  -2  -6  508.92    6.68   0
  -1  -1  -5  513.83    5.79   0
   1  -2  -8  318.71    7.11   0
   1  -2  -5  171.77    4.56   0
   2  -2  -8  604.92   10.30   0
  -2   0  -7 1059.87    9.73   0
  -2   0  -6  535.56    6.61   0
   2  -2  -4 2565.89   12.05   0
   3  -2  -6  134.41    6.98   0
   0  -1 -11  105.70    7.17   0
   0  -1  -2 1347.66    5.77   0
   1  -2  -9  191.66    7.16   0
   2  -2  -9  611.89   11.38   0
   3  -2  -5  175.44    6.22   0
  -2   0  -5  815.10    6.84   0
   0  -2  -7  724.00    8.03   0
   1  -2  -4  849.93    6.76   0
   3  -2  -8   27.41    7.45   0
  -1  -1 -10  262.32    8.26   0
  -1  -1  -4 1714.81    8.33   0
   0  -2  -8  665.24    8.58   0
   0  -2  -6 1056.19    8.43   0
   3  -2  -4  170.37    5.53   0
  -2   0  -9  889.68   11.93   0
   0  -2  -9  625.82    9.39   0
   2  -2 -10   64.55    7.45   0
   3  -2  -9  153.30    9.21   0
   0  -2  -5 1219.88    8.20   0
   0  -2 -10  211.67    7.30   0
   2  -2  -3 1045.06    7.25   0
  -2   0 -10  716.91   12.46   0
  -2   0  -4 1358.70    7.41   0
   0  -2  -4  919.13    6.65   0
  -1  -2  -8    9.87    4.59   0
  -1  -2  -7  197.61    5.31   0
  -2  -1  -8   90.06    5.51   0
  -2  -1  -7  273.24    6.05   0
  -1  -2  -9   12.33    4.03   0
  -1  -2 -10   43.73    6.11   0
  -1  -2  -6   38.18    3.86   0
   1  -3  -8  556.01    8.67   0
   2  -3  -8  244.93    7.80   0
   2  -3  -7  312.70    7.73   0
  -3  -2  -2  588.31    5.17   0
  -4  -3  -5  254.82    6.53   0
  -1  -3  -4  879.82    6.17   0
   0  -1  -1  455.47    2.46   0
  -3  -4  -9   71.00    5.12   0
  -3  -4  -8  104.78    5.67   0
  -2  -4  -8  275.92    6.76   0
  -2  -4  -7  473.38    7.71   0
  -3  -4  -7  169.08    6.15   0
  -2  -4  -6  486.35    7.44   0
  -2  -3  -3  156.23    3.90   0
  -1  -4 -10   37.45    6.10   0
  -1  -4  -7  277.97    6.30   0
  -4  -3  -4  423.22    7.56   0
  -3  -4  -6  113.35    5.72   0
  -3  -3  -3 1319.46    9.37   0
  -1  -3  -3 1294.06    7.09   0
   0  -2  -2   32.89    2.13   0
  -4  -4  -7  289.25    6.92   0
  -4  -2  -2  944.61    8.35   0
   0  -3  -4  518.51    4.86   0
  -4  -4  -6  397.13    8.64   0
  -3  -4  -5   94.99    4.49   0
  -1  -2  -1 1313.07    5.41   0
  -1  -1   0 2745.08    6.08   0
   1  -3  -7  397.13    6.60   0
  -1  -4  -5  397.95    5.90   0
   0  -4  -9  459.75    9.57   0
   0  -4  -8  378.08    7.85   0
   0  -4  -7  774.41    8.68   0
  -2  -4  -4  925.74    8.55   0
  -2  -3  -2  296.46    3.81   0
  -4  -4  -5  446.41    9.01   0
  -2  -5  -8   81.36    5.83   0
   0  -4  -6 1023.42    8.75   0
   0  -3  -3  668.76    5.11   0
  -1  -4  -4  302.83    5.08   0
  -1  -3  -2 2385.67    8.87   0
   1  -2  -3  879.20    4.72   0
  -3  -5  -7  238.20    7.15   0
  -1  -5  -9  262.85    8.38   0
   1  -3  -5 1033.38    7.18   0
  -2  -5  -6  254.55    6.71   0
  -1  -5  -7  508.76    8.91   0
  -4  -4  -4  796.39   10.66   0
  -3  -4  -3  235.10    5.62   0
  -1  -5  -6  329.16    7.16   0
  -4  -3  -2  184.10    5.73   0
  -2  -5  -5  171.05    6.02   0
   0  -4  -4  909.31    7.16   0
   1  -3  -4  944.03    6.27   0
  -3  -5  -5  365.74    8.14   0
  -2  -2   0 2315.19    7.73   0
   0  -3  -2  597.78    4.67   0
  -1  -5  -5  593.71    7.98   0
   0  -5  -9   79.51    7.48   0
   0  -5  -8  151.23    7.03   0
  -3  -3  -1 1566.36    9.19   0
  -1  -3  -1 1073.34    6.07   0
   0  -5  -7   84.62    5.57   0
  -4  -4  -3  599.52    9.38   0
  -1  -2   0 4495.77    9.59   0
   1  -4  -6  119.29    4.87   0
  -3  -2   0  465.66    4.42   0
   0  -5  -6  137.38    5.54   0
  -3  -4  -2  350.64    6.13   0
  -1  -5  -4  652.02    7.96   0
  -1  -4  -2   70.15    3.25   0
   0  -4  -3  936.81    7.12   0
   1  -4  -5   39.54    3.58   0
   1  -3  -3  937.90    5.82   0
   0  -1   0  958.63    3.49   0
  -4  -5  -4   85.50    6.18   0
   0  -3  -1  578.74    4.45   0
  -1  -5  -3  999.17    8.74   0
   1  -4  -4  478.26    5.60   0
   0  -4  -2 1189.10    7.71   0
  -2  -1   1  387.76    2.81   0
  -1  -3   0 1659.99    7.19   0
  -3  -4  -1  203.42    5.01   0
  -1  -4  -1   18.34    2.23   0
  -4  -5  -3   60.50    6.03   0
   0  -6  -7  467.93    9.29   0
   1  -5  -6  807.02   10.04   0
   0  -5  -3  232.12    4.89   0
   1  -4  -3  397.98    5.09   0
  -2  -2   1 2369.73    8.10   0
  -1  -1   1 3030.71    6.81   0
   1  -5  -5  618.62    8.42   0
   1  -2  -1 1263.47    4.90   0
   0  -4  -1 2536.07   10.17   0
  -2  -4   0  687.03    6.31   0
   0  -3   0   88.35    2.62   0
   0  -5  -2  275.68    4.99   0
   1  -5  -4  856.90    8.57   0
  -3  -4   0  479.96    6.44   0
  -2  -3   1  553.36    5.03   0
  -1  -5  -1 1134.79    8.51   0
  -3  -5  -1  334.18    7.04   0
  -1  -3   1  695.53    5.14   0
  -1  -6  -2   21.13    3.90   0
   0  -4   0 2141.20    9.36   0
   1  -6  -5   49.06    5.45   0
   1  -4  -1  234.26    4.01   0
   2  -4  -4  962.83    8.10   0
   2  -3  -3  175.02    3.27   0
  -2  -5   0  149.15    4.78   0
  -1  -5   0  714.03    7.24   0
  -1  -4   1  196.18    4.03   0
   0  -6  -2  663.04    8.46   0
   1  -6  -4  253.73    7.02   0
   1  -2   0  642.20    3.70   0
  -3  -5   0  255.87    6.79   0
   1  -3   0 1837.86    7.36   0
   2  -4  -3  327.76    5.28   0
  -3  -4   1  237.20    5.44   0
   0  -5   0   86.73    4.04   0
   0  -4   1  404.45    4.88   0
   2  -3  -2  644.73    5.07   0
  -2  -3   2  585.51    5.32   0
   2  -5  -4  109.17    5.61   0
  -2  -5   1   92.95    4.68   0
  -1  -5   1  488.17    6.61   0
  -1  -6   0  371.48    6.86   0
   2  -4  -2  881.78    7.20   0
   2  -5  -3  126.87    5.45   0
  -2  -4   2  936.61    8.28   0
   0  -3   2  793.07    5.68   0
   1  -3   1 1578.11    7.38   0
   1  -1   0 2755.12    6.15   0
   0  -5   1  238.67    4.83   0
   0  -2   2 1129.48    5.46   0
   2  -3  -1  343.31    4.16   0
   1  -4   1   87.84    3.87   0
   2  -5  -2  419.98    7.17   0
   2  -4  -1  973.64    7.73   0
   0  -4   2 1072.40    7.59   0
  -2  -5   2   87.89    5.45   0
   2  -2  -1 2957.58    9.19   0
  -1  -3   3 1007.93    7.68   0
   2  -5  -1  169.29    5.80   0
   0  -6   1  277.99    7.06   0
   1  -6   0  227.39    6.76   0
   2  -3   0   97.27    3.44   0
  -2  -3   3  350.88    4.56   0
   2   0  -5  895.37    8.63   0
   2   0  -4 2446.33   11.54   0
  -1  -1  -7 1060.49    9.42   0
   0   0 -10   86.29    7.03   0
   2   0  -6  648.46    8.70   0
   0  -1  -4  719.85    5.89   0
   2   1  -9   53.47    8.77   0
   3   1  -5  794.50   10.34   0
  -2  -1  -6  564.02    6.52   0
  -1  -1  -8  323.19    7.07   0
   2   0  -7  978.08   11.63   0
  -2  -1  -7  267.80    5.81   0
   0  -1  -8  195.08    6.97   0
   3   1  -6  892.67   12.87   0
  -2   0 -11  420.73   10.73   0
  -3   0 -10    0.84    6.51   0
  -1  -1  -9  405.12    7.69   0
   1  -1  -6 1232.47   10.41   0
   1  -1  -5 2675.46   12.46   0
   2   0  -8 1093.70   13.80   0
  -1  -1  -3 1809.07    7.43   0
   0  -1  -9  202.43    7.78   0
   0  -1  -3  564.85    4.36   0
   1  -1  -7  717.94    9.07   0
   3   1  -7  448.80   12.13   0
  -2  -1  -9  107.66    6.44   0
   1  -1  -4 2011.35    9.60   0
   1  -1  -8  744.42   10.13   0
   2   0  -9  488.32   12.10   0
   0  -1 -10  269.88    8.62   0
  -2  -1 -10   42.46    6.61   0
   1  -1  -9  388.55    9.38   0
  -3  -1  -7  527.05    8.07   0
   0  -1 -11   84.58    7.24   0
   1  -1  -3 2577.71    9.38   0
   2   0 -10  216.81   10.71   0
  -2  -1 -11   98.60    7.75   0
   2  -1  -7   30.06    5.76   0
   2  -1  -6  299.33    6.71   0
   3   0  -6  388.04    8.61   0
   3   0  -5  490.96    8.06   0
   2  -1  -8  147.17    7.88   0
   2  -1  -5  124.52    4.71   0
   3   0  -7  295.38    9.78   0
  -1  -2  -7  187.61    5.63   0
   0  -2  -8  699.87    9.78   0
   0  -2  -7  790.00    9.02   0
   0  -1  -2 1296.70    5.70   0
   0  -2  -6 1003.14    8.91   0
   2  -1  -9   65.94    8.36   0
   3   0  -8   70.94    9.27   0
   2  -1  -4  349.84    5.18   0
   0  -2 -10  215.67    8.76   0
  -2  -2  -9  478.80    9.22   0
   1  -2  -8  317.89    8.16   0
   1  -2  -7  837.79   10.02   0
   2  -1 -10   27.84    8.26   0
  -2  -2 -10  269.63    8.88   0
   1  -2  -9  195.64    8.10   0
   1  -2  -6  520.32    7.52   0
   3   0  -3  129.24    3.72   0
  -2  -2  -6  838.87    8.13   0
   1  -2  -5  165.06    4.99   0
   2   0  -1 1014.52    4.67   0
  -2  -2 -11  240.88    9.12   0
   2  -1  -3  212.72    3.83   0
   3  -1  -7  425.19   10.48   0
   3  -1  -8  372.70   11.54   0
   3  -1  -6  642.67    9.97   0
   3  -1  -9  432.35   13.43   0
  -2  -2  -5 1250.72    8.68   0
   1  -2  -4  853.85    7.02   0
   3  -1  -5  883.64    9.80   0
   2  -2 -10   56.74    8.29   0
   0  -3  -9   94.56    7.24   0
   0  -3  -8  137.82    6.59   0
  -1  -3 -10  426.66   10.03   0
   0  -3  -7   86.34    5.58   0
  -1  -3 -11  121.21    8.00   0
   0  -3 -11   38.42    7.20   0
   1  -3  -9  268.26    9.33   0
   1  -3  -8  508.55   10.18   0
   3  -1  -4  902.39    8.36   0
   0  -2  -3  412.74    4.28   0
   1  -3 -10  332.55   10.29   0
  -2  -3 -10   11.01    6.95   0
  -2  -3  -9  137.90    7.33   0
   0  -3  -6   55.09    3.78   0
   2  -1  -2  551.16    4.58   0
   3   0  -2 1315.53    7.21   0
  -2  -3  -8   36.98    5.61   0
   1  -3  -6  996.30    9.96   0
   3  -2  -9  132.55    9.79   0
   3  -2  -8   35.33    7.85   0
   3  -2  -7  275.13    9.16   0
  -2  -2  -4 2309.41   10.23   0
  -2  -3  -7  167.10    6.10   0
   0  -1  -1  571.52    3.39   0
   1  -3  -5  982.24    8.85   0
   1  -1  -1 3096.20    7.73   0
   2  -3  -6  426.24    7.64   0
   3  -2  -5  181.49    5.96   0
  -2  -3  -6  340.56    6.50   0
   0  -4 -10  187.04    8.27   0
   0  -4  -9  383.74    9.57   0
  -1  -4 -10   49.42    7.11   0
   0  -4  -8  389.00    9.06   0
   0  -3  -4  522.63    6.51   0
   1  -4  -9   68.33    7.49   0
  -1  -4  -8  159.05    7.25   0
   0  -4  -7  760.90   10.44   0
   1  -4  -8  156.34    7.55   0
   1  -2  -2 1425.95    7.02   0
   2  -3  -5  197.76    4.70   0
   3  -3  -8  328.32   10.70   0
   3  -2  -4  150.89    4.92   0
  -1  -4  -7  292.40    7.26   0
   1  -4  -7  144.41    5.76   0
   3  -3  -7  392.50   10.01   0
  -2  -4  -9  436.81   10.53   0
  -2  -3  -5   61.17    4.12   0
  -2  -1  -2  790.82    4.08   0
   0  -4  -6  991.09   10.55   0
   2  -4  -8  199.96    8.40   0
   2  -3  -4  575.58    6.88   0
  -2  -4  -8  307.68    8.75   0
  -1  -4  -6  187.46    6.03   0
   0  -3  -3  601.68    6.08   0
   2  -1  -1  729.85    4.51   0
   3  -1  -2 1630.88    8.10   0
  -2  -4  -7  514.26    9.27   0
   1  -4  -5   43.10    4.56   0
   2  -4  -6  364.55    8.13   0
   3  -3  -5 1209.53   11.30   0
   3  -2  -3  102.37    3.89   0
  -1  -5  -9  264.33    8.43   0
  -1  -4  -5  423.11    6.90   0
   0  -5  -8  128.80    7.28   0
  -2  -3  -4   67.24    3.91   0
   2  -4  -5  729.80    9.17   0
  -2  -4  -6  534.19    8.61   0
  -1  -5  -8  358.47    9.32   0
   0  -5  -7   77.59    6.42   0
   0  -4  -4  945.77    8.73   0
   3  -4  -7  244.79    8.74   0
   3  -3  -4 1042.47    9.49   0
   1  -2  -1 1561.76    6.57   0
   0  -2  -1 3426.05    9.20   0
  -1  -5  -7  534.12    9.67   0
   0  -5  -6  119.78    6.47   0
   0  -3  -2  581.09    5.34   0
   2  -5  -7   31.00    5.67   0
   2  -4  -4  976.28    9.35   0
   3  -2  -2  768.08    6.60   0
  -2  -5  -8   89.02    7.77   0
  -2  -4  -5  625.47    8.21   0
  -1  -5  -6  323.49    7.84   0
   3  -4  -5   92.81    5.81   0
   3  -3  -3 1322.49    9.59   0
   0  -4  -3  980.20    8.33   0
   2  -5  -6   42.21    5.69   0
   1  -1   0 2939.19    7.53   0
   2  -2   1 1351.31    8.68   0
   4   1   8  159.72    7.54   0
   2  -1   1  297.18    3.77   0
   3   0   3   28.65    4.18   0
   3   1   4  725.55    7.32   0
   4   0   6  470.13    8.32   0
   1  -1   0 3062.51    7.22   0
   3   3  10  298.08    8.83   0
   4  -1   5  133.48    6.82   0
   4   1   7  111.22    6.74   0
   4  -2   5  373.92    8.52   0
   3   3   8  300.68    7.47   0
   4   2   9  354.08    8.46   0
   1   3   4  879.75    5.58   0
   2   0   1  708.60    5.04   0
   2   3   5   63.78    3.16   0
   3   3   7  456.60    7.63   0
   1   1   1 3849.06    7.51   0
   4   1   5   84.18    5.00   0
   3   3   6  626.35    7.51   0
   4  -3   4  115.39    6.65   0
   4  -2   3  424.24    7.56   0
   4   1   4  183.32    5.29   0
   4   0   3 1195.31    9.88   0
   5   1   7  228.60    6.95   0
   4   3   8  221.42    6.92   0
   1   0   0 1533.12    4.34   0
   3  -2   1  108.95    3.66   0
   3   1   2 2048.39    9.27   0
   2  -2   0 4173.12    9.61   0
   2  -1   0  514.29    3.74   0
   2   1   1  902.53    4.69   0
   5  -2   5   26.06    4.31   0
   3   0   1  223.44    3.89   0
   4   1   3  265.21    5.26   0
   4  -2   2  467.35    7.19   0
   4   0   2 1685.21   10.62   0
   4   3   6  146.56    5.15   0
   5  -2   4   86.16    6.04   0
   2   0   0 3030.88    7.79   0
   4   3   5  190.32    5.59   0
   3   2   2  552.49    5.06   0
   4   1   2  195.16    4.67   0
   5  -2   3  173.89    6.89   0
   5   0   3  204.95    6.47   0
   4   2   3  340.62    5.16   0
   2  -3   0   63.11    2.88   0
   3  -2   0  396.21    4.14   0
   4  -2   1  527.72    7.09   0
   5   1   3  605.39    8.67   0
   5  -1   2  556.12    9.07   0
   5   2   4  190.55    6.34   0
   3   3   3 1023.08    7.48   0
   4   3   4  394.07    6.56   0
   5   3   6  290.57    7.47   0
   2   1   0  627.87    3.89   0
   3   4   5  100.71    4.43   0
   4   1   1  630.45    6.66   0
   4   2   2  986.20    8.21   0
   1   2   1 1044.01    4.05   0
   5   3   5  251.04    6.92   0
   3   2   1  101.31    3.12   0
   5   1   2  850.07    9.74   0
   3   1   0  937.95    5.97   0
   2   3   2  329.33    3.52   0
   4  -2   0  582.18    6.60   0
   4   0   0 1430.42    9.33   0
   4   3   3  177.20    5.25   0
   2  -2  -1 2783.32    8.13   0
   3   3   2 1752.38    9.18   0
   4   4   5  398.81    7.95   0
   5  -2   1  156.64    6.93   0
   5   3   4  177.83    6.49   0
   3  -2  -1  473.36    4.39   0
   4   1   0  838.52    7.45   0
   5   1   1 1084.61   10.85   0
   4   3   2  180.26    5.33   0
   4  -1  -1  312.00    5.21   0
   4   4   4  662.39    9.24   0
   5   0   0  393.91    7.57   0
   5   3   3  365.52    7.67   0
   6   1   2  114.10    6.17   0
   1   0  -1 4153.99    7.06   0
   2   1  -1  537.69    4.10   0
   3   1  -1 1041.84    6.65   0
   4  -2  -1  872.06    7.32   0
   5   2   1  372.98    7.38   0
   6  -1   1   43.85    6.92   0
   5   1   0  951.95   10.52   0
   2   3   1  627.74    4.57   0
   4   1  -1  114.41    4.34   0
   5   3   2  268.16    7.35   0
   4   3   1  413.77    6.34   0
   4   4   3  519.86    8.18   0
   6   1   1   75.80    6.21   0
   3   0  -2 1464.08    7.81   0
   5   0  -1  119.24    5.85   0
   2   0  -2 1109.23    5.13   0
   3  -2  -2  774.32    6.49   0
   4  -1  -2  306.71    5.06   0
   5   2   0  179.17    6.13   0
   3   2  -1  422.69    4.74   0
   4   0  -2 2029.30   11.17   0
   5  -2  -1   51.36    5.35   0
   1   1  -1 3222.19    7.05   0
   5   3   1  257.12    7.14   0
   2   2  -1 2147.83    8.33   0
   3   3   0 1377.81    8.50   0
   4  -2  -2 1260.96    9.04   0
   4   4   2  773.20    9.35   0
   2  -2  -2 1761.63    6.38   0
   4   1  -2  360.34    5.80   0
   4   3   0  187.82    5.13   0
   2   1  -2  396.96    3.96   0
   5  -1  -2 1227.15   11.68   0
   2   3   0  466.56    4.45   0
   2   4   2 1865.88    8.74   0
   5   0  -2  373.50    7.59   0
   5   2  -1  126.23    5.63   0
   3   0  -3  139.14    3.51   0
   5   3   0  369.37    7.92   0
   3   4   1  187.31    4.53   0
   4  -1  -3  263.71    4.78   0
   4   2  -2 1176.13    9.21   0
   1   0  -2  611.89    3.50   0
   3   3  -1 1364.17    8.39   0
   4   3  -1   23.12    3.62   0
   2   0  -3 1623.50    6.54   0
   3  -2  -3   89.73    2.87   0
   3   1  -3  700.23    6.16   0
   4   1  -3  195.95    5.06   0
   2   2  -2 1848.94    7.90   0
   1   4   1   36.80    2.70   0
   5   1   2  891.85   10.65   0
   1   3   0 1609.67    6.88   0
   4   3   1  455.37    7.22   0
   2  -1   0  531.36    2.44   0
   2   1  -1  438.05    3.39   0
   3   3   0 1233.88    8.72   0
   4   5   3   64.11    4.92   0
   5   3   2  303.89    8.20   0
   0   4   1 2848.79    9.41   0
   1   1  -1 3177.12    7.20   0
   1   2  -1 2384.28    6.95   0
   0   3   0   85.44    2.12   0
   2   6   3  397.76    7.59   0
   4   4   1  331.12    7.33   0
   5   1   1 1048.00   11.59   0
   5   2   1  334.74    7.99   0
   1   4   0 2086.10    9.72   0
   3   2  -1  382.81    5.00   0
   0   5   2  299.72    4.77   0
   2   3  -1  563.97    5.39   0
   3   4   0  497.73    6.77   0
   1   5   1 1163.77    8.81   0
   3   5   1  334.28    6.83   0
   1   3  -1  738.05    5.33   0
   3   3  -1 1312.71    9.37   0
   3  -1   0 1214.72    5.20   0
   3   0  -1 1279.86    6.29   0
   2   6   2  584.07    8.69   0
   4   4   0  439.04    8.22   0
   1   0  -1 4065.30    6.71   0
   4   1  -1  111.73    4.17   0
   5   2   0  190.94    7.35   0
   2   4  -1  975.30    7.88   0
   2   5   0  170.63    5.01   0
   5   1   0  978.30   11.63   0
   0   2  -1  110.24    2.18   0
   0   4   0 2100.15    8.36   0
   2   1  -2  399.00    3.97   0
   3   4  -1  256.74    5.79   0
   3   5   0  259.01    6.49   0
   5   3   0  426.20    9.78   0
   3   2  -2  130.60    3.91   0
   2   3  -2  668.12    6.41   0
   2   6   1   65.46    5.33   0
   3   3  -2 1307.32    9.90   0
   4   4  -1  427.31    8.43   0
   5   2  -1  152.62    7.29   0
   2   5  -1   98.97    4.79   0
   3   4  -2  134.54    5.28   0
   3   5  -1  268.50    6.67   0
   4   1  -2  365.84    5.70   0
   4   3  -2  163.79    6.43   0
   2   2  -3 1599.38    8.17   0
   2   6   0  442.24    8.32   0
   3   0  -2 1393.65    7.75   0
   0   4  -1  422.37    4.87   0
   0   5   0   91.03    3.68   0
   2   1  -3  291.22    4.12   0
   3   3  -3 1028.29    9.90   0
   1   2  -3  718.70    5.52   0
   2   5  -2   82.56    5.13   0
   3   5  -2  266.16    6.81   0
   5   2  -2  171.60    7.88   0
   0   3  -2  805.52    5.71   0
   1   3  -3  978.64    6.89   0
   2   4  -3  921.32    9.39   0
   4   0  -2 1876.55   10.57   0
   4   3  -3   13.88    5.42   0
   3  -1  -1  408.30    3.58   0
   4   1  -3  199.63    5.27   0
   5   1  -2  734.69   11.69   0
   1   0  -2  579.31    3.36   0
   1   1  -3 1190.62    5.63   0
   0   4  -2 1065.11    7.70   0
   1   4  -3   75.23    4.01   0
   2   2  -4 1375.88    8.87   0
   3   2  -4  283.31    5.49   0
   3   0  -3  137.53    3.41   0
  -1   2   0  698.00    3.29   0
   0   1  -2 2583.01    6.76   0
   2  -1  -1  842.01    3.52   0
   2   5  -3   40.92    5.12   0
   5   2  -3  112.85    7.96   0
   2   1  -4  122.31    3.47   0
   4   2  -4  768.22   10.07   0
   1   2  -4  509.79    5.53   0
   2   4  -4  625.25    8.99   0
   0   2  -3  828.66    5.34   0
   0   3  -3  330.56    4.60   0
   4   1  -4  121.06    5.16   0
  -1   3  -1 1655.47    7.19   0
   0   4  -3  738.24    7.40   0
   1   1  -4 1483.38    7.49   0
   2   2  -5  473.92    6.80   0
   2   3  -5  469.19    7.20   0
   3   2  -5  161.15    5.43   0
   3   3  -5  471.31    8.68   0
   1   0  -3  104.25    2.29   0
   3   0  -4  661.17    6.04   0
   2   1  -5  242.58    4.51   0
   2   4  -5  391.49    8.39   0
   1   2  -5  563.76    6.46   0
   1   3  -5 1265.25   10.03   0
   0   2  -4 1472.87    7.85   0
   1   4  -5  132.85    5.69   0
   4   0  -4 1085.47   10.43   0
   0   4  -4  805.79    8.70   0
   2   2  -6  359.94    7.28   0
   3   3  -6  468.04    9.35   0
   1   1  -5 2111.24    9.86   0
   2   1  -6  271.06    5.28   0
   2   4  -6  347.70    8.47   0
   4   2  -6  336.38    8.76   0
   0   1  -4  983.04    5.98   0
   1   2  -6  419.42    6.73   0
   1   3  -6  413.50    7.79   0
  -1   2  -2  447.65    3.90   0
   0   2  -5  852.29    7.22   0
   0   0  -1 6324.59    7.93   0
   0   5  -4  167.71    6.99   0
   1   4  -6   63.71    5.74   0
   4   0  -5  686.92   10.07   0
   4   1  -6  336.20    8.82   0
  -1   3  -3 1452.81    8.52   0
   0   4  -5  507.05    8.35   0
   2   2  -7  589.63    9.58   0
   2   3  -7  121.71    6.16   0
   2  -1  -3  196.37    2.81   0
  -1   2  -3   71.30    2.88   0
   0   1  -5  282.95    4.47   0
   1   3  -7  425.81    8.82   0
   2   1  -7  104.42    5.23   0
   0   2  -6  721.06    7.82   0
  -1   3  -4  483.30    6.29   0
   0   4  -6  436.73    9.53   0
   1   4  -7   86.70    6.51   0
   4   1  -7  109.38    8.07   0
   2   2  -8  310.80    8.80   0
;
_shelx_hkl_checksum              99001
_olex2_submission_special_instructions 'No special instructions were received'
loop_
_space_group_symop_operation_xyz
'x, y, z'
'-x, -y, -z'
loop_
_atom_site_label
_atom_site_type_symbol
_atom_site_fract_x
_atom_site_fract_y
_atom_site_fract_z
_atom_site_U_iso_or_equiv
_atom_site_adp_type
_atom_site_occupancy
_atom_site_site_symmetry_order
_atom_site_calc_flag
_atom_site_refinement_flags_posn
_atom_site_refinement_flags_adp
_atom_site_refinement_flags_occupancy
_atom_site_disorder_assembly
_atom_site_disorder_group
Pt1 Pt 1.000000 0.000000 0.500000 0.0374(3) Uani 1 2 d S . P . .
Fe1 Fe 0.500000 0.500000 0.500000 0.0342(5) Uani 1 2 d S . P . .
N1 N 0.6830(12) 0.2772(12) 0.5524(7) 0.0425(18) Uani 1 1 d D . . . .
N2 N 1.3005(13) 0.3163(12) 0.4621(7) 0.0433(19) Uani 1 1 d D . . . .
N3 N 0.3340(13) 0.4597(12) 0.6598(7) 0.0425(18) Uani 1 1 d . . . . .
C1 C 0.7984(14) 0.1734(14) 0.5376(8) 0.041(2) Uani 1 1 d D . . . .
C2 C 1.1931(14) 0.1999(13) 0.4739(8) 0.040(2) Uani 1 1 d D . . . .
C3 C 0.1420(17) 0.4911(16) 0.6733(9) 0.048(2) Uani 1 1 d . . . . .
H3 H 0.073913 0.508610 0.613505 0.058 Uiso 1 1 calc R U . . .
C4 C 0.0397(17) 0.4990(18) 0.7692(9) 0.051(3) Uani 1 1 d . . . . .
H4 H -0.095941 0.520987 0.775914 0.062 Uiso 1 1 calc R U . . .
C5 C 0.1422(19) 0.4736(16) 0.8577(8) 0.051(3) Uani 1 1 d . . . . .
C6 C 0.3342(19) 0.4336(18) 0.8447(9) 0.053(3) Uani 1 1 d . . . . .
H6 H 0.404428 0.408045 0.903699 0.064 Uiso 1 1 calc R U . . .
C7 C 0.4278(19) 0.4304(17) 0.7439(9) 0.052(3) Uani 1 1 d . . . . .
H7 H 0.562941 0.406390 0.735345 0.062 Uiso 1 1 calc R U . . .
C8 C 0.042(2) 0.4914(17) 0.9591(10) 0.055(3) Uani 1 1 d . . . . .
N4 N -0.0027(17) 1.0013(16) 0.9525(9) 0.059(2) Uani 1 1 d . . . . .
C9 C 0.176(2) 0.9572(19) 0.8960(10) 0.059(3) Uani 1 1 d . . . . .
C10 C 0.337(2) 0.893(2) 0.9436(11) 0.062(3) Uani 1 1 d . . . . .
H10 H 0.332607 0.871936 1.018068 0.074 Uiso 1 1 calc R U . . .
C11 C 0.505(2) 0.860(2) 0.8825(11) 0.068(3) Uani 1 1 d . . . . .
H11 H 0.617082 0.819629 0.914960 0.081 Uiso 1 1 calc R U . . .
C12 C 0.512(2) 0.886(2) 0.7726(11) 0.066(3) Uani 1 1 d . . . . .
H12 H 0.627332 0.861213 0.730906 0.079 Uiso 1 1 calc R U . . .
C13 C 0.347(3) 0.948(2) 0.7252(11) 0.069(4) Uani 1 1 d . . . . .
H13 H 0.350884 0.968981 0.650799 0.083 Uiso 1 1 calc R U . . .
C14 C 0.180(2) 0.979(2) 0.7876(11) 0.062(3) Uani 1 1 d . . . . .
H14 H 0.065645 1.014883 0.756185 0.074 Uiso 1 1 calc R U . . .
loop_
_atom_site_aniso_label
_atom_site_aniso_U_11
_atom_site_aniso_U_22
_atom_site_aniso_U_33
_atom_site_aniso_U_23
_atom_site_aniso_U_13
_atom_site_aniso_U_12
Pt1 0.0287(4) 0.0366(4) 0.0473(4) -0.0111(2) -0.0033(2) 0.0008(2)
Fe1 0.0276(10) 0.0355(10) 0.0390(10) -0.0092(8) 0.0003(8) -0.0007(8)
N1 0.034(4) 0.042(4) 0.050(4) -0.012(4) 0.001(3) 0.002(4)
N2 0.037(5) 0.044(5) 0.049(4) -0.013(4) -0.001(4) 0.000(4)
N3 0.035(4) 0.048(5) 0.045(4) -0.015(4) 0.001(3) -0.003(4)
C1 0.035(5) 0.046(5) 0.044(5) -0.010(4) -0.007(4) 0.003(4)
C2 0.034(5) 0.043(5) 0.048(5) -0.017(4) -0.009(4) 0.003(4)
C3 0.041(6) 0.055(6) 0.050(5) -0.019(5) 0.001(4) 0.003(5)
C4 0.034(5) 0.062(7) 0.057(6) -0.017(5) 0.007(4) 0.001(5)
C5 0.058(7) 0.049(6) 0.042(5) -0.014(4) 0.011(5) -0.001(5)
C6 0.053(7) 0.063(7) 0.043(5) -0.011(5) -0.004(5) -0.005(5)
C7 0.052(6) 0.056(6) 0.043(5) -0.008(5) -0.001(5) 0.004(5)
C8 0.061(7) 0.052(6) 0.048(5) -0.012(5) 0.013(5) -0.006(5)
N4 0.056(6) 0.063(6) 0.058(5) -0.012(5) -0.006(5) -0.009(5)
C9 0.063(8) 0.058(7) 0.057(6) -0.017(5) -0.009(6) -0.010(6)
C10 0.064(8) 0.065(8) 0.057(7) -0.012(6) -0.011(6) -0.009(6)
C11 0.062(8) 0.085(10) 0.057(7) -0.017(7) -0.005(6) -0.001(7)
C12 0.067(9) 0.069(8) 0.059(7) -0.015(6) 0.000(6) -0.004(7)
C13 0.094(11) 0.063(8) 0.048(6) -0.008(6) -0.007(7) -0.004(7)
C14 0.057(7) 0.067(8) 0.058(7) -0.006(6) -0.008(6) -0.008(6)
loop_
_atom_type_symbol
_atom_type_description
_atom_type_scat_dispersion_real
_atom_type_scat_dispersion_imag
_atom_type_scat_source
C C 0.0181 0.0091 'International Tables Vol C Tables 4.2.6.8 and 6.1.1.4'
H H 0.0000 0.0000 'International Tables Vol C Tables 4.2.6.8 and 6.1.1.4'
Fe Fe -1.1336 3.1974 'International Tables Vol C Tables 4.2.6.8 and 6.1.1.4'
N N 0.0311 0.0180 'International Tables Vol C Tables 4.2.6.8 and 6.1.1.4'
Pt Pt -4.5932 6.9264 'International Tables Vol C Tables 4.2.6.8 and 6.1.1.4'
loop_
_geom_angle_atom_site_label_1
_geom_angle_atom_site_label_2
_geom_angle_atom_site_label_3
_geom_angle
_geom_angle_site_symmetry_1
_geom_angle_site_symmetry_3
_geom_angle_publ_flag
C1 Pt1 C1 180.0 . 2_756 ?
C2 Pt1 C1 88.1(4) 2_756 2_756 ?
C2 Pt1 C1 91.9(4) 2_756 . ?
C2 Pt1 C1 88.1(4) . . ?
C2 Pt1 C1 91.9(4) . 2_756 ?
C2 Pt1 C2 180.0 2_756 . ?
N1 Fe1 N1 180.0 . 2_666 ?
N1 Fe1 N2 90.2(3) 2_666 1_455 ?
N1 Fe1 N2 89.8(3) 2_666 2_766 ?
N1 Fe1 N2 90.2(3) . 2_766 ?
N1 Fe1 N2 89.8(3) . 1_455 ?
N1 Fe1 N3 90.5(3) . . ?
N1 Fe1 N3 90.5(3) 2_666 2_666 ?
N1 Fe1 N3 89.5(3) 2_666 . ?
N1 Fe1 N3 89.5(3) . 2_666 ?
N2 Fe1 N2 180.0 2_766 1_455 ?
N2 Fe1 N3 91.7(3) 1_455 2_666 ?
N2 Fe1 N3 88.3(3) 2_766 2_666 ?
N2 Fe1 N3 91.7(3) 2_766 . ?
N2 Fe1 N3 88.3(3) 1_455 . ?
N3 Fe1 N3 180.0(4) . 2_666 ?
C1 N1 Fe1 152.3(8) . . ?
C2 N2 Fe1 159.3(8) . 1_655 ?
C3 N3 Fe1 121.3(7) . . ?
C7 N3 Fe1 119.8(8) . . ?
C7 N3 C3 118.2(10) . . ?
N1 C1 Pt1 175.6(9) . . ?
N2 C2 Pt1 177.5(9) . . ?
N3 C3 H3 118.4 . . ?
N3 C3 C4 123.3(11) . . ?
C4 C3 H3 118.4 . . ?
C3 C4 H4 121.0 . . ?
C3 C4 C5 118.0(11) . . ?
C5 C4 H4 121.0 . . ?
C4 C5 C8 119.7(12) . . ?
C6 C5 C4 118.5(10) . . ?
C6 C5 C8 121.8(12) . . ?
C5 C6 H6 120.2 . . ?
C5 C6 C7 119.7(11) . . ?
C7 C6 H6 120.2 . . ?
N3 C7 C6 122.2(12) . . ?
N3 C7 H7 118.9 . . ?
C6 C7 H7 118.9 . . ?
C8 C8 C5 179(2) 2_567 . ?
N4 N4 C9 115.1(15) 2_577 . ?
C10 C9 N4 123.7(12) . . ?
C10 C9 C14 120.2(14) . . ?
C14 C9 N4 116.1(13) . . ?
C9 C10 H10 120.2 . . ?
C11 C10 C9 119.6(13) . . ?
C11 C10 H10 120.2 . . ?
C10 C11 H11 119.7 . . ?
C10 C11 C12 120.6(15) . . ?
C12 C11 H11 119.7 . . ?
C11 C12 H12 120.3 . . ?
C13 C12 C11 119.5(14) . . ?
C13 C12 H12 120.3 . . ?
C12 C13 H13 120.4 . . ?
C14 C13 C12 119.2(13) . . ?
C14 C13 H13 120.4 . . ?
C9 C14 H14 119.6 . . ?
C13 C14 C9 120.8(14) . . ?
C13 C14 H14 119.6 . . ?
loop_
_geom_bond_atom_site_label_1
_geom_bond_atom_site_label_2
_geom_bond_distance
_geom_bond_site_symmetry_2
_geom_bond_publ_flag
Pt1 C1 1.985(9) 2_756 ?
Pt1 C1 1.985(9) . ?
Pt1 C2 1.984(9) . ?
Pt1 C2 1.984(9) 2_756 ?
Fe1 N1 2.137(8) 2_666 ?
Fe1 N1 2.137(8) . ?
Fe1 N2 2.153(8) 2_766 ?
Fe1 N2 2.153(8) 1_455 ?
Fe1 N3 2.217(9) 2_666 ?
Fe1 N3 2.217(9) . ?
N1 C1 1.138(11) . ?
N2 C2 1.137(11) . ?
N3 C3 1.346(15) . ?
N3 C7 1.327(15) . ?
C3 H3 0.9500 . ?
C3 C4 1.373(16) . ?
C4 H4 0.9500 . ?
C4 C5 1.413(18) . ?
C5 C6 1.359(19) . ?
C5 C8 1.448(15) . ?
C6 H6 0.9500 . ?
C6 C7 1.398(16) . ?
C7 H7 0.9500 . ?
C8 C8 1.18(2) 2_567 ?
N4 N4 1.24(2) 2_577 ?
N4 C9 1.434(19) . ?
C9 C10 1.38(2) . ?
C9 C14 1.389(19) . ?
C10 H10 0.9500 . ?
C10 C11 1.37(2) . ?
C11 H11 0.9500 . ?
C11 C12 1.40(2) . ?
C12 H12 0.9500 . ?
C12 C13 1.40(2) . ?
C13 H13 0.9500 . ?
C13 C14 1.38(2) . ?
C14 H14 0.9500 . ?
loop_
_geom_torsion_atom_site_label_1
_geom_torsion_atom_site_label_2
_geom_torsion_atom_site_label_3
_geom_torsion_atom_site_label_4
_geom_torsion
_geom_torsion_site_symmetry_1
_geom_torsion_site_symmetry_2
_geom_torsion_site_symmetry_3
_geom_torsion_site_symmetry_4
_geom_torsion_publ_flag
Fe1 N3 C3 C4 -168.2(10) . . . . ?
Fe1 N3 C7 C6 169.3(10) . . . . ?
N3 C3 C4 C5 0.3(19) . . . . ?
C3 N3 C7 C6 -0.9(18) . . . . ?
C3 C4 C5 C6 -3.2(18) . . . . ?
C3 C4 C5 C8 176.4(12) . . . . ?
C4 C5 C6 C7 4.1(19) . . . . ?
C5 C6 C7 N3 -2(2) . . . . ?
C7 N3 C3 C4 1.8(18) . . . . ?
C8 C5 C6 C7 -175.5(12) . . . . ?
N4 N4 C9 C10 8(2) 2_577 . . . ?
N4 N4 C9 C14 -173.1(15) 2_577 . . . ?
N4 C9 C10 C11 -177.9(14) . . . . ?
N4 C9 C14 C13 177.0(13) . . . . ?
C9 C10 C11 C12 -2(2) . . . . ?
C10 C9 C14 C13 -4(2) . . . . ?
C10 C11 C12 C13 1(2) . . . . ?
C11 C12 C13 C14 -2(2) . . . . ?
C12 C13 C14 C9 3(2) . . . . ?
C14 C9 C10 C11 4(2) . . . . ?
