#------------------------------------------------------------------------------
#$Date: 2021-07-05 20:38:50 +0300 (Mon, 05 Jul 2021) $
#$Revision: 267178 $
#$URL: file:///home/coder/svn-repositories/cod/cif/7/70/73/7707388.cif $
#------------------------------------------------------------------------------
#
# This file is available in the Crystallography Open Database (COD),
# http://www.crystallography.net/
#
# All data on this site have been placed in the public domain by the
# contributors.
#
data_7707388
loop_
_publ_author_name
'Dissem, Nour'
'Essalhi, Mohamed'
'Ferhi, Najmeddine'
'Abidi, Adela'
'Maris, Thierry'
'Duong, Adam'
_publ_section_title
;
 Flexible and porous 2D layered structures based on mixed-linker
 metal-organic frameworks for gas sorption studies.
;
_journal_issue                   25
_journal_name_full
'Dalton transactions (Cambridge, England : 2003)'
_journal_page_first              8727
_journal_page_last               8735
_journal_paper_doi               10.1039/d1dt00426c
_journal_volume                  50
_journal_year                    2021
_chemical_formula_moiety         'C44 H44 N4 O8 Zn'
_chemical_formula_sum            'C44 H44 N4 O8 Zn'
_chemical_formula_weight         822.20
_space_group_crystal_system      triclinic
_space_group_IT_number           2
_space_group_name_Hall           '-P 1'
_space_group_name_H-M_alt        'P -1'
_atom_sites_solution_hydrogens   mixed
_atom_sites_solution_primary     dual
_audit_creation_date             2020-02-05
_audit_creation_method
;
Olex2 1.3
(compiled Nov 21 2019 18:26:39 for OlexSys, GUI svn.r6003)
;
_audit_update_record
;
2020-11-22 deposited with the CCDC.	2021-05-13 downloaded from the CCDC.
;
_cell_angle_alpha                95.712(2)
_cell_angle_beta                 99.174(2)
_cell_angle_gamma                111.463(2)
_cell_formula_units_Z            1
_cell_length_a                   8.2782(5)
_cell_length_b                   10.0936(6)
_cell_length_c                   15.6910(9)
_cell_measurement_reflns_used    9903
_cell_measurement_temperature    100
_cell_measurement_theta_max      70.005
_cell_measurement_theta_min      4.779
_cell_volume                     1186.65(12)
_computing_cell_refinement
;
SAINT (2019) V8.40A; Integration Software for Single Crystal Data.
Bruker AXS Inc., Madison, WI 53719-1173.
;
_computing_data_collection
;
APEX 3 (2019) Bruker AXS Inc., Madison, WI 53719-1173.
;
_computing_data_reduction
;
SAINT (2019) V8.40A; Integration Software for Single Crystal Data.
Bruker AXS Inc., Madison, WI 53719-1173.
;
_computing_molecular_graphics    'Olex2 1.3 (Dolomanov et al., 2009)'
_computing_publication_material  'Olex2 1.3 (Dolomanov et al., 2009)'
_computing_structure_refinement  'XL  (Sheldrick, 2008)'
_computing_structure_solution    'SHELXT 2014/5 (Sheldrick, 2014)'
_diffrn_ambient_temperature      100
_diffrn_detector                 'CCD area detector'
_diffrn_detector_area_resol_mean 8.3
_diffrn_detector_type            'Bruker APEX2 CCD'
_diffrn_measured_fraction_theta_full 0.974
_diffrn_measured_fraction_theta_max 0.971
_diffrn_measurement_device       'three-circle diffractometer'
_diffrn_measurement_device_type  'Bruker Smart APEX'
_diffrn_measurement_method       '\w scans'
_diffrn_radiation_collimation    'Focusing mirrors'
_diffrn_radiation_monochromator  'Quazar MX Mirror Optics'
_diffrn_radiation_probe          x-ray
_diffrn_radiation_type           CuK\a
_diffrn_radiation_wavelength     1.54178
_diffrn_reflns_av_R_equivalents  0.0415
_diffrn_reflns_av_unetI/netI     0.0281
_diffrn_reflns_Laue_measured_fraction_full 0.974
_diffrn_reflns_Laue_measured_fraction_max 0.971
_diffrn_reflns_limit_h_max       10
_diffrn_reflns_limit_h_min       -10
_diffrn_reflns_limit_k_max       12
_diffrn_reflns_limit_k_min       -12
_diffrn_reflns_limit_l_max       19
_diffrn_reflns_limit_l_min       -19
_diffrn_reflns_number            23541
_diffrn_reflns_point_group_measured_fraction_full 0.974
_diffrn_reflns_point_group_measured_fraction_max 0.971
_diffrn_reflns_theta_full        67.679
_diffrn_reflns_theta_max         70.182
_diffrn_reflns_theta_min         4.779
_diffrn_source                   'Microfocus Source'
_diffrn_source_target            Cu
_diffrn_source_type              'Incoatec I\mS High Brilliance Microsource'
_exptl_absorpt_coefficient_mu    1.129
_exptl_absorpt_correction_T_max  0.7533
_exptl_absorpt_correction_T_min  0.5282
_exptl_absorpt_correction_type   multi-scan
_exptl_absorpt_process_details
;
SADABS-2016/2 (Bruker,2016/2) was used for absorption correction.
wR2(int) was 0.1185 before and 0.0592 after correction.
The Ratio of minimum to maximum transmission is 0.7012.
The \l/2 correction factor is Not present.
;
_exptl_crystal_colour            'clear light colourless'
_exptl_crystal_colour_lustre     clear
_exptl_crystal_colour_modifier   light
_exptl_crystal_colour_primary    colourless
_exptl_crystal_density_diffrn    1.151
_exptl_crystal_description       block
_exptl_crystal_F_000             430
_exptl_crystal_size_max          0.27
_exptl_crystal_size_mid          0.07
_exptl_crystal_size_min          0.06
_refine_diff_density_max         0.428
_refine_diff_density_min         -0.385
_refine_diff_density_rms         0.054
_refine_ls_extinction_method     none
_refine_ls_goodness_of_fit_ref   1.050
_refine_ls_hydrogen_treatment    mixed
_refine_ls_matrix_type           full
_refine_ls_number_parameters     271
_refine_ls_number_reflns         4379
_refine_ls_number_restraints     0
_refine_ls_restrained_S_all      1.050
_refine_ls_R_factor_all          0.0382
_refine_ls_R_factor_gt           0.0370
_refine_ls_shift/su_max          0.000
_refine_ls_shift/su_mean         0.000
_refine_ls_structure_factor_coef Fsqd
_refine_ls_weighting_details
'w=1/[\s^2^(Fo^2^)+(0.0565P)^2^+0.5290P] where P=(Fo^2^+2Fc^2^)/3'
_refine_ls_weighting_scheme      calc
_refine_ls_wR_factor_gt          0.1017
_refine_ls_wR_factor_ref         0.1027
_reflns_Friedel_coverage         0.000
_reflns_number_gt                4181
_reflns_number_total             4379
_reflns_threshold_expression     'I > 2\s(I)'
_cod_data_source_file            d1dt00426c2.cif
_cod_data_source_block           ada252
_cod_depositor_comments
;
The following automatic conversions were performed:

data item '_diffrn_radiation_probe' value 'X-ray' was changed to
'x-ray' in accordance with the
/home/data/users/saulius/crontab/automatic-downloads/rss-feeds/RSC/lib/dictionaries/cif_core.dic
dictionary named 'cif_core.dic' version 2.4.2 last updated on
2011-04-26.

Automatic conversion script
Id: cif_fix_values 7556 2019-12-06 15:28:31Z antanas 

 Adding full bibliography for 7707385--7707390.cif.
;
_cod_database_code               7707388
_shelx_shelxl_version_number     2018/3
_shelx_space_group_comment
;
The symmetry employed for this shelxl refinement is uniquely defined
by the following loop, which should always be used as a source of
symmetry information in preference to the above space-group names.
They are only intended as comments.
;
_shelx_estimated_absorpt_t_max   0.935
_shelx_estimated_absorpt_t_min   0.750
_olex2_refinement_description
;
1. Fixed Uiso
 At 1.2 times of:
  All C(H) groups, All C(H,H) groups
2.a Secondary CH2 refined with riding coordinates:
 C1(H1A,H1B), C2(H2A,H2B), C3(H3A,H3B), C4(H4A,H4B), C5(H5A,H5B)
2.b Aromatic/amide H refined with riding coordinates:
 C8(H8), C9(H9), C11(H11), C12(H12), C14(H14), C17(H17), C18(H18), C20(H20),
 C21(H21)
;
_smtbx_masks_void_probe_radius   1.2
_smtbx_masks_void_truncation_radius 1.2
_shelx_res_file
;
TITL ada252_a.res in P-1
    ada252.res
    created by SHELXL-2018/3 at 09:28:06 on 05-Feb-2020
REM Old TITL ada252 in P-1
REM SHELXT solution in P-1
REM R1 0.111, Rweak 0.008, Alpha 0.033, Orientation as input
REM Formula found by SHELXT: C44 N4 O8 Zn
CELL 1.54178 8.2782 10.0936 15.691 95.712 99.174 111.463
ZERR 1 0.0005 0.0006 0.0009 0.002 0.002 0.002
LATT 1
SFAC C H N O Zn
UNIT 44 44 4 8 1
EQIV $1 2-X,1-Y,2-Z
EQIV $2 +X,+Y,1+Z
EQIV $3 +X,+Y,-1+Z

L.S. 20
PLAN  7
SIZE 0.06 0.07 0.27
TEMP -173
CONF
HTAB C1 O1_$1
HTAB C2 O2
HTAB C3 O1_$1
HTAB N2 O3_$2
HTAB N1 O2
HTAB O4 O2_$3
HTAB
BOND $H
list 4
MORE -1
ABIN
fmap 2 53
acta
REM <olex2.extras>
REM <HklSrc "%.\\ada252.hkl">
REM </olex2.extras>

WGHT    0.056500    0.529000
FVAR       0.96546
ZN1   5    1.000000    0.500000    1.000000    10.50000    0.03045    0.02512 =
         0.01828   -0.00300   -0.00059    0.00806
O1    4    0.725740    0.418847    0.922814    11.00000    0.02876    0.02760 =
         0.02476   -0.00228   -0.00402    0.00497
O2    4    0.613080    0.212773    0.973598    11.00000    0.03175    0.03329 =
         0.01995    0.00106   -0.00057    0.00760
O3    4    0.564653    0.348164    0.161166    11.00000    0.04155    0.02999 =
         0.03627   -0.00075    0.01238    0.00541
O4    4    0.424906    0.121068    0.087047    11.00000    0.04031    0.03000 =
         0.02369    0.00033    0.00607    0.00912
N1    3    1.010988    0.294439    0.974297    11.00000    0.02810    0.02687 =
         0.03550   -0.00447   -0.00303    0.00701
N2    3    0.917882    0.468452    1.117944    11.00000    0.02819    0.03827 =
         0.02174   -0.00231    0.00040    0.00425
C1    1    0.997521    0.387954    1.172764    11.00000    0.03545    0.05584 =
         0.02601    0.01128   -0.00033    0.00794
AFIX  23
H1A   2    0.941719    0.372065    1.224171    11.00000   -1.20000
H1B   2    1.125790    0.446923    1.194611    11.00000   -1.20000
AFIX   0
C2    1    0.974440    0.242248    1.122919    11.00000    0.03364    0.03973 =
         0.04663    0.01686   -0.00463    0.00435
AFIX  23
H2A   2    1.006130    0.185667    1.165918    11.00000   -1.20000
H2B   2    0.847158    0.189465    1.095209    11.00000   -1.20000
AFIX   0
C3    1    1.082118    0.246229    1.052201    11.00000    0.03454    0.02971 =
         0.05026    0.00407   -0.00611    0.00962
AFIX  23
H3A   2    1.207099    0.312721    1.076225    11.00000   -1.20000
H3B   2    1.080267    0.148578    1.034844    11.00000   -1.20000
AFIX   0
C4    1    0.946406    0.613506    1.162318    11.00000    0.03652    0.04770 =
         0.02627   -0.01305    0.00250    0.00925
AFIX  23
H4A   2    1.073689    0.666966    1.189803    11.00000   -1.20000
H4B   2    0.877310    0.604746    1.208965    11.00000   -1.20000
AFIX   0
C5    1    1.112158    0.304891    0.904037    11.00000    0.03544    0.03854 =
         0.04103   -0.01518    0.00143    0.01250
AFIX  23
H5A   2    1.091369    0.206792    0.874811    11.00000   -1.20000
H5B   2    1.240765    0.355954    0.929420    11.00000   -1.20000
AFIX   0
C6    1    0.611603    0.293559    0.917461    11.00000    0.02758    0.03044 =
         0.01985   -0.00347    0.00200    0.00995
C7    1    0.469346    0.232582    0.834280    11.00000    0.02627    0.02920 =
         0.01913   -0.00296    0.00155    0.00778
C8    1    0.365607    0.085591    0.813131    11.00000    0.03212    0.02807 =
         0.02176    0.00065    0.00102    0.00891
AFIX  43
H8    2    0.378565    0.023553    0.853085    11.00000   -1.20000
AFIX   0
C9    1    0.243038    0.028454    0.734061    11.00000    0.03192    0.02520 =
         0.02386   -0.00257    0.00058    0.00399
AFIX  43
H9    2    0.173407   -0.072410    0.720267    11.00000   -1.20000
AFIX   0
C10   1    0.221256    0.117819    0.674726    11.00000    0.02838    0.02984 =
         0.01969   -0.00357    0.00036    0.00569
C11   1    0.323640    0.265909    0.697233    11.00000    0.03374    0.02995 =
         0.02112    0.00065   -0.00007    0.00787
AFIX  43
H11   2    0.308858    0.328486    0.658016    11.00000   -1.20000
AFIX   0
C12   1    0.446752    0.323055    0.776100    11.00000    0.03051    0.02501 =
         0.02352   -0.00265    0.00074    0.00538
AFIX  43
H12   2    0.515656    0.424018    0.790380    11.00000   -1.20000
AFIX   0
C13   1    0.100983    0.057248    0.586683    11.00000    0.03241    0.02700 =
         0.02084   -0.00258   -0.00108    0.00567
C14   1    0.171429    0.096982    0.513662    11.00000    0.02910    0.02919 =
         0.02358   -0.00203   -0.00020    0.00287
AFIX  43
H14   2    0.290578    0.164794    0.523094    11.00000   -1.20000
AFIX   0
C15   1    0.075988    0.042305    0.427432    11.00000    0.03377    0.02891 =
         0.02127   -0.00159   -0.00017    0.00674
C16   1    0.170280    0.087419    0.355477    11.00000    0.02853    0.03021 =
         0.02018   -0.00173   -0.00316    0.00545
C17   1    0.170289   -0.014727    0.288232    11.00000    0.03442    0.02622 =
         0.02389   -0.00156   -0.00009    0.00434
AFIX  43
H17   2    0.105104   -0.114586    0.287044    11.00000   -1.20000
AFIX   0
C18   1    0.264058    0.027953    0.223480    11.00000    0.03457    0.02976 =
         0.02268   -0.00290    0.00013    0.00851
AFIX  43
H18   2    0.261704   -0.042689    0.177984    11.00000   -1.20000
AFIX   0
C19   1    0.361590    0.173290    0.224500    11.00000    0.02926    0.03121 =
         0.02249    0.00034   -0.00060    0.00966
C20   1    0.364147    0.275896    0.292056    11.00000    0.03366    0.02539 =
         0.02739   -0.00105    0.00055    0.00503
AFIX  43
H20   2    0.431606    0.375529    0.293822    11.00000   -1.20000
AFIX   0
C21   1    0.269277    0.233353    0.356202    11.00000    0.03676    0.02929 =
         0.02267   -0.00409    0.00074    0.00802
AFIX  43
H21   2    0.271334    0.304256    0.401443    11.00000   -1.20000
AFIX   0
C22   1    0.461989    0.224329    0.155232    11.00000    0.03056    0.03090 =
         0.02603    0.00166    0.00109    0.01126
H2    2    0.811461    0.421687    1.108539    11.00000    0.03290
H1    2    0.903638    0.240778    0.956522    11.00000    0.04303
H4    2    0.489365    0.157319    0.048908    11.00000    0.05408
HKLF 4




REM  ada252_a.res in P-1
REM wR2 = 0.102713, GooF = S = 1.04973, Restrained GooF = 1.04973 for all data
REM R1 = 0.037032 for 4181 Fo > 4sig(Fo) and 0.038160 for all 4379 data
REM 271 parameters refined using 0 restraints

END

WGHT      0.0564      0.5322

REM Instructions for potential hydrogen bonds
HTAB C1 O1_$1
HTAB C2 O2
HTAB C3 O1_$1
HTAB N2 O3_$2
HTAB N1 O2
HTAB O4 O2_$3

REM Highest difference peak  0.428,  deepest hole -0.385,  1-sigma level  0.054
Q1    1   0.9040  0.4999  1.0254  11.00000  0.05    0.43
Q2    1   0.5309  0.2649  0.8725  11.00000  0.05    0.32
Q3    1   0.1659  0.0952  0.6340  11.00000  0.05    0.31
Q4    1   0.8056  0.4615  0.8976  11.00000  0.05    0.29
Q5    1   0.4351  0.2761  0.8124  11.00000  0.05    0.29
Q6    1   0.3849  0.1891  0.1855  11.00000  0.05    0.29
Q7    1   1.0457  0.2609  1.0920  11.00000  0.05    0.26
;
_shelx_res_checksum              74332
_shelx_hkl_file
;
  -1   0   0 1261.27   66.89
  -1   0   0 1260.87   66.89
  -1   0   0 1255.57   66.79
   1   0   0 1226.98   67.69
   1   0   0 1194.98   66.99
   1   0   0 1247.48   67.09
   1   0   0 1288.67   67.39
  -2   0   0 2012.30  102.69
  -2   0   0 1916.01  102.29
  -2   0   0 1913.41  102.49
  -2   0   0 1936.71  102.49
   2   0   0 1764.62  102.89
   2   0   0 1909.11  102.79
   2   0   0 1885.31  104.29
   2   0   0 1934.71  103.49
  -3   0   0 1100.69   58.29
  -3   0   0 1083.59   58.49
   3   0   0 1065.39   58.69
   3   0   0 1082.69   58.99
   3   0   0 1032.60   60.89
   3   0   0 1083.69   59.79
  -4   0   0  161.58    9.60
  -4   0   0  153.78    9.30
   4   0   0  151.78   10.30
   4   0   0  133.19   10.90
   4   0   0  150.48   12.40
  -5   0   0  444.36   24.20
  -5   0   0  443.66   24.60
  -5   0   0  424.26   25.00
   5   0   0  373.06   27.40
   5   0   0  435.56   29.00
   5   0   0  414.36   25.40
   6   0   0    3.70    1.80
   6   0   0    1.70    0.80
   6   0   0    2.10    0.80
   6   0   0    4.70    2.50
   6   0   0    2.90    0.80
   6   0   0    2.60    0.80
   7   0   0   63.39    4.50
   7   0   0   73.69    4.60
   7   0   0   71.09    4.60
   7   0   0   71.39    6.60
   7   0   0   65.89    8.90
   7   0   0   70.99    4.40
   7   0   0   64.09    4.50
   8   0   0   79.59    5.00
   8   0   0   90.09    5.20
   8   0   0   75.29    4.90
   8   0   0   94.19    5.20
   8   0   0   61.39    9.00
   8   0   0   77.29    7.30
   8   0   0   77.39    4.90
   9   0   0    9.10    2.30
   9   0   0   10.90    1.00
   9   0   0   10.80    1.10
   9   0   0   10.70    1.10
   9  -1   0   17.30    3.00
   9  -1   0   16.80    1.50
   9  -1   0   14.00    4.20
   9  -1   0   16.30    1.40
   9  -1   0   19.40    1.50
   9  -1   0   18.90    1.70
   8  -1   0  275.87   15.10
   8  -1   0  303.07   15.20
   8  -1   0  248.18   15.10
   8  -1   0  282.77   15.00
   8  -1   0  252.37   15.00
   8  -1   0  298.27   17.60
   8  -1   0  215.38   19.50
   7  -1   0   31.50    2.80
   7  -1   0   28.30    4.40
   7  -1   0   31.40    2.60
   7  -1   0   34.40    2.50
   7  -1   0   30.30    6.00
   7  -1   0   35.50    2.70
   7  -1   0   35.80    2.70
   6  -1   0  243.18   13.90
   6  -1   0  215.58   14.20
   6  -1   0  285.77   16.90
   6  -1   0  245.08   14.00
   6  -1   0  290.07   20.90
   6  -1   0  232.18   14.00
   6  -1   0  247.38   15.80
  -6   1   0  262.77   15.70
  -6   1   0  261.27   15.90
   5  -1   0    1.10    2.00
   5  -1   0    2.80    1.60
   5  -1   0    7.10    2.40
  -5   1   0    1.70    1.30
  -5   1   0    0.20    0.80
  -5   1   0    0.50    0.80
   4  -1   0  784.72   43.70
   4  -1   0  786.82   45.10
   4  -1   0  780.52   46.90
   4  -1   0  795.92   44.10
  -4   1   0  787.72   43.40
  -4   1   0  781.62   43.30
   3  -1   0  975.70   58.89
   3  -1   0 1058.99   57.09
   3  -1   0 1062.29   56.79
   3  -1   0 1042.70   57.89
  -3   1   0 1029.90   56.59
  -3   1   0 1073.69   56.49
   2  -1   0 3111.69  171.18
   2  -1   0 3222.28  169.68
   2  -1   0 3108.09  170.48
   2  -1   0 2922.31  169.68
  -2   1   0 3318.07  169.28
  -2   1   0 3178.98  169.48
  -2   1   0 3293.77  169.48
   1  -1   0  584.34   32.60
   1  -1   0  587.24   31.60
   1  -1   0  550.74   32.10
   1  -1   0  550.74   31.70
  -1   1   0  615.94   31.60
  -1   1   0  607.34   31.60
  -1   1   0  609.54   31.60
   0  -1   0  145.39    7.90
   0  -1   0  157.58    8.50
   0   1   0  133.69    7.90
   0   1   0  142.49    8.50
   1   1   0 7058.09  372.06
   1   1   0 6670.83  371.86
   1   1   0 7924.91  373.16
   1   1   0 6527.15  372.06
   1   1   0 6921.41  372.86
   1   1   0 6788.52  371.86
   1   1   0 6872.41  372.06
  -2  -1   0 3951.00  208.58
  -2  -1   0 3895.21  208.68
  -2  -1   0 3949.30  208.48
  -2  -1   0 3965.20  208.28
   2   1   0 3827.12  208.98
   2   1   0 4032.10  210.28
   2   1   0 3723.33  208.78
   2   1   0 3818.72  210.48
  -3  -1   0 2682.73  137.29
  -3  -1   0 2665.83  136.79
  -3  -1   0 2530.45  137.29
  -3  -1   0 2699.93  137.09
   3   1   0 2490.55  139.59
   3   1   0 2410.96  140.19
   3   1   0 2393.86  137.49
   3   1   0 2524.55  137.89
  -4  -1   0 1007.00   50.39
  -4  -1   0  950.80   50.89
  -4  -1   0  989.90   50.69
   4   1   0  850.51   53.49
   4   1   0  893.11   51.39
   4   1   0  809.32   54.09
  -5  -1   0   67.29    5.70
  -5  -1   0   76.19    5.60
   5   1   0   68.19    6.20
   5   1   0   73.59    9.90
   6   1   0    0.00    0.60
   6   1   0    0.30    2.30
   6   1   0   -0.70    1.20
   6   1   0    1.90    0.80
   6   1   0    0.70    0.60
   6   1   0    1.80    0.70
   7   1   0  313.67   17.70
   7   1   0  320.37   17.80
   7   1   0  289.97   20.60
   7   1   0  307.77   25.00
   7   1   0  341.87   18.00
   7   1   0  326.97   18.00
   8   1   0   29.70    6.40
   8   1   0   31.00    2.20
   8   1   0   33.20    5.00
   8   1   0   34.30    2.40
   8   1   0   32.70    2.40
   8   1   0   31.70    2.50
   9  -2   0    0.60    0.50
   9  -2   0    0.50    0.50
   9  -2   0    0.20    1.30
   9  -2   0    0.30    0.50
   9  -2   0    0.20    0.50
   9  -2   0    0.30    1.80
   9  -2   0    1.00    0.60
   8  -2   0    6.30    3.00
   8  -2   0    6.30    2.20
   8  -2   0    4.30    0.90
   8  -2   0    6.10    1.10
   8  -2   0    7.00    1.10
   8  -2   0    5.40    1.00
   8  -2   0    5.60    1.20
   7  -2   0   14.10    1.70
   7  -2   0   13.80    1.60
   7  -2   0   15.00    2.90
   7  -2   0   14.30    1.50
   7  -2   0   13.70    4.10
   7  -2   0   17.90    1.80
   7  -2   0   14.40    1.60
   7  -2   0   13.70    1.70
   6  -2   0    8.60    3.50
   6  -2   0    8.80    2.40
  -6   2   0    4.40    1.80
  -6   2   0    7.60    1.90
  -6   2   0    6.60    1.70
   5  -2   0  151.28   12.30
   5  -2   0  173.88   14.60
   5  -2   0  181.38   11.70
  -5   2   0  177.48   10.90
  -5   2   0  173.38   11.30
  -5   2   0  174.18   10.90
   4  -2   0   46.30    6.70
   4  -2   0   45.10    5.50
   4  -2   0   47.60    4.00
   4  -2   0   43.90    4.60
  -4   2   0   45.10    3.70
  -4   2   0   49.80    3.30
  -4   2   0   45.70    4.10
   3  -2   0   26.50    2.90
   3  -2   0   27.40    3.80
   3  -2   0   27.00    4.40
   3  -2   0   31.20    2.90
  -3   2   0   30.70    2.50
  -3   2   0   30.90    2.30
  -3   2   0   27.90    2.70
   2  -2   0 1443.86   79.79
   2  -2   0 1433.66   81.69
   2  -2   0 1352.66   79.99
   2  -2   0 1447.96   81.69
  -2   2   0 1554.04   79.69
  -2   2   0 1627.14   79.89
  -2   2   0 1523.05   79.69
   0  -2   0  411.76   21.90
   0  -2   0  397.76   22.90
   0   2   0  390.56   23.00
   1   2   0  176.18   12.00
   1   2   0  178.18   10.60
   1   2   0  170.88   10.30
   1   2   0  178.18   10.30
   1   2   0  169.78   11.70
   1   2   0  188.08   10.40
   1   2   0  218.38   16.10
   1   2   0  198.28   11.00
  -2  -2   0   70.59    4.60
   2   2   0   65.79    6.40
   2   2   0   56.09    6.10
   2   2   0   97.79   10.90
   2   2   0   63.89    4.90
   2   2   0   70.99    4.50
   2   2   0   75.69    5.10
  -3  -2   0   57.59    3.70
  -3  -2   0   47.20    3.80
  -3  -2   0   51.99    4.10
  -3  -2   0   61.99    4.20
  -3  -2   0   59.19    4.00
   3   2   0   50.59    6.70
   3   2   0   54.69    9.90
   3   2   0   43.90    4.30
   3   2   0   45.80    6.60
  -4  -2   0  801.12   42.40
  -4  -2   0  800.42   42.80
   4   2   0  680.63   46.00
   4   2   0  782.02   43.50
   4   2   0  746.83   47.20
   5   2   0    0.40    0.60
   5   2   0   -0.10    0.50
   5   2   0   -0.70    2.20
   5   2   0   -0.50    0.60
   5   2   0    1.70    1.60
   5   2   0    1.00    2.60
   6   2   0   11.00    1.50
   6   2   0   13.50    1.70
   6   2   0   11.40    1.50
   6   2   0   13.50    1.40
   6   2   0    9.30    5.10
   6   2   0   11.40    3.30
   7   2   0   56.69    3.70
   7   2   0   62.09    4.10
   7   2   0   52.09    3.90
   7   2   0   64.29    3.90
   7   2   0   58.49    7.40
   7   2   0   55.09   10.00
   8   2   0    4.20    0.70
   8   2   0    3.70    0.90
   8   2   0    6.70    2.20
   8   2   0    4.70    0.80
   9  -3   0   20.50    3.10
   9  -3   0   16.50    3.90
   9  -3   0   18.40    1.80
   9  -3   0   20.20    1.80
   9  -3   0   18.50    1.70
   9  -3   0   18.10    1.70
   9  -3   0   18.80    1.60
   8  -3   0   -0.60    1.10
   8  -3   0    0.00    0.50
   8  -3   0    1.90    0.80
   8  -3   0    0.40    0.60
   8  -3   0    0.60    1.70
   8  -3   0    0.80    0.60
   8  -3   0    0.00    0.50
  -8   3   0   -0.40    0.50
   7  -3   0   40.80    3.00
   7  -3   0   45.20    3.00
   7  -3   0   42.00    3.10
   7  -3   0   44.20    6.40
   7  -3   0   40.00    3.10
   7  -3   0   41.90    3.00
   7  -3   0   41.90    4.70
   7  -3   0   42.50    3.20
   6  -3   0   65.39    6.50
   6  -3   0   60.19    9.40
  -6   3   0   53.09    5.40
  -6   3   0   52.09    5.50
  -6   3   0   53.09    5.40
   5  -3   0  489.35   32.00
   5  -3   0  582.44   30.90
   5  -3   0  533.85   34.50
  -5   3   0  545.35   30.20
  -5   3   0  495.85   29.80
  -5   3   0  513.35   29.90
   4  -3   0  526.65   30.70
   4  -3   0  547.45   33.90
   4  -3   0  527.05   32.40
  -4   3   0  548.85   30.30
  -4   3   0  557.64   29.90
  -4   3   0  535.15   30.20
   3  -3   0    9.10    2.80
   3  -3   0    8.10    1.70
   3  -3   0   11.40    1.50
   3  -3   0    8.30    2.80
  -3   3   0    7.20    1.40
  -3   3   0    6.10    1.20
  -3   3   0   10.30    1.40
   2  -3   0   52.19    5.20
   2  -3   0   55.79    5.70
   2  -3   0   51.49    4.00
   2  -3   0   60.29    5.60
  -2   3   0   57.19    3.60
  -2   3   0   62.69    3.90
  -2   3   0   57.89    3.90
  -2   3   0   60.59    4.30
   1  -3   0    8.00    2.10
   1  -3   0    6.40    1.90
   1  -3   0    8.00    1.20
  -1   3   0    9.50    3.20
  -1   3   0    9.00    1.30
  -1   3   0   10.40    1.90
  -1   3   0    8.00    1.10
   0  -3   0  181.58   10.60
   0  -3   0  176.18   11.90
   0  -3   0  180.18   12.20
   0   3   0  196.58   10.90
   0   3   0  214.08   16.30
   0   3   0  184.18   11.60
  -1  -3   0  143.39    8.80
  -1  -3   0  125.29    9.90
  -1  -3   0  150.38    8.40
   1   3   0  161.88   15.20
   1   3   0  162.38    8.90
   1   3   0  142.59   10.80
   1   3   0  147.99    9.50
   1   3   0  140.29    8.60
  -2  -3   0  576.54   33.40
  -2  -3   0  602.94   33.90
  -2  -3   0  595.14   33.30
   2   3   0  616.34   33.50
   2   3   0  621.34   36.70
   2   3   0  662.33   33.70
   2   3   0  495.45   40.50
   2   3   0  637.64   36.90
   2   3   0  645.94   34.70
  -3  -3   0  550.64   30.90
  -3  -3   0  553.34   30.80
   3   3   0  506.25   34.70
   3   3   0  597.14   35.40
  -4  -3   0   30.20    4.10
  -4  -3   0   26.60    3.20
   4   3   0   24.70    6.10
   4   3   0   19.20    5.20
   5   3   0    4.50    0.90
   5   3   0    3.60    2.30
   5   3   0    1.20    3.90
   5   3   0    3.00    0.90
   5   3   0    4.40    1.10
   6   3   0  495.85   26.40
   6   3   0  495.85   26.70
   6   3   0  408.36   29.80
   6   3   0  521.15   26.50
   6   3   0  453.55   34.30
   7   3   0    9.20    1.20
   7   3   0   10.30    3.10
   7   3   0    9.10    1.30
   7   3   0   10.70    1.20
   9  -4   0    4.90    0.80
   9  -4   0    4.80    0.80
   9  -4   0    4.70    0.80
   9  -4   0    3.60    1.60
   9  -4   0    3.10    2.00
  -9   4   0    3.50    0.80
   8  -4   0  151.98    9.30
   8  -4   0  155.48    9.40
   8  -4   0  167.28    9.70
   8  -4   0  154.98   13.50
   8  -4   0  169.28   11.30
   8  -4   0  177.58    9.50
  -8   4   0  161.28    9.60
   7  -4   0   14.60    1.80
   7  -4   0   13.60    2.70
   7  -4   0   10.20    3.50
   7  -4   0   14.30    1.50
   7  -4   0   13.70    1.60
   6  -4   0  110.19    8.40
   6  -4   0   98.29   11.20
  -6   4   0   95.99    7.30
  -6   4   0   92.69    7.40
   5  -4   0    4.00    2.50
   5  -4   0    1.40    1.50
   5  -4   0    2.10    2.50
  -5   4   0    3.70    1.30
  -5   4   0    4.50    1.40
   4  -4   0  878.21   50.99
   4  -4   0  845.32   47.10
   4  -4   0  842.12   49.40
  -4   4   0  847.62   46.50
  -4   4   0  830.42   46.50
  -4   4   0  835.02   46.80
   3  -4   0 1209.28   65.79
   3  -4   0 1200.18   67.99
   3  -4   0 1166.08   68.79
  -3   4   0 1195.98   65.59
  -3   4   0 1223.58   65.89
  -3   4   0 1208.18   65.69
  -3   4   0 1232.48   65.19
   2  -4   0 1217.48   70.19
   2  -4   0 1265.47   68.19
   2  -4   0 1207.98   70.69
   2  -4   0 1208.88   70.89
  -2   4   0 1307.67   68.19
  -2   4   0 1248.48   68.89
  -2   4   0 1343.57   68.29
   1  -4   0 4653.23  260.17
   1  -4   0 4420.06  260.27
  -1   4   0 4690.43  258.07
  -1   4   0 4988.20  258.47
  -1   4   0 5019.90  259.37
  -1   4   0 5182.88  264.07
   0  -4   0 1375.06   78.69
   0  -4   0 1301.67   78.69
   0  -4   0 1392.56   76.49
   0   4   0 1344.27   77.99
   0   4   0 1466.65   76.59
   0   4   0 1633.24   85.09
   0   4   0 1447.96   76.99
  -1  -4   0   90.29    6.10
  -1  -4   0   85.19    7.90
   1   4   0  101.19    6.40
   1   4   0   75.19   12.90
   1   4   0  101.39    7.60
  -2  -4   0    8.20    2.70
  -2  -4   0    8.90    1.80
   2   4   0    7.60    1.80
   2   4   0    4.90    1.90
   2   4   0    4.80    2.50
   2   4   0    4.30    4.00
  -3  -4   0  410.96   22.20
  -3  -4   0  414.96   25.60
   3   4   0  278.47   28.30
   3   4   0  337.57   25.50
   4   4   0    7.90    1.40
   4   4   0    9.10    5.10
   4   4   0    7.60    3.40
   4   4   0    5.60    6.90
   5   4   0    5.60    1.10
   5   4   0    3.70    2.90
   5   4   0    4.10    4.00
   6   4   0   26.10    2.60
   6   4   0   29.20    2.30
   6   4   0   34.00    5.60
   7   4   0   27.50    2.00
   9  -5   0  101.89    5.90
   9  -5   0  104.59    6.10
   9  -5   0   95.29    8.90
   9  -5   0  109.79    7.60
  -9   5   0  103.79    6.20
  -9   5   0   97.99    6.10
   8  -5   0  107.69    6.90
   8  -5   0  112.59   10.70
   8  -5   0  108.89    6.50
   8  -5   0  107.09    8.40
   8  -5   0  121.69    6.70
  -8   5   0  101.09    6.80
   7  -5   0   55.19    7.20
   7  -5   0   55.99    7.30
   7  -5   0   50.09    3.50
   7  -5   0   58.89    5.40
   7  -5   0   55.69    3.90
  -7   5   0   56.29    3.90
   6  -5   0  524.55   27.60
   6  -5   0  499.05   32.30
   6  -5   0  487.55   29.30
  -6   5   0  525.95   29.00
  -6   5   0  467.35   27.50
   5  -5   0  319.47   22.00
   5  -5   0  326.37   23.90
  -5   5   0  289.67   19.10
  -5   5   0  339.67   18.80
  -5   5   0  310.67   18.70
   4  -5   0   70.59    9.70
   4  -5   0   94.09   10.00
  -4   5   0   81.79    6.20
  -4   5   0   95.39    6.10
  -4   5   0   86.69    6.40
   3  -5   0   34.60    6.00
   3  -5   0   29.50    5.40
   3  -5   0   23.40    5.60
  -3   5   0   36.90    4.20
  -3   5   0   36.30    3.60
  -3   5   0   32.00    3.30
   2  -5   0  434.96   27.50
   2  -5   0  424.76   28.10
   2  -5   0  427.06   27.00
  -2   5   0  418.76   25.50
  -2   5   0  443.16   24.20
  -2   5   0  420.86   24.60
   1  -5   0   92.39    8.60
   1  -5   0   95.09    8.60
  -1   5   0   99.09    6.50
  -1   5   0   98.09    7.90
  -1   5   0   97.69    6.80
  -1   5   0   96.79   11.80
   0  -5   0  493.25   31.10
   0  -5   0  513.85   31.30
   0   5   0  531.65   28.40
   0   5   0  514.85   36.40
   0   5   0  452.65   30.00
   0   5   0  522.25   28.90
  -1  -5   0  734.83   42.80
  -1  -5   0  707.63   42.80
   1   5   0  748.73   40.10
   1   5   0  653.73   41.40
  -2  -5   0  390.66   25.90
  -2  -5   0  370.86   25.30
   2   5   0  367.16   24.10
  -3  -5   0   89.59   12.90
   3   5   0   38.70   12.40
   3   5   0   56.19   10.60
   3   5   0   40.60   12.80
   3   5   0   54.59    6.80
   3   5   0   67.89    9.20
   4   5   0   -0.60    2.50
   4   5   0   -0.20    2.20
   4   5   0    3.20    5.60
   5   5   0  237.48   17.90
   5   5   0  256.47   26.50
   9  -6   0  108.39    9.40
   9  -6   0  116.49    7.70
  -9   6   0  104.89    6.60
  -9   6   0  107.79    6.60
   8  -6   0    1.50    1.90
   8  -6   0    0.90    1.20
  -8   6   0    0.60    0.70
  -8   6   0    2.30    0.90
   7  -6   0   19.40    3.20
   7  -6   0   23.90    5.50
   7  -6   0   21.70    5.00
  -7   6   0   22.60    2.30
  -7   6   0   18.90    2.10
   6  -6   0    1.00    2.10
   6  -6   0    0.30    1.20
   6  -6   0    1.70    2.20
   6  -6   0    0.70    0.70
  -6   6   0    0.90    0.80
  -6   6   0    1.20    0.80
   5  -6   0  900.11   53.49
   5  -6   0  843.72   51.29
  -5   6   0  822.82   47.50
  -5   6   0  817.32   47.70
   4  -6   0  799.32   48.40
   4  -6   0  815.92   48.60
  -4   6   0  731.73   43.00
  -4   6   0  720.13   42.80
   3  -6   0   22.10    5.50
   3  -6   0   13.50    4.60
   3  -6   0   18.70    4.90
  -3   6   0   23.50    3.90
  -3   6   0   23.20    3.20
  -3   6   0   23.30    2.90
   2  -6   0 1091.69   64.69
   2  -6   0 1108.69   66.39
   2  -6   0 1144.39   65.49
  -2   6   0 1196.88   61.29
  -2   6   0 1058.19   61.49
  -2   6   0 1070.69   62.99
   1  -6   0   29.20    5.40
   1  -6   0   30.80    5.60
  -1   6   0   28.40    3.60
  -1   6   0   24.60    4.60
  -1   6   0   28.20    3.30
   0  -6   0   32.00    5.80
   0  -6   0   31.70    5.80
   0   6   0   34.60    4.00
   0   6   0   37.70    9.80
   0   6   0   24.70    4.80
  -1  -6   0   82.89   10.20
  -1  -6   0   90.79    9.30
   1   6   0   49.20   12.30
   1   6   0   67.19    8.20
   1   6   0   91.09    6.80
   2   6   0   31.30    6.20
   2   6   0   23.30    6.20
   2   6   0   17.50    4.20
   2   6   0   22.90    5.80
   2   6   0   16.50    7.90
   3   6   0   49.30    6.80
   3   6   0   40.40    7.20
   3   6   0   45.40    8.60
   3   6   0   32.40   10.70
   4   6   0    7.80    5.80
   9  -7   0    0.80    1.20
   9  -7   0    0.80    0.90
  -9   7   0    1.70    0.70
  -9   7   0   -0.10    0.60
   8  -7   0    0.80    1.60
   8  -7   0    1.60    2.00
   8  -7   0    2.80    1.40
  -8   7   0    1.20    0.80
  -8   7   0    2.70    0.80
   7  -7   0  119.89   11.90
   7  -7   0  125.49    9.30
   7  -7   0  129.19   12.10
  -7   7   0  124.09    7.80
  -7   7   0  141.29    8.10
  -7   7   0  128.99    7.90
   6  -7   0   83.29    9.40
   6  -7   0   79.39    9.40
   6  -7   0   75.99    6.70
  -6   7   0   90.69    5.90
  -6   7   0   80.69    5.50
  -6   7   0   81.49    5.40
   5  -7   0   33.80    5.00
   5  -7   0   29.90    6.10
  -5   7   0   31.50    2.80
  -5   7   0   26.00    2.70
   4  -7   0    4.70    3.50
   4  -7   0    7.80   12.00
  -4   7   0    4.40    1.90
  -4   7   0    1.50    1.50
   3  -7   0  147.69   14.50
   3  -7   0  111.59   14.70
   3  -7   0  142.39   13.80
  -3   7   0  162.28   10.00
  -3   7   0  133.39   11.10
  -3   7   0  125.29    9.90
   2  -7   0  622.34   39.30
   2  -7   0  599.84   41.00
   2  -7   0  657.93   40.20
  -2   7   0  532.45   35.30
  -2   7   0  659.83   37.70
   1  -7   0  262.97   19.30
   1  -7   0  276.77   19.80
   1  -7   0  236.58   21.00
  -1   7   0  233.58   15.80
  -1   7   0  206.78   17.10
   0  -7   0  231.88   17.50
   0  -7   0  194.48   19.10
   0  -7   0  217.98   17.10
   0   7   0  183.58   22.60
   0   7   0  152.78   14.60
   0   7   0  220.88   13.90
   1   7   0    5.90    3.30
   1   7   0    9.20    5.60
   1   7   0    7.50    3.60
   1   7   0    6.30    3.50
   1   7   0    7.40    1.70
   1   7   0    4.50    2.30
   1   7   0    8.20    1.50
   2   7   0  329.87   18.50
   2   7   0  301.07   23.60
   2   7   0  292.77   21.30
   2   7   0  346.77   23.60
   2   7   0  306.87   23.10
   3   7   0    7.20    3.10
   3   7   0    7.50    2.90
   3   7   0    9.80    4.30
   3   7   0    5.70    4.60
   9  -8   0   12.10    2.70
   9  -8   0   16.60    2.10
  -9   8   0   14.40    1.40
  -9   8   0   15.00    1.60
   8  -8   0    5.20    2.40
   8  -8   0    6.30    2.60
   8  -8   0    6.20    1.70
  -8   8   0    6.70    1.20
  -8   8   0    4.90    1.00
  -8   8   0    5.00    1.10
   7  -8   0   -1.30    1.40
   7  -8   0   -0.30    1.00
   7  -8   0    0.00    1.60
  -7   8   0    0.70    0.70
  -7   8   0   -0.50    0.80
   6  -8   0  197.18   16.40
   6  -8   0  208.98   17.10
  -6   8   0  196.48   11.90
  -6   8   0  199.08   12.00
   5  -8   0  226.28   17.80
   5  -8   0  213.78   17.90
  -5   8   0  213.58   13.10
  -5   8   0  233.28   13.10
  -5   8   0  228.38   13.10
   4  -8   0 1061.69   63.89
  -4   8   0 1153.28   59.09
  -4   8   0 1093.79   59.09
  -4   8   0 1037.00   59.19
  -3   8   0  308.27   18.20
  -3   8   0  319.77   18.50
  -3   8   0  313.27   18.90
  -3   8   0  359.86   28.80
  -2   8   0  105.69   11.20
  -2   8   0  111.29    7.20
  -2   8   0   98.69   15.50
  -2   8   0  107.19    6.80
  -2   8   0  123.79   17.40
  -2   8   0   99.69    7.50
  -2   8   0  108.79   10.80
  -2   8   0  115.89   11.10
  -1   8   0  128.99   11.90
  -1   8   0  112.79   10.50
  -1   8   0  124.29    7.30
  -1   8   0  124.89    8.30
  -1   8   0  113.99   13.00
  -1   8   0  120.89    7.60
  -1   8   0   96.49   13.00
  -1   8   0  111.49   12.10
   0   8   0  197.98   18.30
   0   8   0  163.68   15.40
   0   8   0  192.08   16.90
   0   8   0  184.98   16.20
   0   8   0  181.48   11.10
   0   8   0  187.28   11.70
   1   8   0   54.39    8.00
   1   8   0   66.39   10.30
   1   8   0   60.79    4.90
   1   8   0   59.39    8.10
   1   8   0   66.09    8.50
   1   8   0   63.99    7.30
   1   8   0   60.29    4.60
   2   8   0   92.19   10.00
   2   8   0   93.29    6.60
   2   8   0   98.59    9.30
   2   8   0   96.19   12.20
   2   8   0   96.19    9.70
   2   8   0  102.29   10.40
   3   8   0   -0.30    1.70
   3   8   0    0.80    2.20
   3   8   0   -0.30    1.90
   9  -9   0   25.00    3.20
  -9   9   0   25.20    1.90
   8  -9   0   88.89    8.00
   8  -9   0   90.59    8.30
  -8   9   0   92.19    5.60
  -8   9   0   92.59    5.80
   7  -9   0   61.29    7.40
   7  -9   0   70.59    8.00
  -7   9   0   66.29    4.60
  -7   9   0   69.09    4.70
   6  -9   0  170.68   14.80
   6  -9   0  173.48   15.20
  -6   9   0  195.38   10.80
  -6   9   0  170.28   10.60
   5  -9   0   19.70    5.10
   5  -9   0   19.50    4.90
  -5   9   0   20.60    2.50
  -5   9   0   20.10    2.40
  -5   9   0   23.30    2.40
   4  -9   0    7.90    3.00
  -4   9   0   16.40    3.00
  -3   9   0  999.20   51.69
  -3   9   0  808.22   56.69
  -3   9   0  989.80   56.19
  -3   9   0 1024.50   52.19
  -3   9   0  777.22   58.49
  -3   9   0 1002.60   51.29
  -2   9   0  206.58   20.50
  -2   9   0  233.78   26.30
  -2   9   0  230.58   19.10
  -2   9   0  233.28   14.90
  -2   9   0  237.28   14.10
  -2   9   0  253.17   19.40
  -2   9   0  273.57   14.60
  -2   9   0  275.77   29.70
  -1   9   0  204.08   17.80
  -1   9   0  227.18   18.20
  -1   9   0  225.98   13.20
  -1   9   0  222.78   13.80
  -1   9   0  231.48   23.10
  -1   9   0  215.48   18.20
  -1   9   0  216.78   23.10
   0   9   0    7.50    3.60
   0   9   0    4.70    3.20
   0   9   0    4.50    1.30
   0   9   0    6.10    3.40
   0   9   0    6.20    5.70
   0   9   0    5.40    1.60
   0   9   0    6.60    7.20
   1   9   0  433.96   27.70
   1   9   0  366.06   27.30
   1   9   0  371.66   29.60
   1   9   0  484.45   31.60
   1   9   0  438.96   29.00
   1   9   0  410.76   23.70
   2   9   0    1.80    3.10
   2   9   0   -0.10    1.60
   2   9   0    1.30    2.00
   2   9   0    3.90    5.00
   3   9   0  104.29   11.00
   8 -10   0   16.90    2.80
   8 -10   0   21.70    3.20
  -8  10   0   21.10    1.80
  -8  10   0   24.00    1.90
   7 -10   0   36.20    5.20
   7 -10   0   40.60    5.30
  -7  10   0   38.30    3.00
  -7  10   0   41.30    3.10
   6 -10   0   22.40    4.60
   6 -10   0   24.30    5.20
  -6  10   0   17.40    2.10
  -6  10   0   17.00    2.20
  -6  10   0   22.80    2.20
   5 -10   0 1173.08   66.79
   5 -10   0 1049.89   65.39
  -5  10   0 1056.69   60.89
  -5  10   0 1139.19   60.89
  -5  10   0 1171.28   60.69
   3 -10   0   55.29    7.90
  -3  10   0   52.79    3.90
  -3  10   0   50.69    6.90
  -3  10   0   60.49    4.40
  -3  10   0   33.20    8.80
  -3  10   0   44.30    4.60
  -2  10   0   34.20    7.30
  -2  10   0   31.90    5.80
  -2  10   0   12.00   11.40
  -2  10   0   37.40    3.00
  -2  10   0   18.40   12.70
  -2  10   0   12.00   18.10
  -2  10   0   40.40    3.50
  -2  10   0   32.30    3.60
  -1  10   0   31.40    6.10
  -1  10   0   29.60    6.40
  -1  10   0   34.40    3.30
  -1  10   0   45.60   12.10
  -1  10   0   31.30    3.70
  -1  10   0   36.70   14.50
  -1  10   0   58.89   20.50
   0  10   0   95.29   10.80
   0  10   0  104.89   13.90
   0  10   0   97.99    6.00
   0  10   0   88.89    9.50
   0  10   0   27.60   22.40
   0  10   0  112.49   20.10
   0  10   0   93.69    6.50
   1  10   0   43.40   14.70
   1  10   0   43.30    3.50
   1  10   0   57.49    7.60
   1  10   0   49.50    9.90
   1  10   0   49.50    6.00
   2  10   0    4.40    8.20
   2  10   0    1.10    3.40
   7 -11   0   49.60    5.00
   7 -11   0   47.20    5.00
  -7  11   0   48.20    3.20
  -7  11   0   53.69    3.40
   6 -11   0    4.40    2.00
   6 -11   0    3.80    2.10
  -6  11   0    5.50    1.10
  -6  11   0    2.10    0.90
   5 -11   0   85.39    8.70
   5 -11   0   84.99    8.10
  -5  11   0   85.39    5.50
  -5  11   0   74.09    5.40
   4 -11   0  276.87   19.10
  -4  11   0  276.47   15.90
  -4  11   0  271.87   16.10
  -4  11   0  289.27   16.20
   3 -11   0   71.49    7.20
  -3  11   0   58.99    7.20
  -3  11   0   81.79    5.20
  -3  11   0   73.19    4.80
  -3  11   0   74.89    5.30
   2 -11   0   96.99    8.00
  -2  11   0   61.69   11.20
  -2  11   0   42.80   15.30
  -2  11   0   78.49    8.40
  -2  11   0   98.59    5.70
  -2  11   0   81.39    5.90
  -1  11   0   13.40    3.50
  -1  11   0   14.90   15.50
  -1  11   0   49.00   15.50
  -1  11   0   14.80    1.70
  -1  11   0   17.70    6.30
  -1  11   0   14.70    2.00
   0  11   0   52.19   13.00
   0  11   0   58.49    3.90
   0  11   0   30.10   12.80
   0  11   0   75.99    9.80
   5 -12   0   10.20    2.60
   5 -12   0    9.70    2.30
  -5  12   0    9.40    1.20
  -5  12   0    8.90    1.10
   4 -12   0   50.49    5.80
   4 -12   0   65.39    5.40
  -4  12   0   55.39    3.70
  -4  12   0   57.29    3.90
   3 -12   0    2.70    1.60
  -3  12   0    0.70    2.20
  -3  12   0    1.70    0.80
  -3  12   0    2.70    0.80
  -2  12   0    1.40    2.40
  -2  12   0    2.60    0.80
  -2  12   0    1.90    0.60
  -2  12  -1    0.70    0.60
  -2  12  -1    0.30    0.70
  -2  12  -1    1.10    1.50
  -2  12  -1    3.90    3.00
  -3  12  -1   61.69    4.30
  -3  12  -1   66.39    4.40
  -3  12  -1   60.19    4.60
   3 -12   1   73.89    6.00
  -4  12  -1   17.30    1.70
  -4  12  -1   16.00    1.60
  -4  12  -1   17.60    1.80
   4 -12   1   17.60    3.10
   4 -12   1   15.70    3.30
  -5  12  -1    0.40    0.70
  -5  12  -1    0.50    0.50
   5 -12   1    1.10    1.20
   5 -12   1    0.60    1.10
   0  11  -1  122.59    7.20
   0  11  -1   92.79   15.10
  -1  11  -1   22.70    2.70
  -1  11  -1   23.00    4.50
  -1  11  -1   25.70    2.40
  -1  11  -1   26.60    6.30
  -1  11  -1   36.70   17.50
  -1  11  -1   69.49   15.60
  -2  11  -1   -0.30   15.70
  -2  11  -1   21.00    2.30
  -2  11  -1   30.40   14.30
  -2  11  -1   20.80    2.70
  -2  11  -1   17.70    6.20
  -2  11  -1   19.00    4.20
   2 -11   1   21.10    4.90
  -3  11  -1   21.90    2.10
  -3  11  -1   15.60    3.70
  -3  11  -1   20.50    2.40
  -3  11  -1   21.40    2.60
  -3  11  -1    4.70    6.20
  -3  11  -1   -3.10   10.00
  -3  11  -1    4.10    8.00
   3 -11   1   20.40    4.10
  -5  11  -1   27.40    2.70
  -5  11  -1   35.20    3.00
   5 -11   1   26.90    5.20
   5 -11   1   33.00    4.90
  -6  11  -1  195.68   11.80
  -6  11  -1  212.48   12.00
   6 -11   1  200.78   14.90
   6 -11   1  218.98   15.00
  -7  11  -1   14.80    1.50
   7 -11   1   14.80    2.80
   7 -11   1   13.90    2.80
   2  10  -1   25.70    4.40
   2  10  -1   20.50   10.60
   2  10  -1   22.30    7.20
   2  10  -1   28.40    3.70
   1  10  -1  100.99   10.70
   1  10  -1   65.89    4.60
   1  10  -1   60.39   12.70
   1  10  -1   61.99   12.20
   1  10  -1   75.39    8.30
   1  10  -1   57.79    6.90
   0  10  -1   29.20    3.30
   0  10  -1   28.90    5.40
   0  10  -1   30.70    6.10
   0  10  -1   45.40   13.30
   0  10  -1   33.10    2.90
   0  10  -1   49.00   13.90
   0  10  -1   44.30    8.30
  -1  10  -1   14.10    4.10
  -1  10  -1   19.50    2.30
  -1  10  -1   23.80    3.00
  -1  10  -1   20.40    8.00
  -1  10  -1   29.30   13.90
  -1  10  -1   35.70   16.90
  -1  10  -1   15.00    4.70
  -2  10  -1  136.69   19.50
  -2  10  -1  211.38   11.00
  -2  10  -1  126.89   25.70
  -2  10  -1  201.18   11.90
  -2  10  -1  196.18   11.30
  -2  10  -1  192.28   15.50
  -2  10  -1  163.58   15.60
  -3  10  -1  407.76   25.40
  -3  10  -1  442.46   25.20
  -3  10  -1  390.06   30.50
  -3  10  -1  502.65   25.00
   3 -10   1  469.95   30.10
  -4  10  -1   31.40    2.90
  -4  10  -1   35.20    3.30
  -4  10  -1   27.10    3.20
   4 -10   1   26.80    5.60
  -5  10  -1   10.00    1.80
  -5  10  -1   11.40    1.70
   5 -10   1   12.40    4.00
   5 -10   1   11.40    3.70
  -6  10  -1    0.10    0.80
  -6  10  -1   -0.30    0.70
  -6  10  -1    0.30    0.80
   6 -10   1    0.50    1.70
   6 -10   1    0.20    1.60
  -7  10  -1   83.09    5.30
  -7  10  -1   94.09    5.40
   7 -10   1   80.39    8.00
   7 -10   1   76.49    7.70
  -8  10  -1   14.10    1.40
  -8  10  -1   13.50    1.40
   8 -10   1   11.40    2.50
   3   9  -1    5.20    4.90
   3   9  -1    5.90    2.40
   3   9  -1    7.60    3.70
   2   9  -1   80.69    9.60
   2   9  -1   63.39    8.70
   2   9  -1   55.59    6.80
   2   9  -1   76.89    7.50
   2   9  -1   74.89    8.10
   1   9  -1  357.16   25.70
   1   9  -1  305.27   18.10
   1   9  -1  306.87   23.70
   1   9  -1  293.37   21.30
   1   9  -1  294.27   22.20
   1   9  -1  299.87   22.60
   0   9  -1   15.20    4.40
   0   9  -1   18.10    2.10
   0   9  -1   17.10    5.90
   0   9  -1   11.40    6.20
   0   9  -1   13.20    4.50
   0   9  -1   16.50    4.90
   0   9  -1   14.70    2.40
  -1   9  -1  151.18   13.20
  -1   9  -1  132.29   14.10
  -1   9  -1  153.48   10.30
  -1   9  -1  175.88   14.60
  -1   9  -1  152.68    9.60
  -2   9  -1   28.00    5.60
  -2   9  -1   24.30    7.50
  -2   9  -1   44.80   13.90
  -2   9  -1   50.99   15.60
  -2   9  -1   37.10    3.10
  -2   9  -1   38.40    3.50
  -2   9  -1   34.70    3.90
  -2   9  -1   34.80    6.80
  -3   9  -1   13.20    1.80
  -3   9  -1   12.10    2.30
  -3   9  -1    4.30    7.00
  -3   9  -1   12.90    2.10
  -4   9  -1  531.15   28.60
  -4   9  -1  517.25   28.20
  -4   9  -1  488.05   27.90
   4  -9   1  468.55   32.60
  -5   9  -1  269.87   14.90
  -5   9  -1  253.27   14.60
  -5   9  -1  231.48   14.70
   5  -9   1  255.07   19.80
   5  -9   1  249.78   19.50
  -6   9  -1  291.77   16.90
  -6   9  -1  316.77   17.00
  -6   9  -1  265.17   17.70
   6  -9   1  289.37   21.70
   6  -9   1  286.87   18.60
   6  -9   1  313.87   21.90
  -7   9  -1   49.20    3.70
  -7   9  -1   45.00    3.60
   7  -9   1   49.50    6.60
   7  -9   1   52.09    6.50
   7  -9   1   49.70    4.50
  -8   9  -1   34.90    2.70
  -8   9  -1   29.60    2.50
   8  -9   1   32.60    4.60
   8  -9   1   34.30    3.20
  -9   9  -1    3.70    0.70
   4   8  -1    6.80    2.60
   4   8  -1    5.00    2.80
   3   8  -1  128.39   13.20
   3   8  -1  113.09   10.60
   3   8  -1  115.79    9.50
   3   8  -1  111.19   10.30
   3   8  -1  102.49    9.40
   2   8  -1  154.08   14.70
   2   8  -1  164.38   10.60
   2   8  -1  201.28   14.10
   2   8  -1  153.68   14.20
   2   8  -1  200.78   19.30
   2   8  -1  174.78   15.20
   1   8  -1   36.00    8.70
   1   8  -1   30.30    6.10
   1   8  -1   38.80    3.80
   1   8  -1   31.10    5.20
   1   8  -1   27.40    6.40
   1   8  -1   36.60    7.20
   0   8  -1   20.30    6.40
   0   8  -1   24.40    2.50
   0   8  -1   13.20    3.40
   0   8  -1   19.50    2.80
   0   8  -1   17.20    4.80
   0   8  -1   18.60    5.20
   0   8  -1   15.60    5.20
  -1   8  -1  182.28   15.00
  -1   8  -1  135.19   14.70
  -1   8  -1  150.78   10.20
  -1   8  -1  157.58    9.60
  -1   8  -1  154.48   15.80
  -1   8  -1  159.08   15.30
  -2   8  -1  639.64   39.20
  -2   8  -1  580.84   35.50
  -2   8  -1  599.24   36.10
  -2   8  -1  672.63   42.00
  -2   8  -1  662.53   40.20
  -2   8  -1  719.23   44.90
  -2   8  -1  635.54   35.20
  -3   8  -1  141.19    8.20
  -3   8  -1  100.89   16.50
  -3   8  -1  139.29    8.40
  -3   8  -1  163.98    9.20
  -3   8  -1   93.29   14.10
  -4   8  -1   35.50    3.00
  -4   8  -1   29.80    2.90
  -4   8  -1   31.30    3.00
   4  -8   1   29.30    6.20
  -5   8  -1   31.00    2.90
  -5   8  -1   29.10    2.80
  -5   8  -1   29.20    2.80
   5  -8   1   29.00    4.00
   5  -8   1   26.50    5.90
   5  -8   1   29.50    5.90
  -6   8  -1  289.47   15.90
  -6   8  -1  249.38   15.70
   6  -8   1  292.77   21.00
   6  -8   1  277.47   17.40
   6  -8   1  264.27   20.70
  -7   8  -1   12.70    1.80
  -7   8  -1   13.70    1.80
   7  -8   1   15.00    2.70
   7  -8   1   13.80    4.10
   7  -8   1   13.60    4.00
  -8   8  -1   80.59    4.80
  -8   8  -1   61.89    4.40
   8  -8   1   66.19    7.20
   8  -8   1   70.19    5.50
  -9   8  -1   49.10    3.10
  -9   8  -1   45.80    3.20
   9  -8   1   44.00    4.80
   9  -8   1   50.39    3.80
   4   7  -1   26.10    4.00
   4   7  -1   15.40    6.20
   4   7  -1   29.50    5.40
   3   7  -1  168.88   14.50
   3   7  -1  120.49   17.20
   3   7  -1  153.58   12.40
   3   7  -1  160.48   13.00
   3   7  -1  142.29   13.60
   2   7  -1  373.56   27.40
   2   7  -1  463.55   24.50
   2   7  -1  426.06   30.70
   2   7  -1  444.96   30.30
   2   7  -1  429.16   29.80
   1   7  -1    0.40    1.50
   1   7  -1   -0.60    3.40
   1   7  -1    0.90    2.30
   1   7  -1    1.40    2.70
   1   7  -1    3.50    3.00
   1   7  -1    2.30    1.20
   0   7  -1   38.80   10.80
   0   7  -1   53.79    5.50
   0   7  -1   35.80    6.50
   0  -7   1   58.49    8.60
   0  -7   1   59.09    9.00
  -1   7  -1   59.39    8.00
  -1   7  -1   55.19    6.00
   1  -7   1   62.79    8.70
   1  -7   1   71.59    9.60
  -2   7  -1  144.89   11.90
  -2   7  -1  171.58   13.90
   2  -7   1  204.58   17.50
   2  -7   1  212.58   16.10
   2  -7   1  203.18   16.70
  -3   7  -1 1125.99   66.89
  -3   7  -1 1070.79   65.39
  -3   7  -1 1247.58   65.09
   3  -7   1 1127.79   70.49
   3  -7   1 1207.88   70.59
   3  -7   1 1277.47   73.89
  -4   7  -1  173.48   11.50
  -4   7  -1  165.78   11.80
   4  -7   1  176.08   21.80
   4  -7   1  170.28   16.10
  -5   7  -1  589.14   32.00
  -5   7  -1  579.74   31.50
  -5   7  -1  586.94   31.50
   5  -7   1  582.44   36.60
   5  -7   1  525.75   36.30
   5  -7   1  566.74   33.20
  -6   7  -1  135.09    8.60
   6  -7   1  144.49   13.10
   6  -7   1  146.39   10.30
   6  -7   1  141.29   13.20
  -7   7  -1   21.20    2.20
  -7   7  -1   21.80    2.30
  -7   7  -1   29.40    2.70
   7  -7   1   21.80    3.40
   7  -7   1   23.60    5.20
   7  -7   1   21.60    5.50
  -8   7  -1    0.80    0.80
  -8   7  -1    1.00    0.70
  -8   7  -1    1.50    0.80
   8  -7   1    1.50    1.20
   8  -7   1    0.70    1.60
  -9   7  -1   25.10    1.90
  -9   7  -1   21.50    2.00
   9  -7   1   18.80    3.50
   9  -7   1   22.10    2.70
   5   6  -1   13.70    6.60
   5   6  -1   12.80    3.90
   4   6  -1  170.48   16.30
   4   6  -1  177.48   13.80
   4   6  -1  205.68   14.20
   3   6  -1  149.19   12.10
   3   6  -1  142.79   12.50
   3   6  -1  174.58   15.50
   3   6  -1  135.69   14.40
   2   6  -1   37.60   12.20
   2   6  -1   59.09    8.40
   2   6  -1   55.49    6.90
   2   6  -1   58.09    9.60
   2   6  -1   48.10    7.10
   2   6  -1   53.69    8.00
  -2  -6   1   75.79   11.10
   1   6  -1  164.68   15.60
   1   6  -1  179.48   14.20
   1   6  -1  134.69   21.40
  -1  -6   1  202.68   15.70
  -1  -6   1  220.48   15.90
   0   6  -1  414.26   23.30
   0   6  -1  318.27   30.40
   0   6  -1  372.86   24.90
   0  -6   1  424.16   26.40
   0  -6   1  414.46   26.60
  -1   6  -1  127.29   15.10
  -1   6  -1  120.29   10.20
  -1   6  -1  118.49    8.80
   1  -6   1  135.79   11.80
   1  -6   1  145.29   11.70
  -2   6  -1  172.78   12.40
  -2   6  -1  214.48   12.20
  -2   6  -1  197.48   13.90
   2  -6   1  202.68   15.30
   2  -6   1  212.28   16.20
   2  -6   1  186.38   16.10
  -3   6  -1    6.60    1.90
  -3   6  -1    2.60    2.00
  -3   6  -1    2.70    1.30
   3  -6   1    4.10    3.20
   3  -6   1    8.70    3.80
   3  -6   1    3.80    3.30
  -4   6  -1   27.40    3.40
  -4   6  -1   21.60    3.10
   4  -6   1   19.80    9.60
   4  -6   1   30.30    6.40
  -5   6  -1  550.34   31.40
  -5   6  -1  515.85   31.60
   5  -6   1  538.35   34.90
   5  -6   1  581.34   37.40
  -6   6  -1   31.30    2.70
  -6   6  -1   30.80    2.80
   6  -6   1   29.50    5.70
   6  -6   1   27.70    2.60
   6  -6   1   31.10    4.20
   6  -6   1   35.10    6.60
  -7   6  -1  220.58   12.50
  -7   6  -1  219.58   12.70
   7  -6   1  205.08   12.50
   7  -6   1  219.78   17.20
   7  -6   1  222.78   14.40
  -8   6  -1   25.70    2.40
   8  -6   1   22.70    4.70
   8  -6   1   24.80    3.60
  -9   6  -1   61.89    4.00
  -9   6  -1   58.29    3.90
   9  -6   1   64.39    5.00
   9  -6   1   56.59    6.20
   6   5  -1   56.49    7.10
   6   5  -1   61.89    6.20
   6   5  -1   71.09    4.10
   5   5  -1   77.49    4.60
   5   5  -1   36.90   11.60
   5   5  -1   68.79    9.40
   5   5  -1   71.29    8.80
   4   5  -1    2.30    6.10
   4   5  -1    5.60    2.90
   4   5  -1    5.50    3.30
   4   5  -1    9.10    2.00
   4   5  -1    5.30    4.10
   3   5  -1  111.99   13.00
   3   5  -1   95.99   16.30
   3   5  -1  121.59   11.10
   3   5  -1  117.99   18.80
   2   5  -1  573.44   34.70
   2   5  -1  465.25   42.20
  -2  -5   1  593.84   33.00
  -2  -5   1  648.34   37.20
   1   5  -1  639.44   39.80
   1   5  -1  720.83   38.30
  -1  -5   1  709.43   41.60
  -1  -5   1  648.84   38.00
  -1  -5   1  693.93   40.90
   0   5  -1  126.89    9.80
   0   5  -1  115.59   16.50
   0   5  -1  129.49    8.50
   0  -5   1  128.79   10.70
   0  -5   1  130.79    8.20
   0  -5   1  125.39   10.40
  -1   5  -1 1153.98   59.79
  -1   5  -1 1166.48   67.69
  -1   5  -1 1056.09   60.19
  -1   5  -1 1062.99   61.49
   1  -5   1 1096.49   59.99
   1  -5   1 1086.19   63.09
   1  -5   1 1069.69   62.49
  -2   5  -1 1248.88   64.39
  -2   5  -1 1191.68   63.99
  -2   5  -1 1183.38   65.49
   2  -5   1 1162.58   67.59
   2  -5   1 1125.49   66.69
   2  -5   1 1149.29   64.29
  -3   5  -1  595.24   36.40
  -3   5  -1  639.14   36.40
  -3   5  -1  722.33   37.40
   3  -5   1  621.14   39.20
   3  -5   1  692.13   36.90
   3  -5   1  657.43   40.50
  -4   5  -1  329.47   19.00
  -4   5  -1  315.37   19.00
   4  -5   1  308.17   22.20
   4  -5   1  311.67   19.40
   4  -5   1  349.37   24.00
  -5   5  -1  368.36   21.30
  -5   5  -1  327.57   21.70
  -5   5  -1  361.26   21.40
   5  -5   1  374.76   26.90
   5  -5   1  358.66   24.40
   5  -5   1  404.56   22.50
  -6   5  -1   57.29    5.60
   6  -5   1   56.69    3.90
   6  -5   1   59.89    7.40
   6  -5   1   55.69    5.30
  -7   5  -1   39.50    2.90
   7  -5   1   35.90    6.30
   7  -5   1   31.70    4.30
   7  -5   1   33.00    2.50
   7  -5   1   38.60    2.90
   7  -5   1   36.20    2.80
  -8   5  -1   78.39    5.20
   8  -5   1   74.69    8.40
   8  -5   1   89.29    5.10
   8  -5   1   85.09    6.90
   8  -5   1   79.39    5.20
   8  -5   1   77.59    4.90
  -9   5  -1  114.69    7.10
   9  -5   1  134.19    8.50
   9  -5   1  118.09    6.90
   9  -5   1  112.39    9.80
   9  -5   1  126.69    7.00
   7   4  -1   31.90    2.20
   7   4  -1   24.80    4.10
   7   4  -1   31.90    2.20
   6   4  -1  144.39    8.40
   6   4  -1  125.79   13.90
   6   4  -1  159.28   12.10
   6   4  -1  139.29    8.60
   5   4  -1   75.89    9.50
   5   4  -1   81.49    5.10
   5   4  -1   84.99    5.40
   5   4  -1   69.99   11.10
   5   4  -1   68.59   16.00
   4   4  -1   10.40    1.50
   4   4  -1   12.40    4.40
   4   4  -1    4.40    6.30
   4   4  -1    8.50    4.90
   4   4  -1    9.00    3.50
   3   4  -1  124.79   12.80
   3   4  -1  103.59   18.50
  -3  -4   1  152.98    9.80
  -3  -4   1  152.88   12.60
   2   4  -1  539.55   34.60
   2   4  -1  569.04   32.10
  -2  -4   1  533.15   33.40
  -2  -4   1  539.55   30.80
   1   4  -1 1085.79   79.89
   1   4  -1 1302.37   72.39
   1   4  -1 1473.65   71.29
   1   4  -1 1281.17   74.29
  -1  -4   1 1302.17   71.09
  -1  -4   1 1355.56   73.89
   0   4  -1   24.00    2.50
   0   4  -1   28.20    7.90
   0   4  -1   23.20    3.30
   0  -4   1   24.40    2.50
   0  -4   1   21.80    3.80
   0  -4   1   19.50    3.50
  -1   4  -1  621.44   33.30
  -1   4  -1  663.93   34.60
  -1   4  -1  610.74   33.00
  -1   4  -1  609.74   39.00
   1  -4   1  582.14   35.40
   1  -4   1  574.24   35.00
   1  -4   1  574.04   33.20
  -2   4  -1  226.68   12.60
  -2   4  -1  228.48   13.40
  -2   4  -1  211.98   12.40
   2  -4   1  213.78   15.10
   2  -4   1  201.18   14.20
   2  -4   1  203.08   12.70
  -3   4  -1   27.40    2.50
  -3   4  -1   30.00    3.30
  -3   4  -1   24.50    2.70
  -3   4  -1   23.40    2.50
   3  -4   1   20.40    5.50
   3  -4   1   27.70    5.20
   3  -4   1   23.30    3.00
  -4   4  -1 1062.79   58.79
  -4   4  -1 1067.59   58.49
  -4   4  -1 1114.69   58.49
   4  -4   1 1005.70   62.99
   4  -4   1 1056.99   61.09
   4  -4   1 1132.69   58.49
   4  -4   1 1032.70   59.19
  -5   4  -1  227.98   14.50
  -5   4  -1  246.98   15.10
  -5   4  -1  243.48   14.80
   5  -4   1  219.88   16.90
   5  -4   1  266.77   16.00
   5  -4   1  266.37   19.70
  -6   4  -1  116.59    8.70
  -6   4  -1  109.79    8.80
   6  -4   1  127.49   13.00
   6  -4   1  136.29    9.90
   7  -4   1   17.60    1.90
   7  -4   1   19.50    4.60
   7  -4   1   18.30    1.90
   7  -4   1   17.70    3.10
   7  -4   1   15.70    1.60
   7  -4   1   16.10    1.90
  -8   4  -1   68.19    4.60
   8  -4   1   71.59    4.50
   8  -4   1   63.59    4.70
   8  -4   1   77.69    6.40
   8  -4   1   70.99    4.50
   8  -4   1   62.09    4.40
   8  -4   1   74.59    8.20
   8  -4   1   73.49    4.50
  -9   4  -1    0.30    0.50
   9  -4   1   -0.10    1.00
   9  -4   1   -0.50    1.20
   9  -4   1   -0.10    0.40
   9  -4   1   -0.10    0.40
   9  -4   1    0.50    0.50
   9  -4   1    0.60    0.70
   8   3  -1   93.49    5.60
   8   3  -1   84.69    5.10
   7   3  -1   20.70    2.10
   7   3  -1   21.20    6.00
   7   3  -1   23.10    4.50
   7   3  -1   18.90    1.90
   7   3  -1   21.00    1.80
   6   3  -1   15.90    6.10
   6   3  -1   17.20    1.90
   6   3  -1   15.50    4.30
   6   3  -1   19.20    1.90
   6   3  -1   17.90    2.10
   5   3  -1   23.10    7.50
   5   3  -1   18.60    8.70
   5   3  -1   32.60    2.40
   5   3  -1   27.80    5.10
   5   3  -1   30.80    2.80
   5   3  -1   31.70    2.50
   4   3  -1   -2.80    1.70
   4   3  -1    2.30    2.70
  -4  -3   1    3.90    1.40
  -4  -3   1    1.20    1.30
   3   3  -1 1138.49   75.29
   3   3  -1 1157.78   68.39
   3   3  -1 1027.20   67.99
  -3  -3   1 1331.17   64.89
  -3  -3   1 1190.08   64.19
   2   3  -1 2345.27  109.89
   2   3  -1 1790.02  111.79
   2   3  -1 1806.92  117.99
   2   3  -1 1999.60  111.89
  -2  -3   1 2046.30  109.09
  -2  -3   1 2066.39  108.59
   1   3  -1  112.49    7.60
   1   3  -1  116.39    9.00
   1   3  -1   93.29   13.30
   1   3  -1  112.49    6.60
  -1  -3   1   93.29    7.80
  -1  -3   1  100.79    6.60
  -1  -3   1  106.09    6.20
   0   3  -1 1361.56   78.29
   0   3  -1 1492.25   77.39
   0   3  -1 1514.65   76.59
   0  -3   1 1345.67   76.59
   0  -3   1 1393.26   78.29
  -1   3  -1  822.42   45.60
  -1   3  -1  861.91   45.00
  -1   3  -1  879.81   44.80
   1  -3   1  781.82   45.00
   1  -3   1  801.62   46.70
   1  -3   1  826.62   46.30
  -2   3  -1 6501.55  335.17
  -2   3  -1 6560.84  335.47
  -2   3  -1 6481.35  335.47
  -2   3  -1 6252.57  335.77
   2  -3   1 6277.17  336.97
   2  -3   1 5818.62  335.67
   2  -3   1 5902.31  336.77
   2  -3   1 6391.56  337.87
  -3   3  -1    4.50    1.00
  -3   3  -1    3.60    1.10
  -3   3  -1    6.10    1.10
   3  -3   1    4.50    1.20
   3  -3   1    2.00    2.20
   3  -3   1    4.10    1.40
   3  -3   1    2.90    2.40
  -4   3  -1  422.46   23.40
  -4   3  -1  464.85   23.90
  -4   3  -1  388.46   23.50
   4  -3   1  415.76   25.50
   4  -3   1  419.66   23.80
   4  -3   1  415.36   24.40
   4  -3   1  396.86   27.30
  -5   3  -1   37.50    4.10
  -5   3  -1   40.30    4.20
   5  -3   1   47.10    4.60
   5  -3   1   46.30    5.10
   5  -3   1   40.50    7.10
  -6   3  -1   14.00    2.90
  -6   3  -1   19.40    3.00
  -6   3  -1   10.00    2.20
   6  -3   1   21.50    6.00
   6  -3   1   20.90    3.70
   7  -3   1    1.60    0.70
   7  -3   1    1.20    0.70
   7  -3   1   -0.60    0.60
   7  -3   1    0.70    0.70
   7  -3   1    0.90    1.80
   7  -3   1    0.70    0.70
   7  -3   1    1.10    1.30
   7  -3   1    0.70    0.60
  -8   3  -1   28.60    2.10
   8  -3   1   25.30    2.30
   8  -3   1   23.40    2.20
   8  -3   1   22.30    2.20
   8  -3   1   28.30    2.50
   8  -3   1   23.00    4.90
   8  -3   1   24.70    3.70
   8  -3   1   22.10    2.10
   9  -3   1   11.00    1.20
   9  -3   1    8.30    1.10
   9  -3   1    9.40    3.10
   9  -3   1   10.20    1.10
   9  -3   1   10.50    1.20
   9  -3   1    8.60    1.20
   9  -3   1   10.00    2.20
   8   2  -1   10.80    1.40
   8   2  -1    7.60    3.20
   8   2  -1   12.30    1.20
   8   2  -1   11.10    2.90
   8   2  -1   11.20    1.20
   7   2  -1  442.96   23.30
   7   2  -1  391.96   23.30
   7   2  -1  419.76   22.90
   7   2  -1  452.35   23.20
   7   2  -1  373.86   26.50
   6   2  -1   11.60    1.70
   6   2  -1   13.70    1.60
   6   2  -1   14.60    1.70
   6   2  -1   14.60    3.70
   6   2  -1   14.20    1.50
   6   2  -1   15.60    6.00
   5   2  -1   46.20    8.60
   5   2  -1   43.30    6.90
   5   2  -1   54.89    8.70
   5   2  -1   41.10    3.30
  -5  -2   1   53.29    5.00
   4   2  -1  296.87   18.60
   4   2  -1  307.47   21.70
   4   2  -1  298.57   22.00
  -4  -2   1  321.07   18.00
  -4  -2   1  286.27   17.40
   3   2  -1  178.98   11.80
   3   2  -1  151.18   13.70
   3   2  -1  190.58   14.40
  -3  -2   1  199.98   11.40
  -3  -2   1  208.78   11.20
   2   2  -1  840.02   48.20
   2   2  -1  872.61   50.39
   2   2  -1  829.62   50.09
  -2  -2   1  943.01   47.60
  -2  -2   1  897.11   47.80
   1   2  -1   47.80    3.50
   1   2  -1   48.40    6.80
   1   2  -1   44.10    4.50
   1   2  -1   48.80    4.50
  -1  -2   1   39.00    3.10
  -1  -2   1   39.90    2.80
   0   2  -1  592.04   33.40
   0   2  -1  644.74   32.30
   0   2  -1  632.84   32.80
   0  -2   1  535.95   33.30
   0  -2   1  576.24   32.40
  -1   2  -1   15.90    3.20
  -1   2  -1   20.50    1.40
  -1   2  -1   14.90    1.40
  -1   2  -1   18.00    1.70
   1  -2   1   11.70    1.50
   1  -2   1   14.40    2.40
   1  -2   1   13.60    2.00
  -2   2  -1 6226.58  334.77
  -2   2  -1 6665.53  334.87
  -2   2  -1 6357.66  334.87
   2  -2   1 5852.01  336.47
   2  -2   1 6571.14  337.07
   2  -2   1 6032.90  335.27
   2  -2   1 6148.98  334.97
  -3   2  -1 1611.34   83.99
  -3   2  -1 1564.84   84.19
  -3   2  -1 1544.15   84.19
   3  -2   1 1449.76   84.59
   3  -2   1 1581.04   87.19
   3  -2   1 1528.65   84.39
   3  -2   1 1626.64   85.59
  -4   2  -1 1038.30   57.99
  -4   2  -1 1045.40   58.09
  -4   2  -1 1104.29   57.59
   4  -2   1 1052.39   58.39
   4  -2   1 1054.69   58.79
   4  -2   1 1052.09   62.09
   4  -2   1 1077.59   59.49
  -5   2  -1    3.10    1.30
  -5   2  -1    2.70    1.30
   5  -2   1    3.40    1.80
   5  -2   1    2.10    2.60
   5  -2   1    3.90    1.60
  -6   2  -1  204.78   13.80
  -6   2  -1  208.68   13.30
  -6   2  -1  182.78   13.20
   6  -2   1  224.88   18.30
   6  -2   1  223.98   14.50
   7  -2   1    0.70    0.60
   7  -2   1    0.80    1.70
   7  -2   1   -0.20    0.50
   7  -2   1   -0.20    0.60
   7  -2   1   -0.10    0.60
   7  -2   1    0.40    1.20
   7  -2   1    0.40    0.60
   7  -2   1   -0.30    0.80
   8  -2   1    5.50    2.10
   8  -2   1    4.60    2.70
   8  -2   1    6.10    1.10
   8  -2   1    7.00    1.20
   8  -2   1    5.60    1.00
   8  -2   1    6.30    1.10
   8  -2   1    9.40    1.20
   9  -2   1    4.20    0.80
   9  -2   1    2.40    0.60
   9  -2   1    3.00    0.70
   9  -2   1    2.60    1.60
   9  -2   1    2.80    0.60
   9  -2   1    3.80    2.20
   9  -2   1    1.70    0.60
   8   1  -1   45.10    3.10
   8   1  -1   50.39    3.20
   8   1  -1   41.90    3.20
   8   1  -1   36.80    7.90
   8   1  -1   44.30    2.90
   8   1  -1   44.00    5.90
   7   1  -1    5.00    0.90
   7   1  -1    5.30    1.10
   7   1  -1    4.60    1.20
   7   1  -1    6.90    2.90
   7   1  -1    8.60    1.30
   7   1  -1    5.80    3.90
   6   1  -1   17.80    1.90
   6   1  -1   19.60    5.50
   6   1  -1   16.60    3.40
   6   1  -1   18.80    1.70
   6   1  -1   18.50    1.80
   6   1  -1   11.40    1.60
   5   1  -1    0.70    1.10
   5   1  -1   -0.90    1.50
   5   1  -1    4.40    2.80
  -5  -1   1    1.00    1.00
  -5  -1   1    0.70    1.00
   4   1  -1  391.36   23.00
   4   1  -1  392.86   26.20
   4   1  -1  369.96   25.30
  -4  -1   1  393.56   22.50
  -4  -1   1  393.16   22.20
   3   1  -1   57.19    5.90
   3   1  -1   54.39    6.30
   3   1  -1   53.69    4.50
  -3  -1   1   61.59    4.30
  -3  -1   1   52.49    4.00
  -3  -1   1   62.99    3.90
   2   1  -1  241.28   14.30
   2   1  -1  269.77   16.50
   2   1  -1  260.87   15.60
   2   1  -1  239.68   15.90
  -2  -1   1  255.87   13.60
  -2  -1   1  232.18   13.90
  -2  -1   1  229.58   14.00
  -2  -1   1  258.47   13.80
   1   1  -1 1191.08   60.19
   1   1  -1 1139.49   61.09
   1   1  -1 1157.58   61.69
   1   1  -1 1050.79   60.99
   1   1  -1 1028.60   60.19
  -1  -1   1 1139.49   59.99
  -1  -1   1 1114.19   59.89
   0   1  -1 5567.74  293.37
   0  -1   1 5374.76  293.37
   0  -1   1 5513.25  292.97
   1  -1   1 9286.07  496.35
  -2   1  -1    1.80    0.70
  -2   1  -1    3.60    0.90
  -2   1  -1    2.30    0.60
  -2   1  -1    2.90    0.70
  -2   1  -1    3.30    0.90
   2  -1   1    3.00    1.70
   2  -1   1    5.10    1.10
   2  -1   1    2.20    1.10
   2  -1   1    1.80    1.10
  -3   1  -1  282.47   16.40
  -3   1  -1  272.47   16.20
  -3   1  -1  307.17   16.00
   3  -1   1  286.17   17.20
   3  -1   1  277.47   18.70
   3  -1   1  276.37   16.80
   3  -1   1  284.67   16.60
  -4   1  -1  217.88   13.20
  -4   1  -1  235.48   12.90
  -4   1  -1  237.68   13.60
   4  -1   1  239.98   14.40
   4  -1   1  232.98   13.80
   4  -1   1  220.78   16.50
   4  -1   1  184.68   14.20
  -5   1  -1   40.60    3.90
  -5   1  -1   35.40    3.90
   5  -1   1   35.70    6.50
   5  -1   1   45.20    5.10
  -6   1  -1  107.79    7.30
   6  -1   1   80.09    5.60
   6  -1   1   99.59    5.80
   6  -1   1   90.79    9.30
   6  -1   1   92.79    5.50
   6  -1   1   91.19    5.70
   6  -1   1   92.69    7.40
   6  -1   1   86.49    5.80
   7  -1   1   50.99    3.40
   7  -1   1   43.70    6.50
   7  -1   1   43.00    3.40
   7  -1   1   47.20    5.20
   7  -1   1   52.89    3.50
   7  -1   1   51.89    3.50
   7  -1   1   50.49    3.60
   8  -1   1  193.48   10.20
   8  -1   1  196.28   10.40
   8  -1   1  174.18   12.50
   8  -1   1  180.28   10.30
   8  -1   1  158.28   10.20
   8  -1   1  170.38   10.30
   9  -1   1    1.10    1.30
   9  -1   1    1.80    0.60
   9  -1   1    1.90    0.60
   9  -1   1    1.40    0.50
   9  -1   1    2.00    0.60
   9   0  -1   38.90    2.50
   9   0  -1   36.70    2.40
   9   0  -1   32.80    5.60
   9   0  -1   33.90    2.30
   9   0  -1   30.20    4.20
   9   0  -1   37.30    2.50
   8   0  -1  388.96   21.40
   8   0  -1  408.76   24.20
   8   0  -1  399.06   21.30
   8   0  -1  389.06   21.10
   8   0  -1  339.27   27.20
   8   0  -1  374.46   21.20
   7   0  -1   65.59    6.20
   7   0  -1   64.09    4.00
   7   0  -1   51.79    8.00
   7   0  -1   60.89    4.10
   7   0  -1   61.29    4.10
   7   0  -1   55.29    4.00
   7   0  -1   61.49    4.10
   6   0  -1    0.40    0.60
   6   0  -1    0.10    0.50
   6   0  -1    0.00    1.20
   6   0  -1   -0.30    0.50
   6   0  -1    1.20    2.00
   6   0  -1    0.30    2.70
   6   0  -1    0.80    0.70
   6   0  -1    0.10    0.60
   5   0  -1   77.79    9.00
   5   0  -1   73.19    8.90
   5   0  -1   81.29    6.60
  -5   0   1   83.59    5.90
  -5   0   1   69.69    5.90
   4   0  -1  219.48   16.30
   4   0  -1  200.48   14.90
   4   0  -1  215.68   13.70
  -4   0   1  239.08   12.80
  -4   0   1  223.48   13.10
  -4   0   1  208.88   13.20
   3   0  -1  883.01   52.89
   3   0  -1  889.91   51.09
   3   0  -1  969.80   52.39
   3   0  -1  959.20   52.29
  -3   0   1  905.21   50.49
  -3   0   1  971.40   50.29
  -3   0   1  917.31   50.69
   2   0  -1 5127.79  278.57
   2   0  -1 4783.52  277.67
   2   0  -1 5520.15  278.67
   2   0  -1 5045.70  279.17
  -2   0   1 5213.68  277.37
  -2   0   1 5445.86  277.27
   1   0  -1  224.58   12.50
   1   0  -1  200.08   12.30
   1   0  -1  200.08   11.70
   1   0  -1  215.58   12.30
  -1   0   1  213.98   11.60
  -1   0   1  217.48   11.50
  -1   0   1  203.48   11.50
  -1   0  -1    0.80    0.50
  -1   0  -1    0.60    0.40
   1   0   1    0.70    0.70
   1   0   1    2.20    1.10
   1   0   1    0.60    0.50
   1   0   1    0.50    0.60
   1   0   1    0.30    0.40
  -2   0  -1 9999.00  520.95
   2   0   1 9611.94  521.65
   2   0   1 9589.54  521.45
   2   0   1 9640.54  522.75
   2   0   1 9934.11  521.55
  -3   0  -1 4008.20  215.98
  -3   0  -1 3952.00  215.58
  -3   0  -1 4310.87  215.68
  -3   0  -1 4267.57  216.18
  -3   0  -1 3948.00  215.88
   3   0   1 3965.20  218.68
   3   0   1 3796.02  216.28
   3   0   1 3856.41  216.48
   3   0   1 4132.79  217.18
  -4   0  -1  476.25   26.40
  -4   0  -1  483.25   26.60
   4   0   1  430.16   28.20
   4   0   1  471.15   27.00
   4   0   1  476.55   30.10
   4   0   1  464.55   27.30
  -5   0  -1 1213.28   64.99
  -5   0  -1 1175.28   65.29
  -5   0  -1 1128.19   65.49
   5   0   1 1219.98   66.39
   5   0   1 1187.68   69.99
   6   0   1   -0.30    0.60
   6   0   1    0.20    0.60
   6   0   1    0.60    0.60
   6   0   1    0.20    0.60
   6   0   1   -0.30    0.40
   6   0   1   -0.60    1.20
   6   0   1   -0.60    1.60
   7   0   1  249.28   13.60
   7   0   1  231.18   13.70
   7   0   1  192.58   18.40
   7   0   1  269.57   13.90
   7   0   1  234.58   13.70
   7   0   1  236.68   16.00
   7   0   1  265.87   13.80
   8   0   1    6.50    1.10
   8   0   1    8.30    1.20
   8   0   1    6.20    3.80
   8   0   1    4.90    2.30
   8   0   1    9.40    1.20
   8   0   1    8.20    1.00
   8   0   1    8.50    1.30
   9   0   1   22.30    1.60
   9   0   1   21.80    1.60
   9   0   1   22.30    1.50
   9   0   1   19.90    1.40
   9   0   1   16.30    2.80
   9  -1  -1   22.80    3.60
   9  -1  -1   19.90    1.60
   9  -1  -1   21.20    1.90
   9  -1  -1   19.50    4.80
   9  -1  -1   21.90    1.70
   9  -1  -1   20.70    1.70
  -9   1   1   18.20    1.50
   8  -1  -1   78.59    5.00
   8  -1  -1   80.19    5.00
   8  -1  -1   75.59    5.00
   8  -1  -1   82.49    7.20
   8  -1  -1   83.39    4.90
   8  -1  -1   73.69    5.00
   8  -1  -1   70.39    9.10
   7  -1  -1    1.40    0.70
   7  -1  -1    0.20    0.60
   7  -1  -1    0.60    2.00
   7  -1  -1    1.80    0.70
   7  -1  -1   -0.70    1.30
   7  -1  -1    0.10    0.50
   7  -1  -1   -0.10    0.70
   6  -1  -1  362.76   26.90
   6  -1  -1  433.06   23.70
  -6   1   1  360.76   22.40
  -6   1   1  362.36   22.80
   5  -1  -1   11.60    2.50
   5  -1  -1   10.20    3.10
   5  -1  -1   10.30    3.50
  -5   1   1   16.30    2.50
  -5   1   1    8.20    1.70
  -5   1   1   10.20    1.90
   4  -1  -1  547.65   30.10
   4  -1  -1  535.25   32.80
   4  -1  -1  505.95   31.30
  -4   1   1  477.95   29.60
  -4   1   1  556.84   29.60
  -4   1   1  541.65   29.40
   3  -1  -1  250.67   16.00
   3  -1  -1  245.18   14.80
   3  -1  -1  240.68   16.60
  -3   1   1  270.27   14.50
  -3   1   1  256.97   14.40
   2  -1  -1   23.40    2.30
   2  -1  -1   20.30    2.90
   2  -1  -1   22.30    3.30
   2  -1  -1   28.30    3.10
  -2   1   1   25.50    1.90
  -2   1   1   24.30    1.90
  -2   1   1   21.60    1.90
   1  -1  -1 8209.88  422.66
   1  -1  -1 8216.58  422.86
  -1   1   1 7282.47  421.76
   1   1   1 3116.79  167.58
   1   1   1 3442.66  168.48
   1   1   1 3143.29  167.68
   1   1   1 2616.94  168.18
   1   1   1 3209.38  167.68
   1   1   1 3262.77  167.48
  -2  -1  -1 3548.55  186.98
   2   1   1 3304.97  188.48
   2   1   1 3445.36  187.38
   2   1   1 3394.06  187.18
   2   1   1 3364.86  187.38
   2   1   1 3883.11  191.08
   2   1   1 3504.35  187.18
  -3  -1  -1 2396.76  122.79
  -3  -1  -1 2307.57  122.89
  -3  -1  -1 2368.86  122.39
  -3  -1  -1 2372.46  122.99
  -3  -1  -1 2519.75  122.59
   3   1   1 1924.41  124.59
   3   1   1 2125.59  123.39
   3   1   1 2243.68  125.89
   3   1   1 2244.38  123.19
  -4  -1  -1  252.57   14.60
  -4  -1  -1  251.17   15.20
  -4  -1  -1  259.27   15.20
  -4  -1  -1  261.07   15.00
   4   1   1  263.87   15.70
   4   1   1  227.48   17.50
   4   1   1  252.37   18.70
   4   1   1  254.97   16.00
  -5  -1  -1  562.94   31.20
  -5  -1  -1  564.54   30.80
   5   1   1  491.85   34.80
   5   1   1  527.65   31.80
   6   1   1    1.00    0.70
   6   1   1    0.80    0.60
   6   1   1    1.00    0.60
   6   1   1    0.20    0.50
   6   1   1   -0.70    1.30
   6   1   1    1.00    2.60
   6   1   1    1.30    0.70
   7   1   1  355.76   19.20
   7   1   1  354.36   19.10
   7   1   1  336.27   18.90
   7   1   1  327.47   22.00
   7   1   1  327.57   19.00
   8   1   1    4.10    0.80
   8   1   1    4.10    2.00
   8   1   1    4.10    0.80
   8   1   1    3.20    0.60
   8   1   1    3.20    0.80
   9  -2  -1   51.19    5.10
   9  -2  -1   56.69    3.40
   9  -2  -1   43.90    3.20
   9  -2  -1   50.49    3.30
   9  -2  -1   52.29    3.30
   9  -2  -1   43.70    6.40
   8  -2  -1  191.28   11.20
   8  -2  -1  196.48   13.30
   8  -2  -1  205.08   11.10
   8  -2  -1  207.88   16.00
   8  -2  -1  180.48   11.20
   8  -2  -1  188.68   11.30
   8  -2  -1  193.58   11.10
   7  -2  -1  246.38   19.50
   7  -2  -1  231.58   13.50
   7  -2  -1  233.88   13.40
   7  -2  -1  241.28   18.40
   7  -2  -1  239.68   13.60
   7  -2  -1  232.38   15.30
   7  -2  -1  227.98   13.40
   6  -2  -1   37.10    4.80
   6  -2  -1   40.20    7.30
  -6   2   1   38.80    4.40
  -6   2   1   32.50    3.90
  -6   2   1   36.50    4.40
   5  -2  -1  560.54   35.20
   5  -2  -1  626.74   33.70
   5  -2  -1  623.14   37.60
  -5   2   1  526.55   32.80
  -5   2   1  607.34   32.90
  -5   2   1  568.44   33.20
   4  -2  -1  484.35   28.60
   4  -2  -1  519.15   30.50
   4  -2  -1  507.25   31.70
  -4   2   1  488.35   28.10
  -4   2   1  524.95   28.30
  -4   2   1  501.65   28.40
   3  -2  -1  674.73   40.10
   3  -2  -1  665.63   40.70
   3  -2  -1  666.53   38.60
  -3   2   1  701.83   38.30
  -3   2   1  794.12   38.00
  -3   2   1  677.93   38.30
  -3   2   1  713.13   38.40
   2  -2  -1 2632.64  156.48
   2  -2  -1 3064.59  158.48
   2  -2  -1 2846.12  158.08
   2  -2  -1 2861.41  158.38
  -2   2   1 2735.83  156.28
  -2   2   1 3057.59  156.58
  -2   2   1 3029.30  156.48
  -2   2   1 3157.28  156.38
   1  -2  -1    0.50    1.10
   1  -2  -1   -0.30    1.10
   1  -2  -1    2.00    1.20
  -1   2   1    1.10    0.80
  -1   2   1    0.30    0.60
  -1   2   1    0.20    0.40
  -1   2   1    1.00    0.60
   0  -2  -1 1362.76   80.19
   0   2   1 1533.95   79.89
   0   2   1 1441.76   79.39
   0   2   1 1629.24   82.59
   0   2   1 1547.65   79.49
   0   2   1 1366.66   79.29
   1   2   1  307.57   19.50
   1   2   1  326.47   18.80
   1   2   1  355.76   22.80
   1   2   1  321.67   18.30
   1   2   1  334.47   18.40
   1   2   1  335.27   18.40
   1   2   1  333.27   19.80
   1   2   1  327.57   18.40
   2   2   1   83.69    7.70
   2   2   1   88.99    6.10
   2   2   1   90.39    7.80
   2   2   1   97.09    6.30
   2   2   1   86.19    6.30
   2   2   1   88.29   10.00
   2   2   1  103.29    6.60
   2   2   1  100.39    6.20
   2   2   1  111.09    6.20
  -3  -2  -1  597.34   31.00
  -3  -2  -1  604.64   30.80
  -3  -2  -1  561.04   30.90
  -3  -2  -1  599.54   30.40
   3   2   1  525.15   31.40
   3   2   1  484.05   35.40
   3   2   1  580.24   31.30
   3   2   1  522.45   33.50
   3   2   1  479.45   33.60
  -4  -2  -1  979.50   50.99
  -4  -2  -1  978.20   51.29
   4   2   1  893.41   51.79
   4   2   1  829.12   54.99
   5   2   1    0.50    0.60
   5   2   1    2.00    0.60
   5   2   1    0.10    0.60
   5   2   1    2.40    1.70
   5   2   1    0.30    0.60
   6   2   1  401.76   21.10
   6   2   1  404.46   21.20
   6   2   1  373.76   20.80
   6   2   1  379.26   21.20
   6   2   1  318.57   23.70
   7   2   1    2.50    2.20
   7   2   1    3.80    0.70
   7   2   1    5.10    0.90
   7   2   1    4.50    0.90
   7   2   1    4.80    1.00
   8   2   1    3.80    0.70
   8   2   1    4.30    0.80
   8   2   1    3.60    0.70
   8   2   1    2.90    1.70
   9  -3  -1   20.60    4.30
   9  -3  -1   19.00    1.70
   9  -3  -1   23.30    1.90
   9  -3  -1   17.00    1.70
   9  -3  -1   19.30    1.80
   9  -3  -1   20.90    3.20
   8  -3  -1   74.19    4.80
   8  -3  -1   70.29    4.50
   8  -3  -1   73.19    4.60
   8  -3  -1   66.09    4.50
   8  -3  -1   61.89    7.90
   8  -3  -1   71.09    6.20
   8  -3  -1   72.19    4.50
   7  -3  -1  198.88   12.10
   7  -3  -1  204.08   12.10
   7  -3  -1  240.58   17.30
   7  -3  -1  203.58   16.70
   7  -3  -1  216.08   12.30
   7  -3  -1  212.48   12.00
   7  -3  -1  205.88   12.10
   7  -3  -1  216.08   14.10
  -7   3   1  219.38   12.20
   6  -3  -1   44.30    7.80
   6  -3  -1   50.19    5.50
   6  -3  -1   37.30    6.30
  -6   3   1   38.90    4.40
  -6   3   1   43.70    4.90
  -6   3   1   45.20    4.70
   5  -3  -1  518.95   32.50
   5  -3  -1  544.15   30.50
   5  -3  -1  539.85   34.30
  -5   3   1  517.25   30.00
  -5   3   1  521.35   30.00
  -5   3   1  517.65   29.90
   4  -3  -1   22.80    4.10
   4  -3  -1   17.50    2.60
   4  -3  -1   19.20    4.10
  -4   3   1   18.80    2.40
  -4   3   1   22.20    2.60
  -4   3   1   19.80    2.30
  -4   3   1   18.60    2.00
   3  -3  -1  473.55   30.00
   3  -3  -1  466.15   27.30
   3  -3  -1  480.95   29.30
   3  -3  -1  489.45   29.30
  -3   3   1  481.95   27.00
  -3   3   1  506.55   27.30
  -3   3   1  490.45   27.10
  -3   3   1  523.75   27.00
   2  -3  -1 4201.28  242.78
   2  -3  -1 4217.08  242.28
   2  -3  -1 4338.87  242.78
  -2   3   1 4705.03  240.48
  -2   3   1 4694.53  240.48
  -2   3   1 4654.03  240.88
  -2   3   1 4625.04  240.28
   1  -3  -1  942.21   54.89
   1  -3  -1  957.30   54.89
  -1   3   1 1054.49   53.69
  -1   3   1  917.71   53.29
  -1   3   1 1037.10   53.59
  -1   3   1 1032.50   54.29
   0  -3  -1  320.67   19.60
   0  -3  -1  313.57   19.50
   0   3   1  327.27   18.40
   0   3   1  376.16   23.20
   0   3   1  303.37   19.00
   0   3   1  332.17   18.30
  -1  -3  -1   38.20    2.90
  -1  -3  -1   34.90    4.00
   1   3   1   38.10    3.00
   1   3   1   39.30    3.10
   1   3   1   38.20    4.10
   1   3   1   38.80    3.40
   1   3   1   35.80    2.80
   1   3   1   35.60    4.80
   1   3   1   41.80    7.60
   2   3   1  319.37   17.90
   2   3   1  278.97   20.30
   2   3   1  303.87   20.50
   2   3   1  298.47   17.80
   2   3   1  330.17   18.90
   2   3   1  336.97   18.00
  -3  -3  -1   14.10    2.00
  -3  -3  -1   17.40    2.30
   3   3   1   11.70    5.40
   3   3   1   15.70    4.20
   3   3   1   18.60    4.50
  -4  -3  -1   11.00    2.10
   4   3   1   12.70    4.90
   5   3   1   16.30    4.00
   5   3   1   17.80    1.80
   5   3   1   13.40    1.60
   5   3   1   18.30    2.00
   6   3   1  258.07   20.30
   6   3   1  312.27   17.30
   6   3   1  332.87   17.10
   7   3   1    8.20    2.70
   7   3   1   10.90    1.20
   7   3   1    8.60    1.30
  10  -4  -1   21.60    2.70
  10  -4  -1   21.80    3.40
 -10   4   1   20.50    1.60
   9  -4  -1  165.68    9.30
   9  -4  -1  162.58   12.80
   9  -4  -1  141.09    9.20
   9  -4  -1  182.38   11.20
   9  -4  -1  161.18    9.30
  -9   4   1  172.38    9.50
   8  -4  -1  258.17   22.90
   8  -4  -1  303.47   21.50
   8  -4  -1  306.97   18.70
   8  -4  -1  280.57   16.70
   8  -4  -1  340.27   17.20
   8  -4  -1  295.87   16.70
   8  -4  -1  324.57   16.80
  -8   4   1  297.07   16.90
   7  -4  -1   35.10    2.70
   7  -4  -1   37.80    4.20
   7  -4  -1   36.50    6.00
   7  -4  -1   42.00    3.10
   7  -4  -1   37.10    5.80
   7  -4  -1   36.40    2.80
  -7   4   1   46.00    3.10
   6  -4  -1  465.55   31.20
   6  -4  -1  509.75   27.00
   6  -4  -1  411.86   28.60
  -6   4   1  419.86   25.80
  -6   4   1  400.06   25.60
   5  -4  -1  531.65   30.90
   5  -4  -1  574.14   35.40
   5  -4  -1  502.35   33.30
  -5   4   1  540.95   30.50
  -5   4   1  538.25   30.70
   4  -4  -1   13.60    3.80
   4  -4  -1   13.90    4.00
   4  -4  -1   19.00    2.70
  -4   4   1   21.70    2.40
  -4   4   1   17.20    2.20
  -4   4   1   15.60    2.30
   3  -4  -1   72.49    7.20
   3  -4  -1   68.19    7.20
   3  -4  -1   49.40    8.20
  -3   4   1   71.59    4.70
  -3   4   1   67.19    4.90
  -3   4   1   77.59    5.10
   2  -4  -1  528.75   33.10
   2  -4  -1  567.44   33.20
   2  -4  -1  524.85   33.80
  -2   4   1  572.84   30.90
  -2   4   1  578.54   31.80
  -2   4   1  550.54   30.50
  -2   4   1  587.44   31.10
   1  -4  -1 3257.77  171.78
   1  -4  -1 2944.61  171.38
  -1   4   1 3069.29  169.78
  -1   4   1 3249.27  170.78
  -1   4   1 3276.97  169.58
   0  -4  -1 2055.79  118.49
   0  -4  -1 2159.38  118.79
   0   4   1 2277.07  116.69
   0   4   1 2158.48  123.29
   0   4   1 2272.47  116.99
   0   4   1 2065.19  117.99
  -1  -4  -1  291.27   16.20
  -1  -4  -1  274.77   18.40
  -1  -4  -1  278.37   18.40
   1   4   1  246.08   22.00
   1   4   1  294.87   16.70
   1   4   1  290.67   17.70
  -2  -4  -1  911.81   53.49
  -2  -4  -1  921.21   56.09
   2   4   1 1070.89   55.19
   2   4   1 1011.00   53.69
  -3  -4  -1  374.76   25.40
   5   4   1   42.50    3.80
   6   4   1   41.00    3.10
  10  -5  -1   39.90    3.20
  10  -5  -1   30.80    3.90
 -10   5   1   32.10    2.30
   9  -5  -1   24.20    4.50
   9  -5  -1   27.80    3.40
   9  -5  -1   27.40    2.00
  -9   5   1   25.20    2.30
  -9   5   1   24.70    2.20
   8  -5  -1  192.28   10.70
   8  -5  -1  217.98   15.90
   8  -5  -1  191.78   12.70
   8  -5  -1  178.78   15.00
  -8   5   1  168.28   11.00
   7  -5  -1   11.80    1.40
   7  -5  -1   14.20    2.70
   7  -5  -1   16.30    1.90
   7  -5  -1   15.00    4.50
   7  -5  -1   13.50    4.00
  -7   5   1   17.40    1.90
   6  -5  -1   93.59    9.20
   6  -5  -1   97.79   11.00
   6  -5  -1   86.69    5.80
   6  -5  -1  106.89   14.20
  -6   5   1   91.49    5.80
  -6   5   1   81.79    8.90
  -6   5   1   95.39    7.20
   5  -5  -1  110.49   11.30
   5  -5  -1   99.79   10.30
  -5   5   1  110.39    7.60
  -5   5   1  103.99    7.80
   4  -5  -1  713.13   44.00
   4  -5  -1  653.63   42.60
  -4   5   1  682.03   39.60
  -4   5   1  742.43   39.10
  -4   5   1  724.83   39.50
   3  -5  -1 1052.49   60.99
   3  -5  -1 1031.20   61.09
  -3   5   1  979.80   57.19
  -3   5   1 1015.10   57.39
  -3   5   1 1137.29   58.19
   2  -5  -1 1702.23   94.59
   2  -5  -1 1698.33   94.69
   2  -5  -1 1715.63   96.09
  -2   5   1 1696.73   92.99
  -2   5   1 1619.94   91.79
  -2   5   1 1693.63   91.49
   1  -5  -1 1799.32   96.79
   1  -5  -1 1740.53   98.69
   1  -5  -1 1663.93   96.39
  -1   5   1 1750.42   93.79
  -1   5   1 1637.54   95.29
  -1   5   1 1790.22   94.29
   0  -5  -1   17.10    3.70
   0  -5  -1   16.20    3.70
   0   5   1   16.70    2.70
   0   5   1   20.00    6.20
   0   5   1   17.10    3.50
   0   5   1   16.20    2.40
  -1  -5  -1 1175.38   63.59
  -1  -5  -1 1084.59   63.19
   1   5   1  934.11   68.39
   1   5   1 1024.80   61.99
   1   5   1 1237.98   60.89
  -2  -5  -1  370.46   24.90
  -2  -5  -1  369.16   26.20
   2   5   1  352.86   23.40
   9  -6  -1   62.79    4.80
   9  -6  -1   53.49    6.20
  -9   6   1   51.99    3.70
  -9   6   1   57.39    3.80
   8  -6  -1    0.00    1.10
   8  -6  -1    1.40    1.80
   8  -6  -1    0.50    1.70
  -8   6   1    0.50    0.70
  -8   6   1    0.00    0.70
   7  -6  -1  120.99   11.90
   7  -6  -1  142.19   12.80
   7  -6  -1  145.99    9.80
  -7   6   1  126.39    8.10
  -7   6   1  131.19    8.20
   6  -6  -1  462.85   30.50
   6  -6  -1  449.26   31.10
   6  -6  -1  436.86   27.00
  -6   6   1  452.05   25.50
  -6   6   1  482.65   25.70
  -6   6   1  477.55   25.50
   5  -6  -1    3.90    3.10
   5  -6  -1   -2.20    2.90
  -5   6   1    2.30    1.50
  -5   6   1    2.30    1.20
   4  -6  -1   24.50    5.80
   4  -6  -1   14.90    7.70
  -4   6   1   18.30    2.70
  -4   6   1   17.50    2.90
   3  -6  -1  182.08   15.70
   3  -6  -1  167.68   14.70
  -3   6   1  169.58   11.30
  -3   6   1  192.48   12.80
  -3   6   1  175.38   11.60
   2  -6  -1  239.48   18.10
   2  -6  -1  240.28   19.50
   2  -6  -1  257.67   18.20
  -2   6   1  221.68   16.20
  -2   6   1  247.48   15.40
  -2   6   1  249.58   14.90
   1  -6  -1  309.07   21.30
   1  -6  -1  317.67   21.50
   1  -6  -1  297.87   23.50
  -1   6   1  284.77   19.90
  -1   6   1  345.07   18.40
  -1   6   1  271.17   18.50
   0  -6  -1   67.69    8.90
   0  -6  -1   83.99   12.10
   0  -6  -1   73.29    8.10
   0   6   1   78.59    6.80
   0   6   1   58.39    7.50
  -1  -6  -1  403.86   30.60
  -1  -6  -1  432.36   27.90
   1   6   1  440.56   24.60
   1   6   1  346.87   25.70
   2   6   1   54.69    7.20
   2   6   1   46.90    3.90
   2   6   1   40.40    7.20
   2   6   1   36.10   10.80
   2   6   1   42.80    6.50
   3   6   1   75.29    7.60
   3   6   1   64.39    8.80
   9  -7  -1    2.10    1.60
   9  -7  -1    2.10    1.10
  -9   7   1    2.30    0.80
  -9   7   1    3.20    0.80
   8  -7  -1    8.30    2.10
   8  -7  -1   10.50    3.40
   8  -7  -1    9.30    3.00
  -8   7   1    7.90    1.40
  -8   7   1    8.20    1.40
   7  -7  -1   68.39    6.00
   7  -7  -1   70.59    8.40
   7  -7  -1   66.29    8.50
  -7   7   1   71.49    4.80
  -7   7   1   81.69    5.10
  -7   7   1   70.99    4.90
   6  -7  -1   49.99    7.20
   6  -7  -1   49.30    7.40
  -6   7   1   50.59    3.80
  -6   7   1   57.39    3.90
  -6   7   1   48.90    3.80
   5  -7  -1  227.38   16.50
   5  -7  -1  200.88   17.00
  -5   7   1  219.38   12.50
  -5   7   1  207.88   12.50
   4  -7  -1  148.49   14.40
   4  -7  -1  148.09   18.50
  -4   7   1  127.49   10.00
  -4   7   1  134.39    9.80
   3  -7  -1  701.33   45.80
   3  -7  -1  693.53   44.40
  -3   7   1  658.53   39.40
  -3   7   1  764.72   41.90
  -3   7   1  658.93   40.00
   2  -7  -1  451.85   29.00
   2  -7  -1  409.96   30.60
   2  -7  -1  432.56   28.90
  -2   7   1  387.16   25.00
  -2   7   1  421.96   24.60
  -2   7   1  383.36   26.50
   1  -7  -1   75.09   11.80
   1  -7  -1   60.49    9.00
  -1   7   1   67.49    6.90
  -1   7   1   69.79    8.70
   0   7   1   22.10    6.20
   0   7   1   25.50    2.60
   0   7   1   18.30    3.70
   0   7   1   23.80    5.60
   0   7   1   27.10    4.10
   0   7   1   18.10    4.80
   0   7   1   28.60    3.10
   1   7   1   53.69   10.60
   1   7   1   57.59    7.90
   1   7   1   51.09    7.50
   1   7   1   53.59    4.00
   1   7   1   51.89    4.40
   1   7   1   50.89    6.30
   2   7   1   20.00    4.10
   2   7   1   19.60    4.70
   2   7   1   23.00    5.10
   2   7   1   18.70    6.90
   2   7   1   23.20    2.80
   3   7   1   36.90    5.40
   3   7   1   37.70    6.20
   9  -8  -1    8.50    2.30
  -9   8   1    9.00    1.20
   8  -8  -1   -0.50    1.20
   8  -8  -1   -0.10    1.40
  -8   8   1    1.20    0.70
  -8   8   1    0.80    0.80
  -8   8   1    0.60    0.80
   7  -8  -1   91.69    9.70
   7  -8  -1   88.09    9.90
  -7   8   1   85.49    5.90
  -7   8   1   98.39    6.00
  -7   8   1  102.29    6.30
   6  -8  -1   -0.40    2.00
   6  -8  -1   -0.10    1.80
  -6   8   1    0.50    0.80
  -6   8   1    2.00    1.00
   4  -8  -1   46.20    4.80
  -3   8   1   67.59    4.90
  -3   8   1   69.09    7.80
  -3   8   1   69.99    4.70
  -3   8   1   78.59    5.00
  -3   8   1   59.49   11.40
  -3   8   1   63.09    5.20
  -3   8   1   55.09    9.00
  -2   8   1  701.93   48.20
  -2   8   1  660.13   42.70
  -2   8   1  793.72   43.80
  -2   8   1  710.03   43.60
  -2   8   1  694.03   37.60
  -2   8   1  609.84   46.50
  -2   8   1  629.44   37.80
  -2   8   1  676.73   38.40
  -1   8   1  344.17   26.60
  -1   8   1  346.17   19.80
  -1   8   1  321.87   18.70
  -1   8   1  318.27   19.00
  -1   8   1  350.46   24.30
  -1   8   1  304.97   22.70
   0   8   1  264.97   22.30
   0   8   1  269.57   20.90
   0   8   1  257.47   19.10
   0   8   1  255.07   15.50
   0   8   1  280.37   16.20
   1   8   1  147.99   10.30
   1   8   1  166.58    9.90
   1   8   1  173.18   16.60
   1   8   1  179.98   15.20
   1   8   1  174.98   13.70
   1   8   1  137.39   13.60
   2   8   1   69.09    9.60
   2   8   1   67.49    8.00
   2   8   1   70.59    8.50
   2   8   1   82.89    8.10
   2   8   1   71.89    5.20
   3   8   1    6.50    3.80
   3   8   1   10.50    3.50
   9  -9  -1   34.90    3.80
  -9   9   1   32.60    2.40
   8  -9  -1    2.30    1.80
   8  -9  -1    1.30    1.50
  -8   9   1    3.10    0.80
  -8   9   1    2.40    0.90
   7  -9  -1   89.29    9.10
   7  -9  -1   89.69    9.40
  -7   9   1   89.29    5.90
  -7   9   1   85.49    5.70
   6  -9  -1   86.29    9.40
   6  -9  -1   79.19    9.60
  -6   9   1   89.79    5.90
  -6   9   1   87.29    5.80
   5  -9  -1  102.49   11.20
   5  -9  -1  102.49   10.60
  -5   9   1   98.49    6.90
  -5   9   1  109.99    6.90
  -5   9   1  113.89    7.00
   4  -9  -1  209.78   15.90
  -4   9   1  182.68   11.70
  -4   9   1  192.18   11.60
  -4   9   1  185.68   13.30
  -4   9   1  208.88   11.50
  -4   9   1  166.88   13.20
  -3   9   1  417.36   22.90
  -3   9   1  405.86   22.10
  -3   9   1  399.16   22.40
  -3   9   1  404.66   26.70
  -3   9   1  323.17   27.90
  -2   9   1   23.30   11.00
  -2   9   1   30.30    6.80
  -2   9   1   32.40    3.80
  -2   9   1   35.10    3.10
  -2   9   1   46.60   19.40
  -2   9   1   27.50   13.20
  -2   9   1   33.70    6.20
  -2   9   1   30.70    3.30
  -1   9   1   88.79    5.80
  -1   9   1   92.69   17.30
  -1   9   1   77.49   10.00
  -1   9   1   93.59    6.70
  -1   9   1  106.79   13.90
  -1   9   1   73.59    5.80
  -1   9   1   93.39   10.10
  -1   9   1   86.29   17.40
   0   9   1  117.59   16.30
   0   9   1   92.39   10.30
   0   9   1  107.89   11.70
   0   9   1   90.69    6.90
   0   9   1  101.59   11.30
   0   9   1   87.99    6.30
   1   9   1  182.68   18.60
   1   9   1  172.58   11.00
   1   9   1  173.98   15.50
   1   9   1  183.48   14.90
   1   9   1  188.38   10.90
   2   9   1   95.99   10.00
   2   9   1  120.39   12.20
   2   9   1   88.09    8.60
   2   9   1   91.69   14.30
   8 -10  -1   87.99    7.40
   8 -10  -1  102.19    7.60
  -8  10   1   84.39    5.40
  -8  10   1   87.89    5.50
   7 -10  -1   67.59    7.60
   7 -10  -1   79.49    7.60
  -7  10   1   76.89    4.90
  -7  10   1   76.59    5.00
   6 -10  -1    0.50    1.60
   6 -10  -1    0.20    1.60
  -6  10   1    0.10    0.70
  -6  10   1    1.20    0.80
   5 -10  -1   85.99    9.20
   5 -10  -1   99.99   10.30
  -5  10   1   86.69    5.90
  -5  10   1   92.59    6.10
  -5  10   1   80.39    6.00
   3 -10  -1  348.57   21.70
  -3  10   1  316.77   17.40
  -3  10   1  272.87   17.90
  -3  10   1  296.47   17.70
  -3  10   1  277.97   21.30
  -2  10   1   41.10    8.90
  -2  10   1   40.80   16.20
  -2  10   1   46.00    3.30
  -2  10   1   39.30    4.10
  -2  10   1   14.60   17.90
  -2  10   1   39.80    6.60
  -2  10   1   39.30    3.70
  -1  10   1   58.39    5.10
  -1  10   1   66.09   21.60
  -1  10   1   59.29    4.70
  -1  10   1   71.59   10.10
  -1  10   1   86.89    9.10
  -1  10   1   81.09   16.10
   0  10   1  244.08   28.90
   0  10   1  156.98   20.90
   0  10   1  266.27   19.60
   0  10   1  207.28   12.30
   0  10   1  211.48   16.40
   0  10   1  197.28   12.70
   1  10   1   28.70   13.70
   1  10   1   22.60   11.30
   1  10   1   30.90    6.30
   1  10   1   24.70    2.40
   7 -11  -1   27.90    3.50
   7 -11  -1   25.90    3.70
  -7  11   1   29.40    2.20
  -7  11   1   31.60    2.30
   6 -11  -1  120.29    9.40
   6 -11  -1  122.59   10.30
  -6  11   1  111.59    7.10
  -6  11   1  101.89    7.10
  -6  11   1  125.09    7.00
   5 -11  -1    8.80    3.20
   5 -11  -1    7.90    2.50
  -5  11   1    6.60    1.30
  -5  11   1    6.80    1.30
   4 -11  -1  113.29    9.70
   4 -11  -1  132.39   11.40
  -4  11   1  118.49    7.50
  -4  11   1  102.39    7.10
  -3  11   1    5.00    6.50
  -3  11   1   -2.20    6.80
  -3  11   1   22.50    2.40
  -3  11   1   17.30    3.90
  -3  11   1   25.50    2.20
  -2  11   1   20.40    1.80
  -2  11   1  -11.10   11.10
  -2  11   1  -10.30   11.30
  -2  11   1   18.10    2.20
  -2  11   1   16.70    2.00
  -2  11   1   17.40    4.10
  -2  11   1   12.40    7.20
  -1  11   1   -7.30   11.20
  -1  11   1   19.30   13.00
  -1  11   1   -1.10    1.40
  -1  11   1    2.30    5.80
  -1  11   1    0.40    0.70
  -1  11   1    1.00    0.80
   0  11   1   37.10    2.40
   0  11   1   25.20    6.80
   0  11   1   12.50    9.70
   0  11   1   11.20    7.60
   5 -12  -1    2.10    1.50
  -5  12   1    2.60    0.70
  -5  12   1    3.30    0.80
   4 -12  -1  207.38   13.90
  -4  12   1  169.88   11.10
  -4  12   1  218.38   11.40
   3 -12  -1    0.10    1.10
  -3  12   1   -2.10    2.10
  -3  12   1    0.30    0.70
  -3  12   1    0.20    0.60
  -2  12  -2   11.20    3.70
  -2  12  -2   21.30    1.90
  -2  12  -2   19.30    2.00
   2 -12   2   26.00    3.30
  -3  12  -2   29.30    2.50
  -3  12  -2   27.20    2.40
   3 -12   2   29.50    3.80
  -4  12  -2    3.90    0.80
  -4  12  -2    6.30    1.10
  -4  12  -2    4.80    1.00
   4 -12   2    5.10    1.80
   4 -12   2    5.60    2.10
  -5  12  -2    2.80    0.80
  -5  12  -2    2.30    0.70
   5 -12   2    2.70    1.60
   5 -12   2    3.00    1.50
   0  11  -2   82.09    8.70
   0  11  -2   73.79    5.00
   0  11  -2   68.99   16.80
   0  11  -2   53.29   12.20
   0  11  -2   78.59    7.50
  -1  11  -2   40.80    5.60
  -1  11  -2   44.70   17.90
  -1  11  -2   42.60    3.10
  -1  11  -2   44.40   13.50
  -1  11  -2   34.60    6.30
  -1  11  -2   38.00    3.60
  -2  11  -2   71.29   16.10
  -2  11  -2   96.29    8.90
  -2  11  -2   98.39    5.80
  -2  11  -2   93.79    6.30
  -2  11  -2   36.50   18.20
  -2  11  -2   71.09    9.80
  -3  11  -2  177.28    9.90
  -3  11  -2  153.48   12.80
  -3  11  -2  183.58   10.70
  -3  11  -2  184.98   10.40
   3 -11   2  153.88   13.10
  -4  11  -2    4.60    1.20
  -4  11  -2    4.50    1.30
  -4  11  -2    5.80    1.10
   4 -11   2    4.30    2.50
  -5  11  -2   93.79    6.30
  -5  11  -2   99.99    6.30
   5 -11   2   94.79    9.20
   5 -11   2  106.49    9.40
  -6  11  -2   45.60    3.30
  -6  11  -2   44.80    3.20
   6 -11   2   42.10    5.20
   6 -11   2   46.10    5.40
  -7  11  -2   19.70    1.80
   7 -11   2   17.50    3.10
   2  10  -2    2.60    4.20
   2  10  -2    8.50    7.90
   2  10  -2    2.60    1.80
   2  10  -2    3.00    1.70
   2  10  -2   -3.30    6.90
   1  10  -2   10.00    4.30
   1  10  -2   13.40    7.80
   1  10  -2    7.40    8.00
   1  10  -2    4.50    2.30
   1  10  -2    6.60    3.00
   1  10  -2    6.80    1.40
   0  10  -2  114.29    7.40
   0  10  -2  114.79    7.90
   0  10  -2  132.99   17.70
   0  10  -2  138.99   17.30
   0  10  -2  106.09   11.20
   0  10  -2  121.99   11.80
   0  10  -2  130.29   12.20
  -1  10  -2    1.80    4.90
  -1  10  -2    0.50    1.10
  -1  10  -2    1.90    2.50
  -1  10  -2   15.10   11.80
  -1  10  -2   -0.50    0.90
  -1  10  -2   14.00   13.10
  -1  10  -2    3.30    2.70
  -2  10  -2  154.28    8.90
  -2  10  -2   78.09   22.30
  -2  10  -2  140.79    9.50
  -2  10  -2  105.79   19.60
  -2  10  -2  125.99   17.00
  -2  10  -2  152.88   13.50
  -2  10  -2  158.08   13.60
  -3  10  -2  167.18    9.90
  -3  10  -2  167.68   13.50
  -3  10  -2  145.99    9.40
  -3  10  -2  142.29   10.10
  -4  10  -2  189.18   12.40
  -4  10  -2  231.08   12.90
  -4  10  -2  180.98   11.90
  -4  10  -2  189.98   12.20
   4 -10   2  189.68   16.10
  -5  10  -2   12.20    1.70
  -5  10  -2    9.60    1.70
   5 -10   2    8.70    3.40
   5 -10   2    9.60    3.50
  -6  10  -2  210.18   11.20
  -6  10  -2  175.08   11.00
  -6  10  -2  195.38   11.00
   6 -10   2  178.88   14.60
   6 -10   2  182.88   14.90
   6 -10   2  187.08   14.50
  -7  10  -2  131.79    7.50
  -7  10  -2  119.19    7.40
   7 -10   2  130.09   10.60
   7 -10   2  117.29    8.30
  -8  10  -2    9.30    1.10
  -8  10  -2    8.40    1.10
   8 -10   2    7.80    2.10
   3   9  -2   34.80    4.70
   3   9  -2   39.10    4.60
   3   9  -2   33.70    5.60
   2   9  -2   21.30    4.90
   2   9  -2   22.30    4.40
   2   9  -2   29.90    6.60
   2   9  -2   22.90    4.70
   2   9  -2   27.60    4.70
   1   9  -2  100.99    7.20
   1   9  -2   98.59   11.50
   1   9  -2  119.59   11.70
   1   9  -2  108.89   10.20
   1   9  -2  117.49   13.20
   1   9  -2   94.89   10.80
   0   9  -2   57.09    9.40
   0   9  -2   62.99    4.40
   0   9  -2   56.29    4.80
   0   9  -2   66.09    7.60
   0   9  -2   59.79    9.90
   0   9  -2   41.60    8.60
   0   9  -2   56.79    8.10
  -1   9  -2   76.49    9.90
  -1   9  -2   73.29    5.60
  -1   9  -2   76.69    8.90
  -1   9  -2   63.49    7.60
  -1   9  -2   66.09    4.70
  -1   9  -2   44.60    9.50
  -1   9  -2   46.80   11.30
  -2   9  -2  234.18   18.30
  -2   9  -2  237.08   13.60
  -2   9  -2  236.28   13.90
  -2   9  -2  235.78   24.90
  -2   9  -2  211.48   19.00
  -2   9  -2  218.48   18.30
  -2   9  -2  241.58   14.60
  -2   9  -2  262.47   25.60
  -3   9  -2   68.79   14.30
  -3   9  -2   82.79    5.30
  -3   9  -2   78.09    6.00
  -3   9  -2   75.19    5.60
  -4   9  -2  316.47   17.90
  -4   9  -2  301.87   18.40
  -4   9  -2  308.87   18.10
   4  -9   2  323.17   23.10
   4  -9   2  315.87   19.50
  -5   9  -2   53.29    4.10
  -5   9  -2   64.29    4.20
  -5   9  -2   53.39    4.20
   5  -9   2   50.79    7.30
   5  -9   2   50.29    7.40
   5  -9   2   55.39    5.30
  -6   9  -2   88.09    5.60
  -6   9  -2   84.39    5.60
  -6   9  -2   80.49    5.50
   6  -9   2   81.39    9.20
   6  -9   2   76.19    8.90
   6  -9   2   85.99    6.90
  -7   9  -2   58.79    4.10
  -7   9  -2   63.19    4.10
   7  -9   2   52.09    6.70
   7  -9   2   53.19    4.90
  -8   9  -2    5.60    1.00
  -8   9  -2    6.90    1.00
   8  -9   2    5.30    2.10
   8  -9   2    5.00    1.40
   4   8  -2    3.70    2.20
   4   8  -2    6.80    3.00
   4   8  -2    6.80    2.10
   3   8  -2    0.60    3.00
   3   8  -2   -0.50    1.80
   3   8  -2    0.40    1.50
   3   8  -2   -0.40    1.40
   3   8  -2   -0.40    1.40
   2   8  -2    3.70    4.20
   2   8  -2    3.10    2.70
   2   8  -2    3.80    2.40
   2   8  -2    4.90    3.00
   2   8  -2    2.70    2.90
   2   8  -2    3.40    1.40
   1   8  -2   77.29    8.20
   1   8  -2   68.89    9.80
   1   8  -2   50.09   11.70
   1   8  -2   67.09    5.40
   1   8  -2   72.29    9.30
   1   8  -2   77.49   10.20
   0   8  -2    7.90    1.50
   0   8  -2   10.10    4.50
   0   8  -2    7.40    4.40
   0   8  -2    6.80    3.70
   0   8  -2    8.10    2.70
   0   8  -2    7.50    1.90
   0   8  -2    7.70    3.50
  -1   8  -2    1.60    1.80
  -1   8  -2    1.90    1.30
  -1   8  -2    1.40    2.30
  -1   8  -2    1.40    2.20
  -1   8  -2    1.70    2.80
  -1   8  -2    2.90    1.10
  -1   8  -2    3.20    2.90
  -1   8  -2    1.50    2.90
  -2   8  -2   39.70    3.00
  -2   8  -2   42.10    4.00
  -2   8  -2   41.60    3.40
  -2   8  -2   29.40    4.90
  -2   8  -2   48.30    6.50
  -2   8  -2   25.60    7.60
  -2   8  -2   24.70    9.50
  -2   8  -2   45.90    8.10
  -3   8  -2  167.58   10.00
  -3   8  -2  153.88   18.90
  -3   8  -2  156.38    9.20
  -3   8  -2  102.99   15.70
  -3   8  -2  167.68    9.60
   3  -8   2  150.58   10.70
  -4   8  -2   50.79    4.00
  -4   8  -2   60.09    4.00
   4  -8   2   47.80    5.00
   4  -8   2   49.50    8.10
  -5   8  -2  124.99    7.50
  -5   8  -2  115.39    7.20
  -5   8  -2  111.79    7.20
   5  -8   2  120.59    8.90
   5  -8   2  109.79   11.50
   5  -8   2  107.39   11.20
  -6   8  -2  209.48   12.40
  -6   8  -2  217.48   12.40
   6  -8   2  210.58   17.00
   6  -8   2  210.98   17.10
   6  -8   2  201.78   13.90
  -7   8  -2   63.19    4.60
  -7   8  -2   70.09    4.80
   7  -8   2   72.19    8.20
   7  -8   2   71.49    6.10
  -8   8  -2   69.09    4.20
  -8   8  -2   57.69    4.00
   8  -8   2   62.29    5.00
   8  -8   2   51.79    6.20
  -9   8  -2   41.80    2.80
   9  -8   2   34.80    4.00
   9  -8   2   42.50    3.30
   5   7  -2   13.10    3.10
   5   7  -2   11.40    3.70
   4   7  -2   41.40    5.20
   4   7  -2   33.00    5.50
   4   7  -2   41.60    5.10
   4   7  -2   25.80    8.50
   4   7  -2   53.79    6.90
   3   7  -2  125.79   12.30
   3   7  -2  111.89   11.70
   3   7  -2  101.49    9.10
   3   7  -2  108.39   10.70
   3   7  -2   63.29   15.50
   3   7  -2  105.19   10.00
   2   7  -2  283.07   23.70
   2   7  -2  286.87   17.00
   2   7  -2  300.67   19.40
   2   7  -2  299.37   22.60
   2   7  -2  278.77   20.60
   2   7  -2  290.17   22.90
   2   7  -2  277.67   28.70
   1   7  -2   10.40    4.40
   1   7  -2    9.80    1.90
   1   7  -2    8.50    2.50
   1   7  -2   10.90    3.90
   1   7  -2    9.20    6.00
   1   7  -2   12.20    4.90
   1   7  -2   15.30    4.10
   0   7  -2  101.49   17.90
   0   7  -2  141.89    9.70
   0   7  -2  121.19   12.40
   0  -7   2  149.49   13.50
   0  -7   2  135.49   12.60
  -1   7  -2  750.82   49.50
  -1   7  -2  775.52   47.60
  -1   7  -2  888.11   59.19
   1  -7   2  889.31   51.69
   1  -7   2  930.41   52.79
  -2   7  -2    1.20    1.90
  -2   7  -2   -0.30    1.20
   2  -7   2   -0.80    1.90
   2  -7   2    0.60    2.50
   2  -7   2    1.80    3.00
  -3   7  -2  131.39   10.20
  -3   7  -2  178.28   13.00
  -3   7  -2  130.29   11.30
   3  -7   2  150.88   14.50
   3  -7   2  165.08   14.80
  -4   7  -2   15.80    3.10
  -4   7  -2   23.90    3.30
   4  -7   2    6.60   13.80
   4  -7   2   17.80    5.90
  -5   7  -2  651.83   34.20
   5  -7   2  625.94   39.30
   5  -7   2  597.74   35.90
   5  -7   2  610.04   39.30
  -6   7  -2   81.59    5.20
  -6   7  -2   74.69    5.00
   6  -7   2   75.79    8.90
   6  -7   2   68.89    6.40
  -7   7  -2    1.60    0.80
  -7   7  -2   -0.40    0.70
  -7   7  -2    0.20    0.70
   7  -7   2    1.30    1.30
   7  -7   2    0.60    1.80
  -8   7  -2  100.59    6.20
  -8   7  -2   95.69    6.10
  -8   7  -2  116.19    6.50
   8  -7   2   89.69    9.10
   8  -7   2  105.39    7.60
  -9   7  -2   74.79    4.40
  -9   7  -2   76.79    4.50
   9  -7   2   61.79    6.30
   9  -7   2   74.99    5.40
   6   6  -2  298.17   18.90
   5   6  -2   63.99   13.30
   5   6  -2   73.29    7.10
   5   6  -2   79.49    9.20
   5   6  -2   79.99    7.30
   4   6  -2   43.50    6.30
   4   6  -2   37.90    6.90
   4   6  -2   34.60    5.80
   4   6  -2   43.70    8.40
   4   6  -2   19.40    8.80
   3   6  -2   63.89   16.80
   3   6  -2   96.19   11.70
   3   6  -2   86.99    9.50
   3   6  -2  112.89   11.50
   3   6  -2  104.59   12.20
   3   6  -2  109.79    9.60
   2   6  -2   93.49   16.60
   2   6  -2  147.89   14.70
   2   6  -2  148.29   11.90
   2   6  -2  140.19   13.90
   2   6  -2  155.78   15.50
   2   6  -2  135.29   12.20
  -2  -6   2  202.98   18.10
   1   6  -2  123.79   20.50
   1   6  -2  107.69   11.50
  -1  -6   2  150.58   12.60
  -1  -6   2  151.08   12.90
   0   6  -2    3.10    1.30
   0   6  -2    3.80    4.30
   0   6  -2    2.40    2.00
   0  -6   2    1.40    2.10
   0  -6   2    6.00    2.70
  -1   6  -2  167.18   17.50
  -1   6  -2  155.78   12.30
  -1   6  -2  169.58   10.80
   1  -6   2  169.58   14.10
   1  -6   2  167.08   13.40
  -2   6  -2  817.22   48.20
  -2   6  -2  946.41   56.09
  -2   6  -2  921.91   47.80
  -2   6  -2  784.52   49.60
   2  -6   2  872.81   52.39
   2  -6   2  857.01   51.19
  -3   6  -2  848.82   47.30
  -3   6  -2  897.31   45.80
  -3   6  -2  692.93   45.80
   3  -6   2  844.42   50.69
   3  -6   2  839.42   50.19
  -4   6  -2  199.88   13.00
  -4   6  -2  197.48   12.90
   4  -6   2  225.28   17.90
   4  -6   2  183.98   19.10
  -5   6  -2  177.08   12.00
  -5   6  -2  178.08   11.90
   5  -6   2  179.38   16.60
  -6   6  -2  180.68   10.50
  -6   6  -2  173.08   10.40
   6  -6   2  174.38   14.80
   6  -6   2  176.38   12.20
   6  -6   2  176.38   10.30
  -7   6  -2   73.39    5.20
  -7   6  -2   83.69    5.20
   7  -6   2   79.79    6.80
   7  -6   2   79.99    5.10
   7  -6   2   82.99    5.10
   7  -6   2   70.59    8.50
  -8   6  -2   60.29    4.20
   8  -6   2   65.69    4.00
   8  -6   2   59.49    7.10
   8  -6   2   55.09    4.10
   8  -6   2   62.99    5.60
  -9   6  -2    0.00    0.50
  -9   6  -2    0.20    0.50
   9  -6   2    0.40    0.90
   9  -6   2   -0.10    1.00
   9  -6   2   -0.10    0.70
   6   5  -2  146.79   13.30
   6   5  -2  113.59   14.90
   6   5  -2  168.08    9.00
   6   5  -2  184.48   12.10
   5   5  -2  204.18   16.90
   5   5  -2  268.47   21.20
   5   5  -2  206.38   16.30
   5   5  -2  258.27   13.60
   4   5  -2  229.18   11.20
   4   5  -2  215.68   15.40
   4   5  -2  136.99   21.20
   4   5  -2  163.98   17.80
   4   5  -2  170.88   15.10
   3   5  -2   99.59   16.90
   3   5  -2   93.59   18.60
   3   5  -2  119.89   13.70
   3   5  -2  135.69   16.50
   3   5  -2  121.29   12.30
   2   5  -2  763.92   52.39
   2   5  -2  839.52   49.90
  -2  -5   2  952.90   52.49
  -2  -5   2  880.41   48.30
   1   5  -2   27.60    4.30
   1   5  -2   18.40    8.00
   1   5  -2   29.90    3.20
  -1  -5   2   29.90    5.40
  -1  -5   2   27.40    3.20
   0   5  -2 1532.15   90.99
   0   5  -2 1367.36   98.49
   0   5  -2 1789.62   89.39
   0  -5   2 1759.02   92.69
   0  -5   2 1669.03   91.99
   0  -5   2 1688.63   89.39
  -1   5  -2  667.43   38.70
  -1   5  -2  763.82   38.30
  -1   5  -2  676.03   46.30
  -1   5  -2  666.03   40.10
   1  -5   2  695.93   41.90
   1  -5   2  698.53   41.10
   1  -5   2  697.93   38.80
  -2   5  -2    3.70    1.20
  -2   5  -2    5.10    1.20
  -2   5  -2    2.90    1.70
  -2   5  -2    4.40    3.40
   2  -5   2    3.60    1.50
   2  -5   2    4.20    2.40
   2  -5   2    3.80    2.10
  -3   5  -2    2.40    1.50
  -3   5  -2    1.60    1.00
  -3   5  -2    0.70    0.90
   3  -5   2    1.10    1.30
   3  -5   2    4.80    3.50
   3  -5   2    2.50    2.70
  -4   5  -2  990.30   55.59
  -4   5  -2  987.70   55.69
   4  -5   2 1003.20   61.09
   4  -5   2 1027.90   58.59
   4  -5   2 1029.20   56.39
  -5   5  -2  550.14   33.90
  -5   5  -2  596.64   33.70
   5  -5   2  653.43   35.00
   5  -5   2  566.74   39.10
  -6   5  -2   27.80    2.40
   6  -5   2   22.60    2.30
   6  -5   2   24.80    3.70
   6  -5   2   23.50    5.10
   6  -5   2   27.00    2.40
   6  -5   2   29.50    2.50
  -7   5  -2  167.48    9.40
   7  -5   2  154.28   13.60
   7  -5   2  154.98   11.30
   7  -5   2  174.68    9.50
   7  -5   2  150.68    9.50
  -8   5  -2  128.79    7.40
   8  -5   2  136.29    9.30
   8  -5   2  116.19    7.30
   8  -5   2  129.99    7.20
   8  -5   2  114.89    7.00
   8  -5   2  101.29   10.30
  -9   5  -2   68.99    4.60
   9  -5   2   68.59    6.80
   9  -5   2   82.39    5.90
   9  -5   2   74.49    4.40
   9  -5   2   81.89    4.60
   7   4  -2   49.20    5.50
   7   4  -2   57.19    3.40
   7   4  -2   53.19    3.40
   7   4  -2   46.70    6.30
   6   4  -2    3.00    3.40
   6   4  -2   -1.20    4.10
   6   4  -2    1.20    0.70
   6   4  -2    0.90    0.80
   6   4  -2    0.60    2.10
   5   4  -2   28.40    8.10
   5   4  -2   11.30    7.50
   5   4  -2   33.90    2.50
   5   4  -2   28.50    2.80
   4   4  -2  115.59   11.00
   4   4  -2  131.19    7.90
   4   4  -2  140.29   15.20
   4   4  -2  127.19   11.90
   3   4  -2  183.08   23.40
   3   4  -2  239.98   19.50
  -3  -4   2  267.57   15.60
  -3  -4   2  267.17   18.70
   2   4  -2  111.29   11.00
   2   4  -2  142.19    9.40
   2   4  -2  106.99   18.00
  -2  -4   2  118.99    8.20
  -2  -4   2  113.79    7.40
  -2  -4   2  125.99   10.50
   1   4  -2   18.10    4.00
   1   4  -2   19.30    2.20
   1   4  -2   17.40    6.80
  -1  -4   2   15.80    2.20
  -1  -4   2   16.80    3.60
   0   4  -2   45.80    3.50
   0   4  -2   50.19   10.10
   0   4  -2   45.90    4.70
   0  -4   2   43.90    3.60
   0  -4   2   46.30    5.30
  -1   4  -2 1596.94   83.09
  -1   4  -2 1820.92   91.69
  -1   4  -2 1554.04   84.59
  -1   4  -2 1452.65   83.39
   1  -4   2 1556.24   86.09
   1  -4   2 1452.15   83.59
   1  -4   2 1434.86   85.09
  -2   4  -2 2553.34  131.89
  -2   4  -2 2386.66  130.89
  -2   4  -2 2743.73  135.19
  -2   4  -2 2463.35  131.19
   2  -4   2 2344.57  132.79
   2  -4   2 2366.66  134.19
   2  -4   2 2212.48  131.39
  -3   4  -2 1181.58   65.69
  -3   4  -2 1354.36   66.49
  -3   4  -2 1210.68   66.19
  -3   4  -2 1169.18   66.09
   3  -4   2 1200.08   69.99
   3  -4   2 1172.28   66.79
  -4   4  -2  653.23   36.80
  -4   4  -2  654.93   36.50
  -4   4  -2  633.04   36.50
   4  -4   2  640.54   38.70
   4  -4   2  679.33   41.50
   4  -4   2  681.83   37.70
   4  -4   2  660.63   36.70
  -5   4  -2  298.17   17.30
  -5   4  -2  290.87   17.80
  -5   4  -2  282.97   17.20
   5  -4   2  283.17   17.50
   5  -4   2  298.27   18.50
   5  -4   2  288.97   22.10
  -6   4  -2    7.30    1.90
   6  -4   2    5.90    2.00
   6  -4   2    5.00    1.00
   6  -4   2    6.50    2.60
   6  -4   2    5.10    2.70
   6  -4   2    4.10    0.90
   6  -4   2    6.20    1.20
   7  -4   2   52.29    3.50
   7  -4   2   57.29    3.80
   7  -4   2   49.60    3.60
   7  -4   2   51.89    6.90
   7  -4   2   58.49    5.50
   7  -4   2   52.69    3.80
   7  -4   2   50.59    3.70
   7  -4   2   56.69    3.80
  -8   4  -2   92.19    5.80
   8  -4   2   91.69    5.80
   8  -4   2   86.59    5.70
   8  -4   2   95.59    6.00
   8  -4   2   98.19    5.80
   8  -4   2   92.89    9.30
   8  -4   2   89.89    5.60
   8  -4   2  111.59    7.90
  -9   4  -2   40.30    2.70
   9  -4   2   43.60    2.90
   9  -4   2   39.90    2.60
   9  -4   2   38.50    2.60
   9  -4   2   38.40    4.00
   9  -4   2   31.80    4.50
   9  -4   2   41.50    2.70
   9  -4   2   42.40    2.70
   8   3  -2    6.80    2.00
   8   3  -2    7.70    0.90
   8   3  -2    7.90    0.90
   7   3  -2  173.38   11.30
   7   3  -2  167.48   16.80
   7   3  -2  202.88   11.00
   7   3  -2  233.38   15.00
   7   3  -2  202.58   11.20
   6   3  -2   65.49    4.30
   6   3  -2   76.39   11.40
   6   3  -2   71.29    4.50
   6   3  -2   58.59    8.20
   6   3  -2   58.59    4.50
   5   3  -2   21.60    2.10
   5   3  -2   19.90    4.40
   5   3  -2   23.20    2.10
   5   3  -2   11.40    6.90
   5   3  -2   22.30    7.30
   5   3  -2   21.30    2.20
   4   3  -2    6.20    3.20
   4   3  -2    0.70    2.50
  -4  -3   2    4.10    1.40
  -4  -3   2    5.20    1.80
   3   3  -2 1779.92  111.39
   3   3  -2 1923.11  111.49
  -3  -3   2 2177.58  107.99
  -3  -3   2 2026.70  107.29
   2   3  -2  329.07   17.40
   2   3  -2  273.67   19.30
   2   3  -2  275.47   24.00
   2   3  -2  274.77   19.20
  -2  -3   2  265.47   16.00
  -2  -3   2  274.97   16.50
   1   3  -2 1023.60   60.99
   1   3  -2 1045.30   54.09
   1   3  -2  960.20   55.89
   1   3  -2 1076.69   53.09
  -1  -3   2  951.10   53.39
  -1  -3   2  955.00   52.99
  -1  -3   2  865.81   54.89
   0   3  -2 1522.25   80.89
   0   3  -2 1518.65   80.09
   0   3  -2 1501.85   81.99
   0  -3   2 1465.75   82.09
   0  -3   2 1429.56   80.29
  -1   3  -2   20.90    2.00
  -1   3  -2   19.80    2.40
  -1   3  -2   17.90    1.70
  -1   3  -2   25.00    5.30
   1  -3   2   14.80    2.50
   1  -3   2   17.40    2.00
   1  -3   2   25.40    3.70
  -2   3  -2 1375.56   73.19
  -2   3  -2 1407.26   73.49
  -2   3  -2 1297.47   72.89
  -2   3  -2 1464.95   73.29
   2  -3   2 1254.67   73.59
   2  -3   2 1333.37   75.69
   2  -3   2 1349.27   74.49
   2  -3   2 1360.26   73.19
  -3   3  -2  433.66   23.30
  -3   3  -2  399.16   23.00
  -3   3  -2  398.26   23.10
   3  -3   2  439.16   24.70
   3  -3   2  423.46   23.40
   3  -3   2  382.66   23.60
   3  -3   2  407.16   26.50
  -4   3  -2 2424.66  135.29
  -4   3  -2 2527.85  135.19
  -4   3  -2 2423.96  134.99
   4  -3   2 2580.14  135.59
   4  -3   2 2492.25  136.59
   4  -3   2 2568.44  136.09
   4  -3   2 2523.35  139.59
  -5   3  -2  218.28   14.50
  -5   3  -2  226.08   14.80
   5  -3   2  245.98   15.10
   5  -3   2  264.87   16.00
   5  -3   2  248.58   19.30
  -6   3  -2  207.68   13.50
  -6   3  -2  222.28   14.10
  -6   3  -2  210.58   13.60
   6  -3   2  199.88   12.10
   6  -3   2  216.98   12.00
   6  -3   2  193.98   13.60
   6  -3   2  201.48   11.90
   6  -3   2  253.27   15.50
   6  -3   2  182.18   11.90
   6  -3   2  240.88   19.20
   7  -3   2   19.90    2.10
   7  -3   2   19.50    2.10
   7  -3   2   18.70    4.40
   7  -3   2   21.40    2.20
   7  -3   2   19.10    1.90
   7  -3   2   20.60    2.10
   7  -3   2   16.00    1.70
   7  -3   2   18.70    3.30
   8  -3   2    2.00    0.70
   8  -3   2    4.10    2.30
   8  -3   2    3.90    0.90
   8  -3   2    1.50    1.40
   8  -3   2    2.20    0.70
   8  -3   2    2.80    0.80
   8  -3   2    2.10    0.80
  -9   3  -2    0.20    0.70
   9  -3   2   -0.60    0.90
   9  -3   2    0.30    0.50
   9  -3   2    0.60    0.60
   9  -3   2    0.20    0.50
   9  -3   2    0.60    0.50
   9  -3   2    1.30    0.50
   8   2  -2    2.50    0.80
   8   2  -2    3.60    0.70
   8   2  -2    3.90    0.80
   8   2  -2    2.50    1.90
   8   2  -2    1.10    2.30
   7   2  -2   -0.90    2.80
   7   2  -2    1.80    0.80
   7   2  -2    0.70    2.10
   7   2  -2    1.40    0.80
   7   2  -2    0.60    0.50
   7   2  -2   -2.70    3.20
   7   2  -2    0.70    0.60
   6   2  -2   10.00    5.20
   6   2  -2    3.80    5.50
   6   2  -2   11.00    1.50
   6   2  -2   10.80    3.30
   6   2  -2   12.70    1.50
   6   2  -2   12.90    1.40
   6   2  -2   13.30    1.70
   5   2  -2   18.90    5.50
   5   2  -2   19.50    5.30
  -5  -2   2   22.90    3.20
  -5  -2   2   26.50    3.90
   4   2  -2  137.59   13.70
   4   2  -2  172.98   14.70
  -4  -2   2  185.28   10.80
  -4  -2   2  171.28   10.30
   3   2  -2   43.50    6.50
   3   2  -2   36.80    6.00
   3   2  -2   41.00    7.90
  -3  -2   2   42.70    3.10
  -3  -2   2   42.10    3.40
   2   2  -2   47.20    5.30
   2   2  -2   62.69    7.40
   2   2  -2   47.80    6.00
  -2  -2   2   46.70    3.50
  -2  -2   2   52.39    3.30
  -2  -2   2   48.40    3.90
   1   2  -2    6.00    2.10
   1   2  -2    6.30    2.50
   1   2  -2    6.60    2.00
   1   2  -2    9.00    1.50
  -1  -2   2    6.10    1.20
  -1  -2   2    5.80    0.90
   0   2  -2  739.63   39.20
   0   2  -2  810.72   41.40
   0   2  -2  711.43   39.80
   0   2  -2  716.83   38.60
   0  -2   2  691.33   39.90
   0  -2   2  700.23   38.80
   0  -2   2  647.64   38.50
  -1   2  -2   12.60    1.30
  -1   2  -2   11.90    1.50
  -1   2  -2   16.80    3.40
   1  -2   2    9.00    1.20
   1  -2   2    6.90    1.30
   1  -2   2    8.40    2.00
   1  -2   2    9.70    1.70
  -2   2  -2 1900.31   98.29
  -2   2  -2 1843.82   98.29
  -2   2  -2 1869.11   98.19
  -2   2  -2 1803.62   98.29
   2  -2   2 1729.03   98.49
   2  -2   2 1884.01  100.59
   2  -2   2 1757.52   98.69
  -3   2  -2 1868.81  101.79
  -3   2  -2 1902.21  101.79
  -3   2  -2 1975.50  101.59
   3  -2   2 1899.81  102.59
   3  -2   2 1827.62  102.39
   3  -2   2 1855.91  102.09
   3  -2   2 1867.71  104.79
  -4   2  -2  335.07   19.40
  -4   2  -2  336.87   19.00
  -4   2  -2  343.07   19.40
   4  -2   2  306.47   22.80
   4  -2   2  351.76   19.90
   4  -2   2  325.77   20.10
  -5   2  -2   98.09    7.50
  -5   2  -2   99.39    7.40
   5  -2   2  108.59    8.00
   5  -2   2  108.99   11.10
   5  -2   2  118.29    8.70
  -6   2  -2   50.19    6.90
   6  -2   2   39.10    3.00
   6  -2   2   41.60    2.90
   6  -2   2   40.50    3.10
   6  -2   2   43.30    4.60
   6  -2   2   39.90    3.00
   6  -2   2   44.80    3.00
   6  -2   2   51.29   12.70
   6  -2   2   41.00    3.10
   7  -2   2  119.19    7.50
   7  -2   2  129.99    7.40
   7  -2   2  121.69    7.40
   7  -2   2  112.39   11.10
   7  -2   2  124.49    7.60
   7  -2   2  121.89    9.30
   7  -2   2  125.59    7.50
   7  -2   2  127.09    7.50
   8  -2   2    0.90    0.60
   8  -2   2    1.30    0.80
   8  -2   2    0.90    0.60
   8  -2   2    0.50    0.60
   8  -2   2    0.20    1.80
   8  -2   2   -0.20    1.30
   8  -2   2    1.40    0.60
   8  -2   2    0.60    0.60
   9  -2   2   -0.20    1.10
   9  -2   2    2.70    0.60
   9  -2   2    1.50    0.60
   9  -2   2    1.20    0.60
   9  -2   2    3.10    0.70
   9  -2   2    1.60    0.50
   8   1  -2  515.25   38.30
   8   1  -2  605.94   31.10
   8   1  -2  585.74   31.40
   8   1  -2  564.84   31.30
   8   1  -2  566.04   31.50
   8   1  -2  595.84   34.60
   7   1  -2   85.99    5.20
   7   1  -2   78.59    7.80
   7   1  -2   79.19    5.00
   7   1  -2   77.69   10.60
   7   1  -2   77.59    5.30
   7   1  -2   80.89    5.20
   6   1  -2   21.60    2.00
   6   1  -2   17.30    3.70
   6   1  -2   19.50    2.00
   6   1  -2   23.30    7.20
   6   1  -2   19.10    2.00
   6   1  -2   21.40    1.90
   6   1  -2   18.80    5.40
   5   1  -2    3.60    1.70
   5   1  -2    1.40    2.60
   5   1  -2    1.80    2.40
  -5  -1   2    4.90    1.40
  -5  -1   2    6.00    1.60
   4   1  -2  599.44   36.30
   4   1  -2  581.44   36.60
   4   1  -2  586.34   33.60
  -4  -1   2  591.94   33.10
  -4  -1   2  579.94   32.70
   3   1  -2    3.70    1.20
   3   1  -2    2.60    1.70
   3   1  -2    2.60    1.80
   3   1  -2    2.30    2.10
  -3  -1   2    1.80    0.70
  -3  -1   2    2.90    1.00
   2   1  -2   23.20    3.70
   2   1  -2   19.00    3.00
   2   1  -2   20.50    3.30
   2   1  -2   19.30    2.10
  -2  -1   2   19.00    1.60
  -2  -1   2   17.80    1.90
   1   1  -2  545.15   30.90
   1   1  -2  573.64   31.40
   1   1  -2  541.15   30.70
   1   1  -2  581.64   29.90
  -1  -1   2  548.85   29.70
  -1  -1   2  540.65   29.50
  -1  -1   2  506.25   29.90
   0   1  -2 1834.92   93.69
   0   1  -2 1715.63   92.99
   0   1  -2 1832.32   94.29
   0   1  -2 1849.11   93.39
   0  -1   2 1738.23   93.29
   0  -1   2 1623.24   93.09
   0  -1   2 1582.94   93.69
  -1   1  -2 3479.45  182.78
  -1   1  -2 3469.75  182.58
  -1   1  -2 3482.55  182.88
  -1   1  -2 3523.85  182.98
  -1   1  -2 3451.95  182.78
   1  -1   2 3328.27  182.98
   1  -1   2 3423.96  183.78
   1  -1   2 3176.18  182.78
  -2   1  -2 8721.43  454.05
   2  -1   2 8308.27  454.55
   2  -1   2 8699.43  456.05
   2  -1   2 8266.47  454.45
  -3   1  -2 2539.95  136.89
  -3   1  -2 2694.03  136.89
  -3   1  -2 2428.96  136.99
  -3   1  -2 2694.53  136.49
  -3   1  -2 2598.94  136.49
   3  -1   2 2480.85  137.19
   3  -1   2 2342.67  137.29
   3  -1   2 2554.94  139.69
  -4   1  -2  316.87   19.50
  -4   1  -2  321.37   19.20
  -4   1  -2  364.06   18.90
   4  -1   2  361.96   20.10
   4  -1   2  322.77   22.60
   4  -1   2  306.07   20.10
  -5   1  -2  319.67   19.60
  -5   1  -2  322.07   19.40
   5  -1   2  310.87   23.40
   5  -1   2  341.07   20.60
   5  -1   2  348.47   20.20
   6  -1   2  130.89    7.70
   6  -1   2  130.99    9.50
   6  -1   2  137.39    7.60
   6  -1   2  127.69    7.70
   6  -1   2  124.89    7.80
   6  -1   2  118.29    7.60
   6  -1   2  120.49   11.20
   6  -1   2  129.09    7.50
   7  -1   2    0.50    0.60
   7  -1   2    1.20    1.40
   7  -1   2    0.10    1.80
   7  -1   2    0.20    0.60
   7  -1   2    0.10    0.60
   7  -1   2    1.50    0.70
   7  -1   2    1.30    0.70
   7  -1   2   -0.80    0.60
   8  -1   2  120.29    7.10
   8  -1   2  115.39    7.20
   8  -1   2  126.39    7.30
   8  -1   2  111.19    7.10
   8  -1   2  122.99    9.20
   8  -1   2  125.09    7.20
   9  -1   2    0.00    0.40
   9  -1   2    1.10    0.40
   9  -1   2    1.40    1.20
   9  -1   2    0.30    0.40
   9  -1   2    0.30    0.50
   9  -1   2    0.40    0.40
   9   0  -2    2.20    2.60
   9   0  -2    1.60    0.70
   9   0  -2    2.10    0.60
   9   0  -2    2.40    1.70
   9   0  -2    1.50    0.50
   9   0  -2    2.10    0.60
   8   0  -2   26.90    2.30
   8   0  -2   28.50    2.50
   8   0  -2   25.10    6.30
   8   0  -2   29.90    2.60
   8   0  -2   26.90    2.30
   8   0  -2   29.10    4.70
   7   0  -2   11.10    1.50
   7   0  -2   13.10    5.40
   7   0  -2   12.10    4.40
   7   0  -2   11.50    1.50
   7   0  -2   10.40    1.50
   7   0  -2   10.80    1.50
   7   0  -2   13.80    3.20
   7   0  -2    8.80    1.20
   6   0  -2    2.10    1.60
   6   0  -2    3.40    0.90
   6   0  -2    2.40    0.70
   6   0  -2    2.40    3.90
   6   0  -2    3.70    2.50
   6   0  -2    2.70    0.80
   6   0  -2    2.60    0.80
   6   0  -2    2.00    2.70
   5   0  -2  108.79   10.80
   5   0  -2  107.59    7.90
   5   0  -2   99.79    9.90
  -5   0   2   97.39    7.50
  -5   0   2  109.39    7.30
   4   0  -2    1.00    1.70
   4   0  -2    1.30    1.10
   4   0  -2    1.20    1.80
   4   0  -2    0.60    1.50
  -4   0   2   -0.10    0.80
  -4   0   2    1.70    0.90
  -4   0   2   -0.40    0.60
   3   0  -2    9.70    2.40
   3   0  -2    9.60    1.70
   3   0  -2    9.80    2.40
   3   0  -2    6.70    2.40
  -3   0   2    9.20    1.40
  -3   0   2    8.20    1.40
  -3   0   2    8.20    1.20
   2   0  -2   25.40    3.50
   2   0  -2   30.30    3.70
   2   0  -2   29.60    3.50
   2   0  -2   30.20    2.50
  -2   0   2   31.90    2.10
  -2   0   2   29.10    2.40
  -2   0   2   30.70    2.20
   1   0  -2 4245.18  233.08
   1   0  -2 3951.50  232.98
   1   0  -2 4575.44  232.48
   1   0  -2 4623.44  233.88
   0   0  -2   16.00    1.40
   0   0  -2   16.40    1.70
   0   0  -2   17.30    2.10
   0   0   2   14.00    1.20
   0   0   2   19.60    1.30
   0   0   2   17.40    1.30
   0   0   2   14.70    1.30
  -1   0  -2 4413.16  232.18
  -1   0  -2 4500.55  232.08
   1   0   2 4117.09  231.98
   1   0   2 4283.57  232.18
   1   0   2 4040.60  232.18
   1   0   2 4406.06  232.18
   1   0   2 4611.34  232.88
  -2   0  -2 4913.01  262.27
  -2   0  -2 4903.91  261.87
  -2   0  -2 4875.71  262.07
  -2   0  -2 4809.12  261.87
   2   0   2 5049.19  262.47
   2   0   2 4901.61  263.67
   2   0   2 5087.99  262.27
   2   0   2 4629.54  262.37
  -3   0  -2 2150.08  113.19
  -3   0  -2 2098.69  113.79
  -3   0  -2 2143.59  113.59
  -3   0  -2 2174.68  113.29
   3   0   2 2040.40  114.59
   3   0   2 2048.90  113.99
   3   0   2 2078.39  114.19
   3   0   2 2098.19  116.19
  -4   0  -2  143.59    9.40
  -4   0  -2  149.59    8.80
  -4   0  -2  142.99    9.40
  -4   0  -2  147.79    9.30
   4   0   2  140.29    9.80
   4   0   2  135.59    9.90
   4   0   2  146.39   12.40
  -5   0  -2  192.98   12.70
  -5   0  -2  207.48   12.50
   5   0   2  195.48   13.60
   5   0   2  185.88   16.50
   5   0   2  209.78   13.40
   6   0   2   37.00    3.00
   6   0   2   39.30    3.00
   6   0   2   38.60    3.00
   6   0   2   38.40    2.90
   6   0   2   39.40    2.80
   6   0   2   42.80    4.70
   7   0   2  319.87   17.50
   7   0   2  307.67   17.60
   7   0   2  301.77   17.60
   7   0   2  317.27   20.00
   7   0   2  316.77   17.70
   7   0   2  314.47   17.70
   8   0   2   44.20    3.10
   8   0   2   35.30    4.90
   8   0   2   40.60    3.00
   8   0   2   41.30    2.80
   8   0   2   46.60    3.00
   8   0   2   43.20    2.90
   9  -1  -2  365.86   19.10
   9  -1  -2  344.97   18.90
   9  -1  -2  316.07   23.90
   9  -1  -2  366.16   21.30
   9  -1  -2  338.67   19.00
   9  -1  -2  340.77   19.00
   8  -1  -2   68.69    4.60
   8  -1  -2   72.19    4.60
   8  -1  -2   72.59    6.70
   8  -1  -2   69.39    4.40
   8  -1  -2   75.59    9.10
   8  -1  -2   70.29    4.60
   8  -1  -2   66.19    4.50
   8  -1  -2   61.99    9.60
   7  -1  -2   99.99    5.90
   7  -1  -2   95.59    5.90
   7  -1  -2   83.99    5.80
   7  -1  -2   95.09    5.90
   7  -1  -2   89.39   10.60
   7  -1  -2   93.19    5.70
   7  -1  -2   91.59   10.00
   7  -1  -2  102.89    8.00
   6  -1  -2  347.77   25.20
   6  -1  -2  338.87   23.70
   6  -1  -2  356.96   21.20
  -6   1   2  347.67   20.70
  -6   1   2  324.27   20.70
   5  -1  -2   -0.10    1.10
   5  -1  -2    1.50    1.40
   5  -1  -2   -0.30    1.90
  -5   1   2    0.40    0.90
  -5   1   2    0.70    1.00
  -5   1   2   10.90    1.90
   4  -1  -2 1608.14   82.89
   4  -1  -2 1499.95   85.79
   4  -1  -2 1434.06   84.49
  -4   1   2 1482.45   81.99
  -4   1   2 1643.44   82.39
  -4   1   2 1435.96   82.39
   3  -1  -2    6.70    2.10
   3  -1  -2    5.70    2.00
   3  -1  -2    2.80    1.80
   3  -1  -2    6.00    1.40
  -3   1   2    4.00    0.90
  -3   1   2    6.50    1.10
  -3   1   2    4.50    1.10
   2  -1  -2 4515.65  236.18
   2  -1  -2 4152.58  234.78
   2  -1  -2 4591.24  236.78
   2  -1  -2 4151.28  236.28
  -2   1   2 4391.96  234.78
  -2   1   2 4476.95  234.78
  -2   1   2 4449.75  234.68
   1  -1  -2 3197.38  171.98
   1  -1  -2 3383.16  173.48
   1  -1  -2 3140.79  172.38
   1  -1  -2 3316.57  172.78
  -1   1   2 3032.70  171.68
  -1   1   2 3213.58  171.68
  -1   1   2 3207.08  171.78
   0  -1  -2 1355.86   75.69
   0  -1  -2 1365.16   76.69
   0   1   2 1407.46   75.39
   0   1   2 1415.16   75.39
   0   1   2 1433.16   75.39
   0   1   2 1504.55   75.69
   0   1   2 1349.66   75.39
   1   1   2    4.90    1.00
   1   1   2    4.80    1.20
   1   1   2    4.60    1.00
   1   1   2    4.10    1.00
   1   1   2    4.60    1.30
   1   1   2    5.00    1.40
   1   1   2    5.70    1.20
   1   1   2    5.10    1.30
  -2  -1  -2 2514.55  132.99
  -2  -1  -2 2494.95  132.69
   2   1   2 2408.46  133.69
   2   1   2 2460.35  132.89
   2   1   2 2481.05  132.69
   2   1   2 2554.14  133.09
   2   1   2 2362.26  132.99
  -3  -1  -2 1430.76   77.09
  -3  -1  -2 1510.05   77.39
  -3  -1  -2 1426.76   77.49
  -3  -1  -2 1420.86   77.69
   3   1   2 1364.86   80.29
   3   1   2 1443.46   78.09
   3   1   2 1398.36   78.19
   3   1   2 1422.96   79.19
  -4  -1  -2 1028.50   58.39
  -4  -1  -2 1065.09   58.49
  -4  -1  -2 1085.89   58.29
  -4  -1  -2 1087.29   57.79
   4   1   2 1045.00   58.89
   4   1   2  980.20   59.09
   4   1   2 1131.59   62.29
  -5  -1  -2 1083.19   58.49
  -5  -1  -2 1101.79   58.89
   5   1   2 1091.69   59.59
   5   1   2  931.91   62.59
   6   1   2   25.20    2.40
   6   1   2   27.70    2.40
   6   1   2   27.90    2.50
   6   1   2   23.20    2.30
   6   1   2   29.00    4.50
   6   1   2   27.00    2.20
   7   1   2   30.70    5.00
   7   1   2   33.00    2.70
   7   1   2   36.40    2.80
   7   1   2   33.50    2.70
   7   1   2   36.00    2.70
   7   1   2   38.10    2.60
   8   1   2   13.50    1.40
   8   1   2   12.90    1.30
   8   1   2   13.00    1.10
   8   1   2    6.40    2.50
   9  -2  -2   91.99    5.40
   9  -2  -2   86.99    5.30
   9  -2  -2   93.59    5.40
   9  -2  -2   79.89    9.00
   9  -2  -2   99.49    7.40
   9  -2  -2   85.89    5.30
  -9   2   2   82.89    5.30
   8  -2  -2   25.70    4.00
   8  -2  -2   30.40    2.40
   8  -2  -2   23.80    5.20
   8  -2  -2   26.10    2.30
   8  -2  -2   25.20    2.40
   8  -2  -2   28.90    6.40
   8  -2  -2   22.50    2.30
   8  -2  -2   25.70    2.30
   7  -2  -2   63.19    7.90
   7  -2  -2   66.29    4.20
   7  -2  -2   71.09    4.50
   7  -2  -2   66.89    8.40
   7  -2  -2   67.49    4.20
   7  -2  -2   61.69    4.20
   7  -2  -2   57.19    4.20
   7  -2  -2   61.59    5.80
   6  -2  -2   42.30    6.70
   6  -2  -2   48.70    5.20
   6  -2  -2   40.80    7.40
  -6   2   2   46.00    4.90
  -6   2   2   42.10    4.40
  -6   2   2   42.50    4.50
   5  -2  -2  350.26   23.60
   5  -2  -2  369.46   25.00
   5  -2  -2  386.26   21.70
  -5   2   2  333.57   21.10
  -5   2   2  357.06   21.20
  -5   2   2  372.56   21.00
   4  -2  -2   79.39    5.90
   4  -2  -2   84.39    7.50
   4  -2  -2   82.19    8.10
  -4   2   2   84.49    5.70
  -4   2   2   80.49    5.70
  -4   2   2   83.29    5.80
   3  -2  -2   13.70    3.10
   3  -2  -2   15.80    3.10
   3  -2  -2   16.00    2.00
   3  -2  -2   19.50    3.70
  -3   2   2   18.00    1.90
  -3   2   2   18.60    2.00
  -3   2   2   20.00    2.00
   2  -2  -2 2997.40  156.28
   2  -2  -2 2743.73  156.38
   2  -2  -2 2802.92  155.98
  -2   2   2 2918.51  154.18
  -2   2   2 2795.52  154.18
  -2   2   2 2747.82  154.38
  -2   2   2 3011.50  154.38
  -2   2   2 3031.60  154.38
   1  -2  -2   12.00    2.60
   1  -2  -2   10.80    2.10
   1  -2  -2   10.30    1.90
  -1   2   2   20.30    2.00
  -1   2   2    9.70    1.30
  -1   2   2   10.00    1.30
  -1   2   2    8.80    1.20
   0  -2  -2  242.78   15.50
   0  -2  -2  228.18   14.30
   0   2   2  235.28   13.50
   0   2   2  240.18   13.60
   0   2   2  244.08   13.60
   0   2   2  248.78   14.10
   1   2   2   16.10    2.70
   1   2   2   14.30    1.80
   1   2   2   19.00    4.10
   1   2   2   17.90    2.40
   1   2   2   17.90    2.00
   1   2   2   15.40    1.90
   1   2   2   14.10    1.80
   1   2   2   15.70    2.60
   2   2   2  411.76   22.50
   2   2   2  405.96   22.50
   2   2   2  359.56   25.60
   2   2   2  425.86   22.40
   2   2   2  394.36   24.00
   2   2   2  350.06   22.50
   2   2   2  423.96   23.00
  -3  -2  -2  800.02   40.10
  -3  -2  -2  727.13   40.10
  -3  -2  -2  725.53   40.30
  -3  -2  -2  740.33   39.70
   3   2   2  612.64   42.70
   3   2   2  748.93   40.80
   3   2   2  724.13   42.60
   3   2   2  712.23   40.60
  -4  -2  -2   83.69    5.80
   4   2   2   71.59    6.20
   4   2   2   56.29    8.80
   5   2   2   26.30    2.10
   5   2   2   20.40    2.10
   5   2   2   23.20    2.20
   5   2   2   24.00    4.30
   5   2   2   21.40    2.10
   6   2   2  710.33   47.20
   6   2   2  839.62   44.40
   6   2   2  787.62   44.40
   6   2   2  854.81   44.20
   6   2   2  867.51   44.40
   7   2   2    9.70    1.30
   7   2   2    8.60    1.00
   7   2   2    6.00    1.00
   7   2   2   10.30    1.30
   7   2   2    7.50    2.90
   8   2   2   35.30    2.50
   8   2   2   39.00    2.40
   8   2   2   38.10    2.50
   9  -3  -2   89.09    5.30
   9  -3  -2   87.09    5.30
   9  -3  -2   93.49    5.40
   9  -3  -2   76.89    5.20
   9  -3  -2   86.19    8.70
   9  -3  -2   93.09    7.10
  -9   3   2   91.09    5.40
   8  -3  -2   86.39    7.20
   8  -3  -2   81.89    5.40
   8  -3  -2   88.69    5.40
   8  -3  -2   90.59    5.70
   8  -3  -2   86.19    5.40
   8  -3  -2   83.49    9.50
   8  -3  -2   90.39    5.50
   8  -3  -2   88.99    9.40
   7  -3  -2  230.58   13.20
   7  -3  -2  250.67   18.20
   7  -3  -2  213.38   14.80
   7  -3  -2  234.38   13.10
   7  -3  -2  244.78   18.60
   7  -3  -2  232.68   13.20
   7  -3  -2  214.78   13.20
  -7   3   2  245.88   13.30
   6  -3  -2   16.20    4.40
   6  -3  -2   15.70    4.80
   6  -3  -2   15.80    3.00
  -6   3   2   13.70    2.50
  -6   3   2    6.50    2.40
  -6   3   2   12.70    2.40
   5  -3  -2 1779.82   93.39
   5  -3  -2 1672.53   88.99
   5  -3  -2 1568.84   91.59
  -5   3   2 1535.75   88.59
  -5   3   2 1618.34   88.59
  -5   3   2 1597.84   88.69
   4  -3  -2  125.49    8.00
   4  -3  -2  111.99    9.80
   4  -3  -2  107.29   10.10
   4  -3  -2  121.39   10.00
  -4   3   2  120.29    7.90
  -4   3   2  119.19    7.80
  -4   3   2  134.99    7.80
   3  -3  -2    8.80    2.70
   3  -3  -2    9.70    2.80
   3  -3  -2   10.90    3.20
   3  -3  -2   13.10    1.80
  -3   3   2   12.50    1.70
  -3   3   2   11.20    1.70
  -3   3   2   11.50    1.50
   2  -3  -2  670.33   38.80
   2  -3  -2  655.13   39.60
  -2   3   2  662.83   37.30
  -2   3   2  640.04   36.80
  -2   3   2  696.73   36.80
  -2   3   2  722.13   37.00
   1  -3  -2   26.10    3.40
   1  -3  -2   23.70    3.40
   1  -3  -2   24.40    4.20
  -1   3   2   28.00    3.10
  -1   3   2   28.90    2.60
  -1   3   2   31.30    2.30
  -1   3   2   25.90    2.50
   0  -3  -2 3146.49  179.78
   0  -3  -2 3402.86  179.58
   0   3   2 3399.26  178.48
   0   3   2 3305.37  178.38
   0   3   2 3300.27  178.58
   0   3   2 3404.06  179.28
  -1  -3  -2   65.09    6.00
  -1  -3  -2   68.29    5.90
   1   3   2   69.49    5.00
   1   3   2   76.29    8.90
   1   3   2   75.29    5.10
   1   3   2   69.39    4.80
   1   3   2   77.39    5.20
   1   3   2   75.39    5.80
   2   3   2  131.19    8.50
   2   3   2  124.09    8.40
   2   3   2  150.58    8.70
   2   3   2  112.99   12.40
   2   3   2  130.49    9.20
   2   3   2  131.29    8.50
  -3  -3  -2   43.30    4.20
  -3  -3  -2   49.30    4.40
  -3  -3  -2   45.10    4.50
  -3  -3  -2   39.10    3.70
   3   3   2   47.80    5.00
   3   3   2   41.80    7.00
  -4  -3  -2  166.48   11.20
   5   3   2   19.00    2.00
   5   3   2   20.70    2.00
   5   3   2   20.90    2.20
   6   3   2    3.40    0.80
   6   3   2    3.10    1.00
   6   3   2    2.80    0.80
   7   3   2  142.39    7.80
   7   3   2  128.09    7.70
   7   3   2  134.29    7.90
  10  -4  -2   41.80    3.40
  10  -4  -2   29.70    4.20
 -10   4   2   33.60    2.10
 -10   4   2   32.40    2.20
   9  -4  -2   41.00    5.60
   9  -4  -2   41.90    2.90
   9  -4  -2   48.70    4.40
   9  -4  -2   38.20    2.80
  -9   4   2   48.00    3.20
   8  -4  -2  140.69    7.80
   8  -4  -2  124.89   11.80
   8  -4  -2  123.59    7.40
   8  -4  -2  124.29   11.50
   8  -4  -2  115.99    7.30
   8  -4  -2  120.99    9.00
  -8   4   2  123.19    7.50
   7  -4  -2    0.20    1.80
   7  -4  -2    1.20    1.30
   7  -4  -2   -0.70    0.60
   7  -4  -2    0.10    1.80
   7  -4  -2    0.70    0.60
  -7   4   2    0.00    0.60
   6  -4  -2  169.58   14.30
   6  -4  -2  194.98   16.00
  -6   4   2  161.68   11.20
  -6   4   2  156.48   11.20
   5  -4  -2  270.07   20.00
   5  -4  -2  312.37   21.70
  -5   4   2  284.27   17.30
  -5   4   2  281.57   17.10
   4  -4  -2   29.40    5.50
   4  -4  -2   33.80    5.70
   4  -4  -2   27.90    5.20
  -4   4   2   34.20    3.30
  -4   4   2   34.10    3.60
  -4   4   2   33.30    3.30
   3  -4  -2 2731.73  155.58
   3  -4  -2 2719.63  155.08
   3  -4  -2 2646.24  155.68
  -3   4   2 2891.71  151.88
  -3   4   2 2983.90  152.58
  -3   4   2 2881.51  152.28
  -3   4   2 2913.71  152.18
   2  -4  -2 4669.83  264.27
   2  -4  -2 5367.56  265.37
   2  -4  -2 4822.22  265.97
  -2   4   2 4651.03  262.27
  -2   4   2 4949.70  262.97
  -2   4   2 4988.00  261.97
  -2   4   2 4813.42  262.27
   1  -4  -2 2344.47  131.29
   1  -4  -2 2403.76  131.79
   1  -4  -2 2374.36  133.49
  -1   4   2 2391.86  129.49
  -1   4   2 2382.76  129.99
  -1   4   2 2493.45  130.79
  -1   4   2 2466.15  129.79
   0  -4  -2  782.92   45.10
   0  -4  -2  840.82   48.00
   0  -4  -2  762.82   45.40
   0   4   2  742.43   44.50
   0   4   2  815.92   43.50
   0   4   2  790.12   43.70
  -1  -4  -2 1577.54   87.19
  -1  -4  -2 1480.95   87.09
   1   4   2 1593.64   86.39
   1   4   2 1535.75   84.89
   1   4   2 1634.04   85.39
   1   4   2 1573.44   85.09
  -2  -4  -2 1673.03   96.59
  -2  -4  -2 1640.64   95.19
   2   4   2 1750.82   94.29
   2   4   2 1798.02   92.99
   2   4   2 1659.43   92.69
  10  -5  -2   77.29    6.80
  10  -5  -2   87.59    6.00
 -10   5   2   75.79    4.70
   9  -5  -2   77.99    6.00
   9  -5  -2   74.29    7.70
   9  -5  -2   68.89    7.50
   9  -5  -2   75.19    4.50
  -9   5   2   86.79    4.90
  -9   5   2   63.89    4.60
   8  -5  -2  124.59   11.70
   8  -5  -2  132.09    9.20
   8  -5  -2  122.79   11.50
   8  -5  -2  121.99    7.40
  -8   5   2  118.89    7.60
  -8   5   2  133.89    7.80
   7  -5  -2   80.99    9.20
   7  -5  -2   79.69    6.50
   7  -5  -2   71.19    8.40
   7  -5  -2   75.09    4.80
  -7   5   2   80.39    5.10
   6  -5  -2  416.96   28.80
   6  -5  -2  357.66   25.80
   6  -5  -2  362.56   20.50
   6  -5  -2  357.26   25.30
   6  -5  -2  363.86   24.60
  -6   5   2  349.57   20.40
  -6   5   2  385.76   22.10
   5  -5  -2  296.07   21.50
   5  -5  -2  265.17   20.20
  -5   5   2  273.17   17.40
  -5   5   2  297.87   17.20
   4  -5  -2  204.08   16.10
   4  -5  -2  197.18   16.30
   4  -5  -2  180.88   15.60
  -4   5   2  195.98   12.70
  -4   5   2  203.78   12.60
  -4   5   2  219.38   12.40
   3  -5  -2   19.20    4.70
   3  -5  -2   21.00    4.40
   3  -5  -2    7.40    4.50
  -3   5   2   19.50    2.30
  -3   5   2   17.90    3.10
  -3   5   2   19.60    2.60
  -3   5   2   17.80    2.50
   2  -5  -2  105.79    9.50
   2  -5  -2  100.59   10.60
   2  -5  -2  119.39   10.00
  -2   5   2  111.59    7.70
  -2   5   2  106.89    7.30
  -2   5   2  106.09    8.40
   1  -5  -2 4942.91  274.57
   1  -5  -2 5222.68  275.27
   1  -5  -2 5041.30  277.57
  -1   5   2 5472.25  274.07
  -1   5   2 4712.03  272.57
  -1   5   2 5057.69  272.27
   0  -5  -2  290.67   21.70
   0  -5  -2  278.77   19.10
   0  -5  -2  262.97   18.40
   0   5   2  304.27   16.70
   0   5   2  266.67   18.10
   0   5   2  259.47   16.80
  -1  -5  -2 1939.11  106.79
  -1  -5  -2 2004.40  110.59
   1   5   2 1692.23  105.19
   1   5   2 1895.41  103.59
   1   5   2 1993.00  104.19
  -2  -5  -2 1428.86   78.79
  -2  -5  -2 1335.47   81.79
   2   5   2 1317.27   76.89
 -10   6   2    6.10    0.80
   9  -6  -2   46.60    4.10
   9  -6  -2   42.10    5.50
   9  -6  -2   48.10    5.80
  -9   6   2   40.10    3.10
  -9   6   2   46.20    3.30
   8  -6  -2    1.10    1.90
   8  -6  -2   -0.20    1.60
   8  -6  -2    0.40    1.10
  -8   6   2    0.40    0.70
  -8   6   2    1.10    0.80
   7  -6  -2   14.30    4.40
   7  -6  -2   16.30    4.30
   7  -6  -2   16.20    2.70
  -7   6   2   14.60    1.80
  -7   6   2   14.60    1.90
   6  -6  -2  328.17   24.30
   6  -6  -2  332.47   23.40
  -6   6   2  327.27   18.90
  -6   6   2  342.07   18.80
  -6   6   2  342.97   18.90
   5  -6  -2   23.90    6.00
   5  -6  -2   28.90    6.40
  -5   6   2   25.90    3.70
   4  -6  -2  400.06   28.70
   4  -6  -2  426.76   28.70
   4  -6  -2  411.16   28.80
  -4   6   2  424.46   24.30
  -4   6   2  378.96   24.00
   3  -6  -2  246.28   18.80
   3  -6  -2  246.58   20.10
  -3   6   2  243.58   15.80
  -3   6   2  242.78   15.40
  -3   6   2  273.47   16.90
   2  -6  -2  312.47   24.70
   2  -6  -2  305.87   22.50
   2  -6  -2  348.57   23.30
  -2   6   2  339.17   19.70
  -2   6   2  355.96   21.70
  -2   6   2  329.37   20.20
   1  -6  -2   43.30    6.80
   1  -6  -2   36.20    7.40
   1  -6  -2   35.70    7.70
  -1   6   2   36.40    5.70
  -1   6   2   38.30    4.20
  -1   6   2   36.90    4.40
   0  -6  -2   33.10    6.10
   0  -6  -2   36.40    8.10
   0   6   2   27.50    4.20
   0   6   2   34.10    5.50
  -1  -6  -2  412.96   27.00
  -1  -6  -2  393.66   30.00
   1   6   2  330.97   24.80
   1   6   2  411.76   23.80
   2   6   2  108.49   10.50
   2   6   2  127.49    7.60
   2   6   2  109.49    9.60
   2   6   2   97.29   10.40
   9  -7  -2    2.60    1.80
   9  -7  -2    2.30    1.70
  -9   7   2    2.60    0.80
  -9   7   2    2.60    0.80
   8  -7  -2   13.60    3.60
   8  -7  -2   13.30    3.90
  -8   7   2   17.60    1.90
  -8   7   2   13.10    1.80
   7  -7  -2   17.30    4.50
   7  -7  -2   15.80    4.60
  -7   7   2   17.30    2.20
  -7   7   2   16.40    2.00
  -7   7   2   16.10    1.90
   6  -7  -2   67.59    8.30
   6  -7  -2   62.89    8.50
  -6   7   2   68.69    4.80
  -6   7   2   74.99    4.80
  -6   7   2   66.79    4.70
   4  -7  -2   -1.90    2.70
   4  -7  -2   -2.70    8.50
  -4   7   2   -0.40    1.50
  -4   7   2    1.90    1.60
   3  -7  -2  104.29   12.40
  -3   7   2   95.09    9.00
  -3   7   2   97.19    8.00
  -3   7   2  131.99   10.20
   2  -7  -2    7.30    3.90
   2  -7  -2    6.60    3.50
  -2   7   2    6.30    2.90
  -2   7   2    6.00    2.10
  -2   7   2    5.70    2.10
   1  -7  -2   10.10    4.90
   1  -7  -2    7.90    3.60
  -1   7   2    5.50    2.80
  -1   7   2    4.90    2.20
   0   7   2  169.48   10.40
   0   7   2  157.08   13.90
   0   7   2  160.48    9.80
   0   7   2  158.98   12.70
   0   7   2  153.18   15.20
   0   7   2  159.28    9.60
   1   7   2  261.27   18.50
   1   7   2  270.07   15.80
   1   7   2  240.08   21.60
   1   7   2  272.97   15.20
   2   7   2   55.29    4.40
   2   7   2   54.99    7.30
   2   7   2   59.59    7.80
   2   7   2   54.99    6.60
   9  -8  -2    5.50    2.00
   9  -8  -2    5.30    1.90
  -9   8   2    4.90    0.90
  -9   8   2    5.90    1.00
   8  -8  -2   17.60    4.20
   8  -8  -2   17.10    3.70
  -8   8   2   22.70    2.20
  -8   8   2   18.40    1.90
   7  -8  -2   51.79    7.40
   7  -8  -2   50.19    6.80
  -7   8   2   55.39    3.90
  -7   8   2   52.99    3.90
  -7   8   2   54.49    4.10
   6  -8  -2    8.60    3.60
   6  -8  -2    8.60    3.70
  -6   8   2    8.00    1.50
  -6   8   2    7.10    1.40
   5  -8  -2   42.30    6.80
  -5   8   2   41.30    4.00
  -5   8   2   37.20    3.40
  -5   8   2   38.00    3.50
  -4   8   2   63.49    4.70
  -3   8   2  349.47   28.70
  -3   8   2  416.26   27.20
  -3   8   2  422.56   23.10
  -3   8   2  415.46   22.90
  -3   8   2  396.66   23.40
  -3   8   2  428.46   22.80
  -2   8   2  663.13   40.00
  -2   8   2  490.65   44.60
  -2   8   2  611.04   33.80
  -2   8   2  680.23   38.90
  -2   8   2  643.04   33.50
  -2   8   2  627.04   34.20
  -2   8   2  480.25   39.40
  -1   8   2   -0.10    1.00
  -1   8   2    0.10    1.70
  -1   8   2   -3.10    7.90
  -1   8   2    1.10    0.80
  -1   8   2    0.20    2.20
  -1   8   2    2.50    4.30
  -1   8   2    1.10    1.00
   0   8   2   84.39    5.70
   0   8   2   88.29    6.60
   0   8   2   83.29    6.00
   0   8   2  107.19   10.30
   0   8   2  103.49   10.90
   0   8   2   82.09   11.90
   0   8   2   78.09    9.50
   1   8   2  105.79   12.50
   1   8   2   97.29   10.60
   1   8   2  125.59   12.10
   1   8   2   92.89    7.30
   1   8   2  109.99    7.00
   1   8   2  122.59   11.00
   2   8   2  154.88   13.30
   2   8   2  160.58   14.40
   2   8   2  167.98    9.90
   9  -9  -2   93.79    7.10
  -9   9   2   88.99    5.50
   8  -9  -2   12.30    3.20
   8  -9  -2   15.00    3.20
  -8   9   2   13.40    1.70
  -8   9   2   15.70    1.60
   7  -9  -2  113.89   10.60
   7  -9  -2  124.39   11.50
  -7   9   2  111.39    7.30
  -7   9   2  125.09    7.60
   6  -9  -2   14.70    4.20
   6  -9  -2   12.90    2.90
   6  -9  -2   12.60    4.30
  -6   9   2   13.30    1.90
  -6   9   2   11.20    1.70
   5  -9  -2   56.19    7.50
   5  -9  -2   45.90    7.40
  -5   9   2   55.99    4.20
  -5   9   2   56.29    4.10
   4  -9  -2  227.38   15.90
  -4   9   2  193.28   12.00
  -4   9   2  228.68   14.60
  -4   9   2  174.48   12.10
  -4   9   2  177.28   12.20
  -3   9   2   53.49    4.50
  -3   9   2   39.80   10.00
  -3   9   2   53.39    4.00
  -3   9   2   52.99    7.20
  -3   9   2   54.19    4.30
  -2   9   2  300.67   20.50
  -2   9   2  246.88   15.20
  -2   9   2  179.38   30.00
  -2   9   2  243.38   21.30
  -2   9   2  260.87   15.60
  -2   9   2  255.57   14.70
  -1   9   2  160.68   19.00
  -1   9   2  149.69    9.90
  -1   9   2  179.78   16.20
  -1   9   2  154.38    9.60
  -1   9   2  111.99   23.30
  -1   9   2  173.38   14.80
  -1   9   2  168.18   10.60
   0   9   2  623.34   37.70
   0   9   2  540.45   31.80
   0   9   2  525.05   42.60
   0   9   2  619.44   39.40
   0   9   2  538.65   32.30
   0   9   2  603.64   39.00
   1   9   2   85.39    5.20
   1   9   2   78.99    8.70
   1   9   2   67.19   11.70
   1   9   2   81.99   10.10
   1   9   2   70.99    5.40
   1   9   2   96.59   17.80
   2   9   2   22.60   11.10
   2   9   2   64.09    9.00
   2   9   2   40.40    5.40
   8 -10  -2   79.49    6.50
   8 -10  -2   76.59    6.80
  -8  10   2   76.09    4.70
  -8  10   2   81.69    4.90
   7 -10  -2  139.29   11.70
   7 -10  -2  138.19   10.80
  -7  10   2  129.79    8.20
  -7  10   2  141.69    8.20
   6 -10  -2  145.39   10.00
   6 -10  -2  149.09   13.10
   6 -10  -2  152.18   11.90
  -6  10   2  135.79    8.60
  -6  10   2  121.89    8.50
   4 -10  -2  106.89    9.10
  -4  10   2  101.19    6.10
  -4  10   2   89.49    6.40
  -4  10   2   78.89    6.20
  -4  10   2   85.59    6.20
  -3  10   2  315.07   18.00
  -3  10   2  312.27   18.30
  -3  10   2  344.67   23.00
  -3  10   2  288.47   18.40
  -2  10   2   13.10   14.10
  -2  10   2    6.10    1.40
  -2  10   2    3.30    1.00
  -2  10   2  -11.60   15.00
  -2  10   2    3.70    2.80
  -2  10   2    2.90    1.30
  -2  10   2    4.30    5.70
  -1  10   2   20.40    2.30
  -1  10   2   26.10    7.80
  -1  10   2   21.80    2.10
  -1  10   2   18.80    2.60
  -1  10   2   20.60   18.20
  -1  10   2   48.80   16.40
  -1  10   2   24.20    5.20
   0  10   2   57.49    4.50
   0  10   2   54.79   17.30
   0  10   2   57.39    7.40
   0  10   2   73.09   11.30
   0  10   2   90.99   17.40
   0  10   2   62.99    4.20
   1  10   2   43.70   11.80
   1  10   2   21.60    6.60
   1  10   2   17.10    1.80
   7 -11  -2    8.20    1.90
   7 -11  -2    7.90    2.20
  -7  11   2    9.60    1.10
  -7  11   2    8.70    1.10
   6 -11  -2   69.39    6.30
   6 -11  -2   70.19    7.30
  -6  11   2   71.59    4.50
  -6  11   2   65.39    4.50
   5 -11  -2   82.29    7.30
   5 -11  -2   80.59    8.50
  -5  11   2   84.29    5.30
  -5  11   2   76.69    5.30
   4 -11  -2    2.70    2.10
  -4  11   2    2.00    1.00
  -4  11   2    4.00    1.00
  -4  11   2   -4.00    3.10
  -4  11   2    2.20    1.00
  -3  11   2  102.89    6.90
  -3  11   2  103.79    6.50
  -3  11   2  110.99    6.80
  -2  11   2    1.40    1.00
  -2  11   2    2.80    0.80
  -2  11   2    2.30    2.10
  -2  11   2    1.60    0.80
  -2  11   2    1.50    5.90
  -2  11   2  -16.00    8.60
  -1  11   2   24.00    7.80
  -1  11   2   -9.20    8.50
   0  11   2   77.39    5.00
   0  11   2   86.89    7.30
   4 -12  -2  101.69    8.00
  -4  12   2   88.59    5.70
  -4  12   2  100.99    5.90
  -2  12  -3   19.30    1.80
  -2  12  -3   18.90    2.00
  -2  12  -3   32.10    6.00
  -2  12  -3   14.50    2.80
   2 -12   3   22.70    3.10
  -3  12  -3   35.70    2.90
  -3  12  -3   37.00    2.80
   3 -12   3   34.60    4.20
  -4  12  -3    5.90    1.10
  -4  12  -3    6.50    1.20
   4 -12   3    6.70    2.20
   4 -12   3    7.30    2.20
  -5  12  -3    0.80    0.60
  -5  12  -3    0.30    0.50
   5 -12   3    0.40    1.10
   5 -12   3   -0.70    1.70
   0  11  -3   28.80    9.40
   0  11  -3   17.60    3.60
   0  11  -3   17.10    2.00
   0  11  -3   18.30   10.00
   0  11  -3   43.20   15.40
   0  11  -3   20.50    4.20
  -1  11  -3   27.70    2.50
  -1  11  -3    5.40   10.40
  -1  11  -3   25.30   11.20
  -1  11  -3   44.80   17.80
  -1  11  -3   27.50    2.80
  -1  11  -3   24.00    4.50
  -1  11  -3   26.60    5.10
  -2  11  -3   30.20   16.40
  -2  11  -3   62.89    4.70
  -2  11  -3   46.70    7.60
  -2  11  -3   67.79    4.30
  -2  11  -3   31.30   13.60
  -2  11  -3   60.99    6.90
  -3  11  -3  171.68   11.00
  -3  11  -3  183.98   11.40
   3 -11   3  193.68   14.60
  -4  11  -3   10.70    1.50
  -4  11  -3   13.40    1.80
  -4  11  -3   10.20    1.70
   4 -11   3   10.40    3.40
  -5  11  -3   29.00    2.70
  -5  11  -3   33.40    2.80
   5 -11   3   31.10    4.80
   5 -11   3   28.80    4.60
  -6  11  -3    1.00    0.70
  -6  11  -3    3.00    0.80
   6 -11   3    2.30    1.80
   6 -11   3    1.70    1.50
  -7  11  -3   20.70    1.80
   7 -11   3   19.50    3.00
   2  10  -3   36.90    5.40
   2  10  -3   42.70    4.70
   2  10  -3   47.60    8.60
   2  10  -3   42.70    5.30
   1  10  -3   19.30    4.30
   1  10  -3   13.10    3.50
   1  10  -3   16.20    4.10
   1  10  -3   13.80    2.00
   1  10  -3   12.10    7.50
   1  10  -3   16.90    7.00
   0  10  -3  280.87   19.40
   0  10  -3  291.17   20.80
   0  10  -3  218.88   15.60
   0  10  -3  239.98   19.50
   0  10  -3  311.37   24.60
   0  10  -3  242.58   15.30
   0  10  -3  325.97   25.70
  -1  10  -3    9.70   11.20
  -1  10  -3   -1.00    1.70
  -1  10  -3   -0.50    1.10
  -1  10  -3   -0.10    0.80
  -1  10  -3    1.40    2.20
  -1  10  -3    2.80    4.00
  -1  10  -3   15.40   11.20
  -2  10  -3  526.15   29.60
  -2  10  -3  575.94   35.10
  -2  10  -3  518.35   33.50
  -2  10  -3  529.55   28.90
  -2  10  -3  407.06   39.20
  -3  10  -3    3.70    1.10
  -3  10  -3    2.50    1.20
  -3  10  -3    3.60    1.50
   3 -10   3    3.30    1.70
  -4  10  -3  140.99    9.40
  -4  10  -3  162.78    9.20
  -4  10  -3  144.99    9.70
   4 -10   3  156.48   10.60
   4 -10   3  145.59   13.40
  -5  10  -3  257.37   15.20
  -5  10  -3  262.47   15.40
   5 -10   3  276.17   16.60
   5 -10   3  265.47   19.40
   5 -10   3  255.17   19.60
  -6  10  -3   75.69    5.00
  -6  10  -3   72.59    5.00
   6 -10   3   78.69    8.20
   6 -10   3   64.89    7.40
   6 -10   3   76.19    5.90
  -7  10  -3   20.20    1.90
  -7  10  -3   17.90    1.90
   7 -10   3   18.20    3.70
   7 -10   3   19.00    2.60
  -8  10  -3    9.80    1.10
  -8  10  -3   10.70    1.10
   8 -10   3    7.90    1.90
   3   9  -3    0.40    1.20
   3   9  -3    1.20    2.10
   3   9  -3   -0.60    1.20
   3   9  -3    0.80    2.10
   3   9  -3    1.10    1.50
   2   9  -3  150.58   11.40
   2   9  -3  142.09   14.40
   2   9  -3  113.59   11.30
   2   9  -3  138.39   12.30
   2   9  -3  145.89   12.90
   1   9  -3    0.40    2.60
   1   9  -3    1.70    1.10
   1   9  -3    1.30    2.40
   1   9  -3    1.90    1.90
   1   9  -3    1.50    2.20
   1   9  -3   -0.10    2.00
   1   9  -3    0.90    2.40
   0   9  -3   23.10    6.20
   0   9  -3   17.00    5.50
   0   9  -3   21.90    2.40
   0   9  -3   19.20    4.30
   0   9  -3   17.40    3.80
   0   9  -3   18.50    5.80
   0   9  -3   18.40    2.70
   0   9  -3   15.80    5.00
  -1   9  -3   24.50    6.70
  -1   9  -3   28.20    3.50
  -1   9  -3   22.30    8.90
  -1   9  -3   28.30    7.40
  -1   9  -3   20.50    5.10
  -1   9  -3   31.60    3.00
  -1   9  -3   28.50    6.00
  -1   9  -3   28.20    5.10
  -2   9  -3  155.98   20.80
  -2   9  -3  154.58   13.40
  -2   9  -3  145.49    9.40
  -2   9  -3  171.98   13.80
  -2   9  -3  136.19   19.20
  -2   9  -3  147.59   14.90
  -2   9  -3  134.09    9.90
   2  -9   3  152.88   10.60
  -3   9  -3    2.80    1.20
  -3   9  -3    2.40    1.40
  -3   9  -3   -7.00    5.70
  -3   9  -3    0.90    0.80
   3  -9   3    2.20    1.60
  -4   9  -3   27.40    3.20
  -4   9  -3   26.30    2.60
  -4   9  -3   24.10    2.70
   4  -9   3   25.90    3.90
   4  -9   3   23.20    5.90
  -5   9  -3   45.70    3.70
  -5   9  -3   52.49    3.80
   5  -9   3   43.40    6.80
   5  -9   3   43.00    6.60
   5  -9   3   47.70    4.90
  -6   9  -3  158.58    9.10
  -6   9  -3  145.19    9.10
  -6   9  -3  142.19    9.20
   6  -9   3  155.88   13.40
   6  -9   3  148.89   10.60
  -7   9  -3   89.69    5.80
  -7   9  -3   91.39    5.80
   7  -9   3   89.99    8.90
   7  -9   3   94.79    7.10
  -8   9  -3    2.40    0.80
  -8   9  -3    2.30    0.70
   8  -9   3    1.80    1.40
   8  -9   3    1.50    1.00
   4   8  -3   30.50    4.70
   4   8  -3   26.70    3.90
   4   8  -3   36.50    7.10
   4   8  -3   32.00    3.80
   3   8  -3    5.50    2.90
   3   8  -3    6.80    2.70
   3   8  -3    6.40    3.10
   3   8  -3    3.80    2.30
   3   8  -3    5.60    2.00
   3   8  -3    3.90    4.20
   2   8  -3   46.00    4.00
   2   8  -3   55.09    8.00
   2   8  -3   46.20    7.90
   2   8  -3   38.40   10.90
   2   8  -3   43.50    8.30
   2   8  -3   48.80    7.00
   2   8  -3   49.20    5.20
   1   8  -3   74.29    5.70
   1   8  -3   86.49   11.30
   1   8  -3   77.59   10.70
   1   8  -3   63.49   13.90
   1   8  -3   75.49    9.70
   1   8  -3   78.89    8.50
   0   8  -3   -2.30    1.30
   0   8  -3   -0.10    1.00
   0   8  -3    0.80    3.10
   0   8  -3    0.00    2.50
   0   8  -3    0.40    2.40
   0   8  -3   -0.20    1.60
   0   8  -3    1.10    2.30
   0   8  -3    1.50    1.00
  -1   8  -3   80.79    7.80
  -1   8  -3  105.59   11.40
  -1   8  -3   97.79    6.10
  -1   8  -3   93.59    8.60
  -1   8  -3   97.29   11.70
  -1   8  -3   84.09   11.40
  -1   8  -3   87.49    6.60
  -1   8  -3   88.99   10.70
  -2   8  -3  157.78    9.60
  -2   8  -3  144.89   11.70
  -2   8  -3  164.48    9.20
  -2   8  -3  136.09   14.40
  -2   8  -3  153.28    8.80
  -2   8  -3  112.29   16.10
  -3   8  -3    0.50    0.80
  -3   8  -3    0.40    0.90
  -3   8  -3  -12.70    6.40
  -3   8  -3    0.30    1.10
   3  -8   3    1.10    1.40
  -5   8  -3    2.80    1.10
  -5   8  -3    3.00    1.10
  -5   8  -3    4.20    1.10
   5  -8   3    3.40    1.70
   5  -8   3    2.80    2.40
   5  -8   3    2.70    2.50
  -6   8  -3  118.79    7.20
  -6   8  -3  120.49    7.30
  -6   8  -3  109.39    7.50
   6  -8   3  110.69    8.70
   6  -8   3  106.79   11.00
  -7   8  -3   32.00    2.70
  -7   8  -3   29.90    2.70
   7  -8   3   25.50    3.60
   7  -8   3   22.90    5.00
  -8   8  -3    5.30    1.10
  -8   8  -3    6.00    1.10
   8  -8   3    6.90    1.70
   8  -8   3    7.30    2.50
  -9   8  -3  137.89    7.90
   9  -8   3  149.88    8.60
   9  -8   3  127.29    9.40
   5   7  -3    4.10    3.30
   5   7  -3    5.20    1.60
   5   7  -3    5.00    1.70
   5   7  -3    4.10    2.30
   4   7  -3    4.20    2.10
   4   7  -3    4.20    2.60
   4   7  -3    3.50    2.20
   4   7  -3    5.00    4.80
   4   7  -3    4.90    2.80
   3   7  -3  314.77   21.70
   3   7  -3  279.67   22.20
   3   7  -3  283.47   20.20
   3   7  -3  233.48   21.70
   3   7  -3  337.77   19.60
   3   7  -3  213.28   26.30
   2   7  -3   37.20    6.60
   2   7  -3   48.40   13.50
   2   7  -3   49.90    5.50
   2   7  -3   42.10    9.10
   2   7  -3   41.70    6.00
   2   7  -3   42.50    8.20
   2   7  -3   53.79    8.00
   1   7  -3   24.10    9.20
   1   7  -3   18.80    4.80
   1   7  -3   17.70    4.40
   1   7  -3   26.00    2.90
   1   7  -3   25.90    7.60
   1   7  -3   19.80    3.60
   1   7  -3   28.00    7.00
   0   7  -3    2.50    4.90
   0   7  -3    1.00    2.10
   0   7  -3    7.20    2.40
   0  -7   3    4.00    3.30
   0  -7   3    5.70    3.60
  -1   7  -3  387.86   27.10
  -1   7  -3  431.96   25.30
  -1   7  -3  429.76   35.00
   1  -7   3  427.36   28.80
   1  -7   3  459.45   30.20
  -2   7  -3    1.10    3.80
  -2   7  -3    1.60    1.30
  -2   7  -3   -0.10    2.00
   2  -7   3    3.20    2.60
   2  -7   3   -0.50    2.40
  -3   7  -3   93.09    9.30
  -3   7  -3   82.29    7.70
   3  -7   3   89.69   11.90
   3  -7   3   90.99   11.90
  -4   7  -3    8.90    2.40
  -4   7  -3    9.80    2.20
  -4   7  -3    8.00    2.30
   4  -7   3    5.50    4.30
  -5   7  -3  167.88   10.30
  -5   7  -3  176.28   10.50
  -5   7  -3  187.88   10.40
   5  -7   3  173.28   14.70
   5  -7   3  167.68   12.00
  -6   7  -3    5.70    1.20
  -6   7  -3    7.30    1.30
   6  -7   3    5.20    2.00
   6  -7   3    5.70    2.90
  -7   7  -3   12.20    1.70
  -7   7  -3   14.70    1.70
   7  -7   3   14.20    2.80
   7  -7   3   12.20    3.80
  -8   7  -3  155.18    9.40
  -8   7  -3  180.18    9.60
  -8   7  -3  150.18    9.40
   8  -7   3  162.48   10.90
   8  -7   3  164.08   12.70
  -9   7  -3    3.90    0.70
  -9   7  -3    2.80    0.70
   9  -7   3    4.90    1.30
   9  -7   3    2.50    1.40
   6   6  -3  319.77   18.60
   6   6  -3  298.67   20.00
   5   6  -3  118.79   17.10
   5   6  -3  147.79   12.00
   5   6  -3  181.38   12.60
   5   6  -3  177.58    9.60
   5   6  -3  191.18   15.70
   4   6  -3   88.39    9.10
   4   6  -3   69.99    9.80
   4   6  -3   96.09   11.40
   4   6  -3   91.49    5.70
   4   6  -3   50.49   15.00
   4   6  -3  115.09    9.50
   3   6  -3  264.87   21.70
   3   6  -3  241.18   13.50
   3   6  -3  235.78   19.50
   3   6  -3  179.88   17.40
   3   6  -3  250.57   17.20
   3   6  -3  237.58   20.40
   2   6  -3  182.38   15.70
   2   6  -3  162.68   15.10
   2   6  -3  172.98   17.00
   2   6  -3  140.59   13.40
   2   6  -3  154.78   12.60
   2   6  -3  107.49   18.10
   2   6  -3  178.58   12.70
   1   6  -3  356.76   26.00
  -1  -6   3  449.76   28.90
  -1  -6   3  430.66   24.80
  -1  -6   3  427.16   28.00
   0   6  -3   40.70    5.70
   0   6  -3   23.10    9.10
   0   6  -3   46.70    4.40
   0  -6   3   42.30    6.40
   0  -6   3   39.30    4.30
   0  -6   3   40.20    6.80
  -1   6  -3 1230.68   70.69
  -1   6  -3 1216.98   68.49
  -1   6  -3 1382.96   79.89
   1  -6   3 1222.68   71.49
   1  -6   3 1142.49   68.59
   1  -6   3 1334.17   73.19
  -2   6  -3  540.55   36.50
  -2   6  -3  508.75   31.30
  -2   6  -3  463.85   29.40
   2  -6   3  507.25   29.90
   2  -6   3  566.84   34.30
   2  -6   3  530.55   32.50
  -3   6  -3    1.30    1.70
  -3   6  -3    1.30    1.10
  -3   6  -3    0.10    1.00
   3  -6   3    2.90    3.80
   3  -6   3    2.80    1.70
   3  -6   3    6.20    3.50
  -4   6  -3  624.94   33.50
  -4   6  -3  547.45   33.30
   4  -6   3  554.24   38.40
   4  -6   3  599.54   34.10
  -5   6  -3  135.39    8.60
  -5   6  -3  117.79    9.50
  -5   6  -3  135.39    9.60
   5  -6   3  161.88   11.00
   5  -6   3  128.49   12.10
   5  -6   3  140.89   14.30
  -6   6  -3  166.28    9.50
   6  -6   3  154.38    9.40
   6  -6   3  158.18   11.40
   6  -6   3  158.28   13.90
   6  -6   3  161.88    9.50
  -7   6  -3    0.60    0.70
  -7   6  -3    0.20    0.70
   7  -6   3    0.60    0.60
   7  -6   3    1.00    0.70
   7  -6   3    0.20    1.30
   7  -6   3   -0.40    1.50
  -8   6  -3  258.97   15.20
  -8   6  -3  268.47   15.40
   8  -6   3  241.18   18.70
   8  -6   3  329.97   17.50
   8  -6   3  286.27   15.20
   8  -6   3  254.77   15.30
  -9   6  -3    0.50    0.50
  -9   6  -3    0.60    0.50
   9  -6   3    0.50    0.40
   9  -6   3    0.30    1.20
   9  -6   3    0.60    0.90
   6   5  -3  190.48   13.80
   6   5  -3  191.78   16.10
   6   5  -3  189.38   10.90
   5   5  -3   19.20    6.30
   5   5  -3   27.30    2.40
   5   5  -3   26.90    5.40
   5   5  -3   18.30    9.30
   5   5  -3   26.10    5.40
   4   5  -3  334.97   36.20
   4   5  -3  393.86   31.70
   4   5  -3  458.85   31.30
   4   5  -3  412.56   28.50
   4   5  -3  433.26   23.20
   4   5  -3  438.26   27.70
   3   5  -3  164.98   12.70
   3   5  -3   97.99   20.70
   3   5  -3  181.28   25.80
   3   5  -3  132.69   19.40
   3   5  -3  127.49   14.90
   3   5  -3  151.48   13.50
  -3  -5   3  195.98   11.20
   2   5  -3  275.77   23.20
   2   5  -3  332.37   21.20
  -2  -5   3  338.27   23.20
  -2  -5   3  348.37   19.90
   1   5  -3  132.79   11.20
   1   5  -3  161.88    9.90
   1   5  -3  160.98   13.60
   1   5  -3  139.49   21.90
  -1  -5   3  156.78   10.20
  -1  -5   3  159.98   13.00
   0   5  -3  576.84   31.30
   0   5  -3  614.74   43.30
   0   5  -3  564.34   33.00
   0  -5   3  532.25   31.50
   0  -5   3  559.54   34.50
   0  -5   3  528.65   33.60
  -1   5  -3   68.89    6.00
  -1   5  -3   63.99   11.40
  -1   5  -3   61.99    4.80
   1  -5   3   64.79    6.60
   1  -5   3   71.79    7.50
   1  -5   3   63.19    5.10
  -2   5  -3 1220.38   65.39
  -2   5  -3 1236.68   63.89
  -2   5  -3 1203.28   64.29
   2  -5   3 1104.99   64.59
   2  -5   3 1158.28   66.39
   2  -5   3 1125.99   67.89
  -3   5  -3  315.97   17.60
  -3   5  -3  276.87   17.60
  -3   5  -3  323.47   18.40
   3  -5   3  296.07   18.30
   3  -5   3  280.87   21.40
  -4   5  -3  803.42   43.70
  -4   5  -3  744.53   43.70
   4  -5   3  837.52   44.80
   4  -5   3  735.43   48.70
  -5   5  -3  616.24   35.20
  -5   5  -3  589.44   35.50
   5  -5   3  569.34   40.50
   5  -5   3  697.43   36.80
  -6   5  -3   47.90    3.20
   6  -5   3   44.90    6.50
   6  -5   3   42.90    3.20
   6  -5   3   40.60    4.60
   6  -5   3   39.00    3.10
   6  -5   3   46.00    3.30
  -7   5  -3  142.09    8.10
   7  -5   3  147.19   10.30
   7  -5   3  132.89   12.00
   7  -5   3  136.89    8.20
   7  -5   3  136.79    8.30
   7  -5   3  123.79    8.10
  -8   5  -3   22.80    2.20
   8  -5   3   20.50    2.10
   8  -5   3   21.40    4.40
   8  -5   3   25.00    1.90
   8  -5   3   21.70    2.10
   8  -5   3   27.10    3.70
  -9   5  -3  135.29    8.40
   9  -5   3  141.39    9.60
   9  -5   3  156.28    8.30
   9  -5   3  159.18    8.40
   7   4  -3    9.00    5.20
   7   4  -3   16.80    4.50
   7   4  -3   19.50    1.50
   7   4  -3   19.70    1.70
   7   4  -3   15.00    3.50
   6   4  -3   71.29   10.80
   6   4  -3   86.59   17.40
   6   4  -3   84.69    5.30
   6   4  -3   82.89    5.20
   6   4  -3   70.49    9.10
   5   4  -3  137.99    9.00
   5   4  -3  148.99   13.20
   5   4  -3  132.49   15.90
   5   4  -3  167.28   13.10
   5   4  -3  152.18    8.80
   4   4  -3  201.78   18.50
   4   4  -3  156.08   13.30
   4   4  -3  197.58   10.20
   4   4  -3  120.99   19.00
   4   4  -3  152.88   14.40
   3   4  -3  373.16   31.40
   3   4  -3  439.66   39.80
  -3  -4   3  462.15   27.80
  -3  -4   3  530.85   28.20
  -3  -4   3  549.45   31.80
   2   4  -3  354.86   20.40
   2   4  -3  276.47   22.30
  -2  -4   3  330.57   19.20
  -2  -4   3  348.37   22.00
  -2  -4   3  309.27   18.40
   1   4  -3   61.09   12.80
   1   4  -3  114.29    6.60
   1   4  -3  112.19    9.70
   1   4  -3   89.79    7.40
  -1  -4   3  111.69    9.20
  -1  -4   3   96.29    6.80
   0   4  -3 2495.15  131.29
   0   4  -3 2504.05  133.99
   0   4  -3 2315.57  132.49
   0   4  -3 2640.14  141.69
   0  -4   3 2436.56  134.19
   0  -4   3 2292.77  131.59
  -1   4  -3  416.36   26.80
  -1   4  -3  327.37   18.40
  -1   4  -3  346.17   19.40
   1  -4   3  285.47   18.60
   1  -4   3  303.27   19.90
   1  -4   3  318.17   20.90
  -2   4  -3   35.60    3.30
  -2   4  -3   39.00    3.00
  -2   4  -3   41.10    6.10
  -2   4  -3   41.10    4.10
   2  -4   3   39.00    4.70
   2  -4   3   34.40    3.70
   2  -4   3   41.60    5.90
  -3   4  -3 2921.31  167.38
  -3   4  -3 3144.79  167.48
  -3   4  -3 3295.97  167.88
  -3   4  -3 3144.79  167.08
   3  -4   3 3008.90  171.38
   3  -4   3 3203.68  167.48
   3  -4   3 3061.99  168.28
  -4   4  -3    2.10    1.00
  -4   4  -3    1.90    1.00
  -4   4  -3    2.10    1.10
   4  -4   3    0.50    1.40
   4  -4   3    2.40    1.40
   4  -4   3    1.90    2.60
  -5   4  -3  839.42   47.40
  -5   4  -3  777.42   47.60
  -5   4  -3  850.31   47.40
   5  -4   3  889.51   53.29
   5  -4   3  916.21   49.00
   5  -4   3  852.01   47.90
  -6   4  -3  141.59    7.60
   6  -4   3  127.39    9.50
   6  -4   3  126.19    7.70
   6  -4   3  119.19   11.20
   6  -4   3  113.29    7.60
   6  -4   3  132.79    7.80
   6  -4   3  131.59    7.80
   6  -4   3  127.19    7.40
   7  -4   3  258.87   14.50
   7  -4   3  249.28   14.40
   7  -4   3  257.87   14.50
   7  -4   3  256.77   16.50
   7  -4   3  242.98   14.30
   7  -4   3  258.77   14.50
   7  -4   3  252.27   18.70
   7  -4   3  249.28   14.20
   8  -4   3   64.69    4.10
   8  -4   3   65.99    5.60
   8  -4   3   60.69    3.80
   8  -4   3   53.79    3.70
   8  -4   3   54.39    3.80
   8  -4   3   55.39    3.80
   8  -4   3   51.49    6.50
  -9   4  -3   12.50    1.30
   9  -4   3   12.40    1.20
   9  -4   3   12.60    1.40
   9  -4   3   11.30    2.10
   9  -4   3   13.00    1.30
   9  -4   3   12.80    1.20
   9  -4   3   13.10    1.20
   8   3  -3    2.10    1.60
   8   3  -3    1.60    1.60
   8   3  -3    2.30    0.50
   7   3  -3  118.79   13.50
   7   3  -3  109.69   15.90
   7   3  -3  135.49    7.70
   7   3  -3  138.39    7.50
   7   3  -3  121.99    7.70
   7   3  -3  116.29   10.40
   6   3  -3   32.90    8.80
   6   3  -3   49.90    3.30
   6   3  -3   43.60    7.00
   6   3  -3   34.50   11.80
   6   3  -3   50.49    3.70
   6   3  -3   51.89    3.50
   5   3  -3   22.10    2.20
   5   3  -3   19.70    2.00
   5   3  -3   17.00    5.10
   5   3  -3   17.30    1.80
   5   3  -3   17.60    6.50
   5   3  -3   17.90    8.50
   5   3  -3   18.30    4.40
   4   3  -3   19.30    8.70
   4   3  -3   21.40    5.30
   4   3  -3   20.50    5.70
  -4  -3   3   25.60    3.60
  -4  -3   3   21.00    2.70
   3   3  -3  328.07   23.90
   3   3  -3  373.66   24.30
   3   3  -3  287.57   28.10
  -3  -3   3  337.37   19.80
  -3  -3   3  378.56   20.70
   2   3  -3   79.59    8.00
   2   3  -3   71.99   11.20
   2   3  -3   88.29    8.30
   2   3  -3   90.99    6.40
  -2  -3   3   80.99    5.80
  -2  -3   3   73.39    5.30
   1   3  -3  196.98   13.00
   1   3  -3  196.18   15.80
   1   3  -3  165.18   10.90
  -1  -3   3  174.28   10.10
  -1  -3   3  169.58   10.60
  -1  -3   3  163.88   12.10
   0   3  -3  431.26   23.80
   0   3  -3  454.65   28.80
   0   3  -3  431.56   25.70
   0   3  -3  470.55   24.70
   0  -3   3  412.06   23.70
   0  -3   3  428.76   25.80
   0  -3   3  410.56   24.20
  -1   3  -3 1429.96   72.39
  -1   3  -3 1376.26   71.69
  -1   3  -3 1369.06   71.49
   1  -3   3 1304.17   73.79
   1  -3   3 1281.97   72.69
   1  -3   3 1282.97   71.69
   1  -3   3 1257.97   72.09
  -2   3  -3   95.19    5.80
  -2   3  -3   94.89    6.20
  -2   3  -3   81.79    5.60
  -2   3  -3   88.39    5.50
   2  -3   3   86.49    6.00
   2  -3   3   85.99    6.30
   2  -3   3   90.69    8.00
   2  -3   3   90.09    6.80
  -3   3  -3  310.47   19.00
  -3   3  -3  335.67   19.00
  -3   3  -3  339.77   18.90
   3  -3   3  322.67   22.30
   3  -3   3  351.16   19.90
   3  -3   3  329.37   19.40
  -4   3  -3 4653.53  252.87
  -4   3  -3 4518.75  252.67
  -4   3  -3 4697.23  252.87
   4  -3   3 4954.20  254.07
   4  -3   3 4796.52  253.47
   4  -3   3 4643.24  257.37
  -5   3  -3   10.10    1.90
  -5   3  -3    7.10    1.80
  -5   3  -3    6.40    1.70
   5  -3   3   11.20    2.80
   5  -3   3   10.80    2.40
   5  -3   3    7.90    3.40
   6  -3   3  113.89    7.20
   6  -3   3  121.29   10.60
   6  -3   3  110.49    7.10
   6  -3   3  117.49    9.00
   6  -3   3  121.99    7.10
   6  -3   3  112.29    7.20
   6  -3   3  120.29    6.90
   6  -3   3  110.89    7.00
   6  -3   3  133.19    7.20
   7  -3   3  270.57   15.30
   7  -3   3  295.27   17.70
   7  -3   3  270.77   15.20
   7  -3   3  278.47   15.40
   7  -3   3  270.77   15.40
   7  -3   3  256.17   19.20
   7  -3   3  256.47   15.50
   7  -3   3  269.37   15.40
   8  -3   3   30.40    2.30
   8  -3   3   33.50    2.50
   8  -3   3   28.20    2.40
   8  -3   3   31.40    2.50
   8  -3   3   29.20    2.30
   8  -3   3   34.50    2.60
   8  -3   3   26.60    3.80
  -9   3  -3   33.70    2.40
   9  -3   3   37.80    2.40
   9  -3   3   30.70    3.50
   9  -3   3   38.80    2.60
   9  -3   3   38.10    2.40
   9  -3   3   36.30    2.50
   9  -3   3   38.00    2.50
   8   2  -3   13.00    3.10
   8   2  -3    7.60    1.20
   8   2  -3    8.50    1.20
   8   2  -3    9.50    4.20
   8   2  -3    9.10    1.10
   7   2  -3  202.18   10.90
   7   2  -3  135.99   19.20
   7   2  -3  194.08   11.10
   7   2  -3  163.68   18.00
   7   2  -3  232.68   15.10
   7   2  -3  190.58   10.90
   6   2  -3  113.79    6.90
   6   2  -3  100.79   13.00
   6   2  -3  117.69    9.80
   6   2  -3  119.79    6.80
   6   2  -3   81.89   16.40
   6   2  -3  111.49    6.90
   5   2  -3  102.29   13.00
   5   2  -3   93.59   10.90
  -5  -2   3   96.09    7.40
  -5  -2   3  114.19    8.40
   4   2  -3  541.55   40.50
   4   2  -3  632.84   41.00
  -4  -2   3  664.33   36.20
  -4  -2   3  711.73   37.40
  -4  -2   3  693.43   36.80
   3   2  -3    0.40    1.70
   3   2  -3   -0.90    1.80
   3   2  -3    2.70    2.20
  -3  -2   3    0.30    0.50
  -3  -2   3    0.70    0.70
  -3  -2   3    0.80    0.90
   2   2  -3   27.10    4.20
   2   2  -3   27.10    4.50
   2   2  -3   30.10    3.10
   2   2  -3   33.10    5.60
  -2  -2   3   35.40    2.30
  -2  -2   3   33.60    3.00
  -2  -2   3   33.80    2.60
   1   2  -3  149.88   10.70
   1   2  -3  156.98   11.70
   1   2  -3  161.18    9.40
   1   2  -3  158.98   10.90
  -1  -2   3  146.99    8.90
  -1  -2   3  150.08    9.20
   0   2  -3  831.32   44.10
   0   2  -3  808.82   42.80
   0   2  -3  783.52   45.00
   0   2  -3  787.52   43.40
   0  -2   3  768.02   44.20
   0  -2   3  776.42   42.90
   0  -2   3  790.22   43.20
  -1   2  -3   79.09    5.00
  -1   2  -3   92.09    6.40
  -1   2  -3   81.89    4.80
  -1   2  -3   82.29    5.30
   1  -2   3   72.89    6.20
   1  -2   3   72.49    5.20
   1  -2   3   76.99    4.80
   1  -2   3   74.29    5.10
  -2   2  -3 4191.28  216.08
  -2   2  -3 4099.59  215.98
  -2   2  -3 3894.71  215.98
   2  -2   3 3817.92  216.48
   2  -2   3 4023.20  215.98
   2  -2   3 3917.81  216.38
   2  -2   3 4275.57  218.38
  -3   2  -3  368.56   21.70
  -3   2  -3  387.46   21.60
  -3   2  -3  391.26   21.90
   3  -2   3  376.86   22.20
   3  -2   3  377.86   22.50
   3  -2   3  394.16   24.80
  -4   2  -3 1100.39   60.49
  -4   2  -3 1047.10   60.79
  -4   2  -3 1070.99   60.89
   4  -2   3 1113.09   65.09
   4  -2   3 1152.18   61.59
   4  -2   3 1177.78   61.99
  -5   2  -3  467.85   28.60
  -5   2  -3  489.35   28.70
   5  -2   3  503.05   33.30
   5  -2   3  528.05   29.40
   5  -2   3  502.15   30.00
   6  -2   3   42.90    3.00
   6  -2   3   38.00    3.10
   6  -2   3   43.00    3.30
   6  -2   3   48.90    4.90
   6  -2   3   42.10    3.10
   6  -2   3   42.50    3.10
   6  -2   3   44.70    3.10
   7  -2   3  191.38   11.10
   7  -2   3  198.78   11.10
   7  -2   3  184.88   10.80
   7  -2   3  180.98   10.90
   7  -2   3  185.88   11.00
   7  -2   3  187.08   11.00
   7  -2   3  191.58   13.00
   8  -2   3    6.10    1.10
   8  -2   3    9.40    1.20
   8  -2   3    6.10    2.10
   8  -2   3    7.60    1.20
   8  -2   3    5.60    1.10
   8  -2   3    8.10    1.10
   8  -2   3    7.60    1.10
   9  -2   3    1.10    1.20
   9  -2   3    2.30    0.60
   9  -2   3    1.10    0.50
   9  -2   3    1.60    0.50
   9  -2   3    2.00    0.60
   9  -2   3    1.80    0.50
   9   1  -3    0.20    0.40
   9   1  -3    1.50    1.30
   9   1  -3    0.50    0.40
   9   1  -3    1.70    1.60
   9   1  -3    0.90    0.40
   8   1  -3  638.74   31.20
   8   1  -3  544.35   31.20
   8   1  -3  604.14   30.90
   8   1  -3  489.85   38.00
   8   1  -3  566.64   31.00
   8   1  -3  545.05   34.30
   7   1  -3   27.90    2.30
   7   1  -3   30.90    2.40
   7   1  -3   31.40    5.20
   7   1  -3   30.30    7.50
   7   1  -3   19.10    7.70
   7   1  -3   29.10    2.60
   7   1  -3   24.80    2.50
   6   1  -3  111.99    6.70
   6   1  -3  113.49   13.60
   6   1  -3  121.59   12.40
   6   1  -3  102.19    9.10
   6   1  -3  116.39    7.00
   6   1  -3  113.49    6.90
   6   1  -3  117.59    7.10
   5   1  -3  116.39   11.60
   5   1  -3  113.09   11.50
  -5  -1   3  116.19    8.20
  -5  -1   3  110.99    7.70
   4   1  -3  152.88   12.40
   4   1  -3  122.39   11.60
   4   1  -3  146.99   10.00
   4   1  -3  151.68   13.20
  -4  -1   3  145.49    9.10
  -4  -1   3  153.58    9.50
   3   1  -3  121.39    9.70
   3   1  -3  114.99   10.10
   3   1  -3  132.99   10.10
  -3  -1   3  125.49    7.80
  -3  -1   3  118.39    7.40
   2   1  -3    4.70    1.90
   2   1  -3    8.20    2.40
   2   1  -3    6.80    1.20
   2   1  -3    7.10    2.00
  -2  -1   3    5.80    1.00
  -2  -1   3    6.10    0.90
  -2  -1   3    4.50    1.20
   1   1  -3  268.17   15.90
   1   1  -3  231.18   14.70
   1   1  -3  249.88   14.00
   1   1  -3  244.28   14.70
  -1  -1   3  230.88   13.90
  -1  -1   3  254.67   13.80
   0   1  -3   17.00    1.60
   0   1  -3   20.40    2.10
   0   1  -3   16.80    2.60
   0   1  -3   19.60    2.10
   0  -1   3   20.50    1.80
   0  -1   3   18.30    1.80
   0  -1   3   19.00    2.30
  -1   1  -3  427.96   24.00
  -1   1  -3  427.56   23.50
  -1   1  -3  419.66   23.70
  -1   1  -3  431.86   23.80
  -1   1  -3  452.15   23.70
   1  -1   3  504.65   25.00
   1  -1   3  408.66   23.70
   1  -1   3  427.66   24.00
   1  -1   3  378.86   23.80
  -2   1  -3   21.30    2.30
  -2   1  -3   22.80    2.10
  -2   1  -3   20.60    2.10
  -2   1  -3   20.10    2.20
  -2   1  -3   27.80    2.70
   2  -1   3   18.90    2.30
   2  -1   3   20.30    2.60
   2  -1   3   26.50    3.90
   2  -1   3   19.80    2.60
  -3   1  -3 7075.39  385.46
  -3   1  -3 7029.90  385.86
  -3   1  -3 7438.56  385.76
  -3   1  -3 7481.15  385.36
   3  -1   3 7292.17  388.56
   3  -1   3 7369.66  385.86
   3  -1   3 6804.02  386.26
   3  -1   3 7155.18  386.16
  -4   1  -3  222.18   13.70
  -4   1  -3  217.58   13.80
  -4   1  -3  217.68   13.30
   4  -1   3  229.18   16.90
   4  -1   3  219.88   14.60
   4  -1   3  241.48   14.50
  -5   1  -3  213.88   13.20
  -5   1  -3  183.18   13.10
   5  -1   3  232.68   14.10
   5  -1   3  204.28   14.30
   5  -1   3  217.38   17.30
   6  -1   3  331.57   18.90
   6  -1   3  354.76   21.10
   6  -1   3  330.07   19.10
   6  -1   3  322.27   19.00
   6  -1   3  336.87   19.00
   6  -1   3  348.57   19.00
   6  -1   3  348.67   18.80
   7  -1   3   23.90    2.20
   7  -1   3   25.20    2.40
   7  -1   3   24.60    2.40
   7  -1   3   29.80    2.50
   7  -1   3   21.90    2.30
   7  -1   3   20.40    3.70
   7  -1   3   30.60    2.40
   8  -1   3  124.49   10.00
   8  -1   3  135.59    8.40
   8  -1   3  140.89    8.30
   8  -1   3  145.99    8.50
   8  -1   3  166.48    8.50
   8  -1   3  150.28    8.50
   9  -1   3    0.50    0.40
   9  -1   3    0.80    0.40
   9  -1   3    0.60    0.50
   9  -1   3    1.00    0.40
   9  -1   3    0.70    0.40
   9   0  -3    0.00    0.40
   9   0  -3    0.60    0.50
   9   0  -3    0.10    0.50
   9   0  -3   -0.60    1.70
   9   0  -3    0.40    1.40
   9   0  -3    0.00    0.40
   8   0  -3  168.28   10.00
   8   0  -3  176.68   10.20
   8   0  -3  174.78   10.20
   8   0  -3  164.38   10.10
   8   0  -3  200.98   13.20
   8   0  -3  174.38   16.20
   7   0  -3   14.10    1.70
   7   0  -3   11.50    1.40
   7   0  -3   17.40    5.90
   7   0  -3   14.40    4.70
   7   0  -3   15.00    1.70
   7   0  -3   13.10    1.60
   7   0  -3   16.60    3.50
   6   0  -3   89.39    9.30
   6   0  -3   90.09    5.50
   6   0  -3   83.89    7.10
   6   0  -3   84.39    5.50
   6   0  -3   96.49   10.70
   6   0  -3   82.39    5.40
   5   0  -3 1325.27   68.89
   5   0  -3 1190.48   71.49
   5   0  -3 1283.67   73.29
  -5   0   3 1248.18   67.99
  -5   0   3 1159.18   68.29
   4   0  -3    1.80    1.70
   4   0  -3   -0.80    0.80
   4   0  -3    0.70    1.70
   4   0  -3    0.90    1.30
  -4   0   3    1.20    0.80
  -4   0   3    0.30    0.70
  -4   0   3    0.60    0.80
   3   0  -3  628.54   36.40
   3   0  -3  625.94   36.30
   3   0  -3  596.54   34.10
   3   0  -3  605.74   35.80
  -3   0   3  597.04   33.90
  -3   0   3  632.04   33.80
   2   0  -3 5921.11  314.47
   2   0  -3 5442.86  313.47
   2   0  -3 5773.82  312.27
   2   0  -3 5985.30  313.57
  -2   0   3 5708.13  311.97
  -2   0   3 6193.98  312.17
   1   0  -3 2681.43  140.39
   1   0  -3 2654.63  141.59
   1   0  -3 2360.36  139.79
   1   0  -3 2609.94  140.19
  -1   0   3 2448.75  139.29
  -1   0   3 2644.24  139.49
  -1   0   3 2723.93  139.59
  -1   0   3 2726.13  139.59
   0   0  -3   20.60    2.90
   0   0  -3   20.30    2.20
   0   0  -3   18.50    1.70
   0   0   3   18.70    1.60
   0   0   3   17.90    1.60
   0   0   3   18.20    1.90
   0   0   3   18.60    1.70
  -1   0  -3  236.98   12.90
  -1   0  -3  230.28   13.20
   1   0   3  225.78   13.00
   1   0   3  226.68   12.80
   1   0   3  221.28   13.10
   1   0   3  214.68   13.00
  -2   0  -3   40.90    3.30
  -2   0  -3   43.40    3.40
  -2   0  -3   42.80    3.00
  -2   0  -3   45.50    3.40
  -2   0  -3   34.80    3.00
   2   0   3   42.30    3.80
   2   0   3   40.80    4.30
   2   0   3   38.00    3.50
   2   0   3   34.10    3.70
  -3   0  -3  877.91   48.70
  -3   0  -3  909.91   49.40
  -3   0  -3  897.01   49.00
  -3   0  -3  878.21   49.10
   3   0   3  901.31   49.80
   3   0   3  904.21   51.49
   3   0   3  926.71   49.40
   3   0   3  855.31   49.80
  -4   0  -3  376.46   21.60
  -4   0  -3  404.26   22.30
  -4   0  -3  386.56   22.00
  -4   0  -3  387.86   22.20
  -4   0  -3  394.36   21.50
   4   0   3  356.76   22.60
   4   0   3  364.76   22.80
   4   0   3  357.46   25.00
  -5   0  -3   12.40    2.40
  -5   0  -3   12.50    2.20
   5   0   3   11.30    2.50
   5   0   3   13.60    3.10
   5   0   3    8.90    4.90
   6   0   3  178.88   10.00
   6   0   3  169.78   10.10
   6   0   3  179.18   10.00
   6   0   3  164.48   12.10
   6   0   3  171.58   10.10
   6   0   3  168.78   10.20
   6   0   3  171.48   10.10
   7   0   3   77.99    4.50
   7   0   3   68.19    4.60
   7   0   3   61.99    6.30
   7   0   3   67.79    4.60
   7   0   3   76.29    4.70
   7   0   3   66.89    4.60
   8   0   3   37.80    4.30
   8   0   3   42.10    2.70
   8   0   3   38.50    2.80
   8   0   3   46.30    2.90
   8   0   3   43.00    2.90
   8   0   3   40.20    2.90
   9  -1  -3  162.58    9.00
   9  -1  -3  152.28    8.90
   9  -1  -3  148.99    8.90
   9  -1  -3  151.18    8.80
   9  -1  -3  156.48   13.80
   9  -1  -3  164.08   11.00
   8  -1  -3    1.80    2.40
   8  -1  -3    1.80    0.80
   8  -1  -3    0.80    0.60
   8  -1  -3    2.50    3.00
   8  -1  -3    2.30    0.80
   8  -1  -3    2.80    0.80
   8  -1  -3    3.20    1.90
   7  -1  -3  130.79   13.00
   7  -1  -3  117.89    7.40
   7  -1  -3  117.29    7.20
   7  -1  -3  115.19    9.20
   7  -1  -3  134.69   12.10
   7  -1  -3  118.99    7.40
   7  -1  -3  125.29    7.40
   6  -1  -3   13.60    4.60
   6  -1  -3   15.70    4.30
   6  -1  -3   11.90    2.70
  -6   1   3   14.30    2.70
  -6   1   3   10.50    2.30
   5  -1  -3   13.00    2.40
   5  -1  -3   15.10    4.20
   5  -1  -3   13.90    3.70
  -5   1   3   14.20    2.30
  -5   1   3   14.90    2.20
   4  -1  -3  397.96   25.50
   4  -1  -3  392.76   25.30
   4  -1  -3  415.26   23.50
   4  -1  -3  440.26   26.40
  -4   1   3  413.76   23.30
  -4   1   3  392.76   23.10
   3  -1  -3  277.07   17.70
   3  -1  -3  257.97   17.00
   3  -1  -3  239.38   17.00
   3  -1  -3  253.07   15.20
  -3   1   3  288.57   15.10
  -3   1   3  279.97   14.90
  -3   1   3  249.38   15.10
   2  -1  -3   64.39    5.70
   2  -1  -3   68.19    4.50
   2  -1  -3   70.39    5.90
   2  -1  -3   78.59    4.80
   2  -1  -3   66.99    6.60
  -2   1   3   78.89    4.70
  -2   1   3   72.99    4.50
  -2   1   3   76.79    4.60
   1  -1  -3   21.40    3.50
   1  -1  -3   23.60    2.40
   1  -1  -3   25.40    2.60
  -1   1   3   22.00    1.80
  -1   1   3   19.60    1.80
  -1   1   3   22.20    1.80
  -1   1   3   24.00    1.90
   0  -1  -3   20.10    3.20
   0  -1  -3   22.30    2.40
   0   1   3   19.90    1.90
   0   1   3   18.20    1.90
   0   1   3   20.70    2.00
   0   1   3   19.70    1.90
  -1  -1  -3   87.59    5.90
  -1  -1  -3   83.59    6.80
   1   1   3   86.49    5.60
   1   1   3   90.49    5.80
   1   1   3   88.29    5.60
   1   1   3   82.39    5.50
   1   1   3   87.39    5.80
  -2  -1  -3 1199.08   62.59
  -2  -1  -3 1149.78   62.09
   2   1   3 1054.89   62.39
   2   1   3 1149.39   62.39
   2   1   3 1149.29   62.49
   2   1   3 1143.39   62.19
  -3  -1  -3  311.77   18.10
  -3  -1  -3  328.37   18.50
  -3  -1  -3  320.77   17.70
  -3  -1  -3  316.97   17.90
   3   1   3  292.57   18.60
   3   1   3  302.77   18.60
   3   1   3  300.07   18.30
  -4  -1  -3  951.60   51.19
  -4  -1  -3  969.30   51.79
  -4  -1  -3  968.70   52.09
  -4  -1  -3  960.00   52.09
   4   1   3  914.91   52.49
   4   1   3 1019.60   53.09
   4   1   3  776.52   54.39
  -5  -1  -3  152.18   10.60
   5   1   3  135.09    8.20
   5   1   3  126.29    8.30
   5   1   3  159.98   11.90
   5   1   3  133.29    8.20
   5   1   3  144.09    8.10
   5   1   3  140.89    8.30
   6   1   3  286.27   16.00
   6   1   3  290.47   15.80
   6   1   3  267.87   18.20
   6   1   3  285.87   16.00
   6   1   3  275.07   15.90
   6   1   3  280.57   15.90
   7   1   3   45.70    6.00
   7   1   3   52.99    3.60
   7   1   3   49.70    3.60
   7   1   3   52.19    3.70
   7   1   3   54.59    3.50
   7   1   3   57.29    3.60
   8   1   3    4.10    0.70
   8   1   3    3.40    0.70
   8   1   3    4.40    0.60
   8   1   3    4.20    0.70
   9  -2  -3  187.18   16.40
   9  -2  -3  200.98   10.70
   9  -2  -3  179.78   10.70
   9  -2  -3  197.08   10.70
   9  -2  -3  179.98   15.10
   9  -2  -3  185.88   10.70
   9  -2  -3  206.98   13.00
  -9   2   3  176.48   10.70
   8  -2  -3    0.30    1.70
   8  -2  -3   -0.30    2.10
   8  -2  -3    1.30    0.70
   8  -2  -3    1.70    0.80
   8  -2  -3    1.50    0.70
   8  -2  -3    0.70    1.40
   8  -2  -3    0.80    0.70
   8  -2  -3    0.60    0.70
   7  -2  -3   55.79    7.90
   7  -2  -3   56.39    3.80
   7  -2  -3   54.19    3.90
   7  -2  -3   55.89    3.80
   7  -2  -3   59.99    4.10
   7  -2  -3   57.09    7.50
   7  -2  -3   60.69    3.90
   7  -2  -3   59.39    5.50
   6  -2  -3  792.62   42.40
   6  -2  -3  826.92   47.40
   6  -2  -3  698.63   45.20
  -6   2   3  680.83   41.80
  -6   2   3  716.03   42.10
   5  -2  -3  225.58   17.30
   5  -2  -3  227.18   14.00
   5  -2  -3  216.98   16.30
  -5   2   3  206.88   13.70
  -5   2   3  227.18   13.50
  -5   2   3  233.48   13.90
   4  -2  -3 1143.69   68.39
   4  -2  -3 1189.18   68.09
   4  -2  -3 1174.28   68.29
   4  -2  -3 1205.48   65.69
  -4   2   3 1271.07   65.69
  -4   2   3 1200.68   65.39
  -4   2   3 1231.88   65.69
   3  -2  -3 3062.19  179.08
   3  -2  -3 3303.47  179.98
   3  -2  -3 3240.18  178.98
   3  -2  -3 3444.86  176.88
  -3   2   3 3433.46  176.88
  -3   2   3 3388.96  176.78
  -3   2   3 3190.88  176.78
   2  -2  -3 5126.09  271.47
   2  -2  -3 4793.92  269.87
   2  -2  -3 4961.40  268.77
   2  -2  -3 5126.49  270.37
  -2   2   3 5165.08  268.57
  -2   2   3 4957.20  268.37
  -2   2   3 5207.68  268.57
  -2   2   3 4829.62  268.37
   1  -2  -3  133.69   10.00
   1  -2  -3  100.19    8.90
  -1   2   3  125.19    7.70
  -1   2   3  131.69    8.20
  -1   2   3  133.39    7.60
  -1   2   3  147.39    7.90
  -1   2   3  138.09    7.80
   0  -2  -3  501.45   30.00
   0  -2  -3  507.25   28.50
   0   2   3  494.05   27.80
   0   2   3  494.55   28.30
   0   2   3  492.55   27.70
   0   2   3  506.95   27.80
   0   2   3  522.15   27.90
  -1  -2  -3  793.32   43.50
  -1  -2  -3  767.42   45.10
   1   2   3  787.52   42.90
   1   2   3  777.92   42.70
   1   2   3  768.32   42.90
   1   2   3  781.22   42.80
  -2  -2  -3  130.69   10.20
  -2  -2  -3  125.59    8.30
   2   2   3  116.89    7.90
   2   2   3  105.79    8.70
   2   2   3  126.49    7.90
   2   2   3  110.59    7.90
  -3  -2  -3  109.09    7.30
  -3  -2  -3   94.09    6.90
  -3  -2  -3   98.99    6.50
  -3  -2  -3  108.39    7.10
   3   2   3  103.59    7.50
   3   2   3  106.99    7.30
   3   2   3   85.89    8.80
  -4  -2  -3   95.19    7.20
  -4  -2  -3   94.19    6.40
  -4  -2  -3   98.89    7.20
  -4  -2  -3  102.29    7.00
   4   2   3   92.79    7.80
   4   2   3   89.79    7.40
   5   2   3   20.90    2.10
   5   2   3   18.30    1.70
   5   2   3   18.80    2.00
   5   2   3   17.70    1.90
   5   2   3   17.60    1.90
   6   2   3  107.39    6.60
   6   2   3  106.69    6.40
   6   2   3  107.39    6.60
   6   2   3  109.29    6.60
   6   2   3  103.39    6.50
   7   2   3   25.50    2.00
   7   2   3   23.80    2.20
   7   2   3   27.60    2.10
 -10   3   3   34.30    2.20
   9  -3  -3   30.50    6.10
   9  -3  -3   31.30    4.00
   9  -3  -3   28.60    2.20
   9  -3  -3   30.10    2.20
   9  -3  -3   34.60    2.30
   9  -3  -3   26.10    2.20
   9  -3  -3   33.20    5.10
  -9   3   3   31.60    2.40
   8  -3  -3  289.67   16.50
   8  -3  -3  295.07   21.30
   8  -3  -3  299.77   22.10
   8  -3  -3  302.97   18.60
   8  -3  -3  284.27   16.40
   8  -3  -3  324.77   16.50
   8  -3  -3  270.67   16.50
   7  -3  -3   30.50    5.80
   7  -3  -3   27.50    2.40
   7  -3  -3   31.00    6.20
   7  -3  -3   28.80    2.40
   7  -3  -3   29.90    3.90
   7  -3  -3   32.00    2.80
   7  -3  -3   31.80    3.50
   6  -3  -3    1.30    2.60
   6  -3  -3    1.00    2.50
  -6   3   3   -3.30    1.10
  -6   3   3    0.60    1.10
  -6   3   3   -0.50    1.00
   5  -3  -3  600.14   33.90
   5  -3  -3  596.24   36.90
   5  -3  -3  645.44   38.00
  -5   3   3  548.05   33.70
  -5   3   3  567.64   33.70
  -5   3   3  637.44   33.90
   4  -3  -3  247.18   14.40
   4  -3  -3  237.78   17.30
   4  -3  -3  247.38   17.00
   4  -3  -3  244.18   17.40
  -4   3   3  248.58   14.20
  -4   3   3  242.18   14.40
  -4   3   3  227.38   14.30
   3  -3  -3   36.90    3.10
   3  -3  -3   32.10    4.70
   3  -3  -3   27.50    4.50
   3  -3  -3   36.40    5.70
  -3   3   3   36.10    2.70
  -3   3   3   36.60    3.30
  -3   3   3   36.80    3.20
   2  -3  -3 2144.39  120.69
   2  -3  -3 2076.39  122.19
  -2   3   3 2163.48  119.59
  -2   3   3 2377.66  119.39
  -2   3   3 2308.27  119.19
  -2   3   3 2219.28  119.19
   1  -3  -3   81.79    6.90
   1  -3  -3   94.39    8.50
  -1   3   3   86.89    5.70
  -1   3   3   86.79    6.30
  -1   3   3   88.69    5.80
  -1   3   3   82.99    5.70
   0  -3  -3 1002.90   58.59
   0  -3  -3 1044.60   60.69
   0   3   3 1074.89   57.39
   0   3   3 1051.99   57.39
   0   3   3 1017.20   57.49
   0   3   3 1129.09   58.29
  -1  -3  -3  103.69    8.10
  -1  -3  -3   96.39    9.40
  -1  -3  -3  105.09    7.80
   1   3   3  102.79    7.00
   1   3   3   97.79    6.90
   1   3   3  104.39    7.00
   1   3   3  104.69    6.80
   1   3   3  105.49    7.70
  -2  -3  -3  652.53   39.70
  -2  -3  -3  645.34   37.30
  -2  -3  -3  608.34   36.50
   2   3   3  596.04   35.70
   2   3   3  657.63   35.80
   2   3   3  641.64   35.80
   2   3   3  653.93   35.80
  -3  -3  -3  225.58   13.50
  -3  -3  -3  231.38   14.30
  -3  -3  -3  234.78   14.00
   3   3   3  216.38   14.20
   5   3   3  690.73   36.50
   5   3   3  635.14   36.20
   5   3   3  671.83   36.40
   6   3   3    0.90    0.60
   6   3   3    0.60    0.70
   7   3   3    7.20    0.90
  10  -4  -3   73.59    6.90
  10  -4  -3   77.89    5.50
 -10   4   3   71.59    4.40
 -10   4   3   71.29    4.30
   9  -4  -3   46.10    3.20
   9  -4  -3   51.69    3.30
   9  -4  -3   56.29    4.80
   9  -4  -3   48.40    6.20
   9  -4  -3   49.50    6.50
  -9   4   3   49.20    3.50
   8  -4  -3   42.30    3.20
   8  -4  -3   50.39    6.70
   8  -4  -3   50.09    7.00
   8  -4  -3   48.50    4.70
   8  -4  -3   41.90    3.40
  -8   4   3   45.80    3.60
  -8   4   3   51.59    3.50
   7  -4  -3  142.19    9.00
   7  -4  -3  148.79   12.80
   7  -4  -3  162.28   13.90
   7  -4  -3  146.39    8.60
   7  -4  -3  146.19   10.30
  -7   4   3  145.59    8.80
   6  -4  -3  261.37   20.10
   6  -4  -3  302.77   21.70
  -6   4   3  263.57   17.10
  -6   4   3  275.17   17.10
   5  -4  -3  311.97   22.50
   5  -4  -3  360.26   23.90
  -5   4   3  323.87   19.60
  -5   4   3  326.37   19.70
   4  -4  -3    6.10    2.80
   4  -4  -3    4.50    2.70
   4  -4  -3    3.70    3.00
  -4   4   3    2.70    1.10
  -4   4   3    5.40    1.40
  -4   4   3    5.50    1.40
   3  -4  -3 1517.05   89.19
   3  -4  -3 1562.24   88.19
   3  -4  -3 1697.03   88.89
  -3   4   3 1477.05   85.49
  -3   4   3 1561.64   85.69
  -3   4   3 1620.64   85.29
  -3   4   3 1583.04   85.39
   2  -4  -3  291.97   18.60
   2  -4  -3  284.87   20.30
   2  -4  -3  217.78   19.00
  -2   4   3  298.77   16.90
  -2   4   3  311.47   17.60
  -2   4   3  284.87   16.80
  -2   4   3  313.87   16.70
   1  -4  -3 1656.33   95.79
   1  -4  -3 1730.43   92.99
   1  -4  -3 1617.44   93.59
  -1   4   3 1745.73   91.79
  -1   4   3 1650.83   92.59
  -1   4   3 1733.43   91.49
  -1   4   3 1686.13   91.69
   0  -4  -3 1333.37   72.09
   0  -4  -3 1227.38   69.09
   0  -4  -3 1227.98   68.29
   0   4   3 1310.87   67.19
   0   4   3 1121.09   67.19
   0   4   3 1221.88   66.89
   0   4   3 1147.09   68.19
  -1  -4  -3 1053.29   60.49
  -1  -4  -3  948.41   57.19
   1   4   3 1017.20   56.59
   1   4   3 1001.30   55.49
   1   4   3 1023.50   55.29
   1   4   3  969.60   55.09
  -2  -4  -3 1268.97   71.89
  -2  -4  -3 1247.28   75.99
   2   4   3 1275.57   70.69
   2   4   3 1356.06   70.99
  10  -5  -3    7.70    2.30
 -10   5   3    7.20    0.90
 -10   5   3    7.10    0.80
   9  -5  -3  115.99   10.10
   9  -5  -3  115.69   10.30
   9  -5  -3  120.09    8.20
  -9   5   3  116.69    7.00
  -9   5   3  102.49    7.20
   8  -5  -3   31.50    3.90
   8  -5  -3   31.80    5.70
   8  -5  -3   31.30    2.40
   8  -5  -3   34.90    6.50
  -8   5   3   33.90    3.00
  -8   5   3   35.30    3.10
   7  -5  -3   43.70    6.70
   7  -5  -3   40.00    4.30
   7  -5  -3   40.60    6.10
   7  -5  -3   41.20    2.90
  -7   5   3   45.20    3.30
  -7   5   3   46.70    3.40
   6  -5  -3  386.16   27.50
   6  -5  -3  456.55   33.10
   6  -5  -3  405.76   26.10
  -6   5   3  421.56   25.40
  -6   5   3  386.46   22.20
  -6   5   3  378.16   22.10
   5  -5  -3  149.29   13.10
   5  -5  -3  131.19   12.30
  -5   5   3  122.19    9.50
  -5   5   3  153.88    9.70
   4  -5  -3   10.50    3.50
   4  -5  -3    4.20    3.50
   4  -5  -3    9.20    4.30
  -4   5   3   13.70    2.30
  -4   5   3   12.90    2.20
  -4   5   3   13.10    2.40
   3  -5  -3 1520.65   88.09
   3  -5  -3 1533.55   89.79
  -3   5   3 1625.24   84.69
  -3   5   3 1523.45   85.09
  -3   5   3 1607.44   85.89
  -3   5   3 1538.35   85.19
   2  -5  -3   38.90    6.50
   2  -5  -3   44.10    6.00
   2  -5  -3   38.50    7.10
  -2   5   3   49.90    4.60
  -2   5   3   42.00    4.00
  -2   5   3   48.00    5.40
  -2   5   3   45.40    4.50
   1  -5  -3 2013.40  106.89
   1  -5  -3 1975.20  109.69
  -1   5   3 1804.82  105.09
  -1   5   3 1745.33  103.99
  -1   5   3 2003.70  103.89
   0  -5  -3  864.81   54.19
   0  -5  -3  876.11   51.09
   0   5   3  821.62   49.80
   0   5   3  894.11   48.50
   0   5   3  878.71   48.70
  -1  -5  -3 1585.04   89.89
  -1  -5  -3 1599.54   93.69
   1   5   3 1598.24   86.99
   1   5   3 1553.04   88.89
   1   5   3 1601.84   87.39
  -2  -5  -3 1382.46   81.29
  -2  -5  -3 1470.85   88.09
   2   5   3 1499.35   80.39
 -10   6   3   89.29    5.20
   9  -6  -3   14.50    3.60
   9  -6  -3   16.10    3.60
  -9   6   3   16.50    1.50
  -9   6   3   15.20    1.70
  -9   6   3   15.90    1.70
   8  -6  -3   35.80    5.80
   8  -6  -3   35.70    5.50
  -8   6   3   41.00    3.10
   7  -6  -3   71.99    8.20
   7  -6  -3   66.09    8.60
  -7   6   3   71.79    4.80
  -7   6   3   66.69    4.80
   6  -6  -3   74.69    9.00
  -6   6   3   77.99    5.10
  -6   6   3   71.59    5.00
   5  -6  -3  197.08   16.50
   5  -6  -3  227.18   17.30
  -5   6   3  165.38   12.80
   4  -6  -3   40.10    7.10
   4  -6  -3   28.90    7.50
   4  -6  -3   40.40    8.00
  -4   6   3   32.30    4.00
  -4   6   3   31.30    4.10
   3  -6  -3    8.70    4.00
   3  -6  -3    4.80    5.80
  -3   6   3    8.50    2.00
  -3   6   3    5.50    2.50
  -3   6   3    8.40    2.00
   2  -6  -3  976.40   54.79
   2  -6  -3  859.11   55.69
  -2   6   3  960.60   51.69
  -2   6   3  807.12   49.90
  -2   6   3  854.61   49.70
   1  -6  -3  168.98   14.00
   1  -6  -3  166.78   16.50
  -1   6   3  156.38   11.50
  -1   6   3  172.18   11.20
   0  -6  -3   98.59   10.10
   0  -6  -3  107.69   12.70
   0   6   3   99.59    8.80
   0   6   3  100.59    7.80
   0   6   3   90.79   10.20
  -1  -6  -3  990.30   65.39
   1   6   3  930.61   52.09
   1   6   3  947.61   50.49
   1   6   3  871.21   54.59
   1   6   3  902.41   50.19
   1   6   3  892.71   54.29
   2   6   3  224.38   17.60
   2   6   3  216.58   17.70
   2   6   3  257.67   14.00
   9  -7  -3    0.50    1.40
   9  -7  -3    1.10    1.30
  -9   7   3    0.60    0.60
  -9   7   3    0.30    0.60
   8  -7  -3    8.70    3.00
   8  -7  -3    9.10    3.40
  -8   7   3    8.60    1.50
  -8   7   3   12.10    1.60
   7  -7  -3   32.10    5.90
   7  -7  -3   31.80    6.50
  -7   7   3   30.20    2.90
  -7   7   3   29.40    2.90
   6  -7  -3   71.79    9.00
   6  -7  -3   81.19    8.40
   6  -7  -3   64.19    6.40
  -6   7   3   69.49    5.10
  -6   7   3   61.29    4.70
  -6   7   3   72.99    4.90
   5  -7  -3   83.99    5.90
   4  -7  -3  174.28   17.50
  -4   7   3  175.08   10.90
  -4   7   3  146.09    9.70
  -4   7   3  171.38   12.00
  -4   7   3  148.79   14.10
   3  -7  -3    8.40    7.90
   3  -7  -3   -0.20    3.30
  -3   7   3    0.20    1.50
  -3   7   3    3.00    1.50
  -3   7   3    0.40    2.40
   2  -7  -3   16.10    5.40
   2  -7  -3   12.30    5.20
  -2   7   3   14.00    4.00
  -2   7   3   15.80    3.30
  -2   7   3   10.60    2.90
   1  -7  -3  491.65   30.20
  -1   7   3  382.26   23.30
  -1   7   3  409.26   27.80
  -1   7   3  396.16   24.00
  -1   7   3  481.75   29.40
  -1   7   3  385.76   23.60
  -1   7   3  429.56   28.40
   0   7   3   45.70    7.40
   0   7   3   42.20    7.10
   0   7   3   38.70    8.10
   0   7   3   41.70    4.40
   0   7   3   42.20    3.40
   0   7   3   45.90    6.70
   0   7   3   58.89    3.90
   1   7   3  100.79    7.40
   1   7   3  121.99   10.60
   1   7   3  112.69    7.10
   1   7   3  100.19   11.00
   1   7   3  109.99   11.00
   2   7   3   -1.50    1.90
   2   7   3    1.80    2.10
   2   7   3    1.20    2.40
   2   7   3    0.30    0.90
   9  -8  -3   52.89    5.40
   9  -8  -3   53.49    5.30
  -9   8   3   49.90    3.50
  -9   8   3   51.89    3.40
   8  -8  -3    0.60    1.50
   8  -8  -3    0.60    1.50
  -8   8   3    1.10    0.80
  -8   8   3    0.60    0.70
   7  -8  -3   15.30    4.60
   7  -8  -3   15.40    4.10
  -7   8   3   13.50    2.00
  -7   8   3   14.50    1.90
  -7   8   3   14.90    1.80
   6  -8  -3    2.00    2.60
   6  -8  -3    1.80    2.40
   6  -8  -3    2.40    1.60
  -6   8   3    1.90    0.90
  -6   8   3    2.40    1.00
  -6   8   3   -0.60    0.80
   4  -8  -3   97.19    7.10
  -4   8   3  122.79    6.70
  -3   8   3  666.03   33.70
  -3   8   3  535.65   40.40
  -3   8   3  612.14   37.70
  -3   8   3  550.94   32.90
  -3   8   3  620.64   32.90
  -3   8   3  569.94   33.10
  -2   8   3   20.60   16.30
  -2   8   3   11.00    1.60
  -2   8   3   12.90    2.00
  -2   8   3    6.10   11.00
  -2   8   3    8.70    4.80
  -2   8   3   11.10    2.10
  -2   8   3   12.60    4.10
  -2   8   3   10.50    1.70
  -1   8   3   25.20    2.60
  -1   8   3   24.00    3.10
  -1   8   3   24.00    6.30
  -1   8   3   20.30    5.10
  -1   8   3   32.50    9.60
  -1   8   3   25.50   14.80
  -1   8   3   29.50    3.00
   0   8   3  366.76   27.90
   0   8   3  406.06   23.10
   0   8   3  365.06   23.50
   0   8   3  376.36   31.90
   0   8   3  439.76   29.60
   0   8   3  455.55   30.10
   0   8   3  448.66   22.90
   1   8   3    9.70    1.60
   1   8   3   13.20    6.70
   1   8   3   11.90    4.60
   1   8   3    5.70    1.50
   1   8   3   10.90    3.80
   2   8   3   33.60    5.70
   2   8   3   34.00    9.80
   2   8   3   33.50    2.90
   2   8   3   31.40    6.80
   9  -9  -3   42.80    4.10
   9  -9  -3   39.10    4.90
  -9   9   3   36.60    2.70
   8  -9  -3   57.89    6.40
   8  -9  -3   58.69    6.00
  -8   9   3   56.89    4.10
   7  -9  -3  194.68   14.60
   7  -9  -3  192.78   15.70
  -7   9   3  183.78   11.20
  -7   9   3  196.38   11.50
   6  -9  -3   18.80    3.40
   6  -9  -3   19.10    5.10
   6  -9  -3   19.80    4.50
  -6   9   3   19.20    2.30
  -6   9   3   18.40    2.20
  -4   9   3   34.40    3.70
  -4   9   3   49.40    4.00
  -4   9   3   46.40    3.60
  -3   9   3   -1.90    4.40
  -3   9   3   -0.20    0.90
  -3   9   3    0.90    2.40
  -3   9   3   -1.10    0.70
  -3   9   3    0.30    0.70
  -3   9   3   -7.20    3.30
  -3   9   3    0.50    1.10
  -2   9   3  650.23   46.30
  -2   9   3  683.13   38.60
  -2   9   3  716.23   37.90
  -2   9   3  733.03   43.80
  -2   9   3  644.64   38.30
  -1   9   3   28.50   18.80
  -1   9   3   27.10   13.70
  -1   9   3    6.20    1.30
  -1   9   3   10.00    2.10
  -1   9   3   10.70    5.70
  -1   9   3    7.20    1.50
  -1   9   3    5.30    3.30
   0   9   3  639.14   37.00
   0   9   3  518.55   39.70
   0   9   3  460.95   43.30
   0   9   3  629.34   39.60
   0   9   3  541.05   31.20
   0   9   3  508.95   31.00
   0   9   3  555.44   30.70
   1   9   3  217.98   18.50
   1   9   3  121.29   19.10
   1   9   3  165.98   10.90
   1   9   3  190.18   15.00
   1   9   3  194.58   10.60
   2   9   3   16.90    6.30
   2   9   3   12.80    3.10
   8 -10  -3   72.09    6.50
   8 -10  -3   73.69    6.10
  -8  10   3   73.89    4.60
   7 -10  -3    8.90    3.00
   7 -10  -3    8.50    2.40
  -7  10   3    6.80    1.20
  -7  10   3    7.10    1.30
   6 -10  -3  174.18   11.70
   6 -10  -3  177.58   14.60
   6 -10  -3  169.38   13.00
  -6  10   3  166.88   10.40
  -6  10   3  181.08   10.40
   5 -10  -3   27.00    5.90
  -5  10   3   26.20    2.60
  -5  10   3   23.10    2.70
  -5  10   3   27.10    2.80
   4 -10  -3  141.39   12.70
  -4  10   3  139.19    8.20
  -4  10   3  124.59    8.30
  -4  10   3  102.29    9.10
  -4  10   3  139.19    8.10
  -4  10   3  139.69    8.40
  -3  10   3    3.60    6.40
  -3  10   3    8.20    1.40
  -3  10   3   -1.20    6.10
  -3  10   3    7.40    1.70
  -3  10   3    1.40    6.60
  -3  10   3   10.40    1.70
  -3  10   3    7.10    3.30
  -2  10   3  -10.50   11.60
  -2  10   3    3.70    1.20
  -2  10   3    3.50    1.20
  -2  10   3    0.50    6.20
  -2  10   3   -6.50   11.10
  -2  10   3    2.30    0.90
  -2  10   3    3.70    2.70
  -1  10   3   40.00   10.30
  -1  10   3   40.00    6.90
  -1  10   3   36.20    3.70
  -1  10   3   43.90    3.00
  -1  10   3    8.20   14.00
  -1  10   3   42.10    3.30
  -1  10   3   37.20   15.80
   0  10   3    7.90    1.50
   0  10   3   12.70    7.50
   0  10   3   36.80   14.00
   0  10   3    9.30    1.30
   0  10   3    7.20    3.00
   1  10   3   49.00    3.50
   1  10   3   61.79    6.00
   7 -11  -3   14.80    3.00
  -7  11   3   13.90    1.40
  -7  11   3   16.10    1.50
   6 -11  -3    1.20    1.50
   6 -11  -3    2.10    1.10
  -6  11   3    2.00    0.70
  -6  11   3    0.70    0.60
   5 -11  -3  121.19   10.30
  -5  11   3  107.69    6.90
  -5  11   3  115.29    6.80
  -5  11   3  104.19    6.80
   4 -11  -3   11.30    3.30
  -4  11   3   10.50    1.40
  -4  11   3    8.30    1.40
  -4  11   3    9.50    1.50
  -4  11   3    3.50    3.80
   3 -11  -3  111.59    9.70
  -3  11   3  113.69    6.80
  -3  11   3  112.69    6.80
  -3  11   3   95.49    9.30
  -3  11   3   92.69    6.40
  -2  11   3    9.80    1.30
  -2  11   3    8.00    2.90
  -2  11   3    1.00    4.80
  -2  11   3  -11.40    4.60
  -2  11   3    9.50    1.50
  -1  11   3   90.79   11.60
  -2  12  -4    3.20    1.00
  -2  12  -4   -4.10    3.80
  -2  12  -4    3.00    0.80
   2 -12   4    3.90    1.60
  -3  12  -4   21.80    2.20
  -3  12  -4   23.60    2.10
   3 -12   4   23.90    3.50
  -4  12  -4    7.40    1.30
  -4  12  -4    6.70    1.10
   4 -12   4    7.00    2.10
   4 -12   4    7.30    2.00
  -5  12  -4    8.30    1.10
   5 -12   4    5.80    1.80
   0  11  -4   54.99    6.10
   0  11  -4   38.40   11.60
   0  11  -4   61.09   15.70
   0  11  -4   58.69    6.60
   0  11  -4   44.80    9.20
   0  11  -4   51.89    3.90
  -1  11  -4   41.20   11.70
  -1  11  -4   57.49   14.40
  -1  11  -4   91.69    6.00
  -1  11  -4   91.29    8.80
  -1  11  -4   67.99   17.90
  -1  11  -4   91.49    5.50
  -1  11  -4   91.69    8.60
  -2  11  -4   36.70    3.40
  -2  11  -4   25.20    5.40
  -2  11  -4   31.20    5.10
  -2  11  -4   -4.60   10.90
  -2  11  -4   21.80   13.70
  -2  11  -4   38.10    3.10
  -3  11  -4   89.09    5.40
  -3  11  -4   59.59    7.40
  -3  11  -4   81.59    5.70
   3 -11   4   90.59    8.90
  -4  11  -4    2.40    0.90
  -4  11  -4    2.60    1.10
  -4  11  -4    2.30    1.10
   4 -11   4    1.20    2.00
   4 -11   4    2.60    1.30
  -5  11  -4   27.40    2.40
  -5  11  -4   26.50    2.60
   5 -11   4   31.00    3.00
   5 -11   4   27.30    4.10
   5 -11   4   26.50    4.70
  -6  11  -4   43.70    3.20
  -6  11  -4   42.10    3.10
   6 -11   4   48.10    5.30
   6 -11   4   43.70    3.60
  -7  11  -4   16.70    1.50
   7 -11   4   14.20    2.50
   2  10  -4   62.99    6.50
   2  10  -4   51.99    5.60
   2  10  -4   75.79    9.50
   2  10  -4   63.99    6.40
   1  10  -4   80.59    8.30
   1  10  -4   68.59    5.10
   1  10  -4   77.89    7.60
   1  10  -4   63.79    7.70
   1  10  -4   84.39   10.80
   0  10  -4   37.10    6.30
   0  10  -4   25.20   10.00
   0  10  -4   43.30    4.00
   0  10  -4   43.30    9.50
   0  10  -4   47.50    7.60
   0  10  -4   47.10    6.50
  -1  10  -4    0.00    2.10
  -1  10  -4   -1.50    1.00
  -1  10  -4    4.70    9.80
  -1  10  -4   10.10   10.10
  -1  10  -4    1.00    0.90
  -1  10  -4    0.90    3.10
  -1  10  -4    1.10    2.30
   1 -10   4    0.20    1.20
  -2  10  -4  627.14   40.10
  -2  10  -4  612.24   34.80
  -2  10  -4  582.74   45.80
  -2  10  -4  572.04   34.00
   2 -10   4  659.23   35.50
  -3  10  -4   13.90    1.80
  -3  10  -4   13.70    2.40
  -3  10  -4   15.10    2.20
   3 -10   4   13.80    2.80
  -4  10  -4  101.99    6.50
  -4  10  -4   91.19    6.10
  -4  10  -4  104.99    6.80
   4 -10   4   88.59    7.40
   4 -10   4   90.99   10.00
  -5  10  -4  245.48   14.80
  -5  10  -4  245.28   14.60
   5 -10   4  251.97   18.40
   5 -10   4  265.37   19.00
   5 -10   4  260.37   16.10
  -6  10  -4   11.10    1.50
  -6  10  -4   11.10    1.60
   6 -10   4   11.80    2.30
   6 -10   4    9.80    3.10
  -7  10  -4   88.09    5.20
  -7  10  -4   81.59    5.30
   7 -10   4   84.39    6.00
   7 -10   4   77.89    7.40
   3   9  -4   13.30    2.90
   3   9  -4    9.20    2.30
   3   9  -4    9.50    3.10
   3   9  -4    9.20    2.10
   3   9  -4   12.50    2.90
   3   9  -4   13.00    4.10
   2   9  -4   90.69    9.70
   2   9  -4  105.99   10.60
   2   9  -4   95.49   10.20
   2   9  -4  102.59   12.20
   2   9  -4  101.59    9.10
   1   9  -4    4.80    3.20
   1   9  -4    4.00    1.40
   1   9  -4    3.60    3.10
   1   9  -4    7.30    3.60
   1   9  -4    6.00    2.70
   1   9  -4    4.80    2.20
   1   9  -4    5.00    4.00
   0   9  -4   98.29    9.40
   0   9  -4  128.39   14.20
   0   9  -4  122.19    7.60
   0   9  -4  122.59   14.10
   0   9  -4  119.79    8.30
   0   9  -4  127.19   10.80
   0   9  -4  117.59   13.10
   0   9  -4  127.89   13.20
  -1   9  -4   21.00    2.40
  -1   9  -4   12.30    4.20
  -1   9  -4   11.20    2.40
  -1   9  -4   13.80    7.90
  -1   9  -4   13.00    5.40
  -1   9  -4   16.10    5.70
  -1   9  -4   16.60    4.80
  -1   9  -4   16.00    3.90
  -2   9  -4    8.10    4.30
  -2   9  -4   -1.60    8.80
  -2   9  -4    8.30    1.50
  -2   9  -4    6.30    3.40
  -2   9  -4   10.50    2.10
  -2   9  -4    5.40    3.30
  -2   9  -4    8.50   10.00
   2  -9   4    9.50    2.50
  -3   9  -4   89.69    5.30
  -3   9  -4   75.59    5.60
  -3   9  -4   57.19   12.90
  -3   9  -4   76.89    5.90
   3  -9   4   77.79    6.80
  -4   9  -4   44.30    3.80
  -4   9  -4   40.00    3.90
  -4   9  -4   39.00    3.40
   4  -9   4   36.70    4.70
   4  -9   4   33.80    6.80
  -5   9  -4   54.39    4.50
  -5   9  -4   69.69    4.60
   5  -9   4   63.29    8.00
   5  -9   4   63.89    5.90
  -6   9  -4   60.59    4.20
  -6   9  -4   61.69    4.30
  -6   9  -4   61.89    4.30
   6  -9   4   55.09    5.40
   6  -9   4   56.59    7.30
  -7   9  -4   99.99    6.00
  -7   9  -4   94.59    6.00
   7  -9   4   96.69    7.20
   7  -9   4   90.69    8.80
  -8   9  -4   32.80    2.40
  -8   9  -4   31.90    2.40
   8  -9   4   30.60    3.90
   8  -9   4   36.20    3.20
   4   8  -4    0.60    1.20
   4   8  -4    0.60    1.40
   4   8  -4   -0.30    1.20
   4   8  -4   -0.10    1.80
   4   8  -4    1.70    2.60
   3   8  -4  105.39   11.20
   3   8  -4  125.09   10.20
   3   8  -4   95.39   14.00
   3   8  -4  104.99   10.10
   2   8  -4  201.68   20.70
   2   8  -4  205.08   24.00
   2   8  -4  292.67   21.30
   2   8  -4  260.07   21.20
   2   8  -4  293.97   19.50
   2   8  -4  281.67   15.40
   1   8  -4    1.00    1.50
   1   8  -4    2.90    4.30
   1   8  -4    1.30    2.70
   1   8  -4    4.90    1.50
   1   8  -4    1.40    2.80
   1   8  -4    0.10    2.60
   1   8  -4    0.90    1.90
   0   8  -4   44.40    6.50
   0   8  -4   57.89   10.30
   0   8  -4   46.40    4.50
   0   8  -4   46.90    7.40
   0   8  -4   49.60    3.80
   0   8  -4   59.19   10.50
   0   8  -4   41.20    9.40
  -1   8  -4  339.97   21.70
  -1   8  -4  308.47   19.20
  -1   8  -4  346.17   26.10
  -1   8  -4  327.77   18.60
  -1   8  -4  327.07   21.10
  -1   8  -4  314.67   24.60
  -1   8  -4  316.07   25.70
  -1   8  -4  332.87   25.40
  -2   8  -4   33.60    8.10
  -2   8  -4   60.19    9.80
  -2   8  -4   52.39    4.30
  -2   8  -4   36.40   10.40
  -2   8  -4   50.49    3.70
  -3   8  -4  216.68   22.30
  -3   8  -4  237.38   13.80
  -3   8  -4  228.78   13.30
  -3   8  -4  218.88   12.90
   3  -8   4  216.58   14.60
  -4   8  -4    1.10    1.00
  -4   8  -4    1.50    0.90
   4  -8   4    1.30    1.50
   4  -8   4   -0.60    3.40
  -5   8  -4    6.40    1.40
  -5   8  -4    7.50    1.40
  -5   8  -4    8.70    1.40
   5  -8   4    4.10    2.70
   5  -8   4    4.30    1.90
  -6   8  -4   39.50    3.20
  -6   8  -4   32.10    3.00
  -6   8  -4   37.70    2.90
   6  -8   4   34.90    4.50
   6  -8   4   30.50    5.90
  -7   8  -4    7.70    1.30
  -7   8  -4   10.40    1.50
   7  -8   4    9.40    2.30
   7  -8   4    7.20    2.90
  -8   8  -4   21.40    1.90
  -8   8  -4   18.90    1.90
   8  -8   4   17.60    3.40
   8  -8   4   21.00    2.80
   5   7  -4  189.58   12.00
   5   7  -4  188.18   14.10
   5   7  -4  182.78   12.50
   4   7  -4   19.50    4.80
   4   7  -4   19.10    4.80
   4   7  -4   16.30    7.50
   4   7  -4   17.20    3.50
   4   7  -4   19.00    4.10
   3   7  -4  134.09   10.60
   3   7  -4  108.29   17.60
   3   7  -4  113.39   11.10
   3   7  -4  118.69   12.90
   3   7  -4  124.49   12.60
   3   7  -4  123.79   13.80
   2   7  -4   13.20    4.10
   2   7  -4   14.10    5.30
   2   7  -4    9.40    3.90
   2   7  -4   14.50    3.70
   2   7  -4   13.40    7.80
   2   7  -4   17.40    5.50
   1   7  -4  213.98   14.10
   1   7  -4  208.18   12.20
   1   7  -4  207.78   19.60
   1   7  -4  201.38   16.80
   1   7  -4  208.78   15.90
   1   7  -4  144.69   20.30
   1   7  -4  203.28   18.30
   0   7  -4  222.18   16.60
   0   7  -4  199.68   24.40
   0   7  -4  189.48   19.80
   0  -7   4  280.57   19.90
   0  -7   4  239.38   18.00
  -1   7  -4   14.70    4.00
  -1   7  -4   14.70    2.60
  -1   7  -4   18.50    7.10
   1  -7   4   14.20    4.50
   1  -7   4   12.10    4.30
  -2   7  -4  339.07   22.10
  -2   7  -4  354.16   24.30
   2  -7   4  403.46   26.00
   2  -7   4  375.96   27.20
  -3   7  -4   60.19    7.30
  -3   7  -4   59.79    5.80
   3  -7   4   54.79    9.40
  -4   7  -4    4.50    1.20
  -4   7  -4    3.60    1.00
   4  -7   4    1.80    1.60
   4  -7   4    4.50    3.30
  -5   7  -4   17.20    2.00
  -5   7  -4   15.90    2.00
  -5   7  -4   17.80    1.90
   5  -7   4   14.60    4.20
   5  -7   4   13.50    2.90
  -6   7  -4    1.90    0.90
  -6   7  -4    0.50    0.80
   6  -7   4    1.00    0.80
   6  -7   4    1.00    1.90
   6  -7   4    0.30    1.30
  -7   7  -4   15.10    1.80
  -7   7  -4   14.50    1.80
   7  -7   4   14.70    2.80
   7  -7   4   13.80    3.90
   7  -7   4   16.20    1.70
  -8   7  -4  125.49    8.10
  -8   7  -4  154.08    8.30
  -8   7  -4  140.59    8.10
   8  -7   4  132.59   11.00
   8  -7   4  140.19    8.00
   8  -7   4  140.79    9.60
  -9   7  -4   31.10    2.20
   9  -7   4   32.10    2.90
   6   6  -4   49.80    5.80
   6   6  -4   32.30    7.40
   6   6  -4   55.29    4.70
   5   6  -4    5.80    2.60
   5   6  -4    1.00    4.40
   5   6  -4    3.90    2.90
   5   6  -4    6.00    1.00
   5   6  -4    6.80    2.50
   4   6  -4  132.69   11.10
   4   6  -4  113.99   13.10
   4   6  -4  119.29   11.80
   4   6  -4  142.79   14.30
   4   6  -4   93.89   20.30
   4   6  -4  127.59    7.60
   3   6  -4  366.26   19.50
   3   6  -4  348.57   26.00
   3   6  -4  342.67   26.70
   3   6  -4  271.37   24.00
   3   6  -4  358.06   28.20
   3   6  -4  389.26   23.60
   2   6  -4   20.00    5.50
   2   6  -4   16.70    5.10
   2   6  -4   19.00    2.10
   2   6  -4   10.70    8.20
   2   6  -4   14.60    4.90
   2   6  -4   19.40    4.20
   2   6  -4   17.70    4.00
   2   6  -4   23.40    7.20
  -2  -6   4   20.10    3.40
   1   6  -4  171.78   13.70
   1   6  -4  124.39   23.90
  -1  -6   4  194.58   12.40
  -1  -6   4  200.18   15.90
  -1  -6   4  187.18   14.90
   0   6  -4  347.57   35.80
   0   6  -4  428.66   27.70
   0   6  -4  469.15   25.50
   0  -6   4  451.45   29.50
   0  -6   4  460.15   28.70
   0  -6   4  448.66   25.90
  -1   6  -4 1118.59   64.99
  -1   6  -4 1152.98   66.89
  -1   6  -4 1170.38   76.29
   1  -6   4 1230.68   68.29
   1  -6   4 1206.48   65.59
   1  -6   4 1213.18   69.69
  -2   6  -4   47.00    4.80
  -2   6  -4   48.70    8.80
  -2   6  -4   65.29    6.80
   2  -6   4   56.09    5.70
   2  -6   4   50.59    8.00
   2  -6   4   70.59    8.00
  -3   6  -4    4.20    1.50
  -3   6  -4    7.00    1.90
  -3   6  -4    9.60    2.60
   3  -6   4    8.60    2.30
   3  -6   4    4.60    4.60
   3  -6   4    4.50    3.40
  -4   6  -4 1162.48   61.09
  -4   6  -4 1040.70   61.09
   4  -6   4 1028.40   66.59
   4  -6   4 1163.28   62.09
  -5   6  -4   64.69    4.20
   5  -6   4   64.59    4.20
   5  -6   4   58.49    5.70
   5  -6   4   56.69    4.20
   5  -6   4   75.59    8.90
   5  -6   4   59.39    7.50
  -6   6  -4  125.59    7.50
   6  -6   4  114.79   11.40
   6  -6   4  125.59    9.50
   6  -6   4  124.59    7.50
  -7   6  -4    1.80    0.80
  -7   6  -4    3.00    0.90
   7  -6   4    0.90    0.70
   7  -6   4    1.40    1.50
   7  -6   4    1.20    1.90
   7  -6   4    1.70    0.80
  -8   6  -4  111.79    6.40
  -8   6  -4  109.99    6.60
   8  -6   4  108.19    6.40
   8  -6   4  100.89    7.90
   8  -6   4  109.49    6.40
   8  -6   4   98.59    9.10
  -9   6  -4   81.89    5.00
  -9   6  -4   84.19    4.90
   9  -6   4   82.79    5.90
   9  -6   4   81.59    4.80
   7   5  -4   43.80    5.00
   7   5  -4   50.79    4.30
   6   5  -4  276.57   15.00
   6   5  -4  262.67   14.80
   6   5  -4  292.07   18.10
   6   5  -4  236.78   17.10
   6   5  -4  262.57   20.50
   5   5  -4   17.10    1.90
   5   5  -4   16.10    4.50
   5   5  -4   15.00    5.70
   5   5  -4   18.40    1.90
   5   5  -4   15.40    9.10
   5   5  -4   15.60    4.60
   4   5  -4  580.24   28.90
   4   5  -4  475.35   36.90
   4   5  -4  442.86   32.10
   4   5  -4  481.65   44.00
   4   5  -4  539.05   28.30
   4   5  -4  485.35   36.20
   4   5  -4  540.15   34.30
   3   5  -4  339.77   20.40
   3   5  -4  375.06   24.60
   3   5  -4  375.76   28.80
   3   5  -4  232.38   39.50
   3   5  -4  371.76   26.10
  -3  -5   4  439.06   23.00
   2   5  -4  140.39   11.70
   2   5  -4  149.19   24.50
   2   5  -4  148.99   14.50
  -2  -5   4  173.48   14.30
  -2  -5   4  174.88   11.10
   1   5  -4  317.47   21.70
   1   5  -4  351.16   24.10
  -1  -5   4  367.96   24.00
  -1  -5   4  348.57   20.70
   0   5  -4   66.59    6.80
   0   5  -4   82.09    5.20
   0   5  -4   54.69   12.60
   0  -5   4   57.29    6.40
   0  -5   4   67.19    5.30
   0  -5   4   64.89    7.40
  -1   5  -4  636.44   41.20
  -1   5  -4  527.45   31.70
  -1   5  -4  504.85   30.10
   1  -5   4  540.35   33.80
   1  -5   4  530.95   32.50
   1  -5   4  537.95   30.90
  -2   5  -4  785.72   43.20
  -2   5  -4  779.22   44.20
  -2   5  -4  783.52   42.70
   2  -5   4  750.42   46.90
   2  -5   4  782.42   43.80
   2  -5   4  782.72   45.20
  -3   5  -4  326.57   20.10
  -3   5  -4  311.47   19.30
  -3   5  -4  371.06   19.40
   3  -5   4  325.77   20.10
   3  -5   4  302.07   23.20
  -4   5  -4 1039.20   56.99
  -4   5  -4 1003.90   56.89
   4  -5   4 1072.69   58.09
   4  -5   4  997.10   62.49
  -5   5  -4   88.89    7.20
  -5   5  -4   97.79    7.20
   5  -5   4   99.69    8.40
   5  -5   4   81.49   11.70
  -6   5  -4   57.59    3.90
   6  -5   4   62.49    5.80
   6  -5   4   62.39    4.00
   6  -5   4   52.29    3.90
   6  -5   4   59.09    7.40
   6  -5   4   56.09    4.00
  -7   5  -4  433.36   23.00
   7  -5   4  388.36   23.00
   7  -5   4  388.36   27.00
   7  -5   4  435.46   23.10
   7  -5   4  407.76   23.80
   7  -5   4  412.76   23.20
   7  -5   4  443.36   25.40
  -8   5  -4    1.20    0.60
   8  -5   4   -0.40    0.50
   8  -5   4    0.20    0.50
   8  -5   4   -0.90    1.00
   8  -5   4    0.10    0.40
   8  -5   4    3.40    2.10
   8  -5   4    0.20    0.50
  -9   5  -4   13.70    1.30
   9  -5   4   13.60    2.10
   9  -5   4   15.60    1.40
   9  -5   4   14.20    1.30
   7   4  -4    7.60    1.00
   7   4  -4    5.70    2.40
   7   4  -4    5.80    4.80
   7   4  -4    6.30    0.90
   7   4  -4    4.90    2.80
   6   4  -4  128.49   11.70
   6   4  -4  113.29   18.00
   6   4  -4  152.28    8.20
   6   4  -4  107.59   13.90
   6   4  -4  157.18   12.20
   6   4  -4  138.49    8.10
   5   4  -4   25.20    5.80
   5   4  -4   21.90    5.00
   5   4  -4   19.20    2.30
   5   4  -4   24.10    7.60
   5   4  -4    8.90    7.20
   5   4  -4   18.60    2.10
   4   4  -4  136.89   13.80
   4   4  -4   93.49   19.00
   4   4  -4  120.99    7.60
   4   4  -4  121.29   14.20
   4   4  -4  124.99    7.40
   4   4  -4  115.89   12.20
   4   4  -4  120.49   10.80
   3   4  -4  117.79   20.80
   3   4  -4  170.18   16.10
  -3  -4   4  192.78   12.20
  -3  -4   4  188.88   11.50
  -3  -4   4  204.18   15.40
   2   4  -4  649.54   40.50
   2   4  -4  522.65   45.50
   2   4  -4  635.54   37.20
  -2  -4   4  631.24   35.60
  -2  -4   4  698.43   39.40
  -2  -4   4  678.03   36.50
   1   4  -4   17.80    6.50
   1   4  -4   22.00    4.40
   1   4  -4   24.20    2.40
   1   4  -4   17.30    3.00
  -1  -4   4   19.60    2.60
  -1  -4   4   19.90    4.20
  -1  -4   4   20.40    2.20
   0   4  -4 1092.19   56.09
   0   4  -4  982.80   57.19
   0   4  -4 1036.00   64.69
   0   4  -4 1033.00   58.69
   0  -4   4 1043.90   56.69
   0  -4   4  990.10   58.79
  -1   4  -4   31.70    3.80
  -1   4  -4   34.00    3.00
  -1   4  -4   38.30    7.90
   1  -4   4   34.80    2.90
   1  -4   4   31.50    3.50
   1  -4   4   28.30    4.80
   1  -4   4   35.80    4.40
  -2   4  -4 1115.29   60.69
  -2   4  -4 1145.99   61.69
  -2   4  -4 1148.59   61.09
   2  -4   4 1072.09   64.19
   2  -4   4 1081.59   61.69
   2  -4   4 1142.39   61.09
   2  -4   4 1118.49   62.39
  -3   4  -4  985.60   54.29
  -3   4  -4 1024.80   54.79
  -3   4  -4 1034.30   55.09
  -3   4  -4  961.20   54.69
   3  -4   4  928.91   58.39
   3  -4   4 1010.60   55.69
   3  -4   4 1027.00   55.09
  -4   4  -4    8.60    1.70
  -4   4  -4    5.60    1.50
  -4   4  -4    6.00    1.50
   4  -4   4    7.40    2.30
   4  -4   4    5.40    3.50
   4  -4   4    6.60    1.90
  -5   4  -4 1692.93   97.09
  -5   4  -4 1703.23   97.09
  -5   4  -4 1635.94   97.39
   5  -4   4 1991.40   99.19
   5  -4   4 1883.11   97.89
   5  -4   4 1808.42  103.19
   6  -4   4   16.10    1.80
   6  -4   4   16.60    2.00
   6  -4   4   17.40    2.00
   6  -4   4   18.30    4.30
   6  -4   4   18.70    1.70
   6  -4   4   14.60    1.70
   6  -4   4   19.00    3.30
  -7   4  -4  253.77   13.80
   7  -4   4  250.87   14.00
   7  -4   4  243.88   15.90
   7  -4   4  230.68   13.70
   7  -4   4  243.48   14.00
   7  -4   4  227.38   13.80
   7  -4   4  241.08   14.00
   7  -4   4  262.77   14.10
   8  -4   4  247.58   14.00
   8  -4   4  246.58   14.00
   8  -4   4  242.58   13.80
   8  -4   4  242.78   15.70
   8  -4   4  240.38   13.80
   8  -4   4  266.77   14.10
  -9   4  -4   38.50    2.50
   9  -4   4   37.70    2.40
   9  -4   4   39.00    2.50
   9  -4   4   40.20    2.60
   9  -4   4   35.10    3.50
   9  -4   4   39.60    2.60
   9  -4   4   38.40    2.40
   8   3  -4   43.20   10.90
   8   3  -4   44.80    4.80
   8   3  -4   50.89    3.20
   8   3  -4   52.19    3.10
   8   3  -4   50.19    3.20
   8   3  -4   50.09    6.00
   7   3  -4    5.10    1.00
   7   3  -4    3.90    1.00
   7   3  -4    4.70    3.80
   7   3  -4    5.80    1.00
   7   3  -4    1.70    2.30
   7   3  -4    1.70    4.60
   6   3  -4   13.10    8.10
   6   3  -4   21.20    2.40
   6   3  -4   16.40    4.60
   6   3  -4   29.50    6.10
   6   3  -4   22.10    2.00
   6   3  -4   14.00    6.10
   6   3  -4   20.40    2.10
   5   3  -4   73.49   16.20
   5   3  -4  115.99    6.70
   5   3  -4  109.49   11.00
   5   3  -4  108.49    6.90
   5   3  -4  105.99   13.60
   5   3  -4  120.89    6.80
   5   3  -4  109.79   10.10
   4   3  -4  494.45   34.00
   4   3  -4  462.15   33.80
   4   3  -4  419.76   39.40
  -4  -3   4  523.25   29.00
  -4  -3   4  579.54   30.00
   3   3  -4    0.50    1.90
   3   3  -4   -0.20    3.10
   3   3  -4   -1.60    1.50
  -3  -3   4    1.20    0.90
  -3  -3   4    0.00    0.90
   2   3  -4   52.29    7.30
   2   3  -4   41.30    7.90
   2   3  -4   53.49    4.70
  -2  -3   4   52.99    4.40
  -2  -3   4   53.39    3.90
   1   3  -4  941.81   53.49
   1   3  -4  894.41   55.69
   1   3  -4 1021.70   50.49
   1   3  -4  928.31   51.49
  -1  -3   4  939.51   51.19
  -1  -3   4  884.31   52.79
  -1  -3   4  902.71   50.69
   0   3  -4   29.50    2.40
   0   3  -4   27.70    3.80
   0   3  -4   32.80    5.60
   0   3  -4   36.10    3.70
   0  -3   4   32.70    2.60
   0  -3   4   29.80    3.00
   0  -3   4   31.40    4.30
  -1   3  -4  256.47   14.50
  -1   3  -4  227.98   13.40
  -1   3  -4  242.58   13.70
   1  -3   4  239.58   14.20
   1  -3   4  232.08   14.50
   1  -3   4  245.38   15.90
   1  -3   4  232.68   13.80
  -2   3  -4   95.59    6.40
  -2   3  -4  103.89    7.00
  -2   3  -4   99.19    6.50
   2  -3   4   96.89    6.80
   2  -3   4  100.69    7.20
   2  -3   4  107.99    9.00
  -3   3  -4 1990.70  107.29
  -3   3  -4 1944.11  107.09
  -3   3  -4 1975.50  107.09
  -3   3  -4 1920.11  107.09
   3  -3   4 2047.10  111.29
   3  -3   4 1970.30  107.69
   3  -3   4 2028.40  108.19
  -4   3  -4  149.49    9.30
  -4   3  -4  134.99    9.30
  -4   3  -4  143.19    9.50
   4  -3   4  142.89   12.70
   4  -3   4  147.09   10.60
   4  -3   4  151.08   10.20
  -5   3  -4    5.40    1.50
  -5   3  -4    3.60    1.50
  -5   3  -4    3.90    1.30
   5  -3   4    5.80    2.00
   5  -3   4    1.20    2.70
   5  -3   4    4.70    2.10
   6  -3   4  288.47   17.20
   6  -3   4  293.57   16.90
   6  -3   4  297.47   19.10
   6  -3   4  307.47   17.10
   6  -3   4  325.77   17.10
   6  -3   4  310.27   16.90
   6  -3   4  293.17   17.10
   6  -3   4  316.07   17.30
   7  -3   4  176.48   10.20
   7  -3   4  175.68   10.20
   7  -3   4  178.18   10.10
   7  -3   4  166.98   10.00
   7  -3   4  170.18   10.20
   7  -3   4  167.18    9.90
   7  -3   4  165.08   12.00
   8  -3   4   70.89    4.60
   8  -3   4   74.79    6.20
   8  -3   4   76.19    4.90
   8  -3   4   87.09    4.90
   8  -3   4   72.39    4.70
   8  -3   4   69.79    4.60
   8  -3   4   71.69    4.80
   9  -3   4    3.00    1.30
   9  -3   4    6.50    0.80
   9  -3   4    5.10    0.80
   9  -3   4    6.50    0.90
   9  -3   4    5.40    0.70
   9  -3   4    5.60    0.70
   8   2  -4   92.29    6.00
   8   2  -4  103.49    6.00
   8   2  -4  104.89    8.60
   8   2  -4   97.59    6.00
   8   2  -4  106.89   11.20
   7   2  -4  675.23   47.40
   7   2  -4  671.83   38.10
   7   2  -4  729.53   38.30
   7   2  -4  562.74   49.30
   7   2  -4  713.63   37.90
   7   2  -4  821.22   42.70
   6   2  -4    5.30    4.00
   6   2  -4    4.60    5.00
   6   2  -4    7.00    3.50
   6   2  -4    4.90    2.60
   6   2  -4    6.00    1.30
   6   2  -4    5.00    1.10
   6   2  -4    5.00    1.00
   5   2  -4   72.79   10.00
   5   2  -4   69.29    4.80
   5   2  -4   66.69   10.10
   5   2  -4   48.70    9.60
   5   2  -4   73.09    7.90
  -5  -2   4   93.39    7.10
  -5  -2   4   77.39    6.00
   4   2  -4  370.26   27.70
   4   2  -4  469.95   28.60
   4   2  -4  400.76   30.90
  -4  -2   4  400.26   24.60
  -4  -2   4  416.46   23.80
   3   2  -4  103.79   10.90
   3   2  -4  118.29   10.10
   3   2  -4  112.49   10.40
  -3  -2   4  115.99    6.90
  -3  -2   4  113.59    7.40
  -3  -2   4  109.99    7.80
   2   2  -4   46.50    5.20
   2   2  -4   56.29    6.40
   2   2  -4   47.10    3.80
   2   2  -4   44.80    6.50
  -2  -2   4   45.40    3.50
  -2  -2   4   46.00    3.90
   1   2  -4  282.77   18.10
   1   2  -4  275.37   15.50
   1   2  -4  260.07   16.80
  -1  -2   4  269.67   15.30
  -1  -2   4  242.78   15.00
   0   2  -4 3321.17  175.18
   0   2  -4 3240.98  172.68
   0   2  -4 3212.18  173.88
   0   2  -4 3465.35  173.48
   0  -2   4 3249.97  173.18
   0  -2   4 3086.99  174.08
   0  -2   4 3007.70  172.88
  -1   2  -4    0.20    0.60
  -1   2  -4   -0.10    1.10
  -1   2  -4    0.30    0.50
  -1   2  -4    0.40    0.60
  -1   2  -4   -0.40    0.60
  -1   2  -4    5.10    1.30
   1  -2   4    0.00    0.90
   1  -2   4    0.40    1.30
   1  -2   4    1.20    0.70
   1  -2   4    0.10    0.80
  -2   2  -4  180.28   10.60
  -2   2  -4  189.58   11.00
  -2   2  -4  193.68   11.00
  -2   2  -4  185.78   11.10
  -2   2  -4  193.88   11.20
   2  -2   4  181.18   10.90
   2  -2   4  195.88   13.20
   2  -2   4  172.38   11.50
   2  -2   4  165.58   11.30
  -3   2  -4   21.00    2.50
  -3   2  -4   26.00    2.40
  -3   2  -4   22.70    2.60
  -3   2  -4   22.40    2.80
   3  -2   4   23.00    3.10
   3  -2   4   20.70    4.50
   3  -2   4   22.40    3.30
   3  -2   4   24.30    2.80
  -4   2  -4 1931.31  112.79
  -4   2  -4 2101.59  112.79
  -4   2  -4 2070.59  112.39
   4  -2   4 2222.98  117.19
   4  -2   4 2162.18  113.59
   4  -2   4 1989.90  113.69
  -5   2  -4  265.87   17.20
  -5   2  -4  263.07   17.30
   5  -2   4  300.07   21.80
   5  -2   4  299.87   18.90
   5  -2   4  297.17   18.20
   6  -2   4  377.96   21.00
   6  -2   4  375.26   20.80
   6  -2   4  355.26   22.90
   6  -2   4  378.16   21.20
   6  -2   4  371.56   21.10
   6  -2   4  382.26   21.10
   6  -2   4  393.36   21.00
   7  -2   4  255.17   15.20
   7  -2   4  270.67   15.10
   7  -2   4  263.87   17.00
   7  -2   4  269.67   15.10
   7  -2   4  271.47   15.10
   7  -2   4  275.27   15.30
   7  -2   4  251.77   14.90
   8  -2   4   80.19    4.60
   8  -2   4   62.69    4.20
   8  -2   4   65.19    4.40
   8  -2   4   64.79    5.80
   8  -2   4   66.19    4.30
   8  -2   4   67.49    4.30
   8  -2   4   69.99    4.40
   9  -2   4   32.00    2.10
   9  -2   4   31.20    2.20
   9  -2   4   34.00    2.10
   9  -2   4   32.10    2.20
   9  -2   4   23.50    3.60
   9  -2   4   32.50    2.10
   9   1  -4  140.99    7.70
   9   1  -4  133.49   11.10
   9   1  -4  135.09    9.40
   9   1  -4  141.29    7.70
   9   1  -4  130.89    7.70
   8   1  -4   87.99    5.40
   8   1  -4   87.79    5.20
   8   1  -4   77.39   12.40
   8   1  -4   87.79    5.30
   8   1  -4   82.49    7.90
   8   1  -4   72.69   10.40
   8   1  -4   84.49    5.00
   7   1  -4  170.68   10.10
   7   1  -4  184.48   10.30
   7   1  -4  196.38   13.50
   7   1  -4  135.29   17.90
   7   1  -4  173.38   10.00
   7   1  -4  172.28   16.80
   7   1  -4  181.08   10.30
   6   1  -4  369.16   19.40
   6   1  -4  340.17   22.20
   6   1  -4  321.87   25.50
   6   1  -4  367.96   28.30
   6   1  -4  332.87   19.60
   6   1  -4  353.56   19.60
   6   1  -4  365.66   23.50
   6   1  -4  346.47   19.50
   5   1  -4 1217.38   74.19
   5   1  -4 1266.07   74.19
  -5  -1   4 1232.48   69.89
  -5  -1   4 1278.37   69.39
  -5  -1   4 1294.07   68.99
   4   1  -4  788.62   45.10
   4   1  -4  723.63   45.50
   4   1  -4  746.53   44.80
  -4  -1   4  726.63   41.90
  -4  -1   4  768.82   41.00
  -4  -1   4  715.33   41.40
   3   1  -4  299.07   18.90
   3   1  -4  297.57   18.90
   3   1  -4  272.77   19.30
  -3  -1   4  284.87   16.00
  -3  -1   4  269.17   16.30
  -3  -1   4  270.97   16.60
   2   1  -4  263.17   16.90
   2   1  -4  242.28   15.40
   2   1  -4  233.58   15.40
   2   1  -4  246.48   13.90
  -2  -1   4  226.58   13.80
  -2  -1   4  228.78   13.40
  -2  -1   4  240.28   14.00
   1   1  -4  286.27   17.00
   1   1  -4  304.57   18.60
   1   1  -4  292.17   16.40
   1   1  -4  263.47   16.90
  -1  -1   4  284.07   16.20
  -1  -1   4  288.57   16.10
   0   1  -4  125.29    7.10
   0   1  -4  124.19    7.70
   0   1  -4  122.49    8.80
   0  -1   4  116.39    7.70
   0  -1   4  117.49    7.40
   0  -1   4  117.79    6.90
   0  -1   4  120.99    7.40
  -1   1  -4   43.00    3.20
  -1   1  -4   46.00    3.40
  -1   1  -4   43.60    3.50
  -1   1  -4   43.70    3.20
  -1   1  -4   42.30    3.00
   1  -1   4   43.60    3.30
   1  -1   4   50.29    4.40
   1  -1   4   37.60    3.40
   1  -1   4   42.70    3.50
  -2   1  -4 1659.53   92.89
  -2   1  -4 1680.03   93.19
  -2   1  -4 1662.23   92.99
  -2   1  -4 1656.93   92.59
  -2   1  -4 1864.81   93.19
   2  -1   4 1738.83   93.59
   2  -1   4 1807.02   94.89
   2  -1   4 1723.33   93.49
   2  -1   4 1685.73   93.09
  -3   1  -4 2262.77  119.79
  -3   1  -4 2284.37  119.29
  -3   1  -4 2156.68  119.99
  -3   1  -4 2208.58  119.49
   3  -1   4 2166.08  122.19
   3  -1   4 2288.67  119.99
   3  -1   4 2145.09  120.49
   3  -1   4 2209.58  120.39
  -4   1  -4   11.80    2.00
  -4   1  -4   15.10    2.40
  -4   1  -4   13.50    1.90
  -4   1  -4   11.10    2.00
  -4   1  -4   11.20    2.10
   4  -1   4   21.10    4.70
   4  -1   4   12.30    2.60
   4  -1   4   12.80    2.80
  -5   1  -4   46.90    4.80
  -5   1  -4   39.50    4.60
   5  -1   4   42.40    5.30
   5  -1   4   49.50    6.00
   6  -1   4   97.89    6.10
   6  -1   4   93.99    6.30
   6  -1   4   93.79    7.80
   6  -1   4  104.29    6.20
   6  -1   4   96.09    6.10
   6  -1   4  102.59    6.20
   6  -1   4   93.39    5.90
   7  -1   4  116.99    7.20
   7  -1   4  116.59    7.20
   7  -1   4  128.49    7.40
   7  -1   4  105.69    9.00
   7  -1   4  111.89    7.20
   7  -1   4  130.69    7.20
   7  -1   4  125.49    7.40
   8  -1   4   41.30    3.00
   8  -1   4   44.20    3.10
   8  -1   4   53.69    3.10
   8  -1   4   37.40    4.30
   8  -1   4   43.10    3.00
   8  -1   4   45.90    3.10
   8  -1   4   51.29    3.20
   9   0  -4   10.50    1.20
   9   0  -4   11.20    1.20
   9   0  -4    9.90    3.70
   9   0  -4    8.50    2.50
   9   0  -4    8.60    4.50
   9   0  -4   11.80    1.20
   8   0  -4  317.57   18.10
   8   0  -4  331.07   18.20
   8   0  -4  365.26   21.20
   8   0  -4  250.07   25.50
   8   0  -4  397.16   26.00
   8   0  -4  307.17   17.90
   8   0  -4  315.57   18.10
   7   0  -4   14.50    1.70
   7   0  -4   10.70    3.00
   7   0  -4   15.30    1.60
   7   0  -4   13.90    1.70
   7   0  -4   11.60    5.10
   7   0  -4   11.90    1.60
   7   0  -4   16.10    4.90
   6   0  -4  307.07   17.90
   6   0  -4  340.47   24.60
   6   0  -4  315.67   17.90
   6   0  -4  314.57   22.50
   6   0  -4  319.87   19.90
   6   0  -4  329.87   17.70
   6   0  -4  315.47   17.90
   5   0  -4  662.53   41.20
   5   0  -4  727.13   42.30
  -5   0   4  616.84   37.70
  -5   0   4  674.13   37.50
   4   0  -4   45.60    6.40
   4   0  -4   36.60    5.70
   4   0  -4   41.20    5.80
  -4   0   4   33.20    3.50
  -4   0   4   37.50    3.50
   3   0  -4 4586.14  256.87
   3   0  -4 4922.11  256.07
   3   0  -4 4524.95  255.97
  -3   0   4 4910.61  253.97
  -3   0   4 4745.93  253.67
   2   0  -4 1064.19   56.39
   2   0  -4 1049.49   59.29
   2   0  -4 1017.90   57.69
   2   0  -4 1001.40   57.59
  -2   0   4 1020.20   56.09
  -2   0   4 1091.69   56.39
  -2   0   4 1023.80   56.39
   1   0  -4 1502.55   83.39
   1   0  -4 1593.94   83.09
   1   0  -4 1509.65   82.39
   1   0  -4 1581.34   85.09
  -1   0   4 1479.85   82.59
  -1   0   4 1538.25   82.69
  -1   0   4 1546.75   82.79
   0   0  -4    1.10    0.90
   0   0  -4    1.30    1.40
   0   0  -4    0.90    0.70
   0   0   4    0.10    0.60
   0   0   4    1.00    0.70
   0   0   4    0.60    0.70
   0   0   4   -0.40    0.70
  -1   0  -4  538.25   30.60
  -1   0  -4  547.95   30.10
   1   0   4  535.95   30.30
   1   0   4  562.44   30.60
   1   0   4  545.05   30.10
  -2   0  -4  456.55   25.90
  -2   0  -4  494.95   26.40
   2   0   4  438.36   26.40
   2   0   4  476.15   27.30
   2   0   4  440.56   26.40
   2   0   4  470.15   26.30
  -3   0  -4   36.90    4.10
  -3   0  -4   42.90    4.00
  -3   0  -4   36.60    3.60
  -3   0  -4   42.20    3.50
   3   0   4   36.30    5.20
   3   0   4   39.20    4.40
   3   0   4   41.50    4.10
   3   0   4   33.40    4.20
  -4   0  -4  630.54   35.80
  -4   0  -4  634.94   35.00
  -4   0  -4  635.94   35.60
  -4   0  -4  637.44   35.30
  -4   0  -4  624.54   35.90
   4   0   4  598.94   36.50
   4   0   4  644.14   44.20
   4   0   4  636.24   36.50
  -5   0  -4  438.46   24.70
  -5   0  -4  417.46   26.00
   5   0   4  464.15   26.30
   5   0   4  409.76   23.30
   5   0   4  420.26   23.10
   5   0   4  400.26   23.30
   5   0   4  388.86   23.40
   5   0   4  466.95   26.30
   6   0   4  282.77   15.50
   6   0   4  246.68   17.30
   6   0   4  275.87   15.60
   6   0   4  282.57   15.50
   6   0   4  263.37   15.50
   6   0   4  280.97   15.30
   6   0   4  272.37   15.40
   7   0   4   42.20    3.10
   7   0   4   42.50    3.10
   7   0   4   46.70    3.30
   7   0   4   46.00    3.30
   7   0   4   49.00    3.40
   7   0   4   40.40    5.30
   7   0   4   48.60    3.30
   8   0   4   10.60    1.20
   8   0   4   11.40    1.10
   8   0   4   11.00    1.20
   8   0   4   10.30    1.20
   8   0   4   13.30    1.40
   9  -1  -4   36.30    2.60
   9  -1  -4   40.90    7.10
   9  -1  -4   34.70    2.60
   9  -1  -4   39.90    4.80
   9  -1  -4   37.50    2.70
   9  -1  -4   35.20    2.50
   9  -1  -4   34.00    7.70
   8  -1  -4    1.50    0.70
   8  -1  -4    0.80    0.60
   8  -1  -4    1.70    2.90
   8  -1  -4    1.50    2.40
   8  -1  -4    1.60    1.50
   8  -1  -4    1.70    0.70
   8  -1  -4    1.90    0.70
  -8   1   4    1.90    0.70
   7  -1  -4    0.90    0.60
   7  -1  -4    0.20    1.80
   7  -1  -4    0.20    0.70
   7  -1  -4    0.10    0.60
   7  -1  -4    0.10    0.60
   7  -1  -4    1.80    2.50
   7  -1  -4    0.10    0.70
   7  -1  -4   -0.30    1.30
   6  -1  -4   45.50    7.40
   6  -1  -4   56.99    8.90
  -6   1   4   44.70    4.80
  -6   1   4   49.00    5.20
   5  -1  -4  881.51   51.39
   5  -1  -4  830.02   50.69
   5  -1  -4  896.31   47.90
  -5   1   4  822.22   47.70
  -5   1   4  840.72   47.40
   4  -1  -4  192.68   14.30
   4  -1  -4  189.38   14.50
   4  -1  -4  193.58   14.30
   4  -1  -4  203.58   12.10
  -4   1   4  190.98   11.90
  -4   1   4  197.48   11.70
   3  -1  -4  457.55   24.60
   3  -1  -4  458.15   26.60
   3  -1  -4  407.66   26.30
   3  -1  -4  425.36   27.60
  -3   1   4  428.56   24.50
  -3   1   4  432.56   24.10
  -3   1   4  455.45   24.60
   2  -1  -4 2215.18  124.09
   2  -1  -4 2334.97  123.29
   2  -1  -4 2423.36  126.29
   2  -1  -4 2239.08  124.49
  -2   1   4 2357.16  123.09
  -2   1   4 2105.79  122.79
  -2   1   4 2352.66  123.09
  -2   1   4 2301.97  122.89
   1  -1  -4  497.35   28.20
   1  -1  -4  494.45   29.80
   1  -1  -4  516.95   27.80
  -1   1   4  512.45   27.40
  -1   1   4  483.25   27.20
  -1   1   4  457.45   27.10
  -1   1   4  514.25   27.30
   0  -1  -4  469.55   28.20
   0  -1  -4  480.65   26.70
   0   1   4  467.45   26.20
   0   1   4  469.75   26.00
   0   1   4  460.95   26.00
   0   1   4  481.65   26.30
  -1  -1  -4   18.20    2.50
  -1  -1  -4   18.70    3.30
   1   1   4   15.60    2.10
   1   1   4   16.70    2.10
   1   1   4   13.60    2.20
   1   1   4   19.00    2.20
  -2  -1  -4 1636.94   88.89
  -2  -1  -4 1617.24   88.29
   2   1   4 1595.84   88.59
   2   1   4 1643.04   88.49
   2   1   4 1707.63   88.79
   2   1   4 1572.74   88.89
  -3  -1  -4  206.18   12.10
  -3  -1  -4  209.98   12.50
  -3  -1  -4  205.58   12.60
  -3  -1  -4  204.28   12.90
   3   1   4  191.08   13.00
   3   1   4  202.08   13.20
   3   1   4  204.58   12.90
  -4  -1  -4   26.60    2.90
  -4  -1  -4   31.90    3.90
  -4  -1  -4   25.50    3.30
  -4  -1  -4   21.40    3.30
   4   1   4   24.50    4.00
   4   1   4   26.00    3.80
   5   1   4   72.99    4.80
   5   1   4   74.89    4.80
   5   1   4   70.19    4.70
   5   1   4   72.49    4.90
   5   1   4   74.29    4.70
   5   1   4   75.99    4.70
   6   1   4  204.98   12.40
   6   1   4  218.58   12.40
   6   1   4  218.58   12.50
   6   1   4  228.48   12.60
   6   1   4  217.78   12.60
   6   1   4  218.28   12.50
   7   1   4  100.99    5.90
   7   1   4  100.49    6.10
   7   1   4  100.99    6.00
   7   1   4   90.99    5.90
   7   1   4   96.99    6.00
   8   1   4    0.80    0.50
   8   1   4    1.90    0.50
   8   1   4    1.00    0.50
   8   1   4    2.30    0.50
   9  -2  -4   48.00    2.90
   9  -2  -4   46.40    3.00
   9  -2  -4   43.60    8.10
   9  -2  -4   41.90    2.90
   9  -2  -4   39.10    2.80
   9  -2  -4   39.50    6.20
   9  -2  -4   43.50    4.60
  -9   2   4   32.60    2.70
   8  -2  -4   52.19    3.70
   8  -2  -4   57.09    7.50
   8  -2  -4   69.09    4.00
   8  -2  -4   54.69    5.50
   8  -2  -4   49.99    3.70
   8  -2  -4   55.99    3.80
   8  -2  -4   49.60    7.80
  -8   2   4   57.09    3.80
   7  -2  -4  108.49   11.20
   7  -2  -4   86.89    5.90
   7  -2  -4   86.39    5.90
   7  -2  -4  102.79    7.80
   7  -2  -4   95.69    9.90
   7  -2  -4  104.59    6.00
   7  -2  -4   99.49    6.00
   6  -2  -4   87.19   10.00
   6  -2  -4   91.49   10.60
   6  -2  -4   90.59    7.10
  -6   2   4   89.49    6.80
  -6   2   4   78.99    6.80
   5  -2  -4  165.08   10.70
   5  -2  -4  164.58   13.10
   5  -2  -4  170.08   13.70
  -5   2   4  159.88   10.50
  -5   2   4  160.98   10.50
  -5   2   4  155.68   10.20
   4  -2  -4 3563.04  191.08
   4  -2  -4 3649.53  187.18
   4  -2  -4 3536.95  189.98
   4  -2  -4 3331.37  190.08
  -4   2   4 3555.44  187.28
  -4   2   4 3320.67  187.28
  -4   2   4 3411.26  186.98
   3  -2  -4 1262.37   73.99
   3  -2  -4 1336.77   70.29
   3  -2  -4 1312.77   72.89
   3  -2  -4 1232.08   72.29
  -3   2   4 1267.87   70.39
  -3   2   4 1382.56   70.59
  -3   2   4 1302.27   70.59
   2  -2  -4  546.65   31.90
   2  -2  -4  559.04   33.50
   2  -2  -4  538.45   31.20
   2  -2  -4  561.74   30.70
  -2   2   4  553.84   30.20
  -2   2   4  494.15   30.00
  -2   2   4  549.95   30.30
  -2   2   4  586.24   30.20
   1  -2  -4  107.19    7.40
   1  -2  -4  110.39    9.40
  -1   2   4  112.09    7.00
  -1   2   4  110.99    6.90
  -1   2   4  110.79    6.80
  -1   2   4  115.69    7.00
   0  -2  -4    4.40    1.40
   0  -2  -4    3.00    1.30
   0  -2  -4    4.80    2.10
   0   2   4    5.30    1.20
   0   2   4    3.70    1.20
   0   2   4    4.20    1.10
   0   2   4    4.40    1.30
  -1  -2  -4 1304.37   72.79
  -1  -2  -4 1316.67   70.49
   1   2   4 1305.07   69.99
   1   2   4 1296.37   69.99
   1   2   4 1226.48   69.79
   1   2   4 1242.38   69.79
  -2  -2  -4  278.37   18.50
  -2  -2  -4  258.87   16.30
  -2  -2  -4  273.17   15.70
   2   2   4  252.57   15.80
   2   2   4  261.27   15.70
   2   2   4  243.88   15.80
  -3  -2  -4  473.15   25.90
  -3  -2  -4  448.76   25.90
  -3  -2  -4  452.75   25.40
  -3  -2  -4  435.26   26.10
   3   2   4  445.96   26.20
   3   2   4  435.46   26.40
  -4  -2  -4  325.67   18.40
  -4  -2  -4  312.27   19.20
  -4  -2  -4  299.47   19.00
  -4  -2  -4  302.07   18.90
   4   2   4  329.17   19.70
   5   2   4  433.96   23.30
   5   2   4  402.96   23.40
   5   2   4  422.16   23.50
   5   2   4  420.86   23.50
   5   2   4  436.56   23.60
   6   2   4   38.80    2.60
   6   2   4   26.20    2.60
   6   2   4   32.10    2.40
   6   2   4   31.20    2.50
   6   2   4   32.00    2.60
   7   2   4   15.00    1.50
   7   2   4   14.90    1.40
   7   2   4   16.60    1.60
   7   2   4   15.60    1.50
 -10   3   4  137.39    7.70
   9  -3  -4    3.70    0.80
   9  -3  -4    4.50    3.00
   9  -3  -4    4.40    1.90
   9  -3  -4    4.40    2.50
   9  -3  -4    4.90    0.80
  -9   3   4    3.90    0.90
   8  -3  -4  108.59   10.60
   8  -3  -4  114.89   11.60
   8  -3  -4  105.89    6.70
   8  -3  -4  125.39    8.70
   8  -3  -4  109.79    6.70
  -8   3   4  101.59    6.80
   7  -3  -4   35.00    5.50
   7  -3  -4   31.80    2.40
   7  -3  -4   30.50    4.00
   7  -3  -4   28.40    2.50
   7  -3  -4   38.40    6.20
   6  -3  -4  566.04   38.10
   6  -3  -4  677.13   39.70
  -6   3   4  572.64   34.50
  -6   3   4  596.64   35.00
  -6   3   4  631.04   35.10
   5  -3  -4  484.85   30.30
   5  -3  -4  420.36   29.30
  -5   3   4  483.65   26.70
  -5   3   4  447.56   26.60
  -5   3   4  467.55   26.50
   4  -3  -4  134.69   11.30
   4  -3  -4  139.09   11.40
   4  -3  -4  134.49   12.10
  -4   3   4  139.79    9.10
  -4   3   4  139.69    9.10
  -4   3   4  158.38    9.10
   3  -3  -4  939.11   55.09
   3  -3  -4  942.31   56.49
   3  -3  -4  965.00   52.89
   3  -3  -4  932.91   54.59
  -3   3   4  986.00   52.79
  -3   3   4 1013.50   52.79
   2  -3  -4 2145.19  117.49
   2  -3  -4 2025.90  116.29
   2  -3  -4 2079.19  114.09
  -2   3   4 2072.39  113.49
  -2   3   4 2139.49  113.59
  -2   3   4 2173.68  113.69
   1  -3  -4   97.29    9.10
   1  -3  -4   86.79    7.70
  -1   3   4   90.79    6.20
  -1   3   4   91.79    6.20
  -1   3   4   92.09    6.20
   0  -3  -4  227.58   16.70
   0  -3  -4  222.48   14.50
   0   3   4  221.78   13.40
   0   3   4  226.78   13.40
   0   3   4  214.98   13.30
  -1  -3  -4  172.48   14.10
  -1  -3  -4  181.98   12.10
  -1  -3  -4  183.88   11.90
   1   3   4  174.08   11.10
   1   3   4  166.58   10.90
   1   3   4  167.08   10.80
   1   3   4  167.98   10.90
  -2  -3  -4  405.36   27.60
  -2  -3  -4  430.16   24.70
   2   3   4  370.66   23.60
   2   3   4  408.36   23.80
   2   3   4  418.46   23.70
  -3  -3  -4  294.87   17.80
  -3  -3  -4  288.47   17.20
  -3  -3  -4  291.27   18.10
  -3  -3  -4  293.57   17.80
   3   3   4  303.57   18.10
   3   3   4  286.57   18.20
   4   3   4  639.34   34.90
   4   3   4  646.54   36.20
   5   3   4  241.58   13.80
   5   3   4  250.57   14.00
   6   3   4   70.49    4.60
   6   3   4   71.89    4.50
   6   3   4   75.09    4.40
  10  -4  -4    7.40    2.40
 -10   4   4    8.20    0.80
 -10   4   4    7.10    0.90
   9  -4  -4  162.48   12.20
   9  -4  -4  128.49    9.00
   9  -4  -4  158.88   10.20
   9  -4  -4  152.08   12.70
   9  -4  -4  141.19    8.40
  -9   4   4  140.19    8.70
   8  -4  -4   13.50    1.50
   8  -4  -4   13.30    2.70
   8  -4  -4   15.50    4.10
   8  -4  -4   17.30    4.70
  -8   4   4   15.20    1.80
   7  -4  -4   81.49    5.10
   7  -4  -4   82.59    9.40
   7  -4  -4   80.29    8.80
   7  -4  -4   76.19    6.40
  -7   4   4   84.79    5.30
  -7   4   4   81.19    5.30
   6  -4  -4  209.38   16.30
   6  -4  -4  179.48   14.90
  -6   4   4  181.28   11.80
  -6   4   4  164.38   11.70
  -6   4   4  155.08   11.10
   5  -4  -4  447.86   30.90
   5  -4  -4  525.35   31.90
  -5   4   4  476.75   28.00
  -5   4   4  483.45   28.00
   4  -4  -4   56.39    8.10
   4  -4  -4   51.49    6.90
   4  -4  -4   52.69    7.10
  -4   4   4   41.30    4.40
  -4   4   4   47.40    4.50
  -4   4   4   53.49    5.20
   3  -4  -4   37.80    5.90
   3  -4  -4   43.70    4.50
   3  -4  -4   44.70    5.80
   3  -4  -4   41.60    6.90
  -3   4   4   36.90    3.70
  -3   4   4   43.50    4.00
  -3   4   4   45.70    4.20
   2  -4  -4   -1.50    2.10
   2  -4  -4    4.10    2.60
  -2   4   4    3.50    1.30
  -2   4   4    3.40    1.20
  -2   4   4    1.50    1.00
   1  -4  -4  430.46   28.40
   1  -4  -4  408.76   25.90
  -1   4   4  397.16   24.80
  -1   4   4  387.56   23.80
  -1   4   4  448.76   24.00
  -1   4   4  422.86   24.00
   0  -4  -4  571.64   35.70
   0  -4  -4  508.85   32.40
   0   4   4  548.45   30.90
   0   4   4  533.35   31.80
   0   4   4  534.35   30.60
   0   4   4  550.84   30.80
  -1  -4  -4  594.84   34.00
  -1  -4  -4  544.65   34.40
  -1  -4  -4  589.64   37.90
   1   4   4  573.74   32.80
   1   4   4  583.64   32.80
   1   4   4  562.84   32.60
  -2  -4  -4  669.03   38.50
   2   4   4  636.94   37.20
  10  -5  -4    1.30    1.40
 -10   5   4    1.40    0.50
 -10   5   4    1.60    0.50
   9  -5  -4  143.69   11.30
   9  -5  -4  147.69   12.40
   9  -5  -4  159.38   12.20
  -9   5   4  153.18    8.90
  -9   5   4  144.69    8.60
   8  -5  -4   17.50    4.60
   8  -5  -4   17.10    1.60
   8  -5  -4   13.70    3.80
  -8   5   4   19.20    2.10
  -8   5   4   13.10    1.70
   7  -5  -4   85.69    5.40
   7  -5  -4   98.19   10.30
   7  -5  -4   85.29    9.00
  -7   5   4   84.99    5.80
  -7   5   4   90.59    5.80
   6  -5  -4  256.57   17.10
   6  -5  -4  247.08   14.70
   6  -5  -4  299.47   18.70
   6  -5  -4  264.07   20.30
  -6   5   4  251.77   15.00
  -6   5   4  257.47   15.00
   5  -5  -4   11.90    3.80
   5  -5  -4   12.70    4.30
  -5   5   4   10.80    2.30
  -5   5   4   11.70    2.40
   4  -5  -4    5.90    3.70
   4  -5  -4    5.30    2.90
   4  -5  -4    3.30    3.10
  -4   5   4   10.50    2.00
  -4   5   4    5.20    1.50
  -4   5   4    6.10    1.90
   3  -5  -4 1250.97   76.39
   3  -5  -4 1358.86   75.79
   3  -5  -4 1311.37   71.79
  -3   5   4 1435.86   71.19
  -3   5   4 1167.08   71.29
  -3   5   4 1256.47   71.19
   2  -5  -4   39.50    7.60
   2  -5  -4   63.29    9.40
  -2   5   4   74.99    6.30
  -2   5   4   76.89    5.50
  -2   5   4   71.69    5.50
  -2   5   4   69.49    7.00
   1  -5  -4  377.46   27.20
   1  -5  -4  364.16   24.20
  -1   5   4  367.96   21.90
  -1   5   4  356.06   21.60
   0  -5  -4  145.99   12.10
   0  -5  -4  153.08   14.90
   0   5   4  144.29   10.20
   0   5   4  134.39   11.10
   0   5   4  143.09   10.00
  -1  -5  -4  487.75   30.70
  -1  -5  -4  516.55   35.80
   1   5   4  514.45   29.40
   1   5   4  488.05   29.50
   2   5   4 1494.05   76.09
   2   5   4 1391.86   75.69
   2   5   4 1313.87   79.49
   9  -6  -4    1.10    1.60
   9  -6  -4    1.70    1.80
  -9   6   4    0.70    0.50
  -9   6   4    0.30    0.60
  -9   6   4    1.10    0.80
   8  -6  -4   43.60    6.00
   8  -6  -4   41.90    6.30
  -8   6   4   52.19    3.60
  -8   6   4   43.10    3.10
  -8   6   4   40.30    3.30
   7  -6  -4  269.37   19.90
   7  -6  -4  273.97   21.10
  -7   6   4  286.37   16.00
  -7   6   4  274.47   15.90
   5  -6  -4  355.76   26.30
   5  -6  -4  417.26   28.60
  -5   6   4  340.97   23.60
  -5   6   4  410.86   21.50
   4  -6  -4    5.20    4.60
   4  -6  -4   18.00    6.30
  -4   6   4   10.20    2.30
  -4   6   4   13.30    2.60
   3  -6  -4   10.20    6.90
   3  -6  -4    3.90    3.60
  -3   6   4    6.20    1.90
  -3   6   4    1.20    1.40
   2  -6  -4  198.38   17.60
   2  -6  -4  129.99   15.10
  -2   6   4  191.18   12.50
  -2   6   4  178.48   12.10
  -2   6   4  214.28   14.20
   1  -6  -4  207.88   16.20
   1  -6  -4  188.68   18.30
  -1   6   4  187.58   14.40
  -1   6   4  178.38   12.90
  -1   6   4  196.98   13.00
   0  -6  -4 1017.10   65.69
   0  -6  -4 1070.99   61.79
   0   6   4 1075.19   58.19
   0   6   4  971.70   58.39
   1   6   4  261.67   19.20
   1   6   4  259.67   15.40
   1   6   4  280.77   18.60
   1   6   4  261.87   15.10
   1   6   4  253.67   14.80
   1   6   4  242.28   19.40
   2   6   4  184.58   11.00
   2   6   4  180.68   10.60
   2   6   4  188.18   14.90
   2   6   4  147.59   15.60
   9  -7  -4   40.10    5.10
   9  -7  -4   45.50    5.10
  -9   7   4   37.80    2.90
  -9   7   4   40.10    3.00
   8  -7  -4   26.90    5.40
   8  -7  -4   24.30    4.70
  -8   7   4   31.10    2.80
  -8   7   4   27.50    2.60
   7  -7  -4  115.79   11.60
   7  -7  -4  104.79   10.30
  -7   7   4  107.49    7.00
  -7   7   4  110.29    7.10
   6  -7  -4  100.79   11.00
   6  -7  -4   97.39    8.20
  -6   7   4  100.59    6.30
  -6   7   4   88.99    6.50
  -6   7   4  100.89    6.40
   5  -7  -4   79.49    5.00
  -4   7   4  240.68   14.70
  -4   7   4  237.88   14.60
  -4   7   4  235.08   14.60
  -4   7   4  288.37   16.00
   3  -7  -4  305.77   18.20
   3  -7  -4  299.17   24.20
  -3   7   4  283.07   18.60
  -3   7   4  223.38   19.60
  -3   7   4  275.37   14.80
  -3   7   4  192.68   20.90
  -3   7   4  293.07   17.90
  -3   7   4  249.68   15.40
   2  -7  -4   77.09   15.50
  -2   7   4  117.99    8.10
  -2   7   4  124.79    8.40
  -2   7   4  137.79   12.00
  -2   7   4  126.89   26.50
  -2   7   4  137.39    8.20
  -2   7   4  135.89   14.00
  -2   7   4  134.39    8.00
  -2   7   4   96.69   17.30
  -2   7   4  143.69    9.90
  -1   7   4    6.00    1.50
  -1   7   4    6.00    3.00
  -1   7   4    6.60    1.30
  -1   7   4    5.10    1.30
  -1   7   4    9.20    4.20
  -1   7   4  -17.40   12.10
  -1   7   4    5.90    1.60
  -1   7   4    4.80    7.30
   0   7   4  120.79    7.90
   0   7   4  122.99   13.20
   0   7   4  110.29    7.40
   0   7   4  106.19   11.80
   0   7   4  111.59    7.20
   0   7   4  114.99   11.40
   1   7   4  139.99   13.60
   1   7   4  131.89    8.50
   1   7   4   94.39   12.50
   1   7   4  134.69    8.10
   1   7   4  123.59    7.80
   1   7   4  128.59   12.20
   2   7   4   17.60    2.00
   2   7   4   16.00    2.30
   2   7   4   20.60    5.00
   2   7   4   23.60    6.60
   9  -8  -4   34.60    4.30
   9  -8  -4   37.40    4.20
  -9   8   4   33.30    2.50
  -9   8   4   30.20    2.50
   8  -8  -4  104.19    9.20
   8  -8  -4  107.99   10.10
  -8   8   4  109.19    6.70
  -8   8   4  106.39    6.60
   7  -8  -4   18.20    4.90
   7  -8  -4   18.80    4.30
   7  -8  -4   20.60    3.40
  -7   8   4   20.30    2.10
  -7   8   4   21.10    2.30
  -7   8   4   20.00    2.20
   6  -8  -4  103.19   11.20
   6  -8  -4  122.09    9.60
   6  -8  -4   85.09    8.00
  -6   8   4   96.19    6.40
  -6   8   4   88.39    6.30
  -6   8   4   97.59    6.60
  -4   8   4   24.60    6.70
  -4   8   4   34.60    3.30
  -4   8   4   28.20    2.80
  -4   8   4   33.20    3.10
  -3   8   4  137.19    8.40
  -3   8   4  128.89    7.80
  -3   8   4   81.39   15.10
  -3   8   4  108.49   11.60
  -3   8   4  122.09    7.80
  -3   8   4  143.19    8.20
  -3   8   4  130.29   12.10
  -2   8   4   57.89    4.90
  -2   8   4   49.00   15.60
  -2   8   4   60.99    4.40
  -2   8   4   64.09   11.60
  -2   8   4   60.69    4.30
  -2   8   4   37.40   16.00
  -2   8   4   61.59    8.00
  -2   8   4   65.59    4.80
  -1   8   4  727.23   42.50
  -1   8   4  600.44   44.10
  -1   8   4  653.83   36.40
  -1   8   4  580.14   44.80
  -1   8   4  528.65   48.50
  -1   8   4  707.23   36.10
  -1   8   4  726.93   37.00
   0   8   4  284.57   16.20
   0   8   4  267.27   21.30
   0   8   4  241.78   24.90
   0   8   4  263.27   16.80
   0   8   4  345.47   25.10
   0   8   4  295.07   16.60
   1   8   4   74.89   15.30
   1   8   4  115.39    7.80
   1   8   4  118.49   11.70
   1   8   4  146.09   15.10
   2   8   4    6.80    7.10
   2   8   4    4.30    1.10
   2   8   4    7.60    3.00
   8  -9  -4   76.29    7.60
   8  -9  -4   77.69    7.00
  -8   9   4   79.49    5.00
  -8   9   4   85.79    5.20
   7  -9  -4   80.29    7.70
   7  -9  -4   91.49    9.30
   7  -9  -4   77.99    6.40
  -7   9   4   82.59    5.50
  -7   9   4   74.39    5.20
   6  -9  -4   61.09    8.10
   6  -9  -4   59.39    5.80
  -6   9   4   52.79    4.20
  -6   9   4   57.99    4.30
  -4   9   4  179.58   11.50
  -4   9   4  174.98   11.70
  -4   9   4  214.58   12.10
  -4   9   4  190.68   11.70
  -3   9   4  119.19    7.70
  -3   9   4  119.29    7.10
  -3   9   4   89.09   10.60
  -3   9   4  112.79    7.20
  -3   9   4  105.69    7.30
  -2   9   4  176.68   10.20
  -2   9   4   94.19   18.90
  -2   9   4  108.89   17.80
  -2   9   4  152.58    9.30
  -2   9   4  149.49   13.90
  -2   9   4  175.08    9.80
  -1   9   4    1.00    2.30
  -1   9   4    0.90    0.80
  -1   9   4    8.00   14.90
  -1   9   4    0.00    1.00
  -1   9   4   19.60   15.40
  -1   9   4    2.10    5.90
  -1   9   4    0.60    0.90
   0   9   4  130.69    8.30
   0   9   4  130.69    8.00
   0   9   4  130.89    8.70
   0   9   4  145.59   21.20
   0   9   4  131.09   12.60
   0   9   4  150.88   17.20
   1   9   4   52.49   14.30
   1   9   4   64.99    4.70
   1   9   4   70.39    4.50
   1   9   4   78.29   12.10
   2   9   4   71.99    7.80
   8 -10  -4  129.29    9.80
  -8  10   4  130.89    7.60
   7 -10  -4   18.00    3.90
  -7  10   4   16.70    1.70
  -7  10   4   17.20    1.90
   6 -10  -4   72.29    6.00
   6 -10  -4   71.29    8.10
  -6  10   4   70.49    4.80
  -6  10   4   68.59    4.80
   5 -10  -4   54.49    7.20
  -5  10   4   44.90    4.00
  -5  10   4   58.59    3.90
  -5  10   4   49.80    3.80
   4 -10  -4   82.39    9.00
  -4  10   4   79.19    5.40
  -4  10   4   81.09    5.30
  -4  10   4   77.99    5.40
  -4  10   4   70.19    5.30
  -3  10   4    0.30    0.80
  -3  10   4    0.60    2.30
  -3  10   4    0.00    4.50
  -3  10   4    1.00    1.00
  -3  10   4   -4.90    4.60
  -3  10   4    1.40    0.80
  -2  10   4   17.70    2.20
  -2  10   4   19.20    2.40
  -2  10   4  -10.90    9.30
  -2  10   4   14.50    8.30
  -2  10   4   20.50    2.10
  -2  10   4   17.70    4.60
  -1  10   4  156.78    9.00
  -1  10   4  131.09    8.50
  -1  10   4  137.19   12.70
  -1  10   4  150.18    8.30
  -1  10   4  107.49   16.90
   0  10   4  212.08   13.20
   0  10   4  236.58   13.00
   0  10   4  241.08   16.90
   1  10   4   62.99    6.50
   6 -11  -4   -0.30    1.20
   6 -11  -4    0.80    0.90
  -6  11   4    0.40    0.60
  -6  11   4    0.50    0.60
   5 -11  -4   65.49    6.70
   5 -11  -4   53.49    4.80
  -5  11   4   56.79    3.90
  -5  11   4   63.09    4.10
  -5  11   4   54.39    3.90
   4 -11  -4   25.40    4.20
  -4  11   4   21.70    2.20
  -4  11   4   25.10    2.30
   3 -11  -4   88.79    7.80
  -3  11   4   79.89    5.00
  -3  11   4   84.49    5.30
  -3  11   4   65.49    7.50
  -3  11   4   80.19    5.30
  -2  11   4    2.30    2.00
  -2  11   4    0.30    3.50
  -2  11   4    2.50    0.70
  -2  11   4    2.80    0.90
  -1  11   4    1.10    0.70
  -1  11   4   -0.80    3.10
  -1  11   4    0.20    1.60
  -1  11   4   -5.80    2.10
  -1  11   4    0.20    0.50
  -2  12  -5   39.70    3.10
   2 -12   5   44.40    4.50
  -3  12  -5   17.10    1.70
  -3  12  -5   15.00    1.70
   3 -12   5   15.70    3.00
   3 -12   5   15.60    2.80
  -4  12  -5    6.50    1.00
   4 -12   5    4.30    1.70
   0  11  -5   89.19    5.70
   0  11  -5  105.59    8.50
   0  11  -5   57.39    9.40
   0  11  -5   93.09    8.40
   0  11  -5   66.99   13.40
  -1  11  -5   91.69    8.90
  -1  11  -5   95.39    5.80
  -1  11  -5   49.10   15.90
  -1  11  -5   93.59    8.80
  -1  11  -5   97.99    6.30
   1 -11   5   97.39    6.60
  -2  11  -5   10.80    2.00
  -2  11  -5   19.60   11.50
  -2  11  -5   12.20    3.40
  -2  11  -5   16.40    1.90
   2 -11   5   13.60    2.30
  -3  11  -5   53.49    4.40
  -3  11  -5   56.89    4.00
   3 -11   5   50.59    6.80
   3 -11   5   54.59    4.70
  -4  11  -5    1.10    1.00
  -4  11  -5    0.90    0.70
  -4  11  -5    2.10    1.00
   4 -11   5    1.70    1.20
   4 -11   5    0.90    1.50
   4 -11   5   -0.20    1.60
  -5  11  -5   25.80    2.30
  -5  11  -5   32.30    2.70
   5 -11   5   28.10    3.00
   5 -11   5   26.90    4.20
  -6  11  -5   36.10    2.60
  -6  11  -5   35.20    2.60
   6 -11   5   32.90    4.20
   6 -11   5   36.20    3.10
   2  10  -5   48.70    7.70
   2  10  -5   35.60    4.30
   2  10  -5   19.10    6.60
   2  10  -5   30.80    4.40
   2  10  -5   45.00    4.80
   1  10  -5   88.49    6.50
   1  10  -5   76.79   12.40
   1  10  -5   96.39    9.80
   1  10  -5  115.99    9.30
   1  10  -5  121.79   12.30
   1  10  -5  108.89    9.90
   0  10  -5    0.90    1.00
   0  10  -5   -0.80    1.90
   0  10  -5    5.50    7.60
   0  10  -5    3.30    5.50
   0  10  -5   -0.40    1.80
   0  10  -5   -0.30    1.80
  -1  10  -5  138.69   19.00
  -1  10  -5  186.48   21.30
  -1  10  -5  145.89   14.50
  -1  10  -5  120.19   12.20
  -1  10  -5  155.78   13.20
  -1  10  -5  144.69    9.90
  -1  10  -5  161.18    9.30
   1 -10   5  162.28   10.50
  -2  10  -5  263.97   15.20
  -2  10  -5  237.88   15.70
  -2  10  -5  267.27   20.70
  -2  10  -5  277.87   27.30
   2 -10   5  256.07   16.30
  -3  10  -5  123.59    8.20
  -3  10  -5  112.09    7.70
   3 -10   5  120.89    9.00
  -4  10  -5  119.99    7.60
  -4  10  -5  119.49    7.90
  -4  10  -5  133.09    8.30
   4 -10   5  130.59    9.20
   4 -10   5  115.09   11.40
  -5  10  -5  152.78    9.10
  -5  10  -5  157.18    9.30
   5 -10   5  145.29   10.40
   5 -10   5  147.59   12.70
  -6  10  -5   10.00    1.50
  -6  10  -5   11.70    1.50
   6 -10   5    9.40    2.90
   6 -10   5   13.10    2.40
  -7  10  -5  176.48   10.30
   7 -10   5  191.08   11.20
   7 -10   5  168.78   12.40
   3   9  -5   23.50    4.40
   3   9  -5   20.70    2.90
   3   9  -5   32.30    6.40
   3   9  -5   18.70    3.30
   3   9  -5   19.30    3.80
   3   9  -5   25.60    3.80
   2   9  -5  249.48   21.00
   2   9  -5  219.58   17.30
   2   9  -5  199.68   16.80
   2   9  -5  240.28   16.00
   2   9  -5  179.88   17.10
   1   9  -5  156.08   11.90
   1   9  -5  170.28   13.30
   1   9  -5  166.08   15.10
   1   9  -5  191.98   17.90
   1   9  -5  151.38   10.40
   1   9  -5  174.78   16.00
   1   9  -5  159.18   15.90
   0   9  -5   23.20    6.60
   0   9  -5   28.00    7.00
   0   9  -5   22.50    5.90
   0   9  -5   23.60    4.40
   0   9  -5   22.50    6.50
   0   9  -5   21.00    4.10
   0   9  -5   29.50    3.30
  -1   9  -5  405.46   29.20
  -1   9  -5  403.96   25.00
  -1   9  -5  337.77   24.60
  -1   9  -5  344.57   28.80
  -1   9  -5  441.86   28.40
  -1   9  -5  341.47   22.20
  -1   9  -5  370.36   21.50
  -1   9  -5  385.56   30.80
  -2   9  -5   -2.80    8.70
  -2   9  -5  -11.30    8.30
  -2   9  -5    6.70    4.10
  -2   9  -5    4.50    1.20
  -2   9  -5    4.80    1.60
   2  -9   5    4.00    1.90
  -3   9  -5   37.80    3.10
  -3   9  -5   30.90    7.90
  -3   9  -5   32.20    3.60
  -3   9  -5   37.00    3.40
   3  -9   5   30.10    4.20
  -4   9  -5   45.90    3.60
  -4   9  -5   49.60    4.20
  -4   9  -5   48.40    4.00
   4  -9   5   47.70    5.00
   4  -9   5   38.50    7.00
  -5   9  -5   97.19    6.20
  -5   9  -5  100.39    6.40
   5  -9   5   96.19   10.00
   5  -9   5   87.69    7.60
  -6   9  -5   77.69    4.70
  -6   9  -5   61.69    4.50
   6  -9   5   64.69    5.90
   6  -9   5   58.89    7.40
  -7   9  -5   14.20    1.50
  -7   9  -5   10.10    1.40
   7  -9   5    7.60    2.50
   7  -9   5    9.50    2.10
  -8   9  -5   23.00    1.80
  -8   9  -5   22.90    1.70
   8  -9   5   28.00    2.60
   8  -9   5   17.20    2.70
   4   8  -5   24.60    4.70
   4   8  -5   32.20    3.40
   4   8  -5   24.50    4.40
   4   8  -5   29.20    4.10
   4   8  -5   20.60    6.10
   3   8  -5   92.79   10.40
   3   8  -5   86.49   15.60
   3   8  -5   85.79    9.90
   3   8  -5  102.59    9.10
   3   8  -5   71.99    8.70
   3   8  -5   88.39    7.30
   2   8  -5  120.39   13.90
   2   8  -5  107.39    8.60
   2   8  -5  111.69    9.20
   2   8  -5   90.79   19.00
   2   8  -5  121.79   13.20
   2   8  -5  125.29   12.60
   2   8  -5  125.39   11.30
   1   8  -5   19.90    6.20
   1   8  -5   12.80    6.60
   1   8  -5   11.30    3.00
   1   8  -5   14.60    2.30
   1   8  -5   16.60    6.10
   1   8  -5   19.70    5.30
   1   8  -5   17.40    4.40
   0   8  -5   32.70    3.50
   0   8  -5   22.10    3.90
   0   8  -5   34.00    8.00
   0   8  -5   33.80    8.40
   0   8  -5   36.30    5.80
   0   8  -5   34.20    6.80
   0   8  -5   35.40    7.90
   0   8  -5   38.50    3.20
  -1   8  -5  119.89   12.80
  -1   8  -5   98.99   12.20
  -1   8  -5  110.99   12.30
  -1   8  -5  106.29   12.30
  -1   8  -5   93.39    6.60
  -1   8  -5   97.29    7.30
  -1   8  -5  112.59    9.30
  -1   8  -5   96.49    9.00
  -2   8  -5   49.30   11.60
  -2   8  -5   40.80    4.00
  -2   8  -5   45.40    3.40
  -2   8  -5   43.30    8.30
  -2   8  -5   25.30    8.20
  -3   8  -5   14.10    1.70
  -3   8  -5   13.80    2.00
  -3   8  -5    1.10    6.10
  -3   8  -5   13.20    2.20
   3  -8   5   12.10    2.70
  -4   8  -5   31.50    2.70
  -4   8  -5   26.10    2.80
   4  -8   5   22.40    5.60
   4  -8   5   21.60    3.70
  -5   8  -5    1.40    1.00
  -5   8  -5   -0.70    0.70
   5  -8   5    0.80    1.40
   5  -8   5   -1.00    1.70
  -6   8  -5   36.20    3.10
  -6   8  -5   30.20    2.80
  -6   8  -5   33.20    3.00
   6  -8   5   31.40    5.90
   6  -8   5   29.30    4.20
  -7   8  -5    0.70    0.70
  -7   8  -5    0.50    0.80
   7  -8   5    1.30    1.40
   7  -8   5    0.80    1.60
  -8   8  -5  111.69    6.70
  -8   8  -5  116.09    6.70
   8  -8   5  107.59    8.70
   8  -8   5  115.99    7.80
   5   7  -5   29.40    4.20
   5   7  -5   35.80    3.60
   5   7  -5   33.40    4.90
   5   7  -5   29.30    2.10
   5   7  -5   26.60    7.30
   4   7  -5    8.30    2.60
   4   7  -5    5.60    3.30
   4   7  -5    5.70    3.20
   4   7  -5    9.20    1.20
   4   7  -5    6.30    2.90
   4   7  -5   11.60    6.70
   3   7  -5  254.27   18.40
   3   7  -5  265.77   23.20
   3   7  -5  244.98   28.20
   3   7  -5  255.17   21.70
   3   7  -5  300.07   20.70
   3   7  -5  313.87   22.60
   2   7  -5   67.29    9.20
   2   7  -5   72.19    9.90
   2   7  -5   59.09    6.70
   2   7  -5   64.89   16.10
   2   7  -5   71.89    8.50
   2   7  -5   63.19    4.30
   2   7  -5   65.29   11.80
   1   7  -5    0.40    2.90
   1   7  -5    1.50    1.10
   1   7  -5   -0.60    2.00
   1   7  -5    0.90    0.80
   1   7  -5    1.60    2.00
   1   7  -5    2.10    2.30
   1   7  -5    0.70    1.50
   1   7  -5    3.20    4.50
   0   7  -5 1269.37   70.79
   0   7  -5 1085.09   75.09
   0   7  -5 1201.98   72.19
   0   7  -5 1286.77   74.19
   0   7  -5 1333.47   82.49
   0   7  -5 1424.56   80.29
   0   7  -5 1232.28   77.49
   0  -7   5 1518.55   75.69
   0  -7   5 1536.75   81.49
  -1   7  -5   37.70   10.60
  -1   7  -5   43.00    6.50
  -1   7  -5   33.90    4.30
   1  -7   5   38.70    6.80
   1  -7   5   36.00    7.10
   1  -7   5   37.10    4.70
  -2   7  -5  404.96   27.50
  -2   7  -5  401.06   25.20
   2  -7   5  425.76   30.50
   2  -7   5  435.26   28.80
   2  -7   5  462.85   26.30
  -3   7  -5   62.39    5.90
  -3   7  -5   49.10    5.60
  -3   7  -5   66.29    7.80
   3  -7   5   51.09    8.00
   3  -7   5   75.09    7.20
   3  -7   5   48.80    9.10
  -4   7  -5    1.90    0.90
  -4   7  -5    3.00    1.00
   4  -7   5    4.40    2.80
   4  -7   5    1.70    1.10
   4  -7   5    4.00    1.80
  -5   7  -5   91.59    5.80
  -5   7  -5   94.69    5.70
  -5   7  -5   88.69    5.90
   5  -7   5   85.39    5.70
   5  -7   5   88.39    9.60
   5  -7   5   83.19    7.40
  -6   7  -5   50.89    3.60
  -6   7  -5   48.60    3.70
  -6   7  -5   52.99    3.70
   6  -7   5   44.50    6.70
   6  -7   5   54.59    5.40
   6  -7   5   47.70    3.60
  -7   7  -5    0.70    0.70
  -7   7  -5    0.20    0.70
   7  -7   5    0.10    1.50
   7  -7   5   -0.10    0.70
   7  -7   5    0.40    1.20
  -8   7  -5   60.29    3.90
  -8   7  -5   57.89    3.80
   8  -7   5   63.09    3.70
   8  -7   5   59.29    5.00
   8  -7   5   49.30    5.60
  -9   7  -5   87.49    5.10
   6   6  -5   59.29    3.40
   6   6  -5   59.79    6.40
   6   6  -5   55.99    5.00
   6   6  -5   42.00    8.80
   6   6  -5   49.40    4.80
   5   6  -5   -1.00    1.60
   5   6  -5    0.60    4.40
   5   6  -5    0.10    1.60
   5   6  -5    1.10    2.20
   5   6  -5    0.80    0.50
   5   6  -5    0.80    1.50
   4   6  -5   13.70    1.60
   4   6  -5   13.80    3.80
   4   6  -5    9.90    8.20
   4   6  -5   16.00    5.40
   4   6  -5   11.80    4.20
   4   6  -5   13.40    5.10
   3   6  -5  201.38   18.50
   3   6  -5  213.98   15.50
   3   6  -5  222.48   11.90
   3   6  -5  202.18   20.10
   3   6  -5  229.38   18.30
   3   6  -5  184.58   17.00
   3   6  -5  126.19   27.00
   2   6  -5   47.90   13.90
   2   6  -5   55.49    3.70
   2   6  -5   50.89    6.80
   2   6  -5   63.99    8.60
   2   6  -5   41.40    8.10
   2   6  -5   57.49   11.20
   2   6  -5   56.19    8.60
   1   6  -5  103.69   21.00
   1   6  -5  100.69   10.60
  -1  -6   5  134.09    9.20
  -1  -6   5  131.29   11.40
  -1  -6   5  119.49   11.80
   0   6  -5  231.38   17.90
   0   6  -5  297.97   16.60
   0   6  -5  235.88   27.50
   0  -6   5  284.47   19.50
   0  -6   5  273.77   20.30
   0  -6   5  282.67   17.20
  -1   6  -5  668.83   38.90
  -1   6  -5  604.04   49.20
  -1   6  -5  643.34   40.60
   1  -6   5  761.62   42.30
   1  -6   5  716.13   43.70
   1  -6   5  732.63   39.70
  -2   6  -5  410.26   26.10
  -2   6  -5  393.96   24.40
   2  -6   5  444.46   27.30
   2  -6   5  448.66   25.60
   2  -6   5  405.36   28.90
  -3   6  -5  618.04   37.10
  -3   6  -5  599.04   35.90
   3  -6   5  625.64   41.20
   3  -6   5  681.83   37.10
  -4   6  -5  534.95   30.50
  -4   6  -5  512.05   30.70
   4  -6   5  569.64   31.90
   4  -6   5  492.05   36.30
  -5   6  -5  142.29    8.30
  -5   6  -5  128.09    8.30
   5  -6   5  139.09   12.50
   5  -6   5  130.89   10.10
   5  -6   5  136.79    8.40
   5  -6   5  147.59    8.30
  -6   6  -5   60.69    4.20
   6  -6   5   58.69    5.90
   6  -6   5   65.19    4.30
   6  -6   5   60.49    7.70
   6  -6   5   62.79    4.30
  -7   6  -5   81.49    5.20
   7  -6   5   87.09    5.20
   7  -6   5   84.69    7.10
   7  -6   5   90.69    5.40
   7  -6   5   67.79    7.90
  -8   6  -5   14.60    1.50
  -8   6  -5   14.10    1.60
   8  -6   5   15.50    2.60
   8  -6   5   15.30    1.60
   8  -6   5   14.90    1.50
  -9   6  -5    4.50    0.70
  -9   6  -5    3.80    0.70
   9  -6   5    3.40    1.00
   9  -6   5    4.00    0.60
   7   5  -5    5.10    1.60
   7   5  -5    4.80    2.00
   7   5  -5    5.30    3.40
   7   5  -5    5.00    0.60
   6   5  -5   27.20    9.30
   6   5  -5   44.30    5.80
   6   5  -5   41.50    3.00
   6   5  -5   41.50    5.80
   6   5  -5   49.80    7.20
   6   5  -5   46.50    3.10
   5   5  -5  242.28   20.60
   5   5  -5  275.27   14.70
   5   5  -5  256.97   18.80
   5   5  -5  263.37   14.80
   5   5  -5  272.57   20.10
   5   5  -5  213.88   27.00
   4   5  -5  265.17   23.30
   4   5  -5  227.58   23.00
   4   5  -5  271.27   19.60
   4   5  -5  283.17   15.40
   4   5  -5  266.47   20.90
   4   5  -5  281.07   15.30
   3   5  -5  182.08   17.70
   3   5  -5  185.88   16.50
   3   5  -5  172.18   17.60
   3   5  -5  197.38   11.10
   3   5  -5  202.38   15.00
   2   5  -5   15.70    8.20
   2   5  -5   26.20    5.90
   2   5  -5   26.90    4.70
  -2  -5   5   35.40    4.20
  -2  -5   5   37.10    6.50
   1   5  -5  676.13   45.40
   1   5  -5  890.21   49.10
  -1  -5   5  815.52   45.00
  -1  -5   5  818.32   48.40
   0   5  -5   13.90    7.00
   0   5  -5   15.40    3.00
   0   5  -5   18.70    2.40
   0  -5   5   15.20    3.50
   0  -5   5   16.20    3.90
   0  -5   5   19.70    2.80
  -1   5  -5  615.74   35.70
  -1   5  -5  619.24   34.20
  -1   5  -5  530.25   43.00
   1  -5   5  642.44   35.10
   1  -5   5  628.44   36.50
   1  -5   5  608.44   37.90
  -2   5  -5   98.79    7.70
  -2   5  -5   86.79    6.60
   2  -5   5   91.49    9.60
   2  -5   5   99.09    8.50
   2  -5   5   95.09    7.40
  -3   5  -5  186.78   12.80
  -3   5  -5  212.58   13.70
  -3   5  -5  218.88   12.80
   3  -5   5  217.28   14.00
   3  -5   5  191.78   16.90
  -4   5  -5  875.61   48.20
  -4   5  -5  832.42   48.20
   4  -5   5  916.21   49.60
   4  -5   5  821.62   53.79
  -5   5  -5    8.00    2.00
  -5   5  -5    4.70    2.60
   5  -5   5    5.40    2.00
   5  -5   5    6.60    1.30
   5  -5   5   10.70    3.80
   5  -5   5    5.80    3.80
   5  -5   5    6.80    1.20
  -6   5  -5  324.47   17.90
   6  -5   5  322.17   18.10
   6  -5   5  320.57   18.00
   6  -5   5  294.17   17.90
   6  -5   5  322.07   20.20
   6  -5   5  333.97   18.00
  -7   5  -5  350.46   19.50
   7  -5   5  338.57   19.60
   7  -5   5  354.46   19.60
   7  -5   5  367.06   19.70
   7  -5   5  336.47   19.60
   7  -5   5  351.46   21.60
  -8   5  -5  152.88    9.00
  -8   5  -5  143.49    8.80
   8  -5   5  150.48   10.50
   8  -5   5  162.68    9.00
   8  -5   5  150.68    8.80
   8  -5   5  162.48    9.00
  -9   5  -5   29.40    2.00
   9  -5   5   29.80    1.90
   9  -5   5   24.00    2.70
   7   4  -5   91.49    5.40
   7   4  -5   81.09    7.60
   7   4  -5  103.99   10.00
   7   4  -5   89.49    5.40
   7   4  -5   70.09   12.00
   6   4  -5    9.90    3.70
   6   4  -5    4.50    5.80
   6   4  -5    7.90    1.30
   6   4  -5    7.10    4.40
   6   4  -5   12.40    3.80
   6   4  -5   10.30    1.40
   5   4  -5   15.50    1.90
   5   4  -5   14.00    1.70
   5   4  -5   14.70    5.10
   5   4  -5   13.70    4.20
   5   4  -5    5.80    6.50
   5   4  -5   17.50    6.70
   4   4  -5  556.74   34.90
   4   4  -5  531.85   39.60
   4   4  -5  510.25   36.40
   4   4  -5  563.94   31.10
   4   4  -5  647.54   39.30
   4   4  -5  571.14   31.00
   3   4  -5  116.09   12.30
   3   4  -5   76.49   15.80
  -3  -4   5  124.89   11.10
  -3  -4   5  117.39    8.50
  -3  -4   5  111.79    7.70
   2   4  -5  336.17   23.30
   2   4  -5  284.27   27.60
   2   4  -5  322.77   19.80
  -2  -4   5  335.67   19.50
  -2  -4   5  340.47   22.20
  -2  -4   5  300.07   18.60
   1   4  -5  131.29    7.70
   1   4  -5  102.49    8.30
   1   4  -5  119.99   14.10
   1   4  -5  124.29   10.50
  -1  -4   5  105.89    7.40
  -1  -4   5  119.59   10.20
  -1  -4   5  114.49    8.00
   0   4  -5   89.09    7.90
   0   4  -5   87.69    6.80
   0   4  -5   91.29    5.70
   0   4  -5   68.89   10.90
   0  -4   5   86.29    6.30
   0  -4   5   86.39    8.00
  -1   4  -5    2.70    3.50
  -1   4  -5    4.20    1.20
  -1   4  -5    3.20    1.50
   1  -4   5    3.00    1.20
   1  -4   5    3.90    1.40
   1  -4   5    3.10    2.00
   1  -4   5    3.00    1.80
  -2   4  -5  320.27   18.70
  -2   4  -5  312.17   19.30
  -2   4  -5  317.97   18.30
   2  -4   5  338.07   19.50
   2  -4   5  327.17   18.80
   2  -4   5  309.57   21.70
  -3   4  -5  113.09    8.50
  -3   4  -5  139.99    9.20
  -3   4  -5  138.99    8.70
   3  -4   5  127.89    9.10
   3  -4   5  142.39    9.90
   3  -4   5  131.89   12.00
  -4   4  -5  291.47   17.50
  -4   4  -5  293.17   17.30
  -4   4  -5  281.37   17.40
   4  -4   5  300.67   18.80
   4  -4   5  277.77   21.50
   4  -4   5  291.37   18.00
  -5   4  -5  221.18   14.20
  -5   4  -5  204.68   14.10
  -5   4  -5  211.38   14.40
   5  -4   5  248.78   16.00
   5  -4   5  226.28   19.20
   5  -4   5  258.17   15.40
   6  -4   5    5.10    1.00
   6  -4   5    4.30    1.10
   6  -4   5    4.20    1.20
   6  -4   5    4.60    1.00
   6  -4   5    5.20    2.00
   6  -4   5    5.00    1.00
   6  -4   5    4.90    1.00
   6  -4   5    5.10    0.90
  -7   4  -5   50.79    3.40
   7  -4   5   53.99    3.40
   7  -4   5   47.80    3.60
   7  -4   5   51.19    3.50
   7  -4   5   50.49    3.70
   7  -4   5   50.39    3.60
   7  -4   5   47.50    5.00
   7  -4   5   47.90    3.60
   8  -4   5   64.39    4.10
   8  -4   5   65.79    5.60
   8  -4   5   66.29    4.40
   8  -4   5   75.89    4.40
   8  -4   5   65.19    4.30
   8  -4   5   66.59    4.20
   8  -4   5   69.49    4.40
  -9   4  -5   10.00    0.90
   9  -4   5    7.40    0.90
   9  -4   5    8.60    0.80
   9  -4   5    7.90    0.90
   9  -4   5    5.90    1.40
   9  -4   5    8.00    0.90
   8   3  -5    0.40    1.20
   8   3  -5   -0.20    1.50
   8   3  -5    0.80    0.50
   8   3  -5   -0.30    0.40
   8   3  -5    0.80    0.40
   8   3  -5    2.00    3.10
   7   3  -5    8.00    6.50
   7   3  -5   27.80    2.00
   7   3  -5   21.20    2.00
   7   3  -5   22.20    4.80
   7   3  -5   23.20    6.80
   7   3  -5   21.40    2.10
   6   3  -5  345.57   25.30
   6   3  -5  379.76   19.80
   6   3  -5  391.86   29.90
   6   3  -5  283.37   31.50
   6   3  -5  314.87   23.50
   6   3  -5  376.46   20.00
   6   3  -5  358.26   20.10
   5   3  -5    6.90    3.10
   5   3  -5    7.80    3.60
   5   3  -5    7.50    1.20
   5   3  -5    3.10    5.10
   5   3  -5    6.30    1.40
   5   3  -5    7.80    1.20
   5   3  -5    5.50    4.60
   4   3  -5  311.57   29.20
   4   3  -5  337.57   24.30
   4   3  -5  281.37   23.40
  -4  -3   5  307.57   18.80
  -4  -3   5  325.27   19.60
   3   3  -5   66.49    8.90
   3   3  -5   77.19    9.70
   3   3  -5   56.19   10.40
  -3  -3   5   62.69    5.00
  -3  -3   5   67.99    5.60
   2   3  -5    9.80    2.00
   2   3  -5    6.80    3.00
   2   3  -5   14.40    4.60
  -2  -3   5    8.60    1.80
  -2  -3   5   10.00    2.80
  -2  -3   5    8.80    1.50
   1   3  -5 1090.79   61.59
   1   3  -5 1046.50   59.59
   1   3  -5 1124.99   63.99
  -1  -3   5 1053.49   58.99
  -1  -3   5 1123.49   59.49
  -1  -3   5 1059.49   61.29
   0   3  -5   10.60    1.40
   0   3  -5    9.50    2.00
   0   3  -5    8.30    2.90
   0   3  -5    8.40    2.30
   0  -3   5    9.90    1.80
   0  -3   5   10.50    1.60
   0  -3   5    9.00    2.40
  -1   3  -5  106.69    9.20
  -1   3  -5  100.79    6.60
  -1   3  -5  105.59    7.40
  -1   3  -5  105.59    6.40
   1  -3   5  109.89    8.70
   1  -3   5   98.69    6.90
   1  -3   5  101.29    7.20
  -2   3  -5   63.99    5.00
  -2   3  -5   56.89    4.30
  -2   3  -5   59.29    4.50
   2  -3   5   55.39    4.70
   2  -3   5   60.59    5.20
   2  -3   5   60.19    6.50
   2  -3   5   60.39    4.30
  -3   3  -5   12.10    2.10
  -3   3  -5    9.20    1.70
  -3   3  -5   11.50    2.00
  -3   3  -5   12.80    2.10
   3  -3   5    8.60    3.60
   3  -3   5   13.10    2.50
   3  -3   5   13.40    2.80
  -4   3  -5  563.04   34.70
  -4   3  -5  634.34   34.90
  -4   3  -5  621.64   34.70
   4  -3   5  638.54   36.30
   4  -3   5  653.13   35.60
   4  -3   5  584.64   38.60
  -5   3  -5  352.86   19.90
  -5   3  -5  320.67   20.00
  -5   3  -5  316.47   20.10
   5  -3   5  342.67   21.60
   5  -3   5  310.57   24.10
   5  -3   5  360.16   21.20
   6  -3   5  310.37   17.90
   6  -3   5  315.07   18.30
   6  -3   5  325.97   18.10
   6  -3   5  317.27   18.30
   6  -3   5  309.47   17.90
   6  -3   5  320.57   18.10
   6  -3   5  360.46   20.50
   6  -3   5  328.97   18.10
   7  -3   5  203.98   11.10
   7  -3   5  202.48   11.10
   7  -3   5  199.38   11.00
   7  -3   5  173.28   11.00
   7  -3   5  183.18   11.10
   7  -3   5  178.28   10.70
   7  -3   5  182.88   12.90
   8  -3   5  256.07   14.30
   8  -3   5  257.77   14.50
   8  -3   5  243.88   15.90
   8  -3   5  251.27   14.50
   8  -3   5  276.07   14.50
   8  -3   5  280.97   14.70
   8  -3   5  241.98   14.40
   9  -3   5    1.70    0.50
   9  -3   5    1.80    0.50
   9  -3   5    1.70    0.50
   9  -3   5    1.50    0.40
   9  -3   5    1.10    0.40
   8   2  -5  221.18   12.10
   8   2  -5  205.48   12.10
   8   2  -5  231.28   18.20
   8   2  -5  216.58   12.10
   8   2  -5  204.88   14.70
   7   2  -5   66.49   12.50
   7   2  -5   67.89    8.60
   7   2  -5   74.59    5.00
   7   2  -5   72.19    4.80
   7   2  -5   69.89   14.80
   7   2  -5   71.09    4.60
   6   2  -5    7.30    4.80
   6   2  -5    8.10    1.30
   6   2  -5    4.90    3.00
   6   2  -5    8.90    3.10
   6   2  -5    7.00    1.20
   6   2  -5    7.30    1.40
   6   2  -5    6.10    5.50
   5   2  -5  550.34   39.20
   5   2  -5  502.15   29.60
   5   2  -5  512.45   32.40
   5   2  -5  552.84   36.70
   5   2  -5  554.44   29.60
   5   2  -5  522.25   29.70
   5   2  -5  558.84   34.60
  -5  -2   5  624.64   35.10
   4   2  -5   32.60    5.90
   4   2  -5   27.50    6.60
   4   2  -5   28.80    6.10
  -4  -2   5   26.00    3.30
  -4  -2   5   29.20    3.80
   3   2  -5  358.26   23.00
   3   2  -5  335.07   22.00
   3   2  -5  319.37   23.60
  -3  -2   5  327.77   19.10
  -3  -2   5  313.07   19.40
   2   2  -5  713.93   46.40
   2   2  -5  802.42   42.90
   2   2  -5  796.12   45.30
   2   2  -5  793.42   45.10
  -2  -2   5  777.82   41.90
  -2  -2   5  792.92   42.90
  -2  -2   5  731.53   42.40
   1   2  -5  131.09   10.40
   1   2  -5  130.29    8.20
   1   2  -5  123.69    9.20
  -1  -2   5  110.09    8.70
  -1  -2   5  122.59    7.70
  -1  -2   5  124.59    7.90
   0   2  -5 2337.67  117.29
   0   2  -5 2091.89  118.59
   0   2  -5 2239.58  116.09
   0  -2   5 2132.49  116.59
   0  -2   5 2089.69  117.49
   0  -2   5 2070.59  116.39
  -1   2  -5   32.80    2.70
  -1   2  -5   36.00    3.60
  -1   2  -5   34.00    2.50
  -1   2  -5   34.20    2.80
  -1   2  -5   37.40    3.90
  -1   2  -5   31.80    3.00
   1  -2   5   34.80    2.80
   1  -2   5   37.50    4.20
   1  -2   5   31.50    3.50
   1  -2   5   28.10    3.20
  -2   2  -5  780.72   44.90
  -2   2  -5  870.41   45.10
  -2   2  -5  801.32   44.50
  -2   2  -5  822.92   45.40
  -2   2  -5  805.62   45.10
   2  -2   5  871.21   47.50
   2  -2   5  817.52   45.00
   2  -2   5  808.12   45.70
   2  -2   5  791.12   45.50
  -3   2  -5 3268.47  183.98
  -3   2  -5 3240.78  183.58
  -3   2  -5 3220.08  184.08
  -3   2  -5 3469.95  184.28
   3  -2   5 3526.05  184.18
   3  -2   5 3481.15  184.88
   3  -2   5 3706.03  187.48
   3  -2   5 3453.45  185.18
  -4   2  -5  261.37   15.80
  -4   2  -5  266.67   16.10
  -4   2  -5  252.97   16.10
   4  -2   5  285.77   17.10
   4  -2   5  276.67   17.40
   4  -2   5  252.07   19.10
  -5   2  -5   77.19    6.70
  -5   2  -5   87.49    6.80
   5  -2   5   90.09    8.00
   5  -2   5   99.79    7.90
   6  -2   5  152.68   10.70
   6  -2   5  153.78    8.60
   6  -2   5  138.89    8.80
   6  -2   5  145.69    8.70
   6  -2   5  144.69    8.70
   6  -2   5  146.39    8.90
   6  -2   5  140.29    8.80
   6  -2   5  147.59    8.50
   7  -2   5   17.10    2.00
   7  -2   5   16.00    1.70
   7  -2   5   20.00    3.30
   7  -2   5   16.50    1.90
   7  -2   5   20.20    2.00
   7  -2   5   19.70    2.00
   7  -2   5   19.00    2.00
   8  -2   5   14.30    2.60
   8  -2   5   18.50    1.70
   8  -2   5   16.40    1.60
   8  -2   5   18.10    1.70
   8  -2   5   17.70    1.50
   8  -2   5   15.90    1.70
   8  -2   5   15.00    1.60
   9   1  -5   76.89    4.90
   9   1  -5   86.89    4.90
   9   1  -5   85.69    4.90
   9   1  -5   85.79    6.50
   9   1  -5   83.89    8.10
   8   1  -5   46.90    3.00
   8   1  -5   48.50    9.40
   8   1  -5   43.50    6.10
   8   1  -5   57.19   11.90
   8   1  -5   39.40    3.30
   8   1  -5   51.89    3.30
   8   1  -5   43.30    3.20
   7   1  -5  760.62   41.60
   7   1  -5  674.63   41.80
   7   1  -5  696.93   52.59
   7   1  -5  756.32   41.90
   7   1  -5  800.12   41.80
   7   1  -5  835.82   45.50
   7   1  -5  855.51   50.99
   6   1  -5  185.68   10.40
   6   1  -5  190.78   14.00
   6   1  -5  186.18   16.40
   6   1  -5  167.98   12.90
   6   1  -5  157.98   17.00
   6   1  -5  174.08   10.40
   6   1  -5  190.78   10.20
   6   1  -5  164.68   10.30
   5   1  -5 2402.16  129.89
   5   1  -5 2441.56  129.89
  -5  -1   5 2204.08  124.39
  -5  -1   5 2211.18  123.79
  -5  -1   5 2210.48  124.89
   4   1  -5 1292.87   77.19
   4   1  -5 1235.08   75.99
   4   1  -5 1389.56   76.39
  -4  -1   5 1338.87   73.09
  -4  -1   5 1395.86   72.79
  -4  -1   5 1299.57   72.09
   3   1  -5    3.00    2.10
   3   1  -5    3.20    1.10
   3   1  -5    0.90    2.00
   3   1  -5    2.40    1.80
  -3  -1   5    2.40    1.10
  -3  -1   5    2.70    1.00
  -3  -1   5    2.10    0.80
   2   1  -5 2471.25  136.99
   2   1  -5 2528.05  138.59
   2   1  -5 2574.34  138.69
   2   1  -5 2639.14  140.49
  -2  -1   5 2635.34  136.99
  -2  -1   5 2526.15  137.09
  -2  -1   5 2450.95  136.59
   1   1  -5  198.48   12.00
   1   1  -5  196.88   12.40
   1   1  -5  199.68   11.10
   1   1  -5  220.38   14.50
  -1  -1   5  200.58   11.70
  -1  -1   5  193.48   11.60
  -1  -1   5  175.78   11.20
   0   1  -5 2023.10  116.49
   0   1  -5 2076.49  114.29
   0   1  -5 2294.87  115.09
   0  -1   5 2224.98  114.19
   0  -1   5 2171.88  114.69
   0  -1   5 2083.59  114.69
   0  -1   5 2021.70  114.39
  -1   1  -5  227.08   12.40
  -1   1  -5  201.88   12.70
   1  -1   5  200.38   12.30
   1  -1   5  208.68   12.70
   1  -1   5  210.08   12.70
  -2   1  -5  275.57   16.60
  -2   1  -5  272.37   16.20
  -2   1  -5  290.47   16.50
  -2   1  -5  289.07   16.90
  -2   1  -5  283.57   16.80
   2  -1   5  276.87   17.10
   2  -1   5  293.67   17.20
   2  -1   5  296.97   16.80
  -3   1  -5   78.79    6.10
  -3   1  -5   79.29    6.20
  -3   1  -5   81.89    5.70
  -3   1  -5   82.29    5.90
  -3   1  -5   84.19    5.50
   3  -1   5   71.99    5.90
   3  -1   5   79.99    6.60
   3  -1   5   74.59    7.40
   3  -1   5   80.49    6.50
  -4   1  -5  666.03   39.10
  -4   1  -5  690.03   38.60
  -4   1  -5  693.33   38.30
  -4   1  -5  682.23   38.90
  -4   1  -5  704.13   39.20
   4  -1   5  662.93   40.00
   4  -1   5  728.03   40.00
  -5   1  -5  671.33   37.50
  -5   1  -5  646.94   35.40
   5  -1   5  558.94   33.80
   5  -1   5  597.24   33.70
   5  -1   5  603.94   33.70
   5  -1   5  585.04   33.50
   5  -1   5  634.54   34.30
   5  -1   5  697.73   37.20
   5  -1   5  673.93   39.10
   5  -1   5  594.14   33.60
   6  -1   5  462.75   25.20
   6  -1   5  439.06   25.30
   6  -1   5  481.65   25.30
   6  -1   5  467.45   27.10
   6  -1   5  463.75   25.10
   6  -1   5  448.16   25.20
   6  -1   5  417.76   25.00
   7  -1   5  506.95   26.60
   7  -1   5  528.75   26.50
   7  -1   5  522.65   26.70
   7  -1   5  497.05   26.80
   7  -1   5  401.46   28.10
   7  -1   5  457.85   26.50
   7  -1   5  463.65   26.60
   8  -1   5    0.60    0.50
   8  -1   5   -0.80    0.40
   8  -1   5    0.80    0.50
   8  -1   5    0.00    0.50
   8  -1   5   -1.10    0.40
   8  -1   5    0.20    0.50
   9   0  -5   21.00    6.20
   9   0  -5   17.50    1.60
   9   0  -5   19.60    1.70
   9   0  -5   24.50    3.60
   9   0  -5   18.20    4.80
   9   0  -5   19.90    1.60
  -9   0   5   17.20    1.40
   8   0  -5   88.69    7.80
   8   0  -5   85.79    5.30
   8   0  -5   80.19    5.00
   8   0  -5   80.69    5.20
   8   0  -5   70.59   11.40
   8   0  -5   84.59    5.30
   8   0  -5   81.69   10.40
   7   0  -5    4.20    1.00
   7   0  -5    5.80    4.00
   7   0  -5    5.10    0.90
   7   0  -5    3.60    2.10
   7   0  -5    3.70    1.00
   7   0  -5    4.90    3.30
   7   0  -5    4.00    1.00
   6   0  -5  339.57   24.00
   6   0  -5  336.77   21.60
   6   0  -5  374.26   22.60
   6   0  -5  360.36   19.20
   6   0  -5  322.77   19.40
   6   0  -5  355.76   19.40
   6   0  -5  339.67   19.40
   6   0  -5  353.66   25.90
   5   0  -5  337.37   24.30
   5   0  -5  401.26   25.10
  -5   0   5  344.37   21.50
  -5   0   5  362.66   20.90
  -5   0   5  337.87   21.20
   4   0  -5 1171.18   64.09
   4   0  -5 1128.39   63.89
   4   0  -5 1085.99   64.69
  -4   0   5 1080.49   60.99
  -4   0   5 1140.09   60.49
  -4   0   5 1037.50   60.79
   3   0  -5 4567.84  235.18
   3   0  -5 4376.66  235.08
   3   0  -5 4316.87  236.78
  -3   0   5 4131.09  232.88
  -3   0   5 4348.56  232.58
  -3   0   5 4308.57  233.08
   2   0  -5 1267.67   68.09
   2   0  -5 1175.78   65.49
   2   0  -5 1200.18   64.69
   2   0  -5 1164.88   65.79
  -2   0   5 1195.38   64.39
  -2   0   5 1155.18   64.19
  -2   0   5 1156.08   64.39
   1   0  -5 2032.80  110.49
   1   0  -5 2107.19  110.39
   1   0  -5 2052.99  112.59
   1   0  -5 2049.20  109.59
  -1   0   5 2116.49  110.09
  -1   0   5 1975.20  109.69
  -1   0   5 2133.39  109.79
  -1   0   5 1863.01  109.49
   0   0  -5   42.10    3.70
   0   0  -5   40.90    4.80
   0   0  -5   44.10    3.20
   0   0   5   46.00    3.40
   0   0   5   40.30    3.40
   0   0   5   45.40    3.30
   0   0   5   39.00    3.10
  -1   0  -5   76.69    6.40
  -1   0  -5   72.39    4.90
  -1   0  -5   63.19    5.20
   1   0   5   63.49    4.80
   1   0   5   78.49    5.50
   1   0   5   65.09    5.00
  -2   0  -5 4807.42  252.77
  -2   0  -5 4775.02  253.17
   2   0   5 4748.12  253.07
   2   0   5 4568.14  253.37
   2   0   5 4652.23  253.27
  -3   0  -5    3.10    1.20
  -3   0  -5    3.40    1.30
  -3   0  -5    1.40    0.90
  -3   0  -5    5.20    1.70
   3   0   5    2.30    1.50
   3   0   5    3.70    1.40
   3   0   5    3.20    1.50
  -4   0  -5   68.69    6.00
  -4   0  -5   65.49    5.20
  -4   0  -5   63.49    6.20
  -4   0  -5   70.89    5.00
   4   0   5   57.19    6.70
   4   0   5   65.39    6.70
   5   0   5   28.10    2.60
   5   0   5   25.90    2.50
   5   0   5   24.50    2.40
   5   0   5   27.50    2.10
   5   0   5   26.30    2.40
   5   0   5   30.00    2.40
   5   0   5   27.20    2.70
   6   0   5    1.40    0.70
   6   0   5    0.60    0.70
   6   0   5    0.60    0.70
   6   0   5   -0.30    0.50
   6   0   5    1.70    0.60
   6   0   5    0.70    0.60
   7   0   5  115.39    6.90
   7   0   5  126.59    7.00
   7   0   5  109.79    6.70
   7   0   5  106.79    6.70
   7   0   5   98.19    6.80
   7   0   5  125.29    7.00
   8   0   5  102.09    6.10
   8   0   5  105.39    6.10
   8   0   5   92.79    6.10
   8   0   5  106.69    6.00
   8   0   5  116.49    6.10
   9  -1  -5    5.70    3.90
   9  -1  -5    6.60    1.00
   9  -1  -5    7.10    3.50
   9  -1  -5    6.20    0.90
   9  -1  -5    7.00    1.10
   9  -1  -5    6.50    2.20
   8  -1  -5    0.20    1.30
   8  -1  -5   -0.10    0.50
   8  -1  -5    0.40    2.50
   8  -1  -5    0.10    0.60
   8  -1  -5    0.50    0.60
   8  -1  -5   -0.60    1.90
   8  -1  -5    0.20    0.50
   7  -1  -5    3.20    0.80
   7  -1  -5    1.50    2.20
   7  -1  -5    1.40    0.80
   7  -1  -5    2.30    1.60
   7  -1  -5    2.40    0.80
   7  -1  -5    2.20    0.80
   7  -1  -5    2.10    2.40
  -7   1   5    1.90    0.70
   6  -1  -5  231.98   16.30
   6  -1  -5  219.58   22.50
   6  -1  -5  257.57   19.10
   6  -1  -5  210.88   12.40
   6  -1  -5  220.68   17.90
   6  -1  -5  192.88   12.50
  -6   1   5  240.78   17.70
  -6   1   5  231.78   14.60
  -6   1   5  225.28   14.60
   5  -1  -5  294.47   19.50
   5  -1  -5  256.77   18.80
  -5   1   5  246.18   15.90
  -5   1   5  249.28   16.10
  -5   1   5  251.67   15.60
   4  -1  -5   93.09    8.50
   4  -1  -5   93.19    8.60
   4  -1  -5   89.59    9.50
  -4   1   5   96.59    6.50
  -4   1   5   89.49    6.60
  -4   1   5   99.49    6.70
   3  -1  -5   54.39    5.40
   3  -1  -5   52.09    5.50
   3  -1  -5   52.89    6.60
  -3   1   5   50.49    3.90
  -3   1   5   54.99    4.10
  -3   1   5   54.89    4.00
  -3   1   5   48.90    3.60
   2  -1  -5  648.54   38.70
   2  -1  -5  625.54   36.70
   2  -1  -5  655.33   35.60
  -2   1   5  664.83   35.30
  -2   1   5  644.84   35.30
  -2   1   5  604.64   35.00
   1  -1  -5 2044.10  110.39
   1  -1  -5 2169.88  113.09
   1  -1  -5 2067.09  110.69
  -1   1   5 2069.59  109.89
  -1   1   5 1904.21  109.49
  -1   1   5 2125.89  109.89
  -1   1   5 1897.61  109.59
   0  -1  -5  197.98   14.30
   0  -1  -5  211.68   12.60
   0   1   5  194.78   11.80
   0   1   5  201.38   12.00
   0   1   5  211.48   12.30
   0   1   5  202.08   12.20
  -1  -1  -5   85.09    5.60
  -1  -1  -5   77.09    5.90
  -1  -1  -5   79.79    7.20
   1   1   5   75.49    5.60
   1   1   5   74.19    5.40
   1   1   5   77.49    5.50
   1   1   5   69.89    5.60
  -2  -1  -5  237.58   14.30
  -2  -1  -5  243.78   14.90
   2   1   5  226.98   14.70
   2   1   5  226.68   14.50
   2   1   5  234.38   14.50
   2   1   5  245.08   14.30
  -3  -1  -5    0.40    0.90
  -3  -1  -5    2.00    0.90
  -3  -1  -5    0.70    1.10
  -3  -1  -5    1.40    1.00
   3   1   5    1.10    1.10
   3   1   5    2.40    1.20
   3   1   5    1.90    1.50
  -4  -1  -5  307.07   18.60
  -4  -1  -5  288.27   18.20
  -4  -1  -5  299.27   17.60
   4   1   5  294.87   19.10
   4   1   5  305.27   19.30
   5   1   5  364.26   20.20
   5   1   5  354.86   20.30
   5   1   5  351.36   20.40
   5   1   5  371.46   20.30
   5   1   5  375.46   20.10
   5   1   5  354.76   20.20
   6   1   5  286.57   15.50
   6   1   5  288.77   15.70
   6   1   5  236.78   15.50
   6   1   5  271.77   15.60
   6   1   5  283.47   15.70
   6   1   5  288.07   15.50
   7   1   5    2.00    0.70
   7   1   5    3.60    0.80
   7   1   5    1.90    0.60
   7   1   5    2.80    0.80
   7   1   5    2.80    0.70
   9  -2  -5   15.40    4.20
   9  -2  -5   13.30    2.80
   9  -2  -5   12.90    1.40
   9  -2  -5   15.40    1.50
   9  -2  -5   15.10    1.60
   9  -2  -5   14.70    4.70
  -9   2   5   10.50    1.30
   8  -2  -5   14.00    3.10
   8  -2  -5   11.60    1.50
   8  -2  -5   14.50    1.60
   8  -2  -5   13.80    1.50
   8  -2  -5   12.80    4.50
   8  -2  -5   12.70    3.80
   8  -2  -5    9.90    1.40
  -8   2   5   10.90    1.50
   7  -2  -5    5.50    1.90
   7  -2  -5    3.80    0.90
   7  -2  -5    4.00    0.90
   7  -2  -5    4.50    2.70
   7  -2  -5    6.70    1.10
   7  -2  -5    8.00    3.70
  -7   2   5    5.00    1.00
   6  -2  -5   76.49    8.90
   6  -2  -5   68.19    9.00
  -6   2   5   65.79    6.50
  -6   2   5   69.69    6.50
   5  -2  -5    0.10    2.80
   5  -2  -5    3.30    2.50
   5  -2  -5    3.60    2.40
  -5   2   5    2.40    1.30
  -5   2   5    1.60    1.20
  -5   2   5    0.10    1.20
   4  -2  -5  240.98   17.20
   4  -2  -5  254.87   18.80
   4  -2  -5  253.27   17.40
  -4   2   5  239.48   14.80
  -4   2   5  250.37   14.60
  -4   2   5  250.37   15.00
  -4   2   5  258.47   15.10
   3  -2  -5  335.37   24.00
   3  -2  -5  373.76   22.80
   3  -2  -5  364.96   20.80
   3  -2  -5  356.36   22.20
  -3   2   5  382.96   20.90
  -3   2   5  344.37   20.50
  -3   2   5  382.96   20.70
   2  -2  -5  333.97   20.90
   2  -2  -5  332.97   19.80
   2  -2  -5  329.17   22.70
  -2   2   5  317.37   19.10
  -2   2   5  360.86   19.50
  -2   2   5  345.27   19.40
  -2   2   5  363.56   19.40
   1  -2  -5 1164.48   64.69
   1  -2  -5 1098.29   61.79
   1  -2  -5 1179.58   62.49
  -1   2   5 1143.19   61.29
  -1   2   5  999.90   60.89
  -1   2   5 1094.19   61.09
  -1   2   5 1182.08   61.19
   0  -2  -5   23.80    4.70
   0  -2  -5   21.60    3.10
   0   2   5   22.70    2.80
   0   2   5   23.40    2.70
   0   2   5   26.00    2.90
   0   2   5   28.70    3.20
  -1  -2  -5 2256.47  124.79
  -1  -2  -5 2269.17  122.39
   1   2   5 2251.57  121.69
   1   2   5 2228.38  121.89
   1   2   5 2188.98  121.79
   1   2   5 2296.27  121.59
  -2  -2  -5   -0.10    1.00
  -2  -2  -5    2.40    1.20
   2   2   5   -0.90    0.70
   2   2   5    0.50    0.90
   2   2   5   -0.20    1.00
  -3  -2  -5  530.25   29.40
  -3  -2  -5  505.35   29.40
  -3  -2  -5  501.05   28.80
  -3  -2  -5  506.75   29.80
   3   2   5  509.25   30.10
   3   2   5  503.95   29.80
   4   2   5  156.98    9.10
   4   2   5  151.98    9.10
   4   2   5  148.69    9.20
   4   2   5  152.88    8.90
   4   2   5  158.28    9.10
   5   2   5   16.40    1.90
   5   2   5   19.00    1.90
   5   2   5   14.50    1.80
   5   2   5   20.50    2.10
   5   2   5   17.30    1.70
   6   2   5  274.07   15.70
   6   2   5  281.07   15.50
   6   2   5  288.27   15.80
   6   2   5  271.07   15.70
   7   2   5    1.60    0.60
   7   2   5    1.20    0.50
   7   2   5    2.10    0.60
   9  -3  -5   16.80    4.60
   9  -3  -5   17.00    3.00
   9  -3  -5   16.10    1.60
   9  -3  -5   16.60    4.00
  -9   3   5   17.70    1.70
   8  -3  -5  258.87   14.80
   8  -3  -5  216.48   12.60
   8  -3  -5  217.08   12.60
   8  -3  -5  220.18   18.10
   8  -3  -5  214.48   16.90
  -8   3   5  208.98   12.80
   7  -3  -5   31.20    5.70
   7  -3  -5   36.10    6.80
   7  -3  -5   31.00    2.60
   7  -3  -5   31.50    4.10
   7  -3  -5   34.20    4.90
   7  -3  -5   34.00    2.60
  -7   3   5   37.30    2.80
   6  -3  -5  431.96   27.70
   6  -3  -5  365.46   26.40
  -6   3   5  379.46   23.50
   5  -3  -5 1055.19   72.29
   5  -3  -5 1140.69   66.59
   5  -3  -5 1221.08   67.19
  -5   3   5 1111.39   63.39
  -5   3   5 1129.99   63.09
  -5   3   5 1200.58   63.29
   4  -3  -5  499.35   30.20
   4  -3  -5  467.25   31.40
   4  -3  -5  469.85   29.50
  -4   3   5  505.65   27.20
  -4   3   5  456.45   27.30
  -4   3   5  469.45   27.20
   3  -3  -5  904.71   52.99
   3  -3  -5  937.61   53.89
   3  -3  -5  907.21   51.69
   3  -3  -5  902.61   55.59
  -3   3   5  944.51   51.49
  -3   3   5 1015.00   51.29
  -3   3   5  962.30   51.19
  -3   3   5  916.11   51.59
   2  -3  -5  101.49    8.10
   2  -3  -5   89.99    9.30
   2  -3  -5   89.99    6.90
  -2   3   5   96.89    6.40
  -2   3   5   90.19    6.40
  -2   3   5   95.59    6.50
   1  -3  -5  361.86   24.00
   1  -3  -5  336.57   20.70
  -1   3   5  342.47   20.10
  -1   3   5  354.46   20.20
  -1   3   5  340.37   20.00
   0  -3  -5  197.28   12.80
   0  -3  -5  183.38   14.90
   0  -3  -5  185.68   12.40
   0   3   5  174.28   11.40
   0   3   5  190.88   11.60
   0   3   5  175.28   11.60
   0   3   5  186.38   11.60
  -1  -3  -5  215.28   14.10
  -1  -3  -5  208.28   16.60
   1   3   5  213.68   13.40
   1   3   5  214.48   13.20
   1   3   5  202.18   13.10
   1   3   5  210.88   13.30
  -2  -3  -5  156.68   10.20
  -2  -3  -5  159.48   11.20
   2   3   5  131.59   10.20
   2   3   5  153.48   10.40
   2   3   5  157.68   10.30
  -3  -3  -5  731.33   40.90
  -3  -3  -5  728.83   40.30
  -3  -3  -5  724.03   41.00
  -3  -3  -5  708.23   41.30
   3   3   5  718.03   41.30
   4   3   5  266.17   15.70
   4   3   5  284.67   15.80
   4   3   5  281.27   15.60
   4   3   5  283.77   15.80
   5   3   5   89.39    5.60
   5   3   5   90.49    5.50
   5   3   5   89.39    5.60
   6   3   5   20.10    1.80
   6   3   5   27.50    1.90
  10  -4  -5    2.20    1.60
 -10   4   5    1.60    0.50
 -10   4   5    1.70    0.60
   9  -4  -5   26.80    5.40
   9  -4  -5   32.10    4.70
   9  -4  -5   31.40    4.30
  -9   4   5   27.20    2.50
  -9   4   5   28.90    2.20
   8  -4  -5   34.90    5.50
   8  -4  -5   39.30    6.20
   8  -4  -5   37.90    2.70
  -8   4   5   38.20    3.00
   7  -4  -5  198.98   15.60
   7  -4  -5  201.88   16.80
   7  -4  -5  202.88   11.50
   7  -4  -5  197.98   13.80
  -7   4   5  204.98   11.80
   6  -4  -5  202.58   12.60
   6  -4  -5  266.77   16.40
   6  -4  -5  206.08   14.90
   6  -4  -5  201.58   17.30
   6  -4  -5  264.97   19.10
  -6   4   5  218.58   12.90
  -6   4   5  231.28   14.50
   5  -4  -5   86.09   10.30
   5  -4  -5   99.89    9.70
  -5   4   5   90.79    7.10
  -5   4   5   91.19    7.10
   4  -4  -5  488.85   31.70
   4  -4  -5  506.95   33.90
   4  -4  -5  527.45   32.30
  -4   4   5  507.35   29.20
  -4   4   5  521.35   29.30
   3  -4  -5  129.29   12.50
   3  -4  -5  132.09   11.10
   3  -4  -5  139.99    9.40
  -3   4   5  125.39    8.70
  -3   4   5  134.19    8.90
  -3   4   5  144.39    9.20
   2  -4  -5  740.73   42.80
   2  -4  -5  772.42   47.20
   2  -4  -5  625.94   45.10
  -2   4   5  791.72   42.20
  -2   4   5  783.12   42.20
  -2   4   5  814.42   42.40
   1  -4  -5    3.20    2.40
   1  -4  -5    6.30    2.10
   1  -4  -5    5.60    3.10
  -1   4   5    6.50    1.80
  -1   4   5    7.80    1.80
  -1   4   5    7.30    1.80
   0  -4  -5  269.07   20.60
   0  -4  -5  261.77   17.60
   0  -4  -5  271.47   17.10
   0   4   5  248.98   15.90
   0   4   5  264.87   16.20
   0   4   5  246.68   15.90
  -1  -4  -5  281.87   18.30
  -1  -4  -5  287.07   22.00
   1   4   5  262.37   17.20
   1   4   5  271.77   17.10
   1   4   5  282.87   17.20
  -2  -4  -5  153.98   11.50
  -2  -4  -5  145.29   10.20
   2   4   5  143.39   10.40
   3   4   5  224.28   13.00
  10  -5  -5   49.40    4.90
 -10   5   5   37.50    2.70
   9  -5  -5   92.39    8.50
   9  -5  -5   93.69    9.10
  -9   5   5   92.89    5.70
  -9   5   5   99.09    6.00
   8  -5  -5   23.80    5.30
   8  -5  -5   22.40    4.60
  -8   5   5   24.00    2.10
  -8   5   5   29.30    2.60
  -8   5   5   22.70    2.40
   7  -5  -5  109.49    8.80
   7  -5  -5  113.69   10.50
  -7   5   5  105.19    6.90
  -7   5   5  116.29    7.20
   6  -5  -5  274.67   18.80
   6  -5  -5  331.77   20.00
   6  -5  -5  292.87   22.10
  -6   5   5  302.07   16.50
  -6   5   5  284.27   16.80
  -6   5   5  283.37   16.90
   5  -5  -5    4.60    3.00
  -5   5   5    6.70    2.00
  -5   5   5    8.20    2.20
   4  -5  -5  557.34   35.10
   4  -5  -5  540.35   36.80
  -4   5   5  553.14   31.80
  -4   5   5  570.24   31.60
  -4   5   5  515.15   31.60
   3  -5  -5   22.00    5.20
   3  -5  -5   23.10    5.90
   3  -5  -5   19.20    3.50
  -3   5   5   20.80    3.10
  -3   5   5   18.30    3.10
  -3   5   5   22.50    3.20
   2  -5  -5   -0.30    4.00
   2  -5  -5    8.30    2.40
   2  -5  -5   13.70    4.50
  -2   5   5    9.90    2.20
  -2   5   5    9.00    2.20
  -2   5   5    9.00    2.10
   1  -5  -5   -0.30    2.00
   1  -5  -5    1.60    2.60
   1  -5  -5    1.10    1.30
  -1   5   5    1.30    1.30
  -1   5   5    0.70    1.50
  -1   5   5   -0.10    1.00
   0  -5  -5   78.89    8.50
   0  -5  -5   77.89   12.10
   0   5   5   67.99    6.90
   0   5   5   80.59    7.20
  -1  -5  -5  763.72   49.30
  -1  -5  -5  702.83   43.60
   1   5   5  728.73   42.60
   1   5   5  761.92   42.50
   2   5   5  907.21   55.79
   2   5   5  959.60   51.49
   2   5   5  925.71   51.29
   2   5   5  984.60   51.79
   9  -6  -5   47.50    6.00
   9  -6  -5   52.09    5.70
  -9   6   5   55.59    3.60
  -9   6   5   44.20    3.60
  -9   6   5   50.89    3.30
   8  -6  -5   21.60    5.00
   8  -6  -5   23.50    4.60
  -8   6   5   25.40    2.50
  -8   6   5   23.10    2.10
  -8   6   5   24.50    2.50
   7  -6  -5  292.37   18.80
   7  -6  -5  297.77   22.30
   7  -6  -5  284.37   20.40
  -7   6   5  304.27   16.90
  -7   6   5  290.07   16.90
   5  -6  -5  139.49   13.10
  -5   6   5  156.08    8.80
  -5   6   5  148.89    8.80
  -5   6   5  132.19    8.80
   4  -6  -5  108.19   13.10
   4  -6  -5  104.89   12.40
  -4   6   5   95.69    9.20
  -4   6   5  125.79    8.70
   3  -6  -5  296.27   22.10
   3  -6  -5  260.07   22.60
   3  -6  -5  285.17   18.20
  -3   6   5  257.47   17.30
  -3   6   5  271.17   17.40
   2  -6  -5   77.09    8.50
   2  -6  -5   81.29   12.30
  -2   6   5   90.29    8.10
  -2   6   5   82.69    7.60
   1  -6  -5   44.10    8.90
   1  -6  -5   48.20    6.50
   1  -6  -5   59.49   11.10
  -1   6   5   45.00    5.60
  -1   6   5   44.90    5.30
   0   6   5  413.06   23.70
   0   6   5  413.56   27.90
   0   6   5  406.36   23.60
   0   6   5  413.26   23.50
   0   6   5  453.05   25.90
   0   6   5  375.16   23.80
   0   6   5  471.65   30.30
   0   6   5  462.15   36.40
   1   6   5  187.38   10.80
   1   6   5  165.78   15.90
   1   6   5  184.38   10.60
   1   6   5  177.48   10.70
   1   6   5  171.38   14.80
   1   6   5  182.08   11.10
   2   6   5   15.30    2.20
   2   6   5   17.20    2.00
   2   6   5   20.90    5.10
   2   6   5   17.00    2.00
   9  -7  -5   10.60    2.90
   9  -7  -5   10.00    2.50
  -9   7   5   10.20    1.30
  -9   7   5    9.30    1.30
   8  -7  -5  100.99   10.30
   8  -7  -5  110.39    9.60
  -8   7   5  104.39    6.70
  -8   7   5  112.89    6.80
   7  -7  -5   71.49    8.90
   7  -7  -5   66.99    7.50
   7  -7  -5   62.19    6.10
  -7   7   5   76.29    5.00
  -7   7   5   65.29    4.80
   6  -7  -5  133.69   13.20
   6  -7  -5  132.59   10.40
  -6   7   5  137.29    8.60
  -6   7   5  147.39    8.50
  -6   7   5  128.39    8.30
   5  -7  -5  125.69   12.80
  -5   7   5  139.89    8.50
  -5   7   5  139.89    8.30
  -5   7   5  130.19    8.30
  -3   7   5  330.07   22.80
  -3   7   5  381.86   20.30
  -3   7   5  353.06   24.60
  -3   7   5  358.86   20.10
  -2   7   5    1.50    1.00
  -2   7   5    0.30    0.80
  -2   7   5    0.70    7.50
  -2   7   5   -4.90    4.00
  -2   7   5    1.60    2.30
  -2   7   5   -0.10    0.70
  -2   7   5    1.40    1.10
  -1   7   5  128.79    7.70
  -1   7   5  128.89    8.10
  -1   7   5  101.09   13.40
  -1   7   5  127.69    8.40
  -1   7   5  138.49    7.90
  -1   7   5   77.69   16.70
  -1   7   5  127.09   12.30
   0   7   5  679.13   34.90
   0   7   5  598.34   35.40
   0   7   5  638.74   34.90
   0   7   5  740.43   44.20
   0   7   5  551.24   42.50
   0   7   5  598.54   40.30
   0   7   5  609.14   35.10
   1   7   5  291.87   17.70
   1   7   5  382.76   26.90
   1   7   5  326.47   23.30
   1   7   5  303.97   17.60
   1   7   5  274.87   18.10
   2   7   5    6.50    1.20
   2   7   5    5.90    1.40
   2   7   5    8.70    3.60
   9  -8  -5    2.20    1.40
   9  -8  -5    2.00    1.50
  -9   8   5    1.50    0.70
  -9   8   5    1.30    0.60
   8  -8  -5  317.37   20.70
   8  -8  -5  339.87   22.30
  -8   8   5  325.57   18.00
  -8   8   5  298.17   18.00
   7  -8  -5  106.79   11.10
   7  -8  -5  107.49    9.50
   7  -8  -5  106.69    8.30
  -7   8   5  108.19    6.80
  -7   8   5  108.39    7.00
   6  -8  -5  125.29   12.60
   6  -8  -5  118.99    9.80
  -6   8   5  129.59    8.00
  -6   8   5  120.89    7.90
  -6   8   5  143.99    8.30
   5  -8  -5  118.09   12.10
  -5   8   5  116.89    7.40
  -5   8   5  111.49    7.40
  -5   8   5  117.19    7.50
   4  -8  -5  100.59   10.80
  -4   8   5  100.99    6.70
  -4   8   5   96.19    6.50
  -4   8   5   95.79    6.60
  -3   8   5  289.87   17.40
  -3   8   5  303.87   17.30
  -3   8   5  259.97   21.80
  -3   8   5  342.37   17.90
  -3   8   5  313.67   17.70
  -2   8   5  158.78    9.90
  -2   8   5  141.49   18.10
  -2   8   5  145.49    9.50
  -2   8   5  141.09   13.90
  -2   8   5  176.68   10.30
  -2   8   5  164.78    9.60
  -1   8   5  318.97   32.60
  -1   8   5  370.86   22.20
  -1   8   5  406.16   22.60
  -1   8   5  335.07   30.40
  -1   8   5  386.26   21.90
  -1   8   5  416.46   21.90
  -1   8   5  430.96   28.40
   0   8   5   63.99   12.70
   0   8   5   80.89    5.20
   0   8   5   73.09    5.70
   0   8   5   67.39   18.10
   0   8   5   76.49    5.40
   0   8   5   80.99    9.60
   1   8   5   59.49    4.00
   1   8   5   60.89    4.20
   1   8   5   62.29   12.30
   1   8   5   57.09    7.90
   1   8   5   54.09    4.40
   2   8   5   12.30    3.40
   2   8   5    8.20    1.30
   8  -9  -5   15.30    3.50
  -8   9   5   14.80    1.70
  -8   9   5   17.50    1.70
   7  -9  -5   89.99    7.00
   7  -9  -5   95.89    9.50
  -7   9   5   89.59    5.70
  -7   9   5   83.59    5.60
  -7   9   5   86.69    5.80
   6  -9  -5   61.19    6.00
   6  -9  -5   68.49    8.40
  -6   9   5   62.19    4.50
  -6   9   5   70.59    4.80
   5  -9  -5   67.79    8.40
  -5   9   5   55.59    4.50
  -5   9   5   68.49    4.80
   4  -9  -5  120.89   11.90
  -4   9   5  125.99    7.90
  -4   9   5  125.09    7.90
  -4   9   5  123.79    7.70
  -4   9   5  114.89    8.80
  -3   9   5   11.60    1.90
  -3   9   5   11.50    4.70
  -3   9   5    3.30    5.30
  -3   9   5   12.50    1.90
  -3   9   5    9.70    4.00
  -3   9   5   11.80    2.00
  -3   9   5   12.80    1.80
  -2   9   5    0.80    1.00
  -2   9   5   -2.70    6.00
  -2   9   5  -10.00    9.10
  -2   9   5   -0.40    0.90
  -2   9   5    0.40    0.80
  -2   9   5    0.40    2.40
  -2   9   5   -0.30    0.70
  -1   9   5  458.05   28.30
  -1   9   5  514.75   28.00
  -1   9   5  494.05   28.80
  -1   9   5  561.44   34.70
   0   9   5  277.97   25.30
   0   9   5  253.47   15.10
   0   9   5  246.38   19.90
   0   9   5  252.37   15.40
   0   9   5  289.47   15.00
   1   9   5  263.47   17.80
   1   9   5  238.68   13.80
   1   9   5  255.37   21.20
   1   9   5  232.08   14.00
  -8  10   5   77.59    4.70
   7 -10  -5   34.10    3.30
   7 -10  -5   34.70    4.70
  -7  10   5   33.90    2.50
  -7  10   5   33.50    2.60
   6 -10  -5   32.60    3.70
   6 -10  -5   34.90    5.30
  -6  10   5   33.90    2.90
  -6  10   5   35.40    2.80
   5 -10  -5   52.79    6.80
  -5  10   5   49.80    3.70
  -5  10   5   45.80    3.60
  -5  10   5   51.09    3.80
   4 -10  -5  172.58   14.20
  -4  10   5  164.38   10.50
  -4  10   5  182.18   10.60
  -4  10   5  180.18   10.40
   3 -10  -5   44.60    6.10
  -3  10   5   46.20    3.60
  -3  10   5   49.30    3.80
  -3  10   5   44.70    3.80
  -3  10   5   49.80    3.50
  -2  10   5    9.30    3.50
  -2  10   5   10.90    1.80
  -2  10   5   11.20    1.70
  -2  10   5    1.10    5.40
  -2  10   5   10.40    1.40
  -1  10   5   -2.10    5.30
  -1  10   5    6.20    1.10
  -1  10   5    6.20    1.20
  -1  10   5    4.90    1.20
  -1  10   5    8.40    3.40
   0  10   5   20.70    4.10
   0  10   5   10.40    5.00
   0  10   5   21.20    1.80
   0  10   5   23.80    2.10
   6 -11  -5   12.30    2.80
   6 -11  -5    9.60    1.80
  -6  11   5   14.50    1.40
  -6  11   5   12.80    1.40
   5 -11  -5    2.20    1.60
   5 -11  -5    1.80    1.10
  -5  11   5    2.10    0.70
  -5  11   5    0.50    0.60
  -5  11   5    1.40    0.70
   4 -11  -5   28.40    4.10
  -4  11   5   27.90    2.40
  -4  11   5   28.80    2.30
   3 -11  -5    7.50    3.10
  -3  11   5   -0.80    2.90
  -3  11   5    4.20    2.50
  -3  11   5    4.50    0.90
  -3  11   5   -3.10    2.60
  -3  11   5    4.60    1.00
  -3  11   5    4.90    1.00
  -2  11   5   45.30    2.80
  -2  11   5   28.90    5.00
  -3  12  -6    0.80    0.60
  -3  12  -6    0.30    0.70
   3 -12   6   -0.20    1.00
   0  11  -6    7.70    9.40
   0  11  -6   -0.40    5.70
   0  11  -6   23.70   12.30
  -1  11  -6    5.20    1.10
  -1  11  -6    5.00    1.30
  -1  11  -6   -3.50    8.60
  -1  11  -6    3.90    2.20
  -1  11  -6   17.40   11.80
  -1  11  -6  -15.80    8.00
  -1  11  -6    4.20    2.20
   1 -11   6    6.50    1.60
  -2  11  -6   83.69    8.30
  -2  11  -6   86.99    5.70
  -2  11  -6   85.49    6.20
   2 -11   6   92.69    6.50
  -4  11  -6   12.10    1.70
  -4  11  -6   11.80    1.80
   4 -11   6   11.40    3.10
   4 -11   6   14.00    2.30
  -5  11  -6   26.70    2.40
  -5  11  -6   25.50    2.20
   5 -11   6   22.10    3.90
   5 -11   6   25.50    2.80
  -6  11  -6   -0.20    0.50
  -6  11  -6    0.20    0.50
   6 -11   6   -0.70    0.90
   6 -11   6   -0.10    0.70
   2  10  -6    2.40    5.10
   2  10  -6    1.40    3.60
   2  10  -6    0.10    1.30
   2  10  -6   -0.10    1.20
   2  10  -6    0.30    1.20
   1  10  -6  282.47   18.00
   1  10  -6  264.97   19.10
   1  10  -6  254.07   19.50
   1  10  -6  270.87   15.50
   0  10  -6  102.09   10.20
   0  10  -6  126.29   12.10
   0  10  -6  100.59    7.10
   0  10  -6  118.59   13.60
   0  10  -6   83.89    8.60
  -1  10  -6  288.27   22.80
  -1  10  -6  341.77   30.40
  -1  10  -6  350.06   20.70
  -1  10  -6  396.56   24.50
  -1  10  -6  352.16   19.90
  -1  10  -6  345.67   26.50
   1 -10   6  381.26   21.30
  -2  10  -6   19.00    2.80
  -2  10  -6    6.00    8.50
  -2  10  -6   17.00    5.00
  -2  10  -6   19.00    2.30
   2 -10   6   18.00    3.00
  -3  10  -6   12.00    2.20
  -3  10  -6   11.60    1.80
   3 -10   6   11.40    2.50
   3 -10   6   17.90    5.80
  -4  10  -6  139.59    9.00
  -4  10  -6  139.29    8.40
  -4  10  -6  156.98    8.90
   4 -10   6  142.89   10.00
   4 -10   6  125.59   12.00
  -5  10  -6  104.59    6.40
  -5  10  -6   95.59    6.10
   5 -10   6   94.69    9.30
   5 -10   6   97.59    7.50
  -6  10  -6    1.60    0.80
  -6  10  -6    0.30    0.60
   6 -10   6    1.40    1.20
   6 -10   6    1.50    1.60
  -7  10  -6    9.80    1.10
   7 -10   6    8.80    1.60
   7 -10   6    8.00    2.00
   3   9  -6   55.59    6.40
   3   9  -6   39.70    5.00
   3   9  -6   55.79    7.30
   3   9  -6   53.29    5.20
   3   9  -6   44.10    5.70
   2   9  -6  133.19   12.80
   2   9  -6  145.39   11.40
   2   9  -6  152.48   13.30
   2   9  -6  164.38   15.50
   2   9  -6  126.59   13.00
   1   9  -6   29.50    7.20
   1   9  -6   25.90    4.60
   1   9  -6   27.90    6.60
   1   9  -6   28.90    4.40
   1   9  -6   36.50    7.10
   1   9  -6   23.30    6.10
   1   9  -6   24.70    3.00
   0   9  -6   27.40    6.60
   0   9  -6   22.30    4.40
   0   9  -6   26.30    3.10
   0   9  -6   23.70    7.00
   0   9  -6   22.60    6.10
   0   9  -6   25.70    6.80
   0   9  -6   21.60    4.10
  -1   9  -6  497.85   37.60
  -1   9  -6  523.15   32.70
  -1   9  -6  573.84   29.90
  -1   9  -6  432.86   37.80
  -1   9  -6  599.34   30.60
  -1   9  -6  568.24   37.50
  -2   9  -6  193.18   11.30
  -2   9  -6  141.19   15.80
  -2   9  -6  202.78   22.40
  -2   9  -6  173.08   10.50
   2  -9   6  160.68   11.70
  -3   9  -6  111.29    8.00
  -3   9  -6  110.49    7.50
  -3   9  -6  121.89    7.20
   3  -9   6  116.09    9.00
  -4   9  -6   90.39    5.50
  -4   9  -6   77.39    5.90
  -4   9  -6   77.39    5.70
   4  -9   6   83.09    7.20
   4  -9   6   80.49    9.20
  -5   9  -6  144.79    9.10
  -5   9  -6  150.18    9.30
   5  -9   6  158.18   13.30
   5  -9   6  151.98   10.90
  -6   9  -6  233.98   12.30
  -6   9  -6  193.78   12.20
   6  -9   6  193.68   15.40
   6  -9   6  222.18   13.90
  -7   9  -6   12.20    1.40
  -7   9  -6   16.60    1.60
   7  -9   6   11.80    2.80
   7  -9   6   13.30    2.30
  -8   9  -6   41.40    2.70
   8  -9   6   43.10    3.40
   4   8  -6   90.89    7.40
   4   8  -6   86.59    8.40
   4   8  -6   86.99    6.40
   4   8  -6   80.59    8.00
   4   8  -6   53.39   10.30
   3   8  -6   25.00    8.50
   3   8  -6   26.70    6.40
   3   8  -6   23.30    3.60
   3   8  -6   28.20    5.10
   3   8  -6   24.10    5.50
   3   8  -6   22.70    5.10
   2   8  -6  236.88   18.70
   2   8  -6  181.18   21.80
   2   8  -6  218.48   14.90
   2   8  -6  227.28   20.60
   2   8  -6  208.08   16.60
   2   8  -6  219.38   19.50
   1   8  -6   99.69   11.40
   1   8  -6  105.49    8.80
   1   8  -6  102.09   10.00
   1   8  -6   84.89   13.70
   1   8  -6   88.69    6.30
   1   8  -6  109.99    7.20
   1   8  -6  109.09   13.60
   1   8  -6  128.19   13.80
   0   8  -6  742.43   47.70
   0   8  -6  765.82   44.20
   0   8  -6  722.93   49.90
   0   8  -6  781.22   45.60
   0   8  -6  833.72   52.49
   0   8  -6  686.03   42.30
   0   8  -6  800.12   51.19
  -1   8  -6    0.30    2.40
  -1   8  -6    0.00    2.60
  -1   8  -6    3.40    1.10
  -1   8  -6    3.50    4.00
  -1   8  -6    0.60    2.60
  -1   8  -6    2.10    1.30
  -1   8  -6    1.00    2.30
  -2   8  -6    0.90    2.60
  -2   8  -6    0.60    0.90
  -2   8  -6   -0.50    1.00
  -2   8  -6  -10.00    6.70
  -3   8  -6  197.88   17.50
  -3   8  -6  165.68   10.60
  -3   8  -6  173.58    9.90
  -3   8  -6  160.08   10.20
   3  -8   6  146.09   11.50
  -4   8  -6    9.70    1.90
  -4   8  -6   10.60    1.80
  -4   8  -6   12.00    1.70
   4  -8   6   12.10    4.00
   4  -8   6   14.00    1.80
   4  -8   6   10.40    2.70
  -5   8  -6   19.10    2.20
  -5   8  -6   15.10    2.00
   5  -8   6   18.50    2.10
   5  -8   6   18.40    3.30
   5  -8   6   16.60    4.30
  -6   8  -6   12.80    1.60
  -6   8  -6   14.40    1.80
  -6   8  -6   13.30    1.80
   6  -8   6   12.20    3.70
   6  -8   6   12.30    2.70
   6  -8   6   13.60    1.60
  -7   8  -6    2.50    0.80
  -7   8  -6    1.70    0.70
   7  -8   6    2.70    0.70
   7  -8   6    1.50    1.30
   7  -8   6    1.00    1.60
  -8   8  -6  163.38    9.40
  -8   8  -6  173.78    9.40
   8  -8   6  160.18   10.50
   5   7  -6    2.10    1.60
   5   7  -6    1.10    1.50
   5   7  -6    0.90    0.50
   5   7  -6    1.70    1.20
   5   7  -6    0.00    3.50
   5   7  -6    1.80    1.80
   4   7  -6    4.40    2.40
   4   7  -6    5.10    3.10
   4   7  -6    3.00    0.80
   4   7  -6    0.20    4.90
   4   7  -6    4.20    3.10
   4   7  -6    5.30    2.00
   3   7  -6   66.59    9.10
   3   7  -6   50.09   14.40
   3   7  -6   56.69    8.30
   3   7  -6   60.39    9.70
   3   7  -6   46.80    9.80
   3   7  -6   64.69    6.70
   2   7  -6  112.69   12.00
   2   7  -6   94.59   13.70
   2   7  -6  110.29   12.70
   2   7  -6  114.99    9.40
   2   7  -6   92.29   10.60
   2   7  -6  111.49   17.40
   2   7  -6  116.59    6.70
   1   7  -6  104.89   10.20
   1   7  -6  103.69    8.50
   1   7  -6  109.89   16.20
   1   7  -6  107.39   11.20
   1   7  -6   92.29   11.70
   1   7  -6  101.99    7.00
   1   7  -6   96.19    6.20
   1   7  -6   93.59   13.20
   0   7  -6 1120.39   57.49
   0   7  -6  934.31   55.29
   0   7  -6 1054.99   65.29
   0   7  -6  965.00   58.79
   0   7  -6  904.11   61.79
   0   7  -6  953.70   60.19
   0   7  -6  964.10   53.59
   0   7  -6  915.61   52.79
  -1   7  -6  128.19   20.90
  -1   7  -6  173.98   11.60
  -1   7  -6  164.18   19.60
  -1   7  -6  153.58   10.50
  -1   7  -6  149.39   11.90
  -1   7  -6  197.68   14.30
   1  -7   6  184.38   12.40
   1  -7   6  178.18   14.90
   1  -7   6  173.48   25.10
  -2   7  -6  346.77   22.60
  -2   7  -6  293.67   21.80
  -2   7  -6  334.17   18.90
  -2   7  -6  330.57   19.50
  -2   7  -6  310.47   20.30
   2  -7   6  383.16   21.70
   2  -7   6  355.36   26.50
  -3   7  -6    4.80    1.10
  -3   7  -6    3.20    1.30
  -3   7  -6    3.40    1.00
  -3   7  -6    4.30    2.90
   3  -7   6    1.90    1.50
   3  -7   6    2.20    0.90
  -4   7  -6  167.78    9.80
  -4   7  -6  168.68    9.60
   4  -7   6  158.98   13.60
   4  -7   6  149.29    9.60
   4  -7   6  163.38   11.60
  -5   7  -6  214.58   12.40
  -5   7  -6  205.78   12.20
   5  -7   6  208.28   12.30
   5  -7   6  218.18   14.50
   5  -7   6  209.28   16.80
  -6   7  -6   24.70    2.30
  -6   7  -6   20.90    2.20
  -6   7  -6   18.40    2.10
   6  -7   6   19.40    4.70
   6  -7   6   22.90    2.30
   6  -7   6   22.70    3.70
  -7   7  -6  102.89    6.20
  -7   7  -6   96.99    6.20
   7  -7   6  100.89    6.20
   7  -7   6   96.29    7.80
  -8   7  -6   52.49    3.70
  -8   7  -6   56.19    3.70
   8  -7   6   56.79    4.80
   8  -7   6   61.19    3.60
   6   6  -6   34.60    3.70
   6   6  -6   37.70    2.40
   6   6  -6   35.40    4.00
   6   6  -6   40.80    5.20
   6   6  -6   26.80    7.10
   5   6  -6   -0.30    2.00
   5   6  -6    0.40    1.70
   5   6  -6   -2.90    3.90
   5   6  -6    1.20    2.40
   5   6  -6   -0.20    1.50
   5   6  -6   -0.50    0.50
   4   6  -6  243.58   18.10
   4   6  -6  227.88   19.60
   4   6  -6  273.27   22.60
   4   6  -6  266.07   14.60
   4   6  -6  263.47   22.60
   3   6  -6  169.38   15.70
   3   6  -6  175.08   10.00
   3   6  -6  164.78   18.10
   3   6  -6  172.58   13.50
   3   6  -6  175.88   15.50
   3   6  -6  174.88   16.50
   3   6  -6  135.89   21.00
   2   6  -6   28.00    6.10
   2   6  -6   21.20   10.20
   2   6  -6   20.90    5.90
   2   6  -6   19.90    5.20
   2   6  -6   26.30    7.80
   2   6  -6   22.20    2.10
   2   6  -6   20.00    4.20
   1   6  -6  431.96   44.30
   1   6  -6  467.65   31.90
  -1  -6   6  574.94   30.90
  -1  -6   6  518.85   34.50
  -1  -6   6  552.04   33.50
   0   6  -6   51.89    6.50
   0   6  -6   40.80   13.10
   0  -6   6   62.29    6.00
   0  -6   6   45.80    7.70
   0  -6   6   48.90    7.00
  -1   6  -6  193.48   12.60
  -1   6  -6  183.98   14.40
  -1   6  -6  182.88   22.00
   1  -6   6  202.28   16.50
   1  -6   6  212.98   13.60
   1  -6   6  216.18   15.50
  -2   6  -6  425.36   26.00
  -2   6  -6  447.36   27.80
   2  -6   6  441.46   30.80
   2  -6   6  472.25   27.30
  -3   6  -6  491.15   29.70
  -3   6  -6  442.16   28.10
   3  -6   6  474.05   33.60
   3  -6   6  524.25   29.50
  -4   6  -6  128.59    7.50
  -4   6  -6  126.39    7.70
   4  -6   6  140.19   14.50
   4  -6   6  132.69   10.30
   4  -6   6  117.99    7.80
   4  -6   6  114.09    9.30
  -5   6  -6  116.69    7.00
  -5   6  -6  117.49    7.10
   5  -6   6  111.79    7.10
   5  -6   6  120.59    7.00
   5  -6   6  100.99   10.50
   5  -6   6  115.69    9.00
  -6   6  -6  124.29    7.20
   6  -6   6  109.79    7.20
   6  -6   6  116.59    9.10
   6  -6   6  111.19    7.10
  -7   6  -6  632.94   35.50
   7  -6   6  703.93   37.70
   7  -6   6  653.83   35.60
   7  -6   6  611.54   35.30
  -8   6  -6  114.19    6.50
  -8   6  -6  107.99    6.60
   8  -6   6  105.59    7.80
   8  -6   6  104.59    6.40
   8  -6   6  118.29    6.50
   7   5  -6   62.29    5.10
   7   5  -6   67.49    6.50
   7   5  -6   70.19    3.90
   7   5  -6   57.29    8.10
   6   5  -6    7.90    1.10
   6   5  -6    9.60    3.80
   6   5  -6    7.10    1.10
   6   5  -6    3.10    5.60
   6   5  -6    7.60    2.60
   6   5  -6    8.30    2.90
   5   5  -6   79.39   10.70
   5   5  -6   81.59   18.50
   5   5  -6  100.69   11.90
   5   5  -6   54.19    8.40
   5   5  -6   85.49    5.40
   5   5  -6   80.09    5.20
   5   5  -6   86.69   11.10
   4   5  -6   19.00    6.60
   4   5  -6   23.20    6.00
   4   5  -6   18.40    2.10
   4   5  -6   22.70    2.20
   4   5  -6   20.80    6.70
   4   5  -6   11.30    8.10
   4   5  -6   18.50    4.60
   3   5  -6  300.67   16.90
   3   5  -6  252.47   22.00
   3   5  -6  332.67   22.50
   3   5  -6  322.37   24.90
   3   5  -6  279.67   20.40
   3   5  -6  257.57   23.40
   3   5  -6  321.67   16.80
   2   5  -6   -1.60    5.20
   2   5  -6    0.70    2.00
   2   5  -6    4.90    3.20
  -2  -5   6    2.60    1.60
  -2  -5   6    2.30    2.20
   1   5  -6  647.54   53.89
   1   5  -6  738.83   43.50
   1   5  -6  795.32   46.20
  -1  -5   6  758.52   42.50
  -1  -5   6  760.02   45.80
   0   5  -6  177.88   20.80
   0   5  -6  188.28   13.40
   0   5  -6  199.88   11.80
   0  -5   6  187.28   13.90
   0  -5   6  214.08   12.90
   0  -5   6  183.58   14.90
  -1   5  -6  701.33   56.49
  -1   5  -6  922.21   49.40
  -1   5  -6  858.81   47.80
   1  -5   6  928.31   50.09
   1  -5   6  834.02   51.59
   1  -5   6  901.31   48.70
  -2   5  -6    1.40    1.10
  -2   5  -6    1.80    1.50
   2  -5   6    3.90    1.80
   2  -5   6    0.70    2.30
  -3   5  -6  383.16   21.90
  -3   5  -6  378.46   22.90
  -3   5  -6  357.96   22.10
   3  -5   6  358.96   26.80
   3  -5   6  399.46   23.50
  -4   5  -6  883.71   51.19
  -4   5  -6  891.11   51.39
   4  -5   6  934.51   52.79
   4  -5   6  972.30   57.69
  -5   5  -6  243.48   13.50
   5  -5   6  223.18   13.50
   5  -5   6  232.28   13.30
   5  -5   6  234.48   13.60
   5  -5   6  233.88   15.40
  -6   5  -6  778.92   41.50
   6  -5   6  761.22   41.60
   6  -5   6  706.63   41.40
   6  -5   6  859.51   44.20
   6  -5   6  766.92   41.60
   6  -5   6  701.43   41.40
  -7   5  -6  147.29    8.80
   7  -5   6  167.68    9.00
   7  -5   6  146.69   10.60
   7  -5   6  137.69    8.80
   7  -5   6  155.78    9.00
   7  -5   6  141.89    8.90
  -8   5  -6   68.89    4.50
  -8   5  -6   68.79    4.60
   8  -5   6   79.29    4.60
   8  -5   6   69.49    5.70
   8  -5   6   80.39    4.70
   8  -5   6   72.59    4.50
   7   4  -6   14.50    3.00
   7   4  -6   11.90    1.40
   7   4  -6   11.70    5.90
   7   4  -6   11.70    1.30
   7   4  -6   12.70    3.00
   7   4  -6   12.90    4.00
   6   4  -6   27.10   10.50
   6   4  -6   45.80    6.70
   6   4  -6   43.10    9.60
   6   4  -6   48.90    3.40
   6   4  -6   52.19    7.90
   6   4  -6   46.60    3.30
   5   4  -6  576.14   36.70
   5   4  -6  465.45   34.00
   5   4  -6  480.45   32.30
   5   4  -6  471.95   36.70
   5   4  -6  514.85   27.90
   5   4  -6  503.15   27.80
   4   4  -6  574.34   30.70
   4   4  -6  585.94   36.90
   4   4  -6  481.85   43.90
   4   4  -6  511.45   39.00
   4   4  -6  551.54   34.70
   4   4  -6  583.94   30.80
   4   4  -6  597.14   38.60
   3   4  -6   74.49   14.60
   3   4  -6   80.29   11.40
  -3  -4   6   89.09    7.10
  -3  -4   6   79.59    9.00
  -3  -4   6   89.29    6.50
   2   4  -6  188.08   12.80
   2   4  -6  198.38   16.00
   2   4  -6  173.78   19.40
  -2  -4   6  180.78   11.80
  -2  -4   6  201.18   12.50
  -2  -4   6  183.18   14.80
   1   4  -6  195.08   13.90
   1   4  -6  161.98   16.90
   1   4  -6  148.49   11.10
  -1  -4   6  168.78   11.10
  -1  -4   6  160.28   10.40
  -1  -4   6  170.58   13.20
   0   4  -6  105.29   12.20
   0   4  -6  114.09    7.10
   0   4  -6  112.89    8.30
   0  -4   6  111.09    7.80
   0  -4   6  107.99    9.50
   0  -4   6  103.59    7.30
  -1   4  -6  675.73   40.30
  -1   4  -6  630.14   34.20
  -1   4  -6  555.14   32.70
   1  -4   6  577.74   33.10
   1  -4   6  579.94   35.90
   1  -4   6  567.44   34.00
   1  -4   6  567.14   33.60
  -2   4  -6    0.10    1.20
  -2   4  -6    0.20    0.80
  -2   4  -6    1.30    0.90
   2  -4   6    2.70    2.40
   2  -4   6    1.50    1.40
   2  -4   6    0.30    1.10
  -3   4  -6    6.90    1.60
  -3   4  -6    8.10    2.20
  -3   4  -6    8.50    1.80
   3  -4   6    9.70    2.50
   3  -4   6    7.00    3.60
   3  -4   6    6.70    1.90
  -4   4  -6   24.50    3.20
  -4   4  -6   27.50    3.40
   4  -4   6   33.20    4.90
   4  -4   6   30.50    4.10
   4  -4   6   25.10    6.10
   5  -4   6  609.24   31.80
   5  -4   6  571.54   31.90
   5  -4   6  589.84   31.90
   5  -4   6  576.44   32.20
   5  -4   6  585.84   34.10
   5  -4   6  561.74   32.10
   6  -4   6  529.85   29.60
   6  -4   6  551.64   30.00
   6  -4   6  512.95   29.70
   6  -4   6  527.65   29.70
   6  -4   6  516.85   31.80
   6  -4   6  568.64   30.00
   6  -4   6  549.65   29.50
   6  -4   6  567.64   29.80
  -7   4  -6  448.76   24.60
   7  -4   6  442.46   24.60
   7  -4   6  444.26   24.80
   7  -4   6  417.46   26.50
   7  -4   6  420.36   24.40
   7  -4   6  448.86   24.80
   7  -4   6  486.65   24.80
   7  -4   6  464.35   24.80
   8  -4   6   71.19    4.40
   8  -4   6   87.79    4.70
   8  -4   6   78.29    4.60
   8  -4   6   70.39    4.60
   8  -4   6   61.49    5.50
   8  -4   6   73.89    4.60
   8  -4   6   67.39    4.30
   8   3  -6   74.29    5.70
   8   3  -6   55.59    3.80
   8   3  -6   72.79    3.90
   8   3  -6   61.69    6.70
   8   3  -6   51.39    8.60
   7   3  -6    1.40    0.70
   7   3  -6    1.00    1.90
   7   3  -6    1.70    0.60
   7   3  -6    1.50    4.20
   7   3  -6    2.40    2.30
   7   3  -6    0.80    2.70
   7   3  -6    0.30    0.60
   6   3  -6   77.69    5.00
   6   3  -6   82.59   11.80
   6   3  -6   71.39    4.70
   6   3  -6   67.19    4.80
   6   3  -6   79.29    8.20
   6   3  -6   73.99   10.30
   6   3  -6   63.79   15.70
   5   3  -6  339.57   31.00
   5   3  -6  431.36   23.20
   5   3  -6  430.56   23.50
   5   3  -6  431.46   29.90
   5   3  -6  442.56   28.90
   5   3  -6  428.16   23.40
   4   3  -6   97.79   15.80
   4   3  -6  124.69   14.70
  -4  -3   6  136.09    9.50
  -4  -3   6  125.29    8.80
   3   3  -6   75.19   11.70
   3   3  -6   91.29   10.80
  -3  -3   6   72.89    6.10
  -3  -3   6   71.69    5.60
   2   3  -6   68.59    5.50
   2   3  -6   66.79    8.20
   2   3  -6   57.39    9.20
  -2  -3   6   64.29    5.30
  -2  -3   6   64.69    4.90
  -2  -3   6   63.29    6.60
   1   3  -6 1569.04   85.49
   1   3  -6 1493.45   83.59
   1   3  -6 1494.15   87.59
   1   3  -6 1587.84   82.09
  -1  -3   6 1511.15   82.89
  -1  -3   6 1493.35   83.29
  -1  -3   6 1517.25   85.19
   0   3  -6  543.15   27.90
   0   3  -6  519.05   32.00
   0   3  -6  541.95   29.20
   0  -3   6  475.75   28.60
   0  -3   6  481.75   30.10
   0  -3   6  466.15   28.30
  -1   3  -6   16.20    1.90
  -1   3  -6   20.30    3.00
  -1   3  -6   19.50    4.00
  -1   3  -6   21.00    2.30
   1  -3   6   16.90    2.60
   1  -3   6   12.60    2.30
   1  -3   6   18.40    3.70
  -2   3  -6  397.76   22.40
  -2   3  -6  387.16   22.60
  -2   3  -6  398.86   23.30
   2  -3   6  402.46   23.80
   2  -3   6  383.36   23.20
   2  -3   6  389.76   25.50
   2  -3   6  407.26   22.40
  -3   3  -6    3.30    1.30
  -3   3  -6    7.30    1.90
  -3   3  -6    7.80    1.70
   3  -3   6    9.70    3.60
   3  -3   6    9.00    2.50
   3  -3   6    9.10    2.20
  -4   3  -6   38.30    4.10
  -4   3  -6   37.60    4.10
  -4   3  -6   43.30    4.60
   4  -3   6   38.20    5.30
   4  -3   6   42.40    7.30
   4  -3   6   44.20    5.20
  -5   3  -6   14.20    2.80
  -5   3  -6   13.80    2.50
   5  -3   6   14.50    1.60
   5  -3   6   12.90    1.50
   5  -3   6   15.60    1.50
   5  -3   6   10.80    1.60
   5  -3   6   13.70    1.70
   5  -3   6   15.60    4.60
   5  -3   6   14.80    3.00
   5  -3   6   14.10    1.80
   5  -3   6   11.30    1.60
   6  -3   6  262.37   17.30
   6  -3   6  296.07   15.80
   6  -3   6  268.57   15.50
   6  -3   6  275.07   15.30
   6  -3   6  289.27   15.50
   6  -3   6  260.87   15.20
   6  -3   6  268.67   15.70
   6  -3   6  264.87   15.50
   7  -3   6    4.40    1.00
   7  -3   6    4.70    1.80
   7  -3   6    6.30    1.20
   7  -3   6    4.90    1.00
   7  -3   6    6.00    1.20
   7  -3   6    6.60    1.20
   7  -3   6    7.20    1.00
   8  -3   6    5.10    1.70
   8  -3   6    4.80    0.90
   8  -3   6    5.00    0.90
   8  -3   6    4.90    0.80
   8  -3   6    4.10    0.80
   8  -3   6    3.80    0.80
   8  -3   6    5.10    0.90
   8   2  -6   21.30    1.80
   8   2  -6   23.80    2.00
   8   2  -6   23.00    1.80
   8   2  -6   17.20    7.00
   8   2  -6   21.80    3.80
   8   2  -6   28.80    6.20
   7   2  -6    1.00    0.80
   7   2  -6    0.10    1.90
   7   2  -6    0.40    0.60
   7   2  -6    1.00    0.70
   7   2  -6   -0.50    2.30
   7   2  -6    1.00    4.50
   7   2  -6    0.40    3.00
   6   2  -6  154.98    8.90
   6   2  -6  151.88   16.30
   6   2  -6  144.59   13.20
   6   2  -6  150.28    9.10
   6   2  -6  154.18   12.50
   6   2  -6  145.89    9.20
   5   2  -6  917.41   51.49
   5   2  -6  854.81   47.10
   5   2  -6  846.22   54.39
   5   2  -6  867.41   47.20
   5   2  -6  806.22   50.19
   5   2  -6  864.31   47.00
   5   2  -6  907.01   57.39
   4   2  -6  212.18   16.10
   4   2  -6  197.28   16.40
   4   2  -6  181.38   17.40
  -4  -2   6  183.68   12.60
  -4  -2   6  180.28   12.10
   3   2  -6   29.60    5.30
   3   2  -6   27.40    6.00
   3   2  -6   30.90    5.70
   3   2  -6   25.70    3.10
  -3  -2   6   28.70    3.60
  -3  -2   6   30.70    3.30
   2   2  -6    7.90    2.70
   2   2  -6    5.60    2.80
   2   2  -6    5.70    1.60
  -2  -2   6    4.30    1.00
  -2  -2   6    3.40    1.30
  -2  -2   6    5.60    1.30
   1   2  -6  420.76   25.50
   1   2  -6  433.46   24.30
   1   2  -6  421.66   23.10
   1   2  -6  384.66   26.80
  -1  -2   6  438.76   24.00
  -1  -2   6  419.96   25.30
  -1  -2   6  422.76   24.10
   0   2  -6  166.08   12.60
   0   2  -6  174.88   10.00
   0   2  -6  174.68   11.10
   0  -2   6  173.68   10.10
   0  -2   6  166.58   10.60
   0  -2   6  161.78   11.40
   0  -2   6  170.78   10.60
  -1   2  -6 1076.49   58.69
  -1   2  -6 1066.39   58.29
  -1   2  -6 1083.09   58.79
  -1   2  -6 1136.39   59.69
  -1   2  -6 1050.99   58.79
   1  -2   6 1013.30   59.29
   1  -2   6 1165.48   60.69
   1  -2   6 1062.39   58.79
   1  -2   6 1056.09   59.49
  -2   2  -6  278.77   15.50
  -2   2  -6  255.67   15.80
  -2   2  -6  254.87   15.50
  -2   2  -6  267.37   15.30
  -2   2  -6  263.87   14.90
   2  -2   6  248.88   15.40
   2  -2   6  252.67   15.90
   2  -2   6  256.87   16.20
  -3   2  -6  139.59    9.10
  -3   2  -6  132.49    9.10
  -3   2  -6  141.39    9.00
  -3   2  -6  121.69    8.70
  -3   2  -6  127.79    8.40
   3  -2   6  134.19   11.10
   3  -2   6  127.39    9.80
   3  -2   6  144.99    9.80
   3  -2   6  132.99    9.00
  -4   2  -6   59.79    5.30
  -4   2  -6   50.29    5.10
  -4   2  -6   57.49    5.60
   4  -2   6   74.09    6.90
   4  -2   6   55.09    6.50
  -5   2  -6   81.49    6.10
   5  -2   6   68.19    4.80
   5  -2   6   69.99    4.90
   5  -2   6   74.29    4.70
   5  -2   6   72.59    6.40
   5  -2   6   68.79    4.50
   5  -2   6   70.09    4.70
   5  -2   6   73.59    4.60
   5  -2   6   69.39    4.50
   6  -2   6  298.07   16.90
   6  -2   6  284.57   16.90
   6  -2   6  291.47   18.70
   6  -2   6  320.67   17.20
   6  -2   6  289.57   16.70
   6  -2   6  289.07   16.90
   6  -2   6  315.77   16.70
   6  -2   6  308.07   17.00
   7  -2   6  172.08   10.30
   7  -2   6  181.08   10.30
   7  -2   6  179.48   10.40
   7  -2   6  176.88   10.00
   7  -2   6  164.78   10.20
   7  -2   6  187.18   10.30
   7  -2   6  167.28   11.60
   8  -2   6    4.90    0.80
   8  -2   6    5.90    0.90
   8  -2   6    6.40    1.00
   8  -2   6    4.50    0.70
   8  -2   6    4.80    0.80
   8  -2   6    5.20    0.90
   9   1  -6   84.89    4.80
   9   1  -6   77.49    4.80
   9   1  -6   87.99    8.00
   9   1  -6   80.59    4.80
   8   1  -6   42.70   10.40
   8   1  -6   42.10    2.80
   8   1  -6   33.30    2.70
   8   1  -6   33.30    5.20
   8   1  -6   38.60    2.70
   8   1  -6   36.90    8.00
   7   1  -6  301.77   23.70
   7   1  -6  249.48   15.80
   7   1  -6  287.37   26.00
   7   1  -6  283.77   15.60
   7   1  -6  257.57   18.90
   7   1  -6  272.57   16.00
   7   1  -6  279.87   15.80
   7   1  -6  324.37   20.70
   6   1  -6    7.80    3.10
   6   1  -6   11.90    1.60
   6   1  -6    8.90    4.70
   6   1  -6    9.40    1.30
   6   1  -6    9.40    3.00
   6   1  -6    9.50    1.20
   6   1  -6    8.70    1.40
   6   1  -6   10.40    4.40
   5   1  -6  545.25   33.50
   5   1  -6  512.75   35.00
   5   1  -6  472.15   33.10
  -5  -1   6  477.95   29.10
  -5  -1   6  488.95   28.90
  -5  -1   6  467.25   28.70
   4   1  -6  659.63   42.60
   4   1  -6  679.63   41.10
   4   1  -6  719.73   41.50
  -4  -1   6  675.63   37.70
  -4  -1   6  624.44   37.80
  -4  -1   6  653.63   37.00
   3   1  -6  663.43   41.90
   3   1  -6  697.33   40.10
   3   1  -6  647.84   39.80
   3   1  -6  700.13   37.40
  -3  -1   6  665.73   37.00
  -3  -1   6  711.03   37.60
  -3  -1   6  623.74   37.60
   2   1  -6 7509.95  404.36
   2   1  -6 7546.95  403.06
   2   1  -6 7823.02  406.86
   2   1  -6 7455.05  404.46
  -2  -1   6 7692.23  402.86
  -2  -1   6 7129.09  402.76
  -2  -1   6 7522.65  402.36
   1   1  -6  514.45   29.00
   1   1  -6  520.25   27.60
   1   1  -6  509.15   31.40
   1   1  -6  533.95   28.80
  -1  -1   6  517.15   28.30
  -1  -1   6  485.45   28.80
  -1  -1   6  496.25   28.20
  -1  -1   6  456.25   27.80
   0   1  -6 1648.14   85.49
   0   1  -6 1576.14   84.59
   0   1  -6 1539.65   87.29
   0  -1   6 1608.84   85.19
   0  -1   6 1544.15   84.99
   0  -1   6 1592.14   84.39
   0  -1   6 1464.15   84.69
  -1   1  -6  166.58   10.80
  -1   1  -6  176.78   11.80
  -1   1  -6  162.18   10.20
   1  -1   6  171.68   10.80
   1  -1   6  156.48   10.30
   1  -1   6  165.08   10.70
  -2   1  -6 3053.39  168.48
  -2   1  -6 3061.59  168.08
  -2   1  -6 3071.89  167.78
  -2   1  -6 3088.59  168.68
  -2   1  -6 3116.49  168.18
   2  -1   6 3244.18  169.08
   2  -1   6 3191.58  168.98
   2  -1   6 3158.58  168.48
  -3   1  -6 1158.58   68.09
  -3   1  -6 1270.57   67.79
  -3   1  -6 1173.28   67.89
  -3   1  -6 1171.48   67.29
   3  -1   6 1339.27   69.09
   3  -1   6 1300.07   69.09
   3  -1   6 1244.88   68.19
  -4   1  -6   55.19    4.90
  -4   1  -6   59.19    5.80
  -4   1  -6   50.29    5.30
  -4   1  -6   66.99    5.70
   4  -1   6   63.69    6.80
   4  -1   6   56.49    6.70
   5  -1   6  396.36   23.70
   5  -1   6  431.26   23.30
   5  -1   6  415.76   23.30
   5  -1   6  429.66   23.60
   5  -1   6  423.56   23.60
   5  -1   6  410.26   23.50
   5  -1   6  458.05   23.60
   6  -1   6    7.90    1.20
   6  -1   6    7.40    1.30
   6  -1   6    8.30    1.40
   6  -1   6    8.80    1.20
   6  -1   6    6.30    1.20
   6  -1   6    7.80    1.10
   6  -1   6    7.60    1.30
   7  -1   6    8.50    1.20
   7  -1   6    8.60    1.20
   7  -1   6    9.50    1.40
   7  -1   6    9.00    1.30
   7  -1   6    8.80    1.30
   7  -1   6    9.40    1.10
   8  -1   6   79.09    4.80
   8  -1   6   80.69    4.70
   8  -1   6   79.79    4.70
   8  -1   6   87.69    4.80
   8  -1   6   80.09    4.80
   8  -1   6   70.79    4.70
   9   0  -6   15.50    1.40
   9   0  -6   18.00    2.90
   9   0  -6   16.90    5.70
   9   0  -6   15.80    1.40
   9   0  -6   16.30    1.50
   9   0  -6   20.70    4.80
  -9   0   6   15.70    1.30
   8   0  -6   23.60    6.20
   8   0  -6   20.80    2.20
   8   0  -6   27.00    4.50
   8   0  -6   25.80    2.30
   8   0  -6   21.40    2.20
   8   0  -6   23.30    2.00
   8   0  -6   27.30    7.80
   7   0  -6    6.90    1.20
   7   0  -6    5.40    3.30
   7   0  -6    5.60    2.50
   7   0  -6    4.20    3.40
   7   0  -6    7.90    1.10
   7   0  -6    4.90    1.10
   7   0  -6    5.40    2.70
   7   0  -6    5.40    1.10
   6   0  -6  788.42   49.40
   6   0  -6  823.42   44.20
   6   0  -6  803.82   51.09
   6   0  -6  848.22   47.60
   6   0  -6  832.32   44.30
   6   0  -6  793.32   44.20
   6   0  -6  837.42   44.10
   6   0  -6  773.52   46.60
   5   0  -6  972.00   59.79
   5   0  -6  972.40   58.59
   5   0  -6 1112.09   59.19
  -5   0   6  979.80   55.19
  -5   0   6  960.60   54.39
  -5   0   6  921.11   54.89
   4   0  -6 1806.42  105.69
   4   0  -6 1956.00  103.89
   4   0  -6 1943.91  104.09
  -4   0   6 1821.02  101.09
  -4   0   6 1882.11  100.59
  -4   0   6 1736.43  100.89
   3   0  -6  147.89   10.80
   3   0  -6  143.29   11.00
   3   0  -6  151.28    9.30
   3   0  -6  144.29   12.70
  -3   0   6  147.09    9.30
  -3   0   6  133.79    9.20
  -3   0   6  151.58    9.10
   2   0  -6 2481.95  125.29
   2   0  -6 2178.68  125.49
   2   0  -6 2359.16  128.29
   2   0  -6 2325.57  124.59
  -2   0   6 2389.06  124.19
  -2   0   6 2229.28  124.09
  -2   0   6 2157.98  124.29
   1   0  -6 2791.12  143.49
   1   0  -6 2669.53  142.49
   1   0  -6 2609.94  143.39
   1   0  -6 2713.23  146.19
  -1   0   6 2561.74  142.69
  -1   0   6 2625.24  143.09
  -1   0   6 2579.04  142.39
  -1   0   6 2678.33  142.69
   0   0  -6  705.13   39.50
   0   0  -6  704.83   41.50
   0   0  -6  708.23   38.70
   0   0   6  754.62   39.00
   0   0   6  678.73   39.10
   0   0   6  665.73   38.60
   0   0   6  707.23   39.00
  -1   0  -6  499.25   29.10
  -1   0  -6  542.65   30.60
  -1   0  -6  490.65   28.30
   1   0   6  486.45   29.00
   1   0   6  498.65   28.30
   1   0   6  511.35   28.70
  -2   0  -6  622.44   34.60
  -2   0  -6  615.24   35.10
   2   0   6  607.64   35.10
   2   0   6  624.94   34.90
   2   0   6  604.94   35.40
  -3   0  -6  349.87   21.10
  -3   0  -6  353.26   20.20
  -3   0  -6  351.46   20.60
  -3   0  -6  355.66   20.80
   3   0   6  347.17   21.60
   3   0   6  342.47   21.60
   3   0   6  350.86   21.10
  -4   0  -6  153.18   10.10
  -4   0  -6  167.18   10.70
  -4   0  -6  149.19   10.70
  -4   0  -6  164.18   11.10
   4   0   6  167.18   12.10
   4   0   6  159.68   11.70
   5   0   6  347.77   19.40
   5   0   6  348.57   19.30
   5   0   6  334.17   19.40
   5   0   6  343.67   19.40
   5   0   6  334.07   19.50
   5   0   6  357.06   19.20
   5   0   6  350.26   19.10
   6   0   6  592.14   31.10
   6   0   6  564.64   31.00
   6   0   6  590.24   30.90
   6   0   6  590.94   31.20
   6   0   6  526.05   30.90
   6   0   6  521.15   31.00
   7   0   6  155.58    9.10
   7   0   6  158.38    9.00
   7   0   6  153.98    9.10
   7   0   6  147.89    9.00
   7   0   6  170.08    9.00
   7   0   6  155.28    9.20
   8   0   6    1.30    0.50
   8   0   6    2.20    0.50
   8   0   6    1.90    0.50
   8   0   6    1.90    0.50
   9  -1  -6    0.70    3.00
   9  -1  -6    0.10    0.40
   9  -1  -6   -0.30    1.40
   9  -1  -6    0.90    2.20
   9  -1  -6    0.40    0.50
   9  -1  -6    0.10    0.50
  -9   1   6    0.10    0.40
   8  -1  -6    1.40    2.90
   8  -1  -6    2.70    0.80
   8  -1  -6    2.60    0.70
   8  -1  -6    3.90    2.00
   8  -1  -6    2.40    0.80
   8  -1  -6    1.40    0.80
   8  -1  -6    1.80    2.50
   7  -1  -6    0.70    2.10
   7  -1  -6   -0.50    0.50
   7  -1  -6    9.90    3.00
   7  -1  -6    0.30    1.70
   7  -1  -6   -0.20    0.50
   7  -1  -6    1.40    0.70
   7  -1  -6    0.20    0.60
   7  -1  -6    0.00    1.60
   6  -1  -6    2.10    1.10
   6  -1  -6    1.00    1.40
   6  -1  -6    0.90    0.60
   6  -1  -6    1.10    0.60
   6  -1  -6    1.60    1.60
   6  -1  -6    0.90    2.20
   6  -1  -6    0.20    0.60
  -6   1   6    8.20    3.10
   5  -1  -6   18.90    4.50
   5  -1  -6   23.10    5.70
   5  -1  -6   23.50    5.20
  -5   1   6   19.90    2.90
  -5   1   6   20.90    3.20
  -5   1   6   27.20    3.60
   4  -1  -6  404.96   25.00
   4  -1  -6  375.16   26.50
   4  -1  -6  400.16   24.90
  -4   1   6  372.96   22.40
  -4   1   6  406.96   22.30
  -4   1   6  363.16   22.30
   3  -1  -6 2840.02  147.19
   3  -1  -6 2536.75  149.79
   3  -1  -6 2679.03  145.59
   3  -1  -6 2709.33  147.69
  -3   1   6 2810.42  145.49
  -3   1   6 2690.83  145.69
  -3   1   6 2626.14  145.49
   2  -1  -6  621.54   38.00
   2  -1  -6  682.03   37.30
   2  -1  -6  657.03   40.60
   2  -1  -6  694.63   36.40
  -2   1   6  668.33   36.90
  -2   1   6  662.83   36.90
  -2   1   6  669.63   36.50
   1  -1  -6  779.72   41.80
   1  -1  -6  769.32   44.60
   1  -1  -6  700.13   41.60
  -1   1   6  756.22   41.20
  -1   1   6  703.73   40.70
  -1   1   6  749.92   41.10
   0  -1  -6  369.56   21.10
   0  -1  -6  375.66   21.90
   0  -1  -6  372.16   24.00
   0   1   6  351.96   21.00
   0   1   6  379.66   21.40
   0   1   6  368.86   21.50
  -1  -1  -6 2866.31  155.38
  -1  -1  -6 2852.11  156.08
  -1  -1  -6 3015.80  158.28
   1   1   6 2804.12  155.88
   1   1   6 2814.22  155.28
   1   1   6 2990.40  155.38
   1   1   6 2820.52  155.68
  -2  -1  -6   99.29    7.80
  -2  -1  -6  112.79    7.40
   2   1   6  100.69    7.20
   2   1   6   99.39    7.50
   2   1   6  107.49    7.60
   2   1   6   93.69    7.70
  -3  -1  -6  136.49    9.20
  -3  -1  -6  126.09    8.50
  -3  -1  -6  131.79    9.10
  -3  -1  -6  140.09    9.60
   3   1   6  120.89    9.60
   3   1   6  129.59    9.60
   3   1   6  129.49    9.40
  -4  -1  -6   92.79    8.30
   4   1   6   70.59    4.70
   4   1   6   72.29    4.80
   4   1   6   73.99    5.20
   4   1   6   77.19    4.90
   4   1   6   73.89    4.90
   5   1   6    1.00    0.80
   5   1   6    2.40    0.90
   5   1   6    1.90    0.70
   5   1   6    0.80    0.60
   5   1   6    1.20    0.60
   5   1   6    1.00    0.60
   5   1   6    1.00    0.70
   6   1   6   10.40    1.50
   6   1   6   11.90    1.40
   6   1   6   13.40    1.60
   6   1   6   12.50    1.40
   6   1   6   11.60    1.50
   6   1   6   12.30    1.60
   7   1   6  100.99    6.00
   7   1   6   86.49    6.10
   7   1   6  102.29    6.00
   7   1   6  102.19    5.90
   7   1   6  105.89    6.00
   9  -2  -6   54.99    3.60
   9  -2  -6   68.09    7.60
   9  -2  -6   61.89    8.10
   9  -2  -6   47.70    3.40
   9  -2  -6   55.59    5.30
  -9   2   6   52.99    3.50
   8  -2  -6    3.50    2.60
   8  -2  -6    4.30    0.90
   8  -2  -6    3.30    2.00
   8  -2  -6    4.20    0.90
   8  -2  -6    3.80    2.90
   8  -2  -6    4.10    0.90
  -8   2   6    2.90    0.90
   7  -2  -6  110.99   10.60
   7  -2  -6  103.59    6.70
   7  -2  -6  109.49    8.50
   7  -2  -6  113.89   11.80
   7  -2  -6  109.59    9.00
   7  -2  -6  103.99    6.70
   7  -2  -6  112.99    6.70
  -7   2   6  112.39    6.80
   6  -2  -6  110.59   11.00
   6  -2  -6   80.79    5.40
   6  -2  -6   86.39    9.50
   6  -2  -6   87.99    7.60
   6  -2  -6   92.59    5.40
  -6   2   6   88.39    7.40
  -6   2   6   81.59    5.50
   5  -2  -6  547.85   37.70
   5  -2  -6  604.84   36.40
   5  -2  -6  575.24   36.40
  -5   2   6  581.54   33.30
  -5   2   6  604.24   33.50
   4  -2  -6 1258.17   71.29
   4  -2  -6 1298.77   71.89
   4  -2  -6 1239.18   73.79
  -4   2   6 1213.98   68.59
  -4   2   6 1216.68   69.19
  -4   2   6 1331.97   69.19
   3  -2  -6   68.49    6.00
   3  -2  -6   73.29    6.80
   3  -2  -6   68.69    8.20
   3  -2  -6   67.99    5.30
  -3   2   6   76.29    5.40
  -3   2   6   61.99    4.90
  -3   2   6   69.69    5.30
   2  -2  -6  901.01   53.29
   2  -2  -6  888.01   50.49
   2  -2  -6  884.61   49.40
  -2   2   6  858.31   48.70
  -2   2   6  882.21   49.10
  -2   2   6  843.62   48.50
  -2   2   6  969.40   49.00
   1  -2  -6  251.37   15.00
   1  -2  -6  223.68   14.50
   1  -2  -6  248.78   17.60
  -1   2   6  238.98   14.10
  -1   2   6  216.88   13.80
  -1   2   6  233.88   14.00
  -1   2   6  221.58   13.70
   0  -2  -6  782.02   49.50
   0  -2  -6  824.02   47.00
   0   2   6  844.62   46.30
   0   2   6  830.32   46.50
   0   2   6  858.71   46.20
   0   2   6  873.11   46.70
  -1  -2  -6  906.41   50.39
  -1  -2  -6  901.61   49.60
  -1  -2  -6  916.81   52.99
   1   2   6  864.61   49.80
   1   2   6  898.51   49.99
   1   2   6  864.11   49.50
  -2  -2  -6  149.59   11.00
  -2  -2  -6  160.98   10.20
   2   2   6  153.58   10.30
   2   2   6  142.29   10.60
   2   2   6  157.38   10.60
  -3  -2  -6  831.72   47.30
  -3  -2  -6  841.82   47.90
  -3  -2  -6  825.42   47.50
  -3  -2  -6  859.61   46.80
   3   2   6  823.12   47.80
   3   2   6  870.81   48.40
   4   2   6  170.78   10.00
   4   2   6  178.98   10.30
   4   2   6  163.08   10.30
   4   2   6  177.58   10.10
   4   2   6  181.88   10.20
   4   2   6  175.18   10.30
   5   2   6  183.18   10.30
   5   2   6  174.28   10.50
   5   2   6  177.18   10.40
   5   2   6  176.38   10.50
   5   2   6  182.98   10.60
   6   2   6  202.48   11.40
   6   2   6  204.08   11.80
   6   2   6  191.28   11.40
   6   2   6  209.88   11.40
   6   2   6  189.78   11.20
   7   2   6    2.20    0.60
   7   2   6    5.40    0.70
   7   2   6    4.20    0.60
   9  -3  -6    5.50    0.90
   9  -3  -6    6.60    2.90
   9  -3  -6    7.80    2.90
   9  -3  -6    6.50    3.20
  -9   3   6    7.10    1.00
  -9   3   6    5.10    1.00
   8  -3  -6  108.09    6.10
   8  -3  -6   99.69   10.70
   8  -3  -6   91.99    9.40
   8  -3  -6   90.69    6.00
  -8   3   6  104.09    6.30
   7  -3  -6   71.59    8.10
   7  -3  -6   73.59    4.60
   7  -3  -6   77.29    9.10
   7  -3  -6   70.89    6.80
   7  -3  -6   66.79    4.70
  -7   3   6   71.09    4.80
   6  -3  -6  101.29    8.40
   6  -3  -6   97.19   10.30
   6  -3  -6   99.59    6.20
   6  -3  -6  139.59   12.30
  -6   3   6  103.99    6.50
   5  -3  -6  937.11   60.49
   5  -3  -6 1040.40   59.39
   5  -3  -6 1063.79   59.19
  -5   3   6  949.71   55.99
  -5   3   6 1030.90   56.19
  -5   3   6 1013.60   55.69
   4  -3  -6  173.28   15.30
   4  -3  -6  173.18   13.80
  -4   3   6  183.08   11.70
  -4   3   6  177.48   11.40
  -4   3   6  195.68   11.60
   3  -3  -6 1080.89   60.89
   3  -3  -6 1092.39   62.89
   3  -3  -6 1064.89   65.19
  -3   3   6 1091.19   60.69
  -3   3   6 1101.19   60.19
  -3   3   6 1149.89   60.69
  -3   3   6 1133.59   60.39
   2  -3  -6   55.59    5.10
   2  -3  -6   61.39    5.90
   2  -3  -6   59.79    8.60
  -2   3   6   58.39    4.70
  -2   3   6   58.09    4.50
  -2   3   6   61.69    4.90
  -2   3   6   56.79    4.50
   1  -3  -6  878.51   52.49
   1  -3  -6  903.61   50.09
   1  -3  -6  832.12   48.80
  -1   3   6  881.41   48.00
  -1   3   6  880.01   48.00
  -1   3   6  845.12   48.20
  -1   3   6  844.22   48.00
   0  -3  -6 1230.48   73.59
   0  -3  -6 1240.98   70.09
   0   3   6 1292.87   69.19
   0   3   6 1267.07   69.19
   0   3   6 1241.78   68.99
   0   3   6 1265.47   69.39
  -1  -3  -6  293.27   23.10
  -1  -3  -6  350.46   20.80
   1   3   6  329.37   19.90
   1   3   6  322.97   19.60
   1   3   6  329.47   19.70
  -2  -3  -6  275.77   17.90
  -2  -3  -6  270.07   16.80
   2   3   6  270.07   17.20
   2   3   6  264.67   16.90
   3   3   6  235.98   13.40
   3   3   6  237.18   13.30
   3   3   6  240.18   13.50
   3   3   6  231.68   13.50
   3   3   6  230.78   13.40
   4   3   6  228.48   13.30
   4   3   6  242.28   13.50
   4   3   6  240.28   13.50
   4   3   6  234.78   13.30
   4   3   6  232.48   13.50
   5   3   6  159.08    9.40
   5   3   6  170.58    9.70
   5   3   6  152.48    9.20
   6   3   6  102.19    5.90
   9  -4  -6  107.09    9.10
   9  -4  -6   90.49    9.40
  -9   4   6   95.79    6.00
  -9   4   6   97.29    5.90
   8  -4  -6  144.49   13.60
   8  -4  -6  158.48   12.90
  -8   4   6  157.68    9.30
  -8   4   6  153.78    9.00
   7  -4  -6   66.09    8.50
   7  -4  -6   67.49    6.50
   7  -4  -6   80.49    7.70
  -7   4   6   67.89    4.90
   6  -4  -6  827.92   50.59
   6  -4  -6  845.22   48.50
   6  -4  -6  842.82   47.60
  -6   4   6  803.72   45.10
  -6   4   6  808.82   45.10
   5  -4  -6   10.50    4.30
   5  -4  -6   11.10    3.70
  -5   4   6   13.80    2.60
  -5   4   6   11.10    2.60
   4  -4  -6  641.04   43.10
   4  -4  -6  672.23   41.00
  -4   4   6  704.43   38.10
  -4   4   6  661.83   38.20
   3  -4  -6  777.92   48.90
   3  -4  -6  769.52   44.00
   3  -4  -6  777.72   46.20
  -3   4   6  742.73   43.20
  -3   4   6  813.02   43.70
  -3   4   6  782.22   43.60
   2  -4  -6  255.97   16.40
   2  -4  -6  269.07   17.90
   2  -4  -6  257.97   20.20
  -2   4   6  243.38   15.40
  -2   4   6  236.28   15.50
  -2   4   6  264.57   15.80
   1  -4  -6  274.47   21.10
   1  -4  -6  248.38   16.90
  -1   4   6  268.57   16.30
  -1   4   6  254.37   16.10
  -1   4   6  260.57   16.20
   0  -4  -6   26.80    4.40
   0  -4  -6   25.70    6.40
   0   4   6   26.60    3.70
   0   4   6   32.20    4.10
   0   4   6   30.20    4.00
  -1  -4  -6   76.59   11.50
  -1  -4  -6   71.69    8.20
   1   4   6   68.99    6.80
   1   4   6   74.19    7.00
   1   4   6   63.29    6.60
  -2  -4  -6 1286.57   65.49
   2   4   6 1098.19   62.29
   2   4   6 1114.79   62.19
   2   4   6 1105.59   61.79
   2   4   6 1157.08   61.79
   2   4   6 1122.39   61.79
   3   4   6  329.77   18.40
   3   4   6  324.67   18.50
   3   4   6  323.17   18.50
   3   4   6  336.27   18.50
   9  -5  -6   19.60    3.70
   9  -5  -6   18.40    4.30
  -9   5   6   19.90    1.70
  -9   5   6   16.90    1.90
   8  -5  -6   -0.40    1.60
   8  -5  -6    1.20    1.70
   8  -5  -6    0.60    1.80
  -8   5   6   -0.10    0.80
  -8   5   6    0.70    0.70
   7  -5  -6  140.89   11.50
   7  -5  -6  131.69   10.20
   7  -5  -6  133.79   12.80
  -7   5   6  128.19    8.40
  -7   5   6  136.69    8.30
  -7   5   6  132.99    8.00
   6  -5  -6  298.97   22.80
   6  -5  -6  362.16   22.00
   6  -5  -6  293.47   19.90
  -6   5   6  290.17   17.70
  -6   5   6  313.77   17.90
  -6   5   6  315.17   17.50
   5  -5  -6    2.90    3.80
   5  -5  -6    1.60    2.40
  -5   5   6    2.50    1.70
  -5   5   6    1.90    1.50
   4  -5  -6 1442.86   80.19
   4  -5  -6 1315.67   82.29
  -4   5   6 1399.26   76.59
  -4   5   6 1384.46   76.89
   3  -5  -6   27.60    5.50
   3  -5  -6   20.50    6.00
   3  -5  -6   23.80    4.20
  -3   5   6   25.40    3.60
  -3   5   6   24.50    3.60
  -3   5   6   24.80    3.40
   2  -5  -6  445.56   29.80
   2  -5  -6  436.86   27.00
   2  -5  -6  448.86   32.00
  -2   5   6  417.46   26.10
  -2   5   6  467.05   26.20
  -2   5   6  429.96   26.00
   1  -5  -6  127.79   13.60
   1  -5  -6  116.79    9.60
  -1   5   6  107.49    8.60
  -1   5   6  112.39    8.60
  -1   5   6  108.29    8.50
   0  -5  -6   79.79    9.10
   0  -5  -6   93.79   13.60
   0   5   6   93.39    8.40
   0   5   6   95.89    8.40
   1   5   6  546.45   30.40
   1   5   6  520.35   30.00
   1   5   6  512.25   30.00
   1   5   6  544.45   34.60
   1   5   6  506.65   30.00
   1   5   6  660.63   38.20
   2   5   6 1923.31  100.19
   2   5   6 1910.41  100.19
   2   5   6 1892.91  100.59
   2   5   6 1977.20  100.39
   2   5   6 1562.94  108.49
   3   5   6   88.99    5.60
   9  -6  -6  122.29    9.40
   9  -6  -6  113.29   10.00
  -9   6   6  107.29    6.70
  -9   6   6  122.09    7.10
   8  -6  -6    6.20    2.00
   8  -6  -6    5.60    2.40
   8  -6  -6    6.00    3.00
  -8   6   6    6.40    1.30
  -8   6   6    5.00    1.00
  -8   6   6    5.70    1.20
   7  -6  -6  116.79    9.60
   7  -6  -6  145.99   10.70
   7  -6  -6  140.19   12.80
  -7   6   6  109.29    7.90
  -7   6   6  126.49    7.70
  -7   6   6  126.09    8.00
   6  -6  -6   12.10    2.90
   6  -6  -6   15.00    4.70
  -6   6   6   14.10    1.90
  -6   6   6   13.70    1.90
   5  -6  -6   46.70    7.00
   5  -6  -6   41.50    4.90
  -5   6   6   39.80    3.60
  -5   6   6   47.90    3.50
   3  -6  -6  350.96   29.00
   3  -6  -6  385.06   24.00
   3  -6  -6  411.46   27.10
  -3   6   6  359.26   23.20
  -3   6   6  382.86   23.20
   2  -6  -6   14.90    5.90
   2  -6  -6   12.50    6.60
   2  -6  -6   12.70    3.60
  -2   6   6   14.80    3.20
  -2   6   6   12.50    2.80
  -1   6   6   23.30    7.90
  -1   6   6   41.60    7.60
  -1   6   6   27.60    5.60
  -1   6   6   33.80    3.00
  -1   6   6   24.00    2.80
  -1   6   6   26.50    2.70
  -1   6   6   31.80    2.80
   0   6   6   24.30    2.50
   0   6   6   21.10    2.60
   0   6   6   20.50    2.40
   0   6   6   18.50    2.20
   0   6   6   27.90    8.10
   0   6   6   15.60    4.30
   1   6   6  492.25   32.30
   1   6   6  445.76   34.60
   1   6   6  505.05   26.90
   1   6   6  473.35   27.30
   1   6   6  484.05   27.00
   1   6   6  485.15   26.80
   2   6   6  358.96   21.60
   2   6   6  420.16   26.80
   2   6   6  394.66   21.90
   2   6   6  367.76   21.40
   9  -7  -6   10.80    2.80
   9  -7  -6   11.20    2.50
  -9   7   6   10.10    1.30
  -9   7   6    9.60    1.20
   8  -7  -6  167.08   11.80
   8  -7  -6  180.88   14.80
   8  -7  -6  192.28   13.50
  -8   7   6  186.18   10.80
  -8   7   6  184.68   10.70
   7  -7  -6  193.88   16.00
   7  -7  -6  154.58   11.80
   7  -7  -6  175.48   15.00
  -7   7   6  160.68   10.20
  -7   7   6  170.48   10.30
   6  -7  -6   70.79    6.90
   6  -7  -6   76.89    9.40
  -6   7   6   72.59    5.30
  -6   7   6   79.99    5.30
   5  -7  -6  410.86   28.30
  -5   7   6  373.86   22.70
  -5   7   6  398.56   22.50
  -5   7   6  411.16   22.60
   4  -7  -6   38.70    7.10
  -4   7   6   35.00    3.30
  -4   7   6   38.00    3.50
  -4   7   6   38.40    3.10
  -3   7   6  200.48   11.00
  -3   7   6  187.48   12.30
  -3   7   6  181.48   11.10
  -3   7   6  178.48   11.00
  -3   7   6  150.88   15.00
  -3   7   6  202.68   11.20
  -2   7   6  142.59    8.70
  -2   7   6  140.79    8.60
  -2   7   6   86.79   15.80
  -2   7   6  139.29   13.10
  -2   7   6  141.99    8.50
  -2   7   6  143.59    8.90
  -1   7   6   83.09   18.30
  -1   7   6   97.49    6.30
  -1   7   6   98.39    6.60
  -1   7   6   98.19   10.70
  -1   7   6   96.59   15.70
  -1   7   6  101.09    6.50
  -1   7   6   91.69    6.70
   0   7   6  557.44   33.80
   0   7   6  615.64   39.50
   0   7   6  650.83   33.40
   0   7   6  546.55   42.60
   0   7   6  650.23   33.40
   0   7   6  606.54   33.60
   0   7   6  559.74   43.00
   1   7   6  516.75   38.30
   1   7   6  695.13   44.40
   1   7   6  636.54   33.20
   1   7   6  593.04   33.60
   1   7   6  589.14   33.30
   2   7   6    4.00    2.60
   2   7   6    0.90    0.70
   2   7   6    3.30    0.90
   2   7   6    2.50    1.10
   9  -8  -6    1.50    1.30
  -9   8   6    1.30    0.60
  -9   8   6    1.50    0.60
   8  -8  -6  130.89    9.20
   8  -8  -6  154.78   12.00
  -8   8   6  144.09    8.50
  -8   8   6  134.69    8.40
   7  -8  -6   27.10    4.00
   7  -8  -6   31.30    5.90
  -7   8   6   33.70    2.90
  -7   8   6   24.20    2.70
   6  -8  -6   98.79   10.70
   6  -8  -6   94.89    8.20
  -6   8   6  101.99    6.40
  -6   8   6   95.49    6.40
  -6   8   6  101.19    6.60
   5  -8  -6  112.79   11.80
  -5   8   6  115.09    7.50
  -5   8   6  128.19    7.90
  -5   8   6  121.99    7.60
   4  -8  -6  287.57   21.90
  -4   8   6  290.97   25.00
  -4   8   6  288.67   16.90
  -4   8   6  282.47   16.90
  -4   8   6  308.77   17.00
  -3   8   6  106.19    7.00
  -3   8   6   91.39    6.60
  -3   8   6   97.09    6.60
  -3   8   6  103.89    7.70
  -3   8   6   99.69    6.70
  -3   8   6   97.69   10.90
  -2   8   6    0.00    6.40
  -2   8   6    0.70    0.80
  -2   8   6    0.10    0.80
  -2   8   6   -1.60    6.90
  -2   8   6    1.20    0.90
  -2   8   6    0.00    0.90
  -2   8   6   -0.80    2.10
  -1   8   6  104.59   18.20
  -1   8   6  136.89   14.30
  -1   8   6  149.59    9.40
  -1   8   6  149.79    9.10
  -1   8   6  170.28    9.10
  -1   8   6  149.19    9.70
   0   8   6  186.08   11.30
   0   8   6  191.38   11.50
   0   8   6  196.78   11.90
   0   8   6  193.08   21.60
   0   8   6  186.58   16.60
   1   8   6  323.07   18.00
   1   8   6  327.87   17.50
   1   8   6  304.47   17.70
   1   8   6  294.37   22.10
   2   8   6  174.58   10.10
   8  -9  -6   73.79    6.90
  -8   9   6   63.19    4.50
  -8   9   6   73.89    4.50
   7  -9  -6  185.28   12.20
   7  -9  -6  190.38   14.60
  -7   9   6  169.98   11.00
  -7   9   6  199.68   10.90
   6  -9  -6   44.70    6.50
   6  -9  -6   43.20    4.70
  -6   9   6   47.50    3.50
  -6   9   6   42.50    3.30
  -6   9   6   42.30    3.80
   5  -9  -6  144.79   12.80
  -5   9   6  125.69    8.20
  -5   9   6  125.79    8.30
  -4   9   6   73.59    8.90
   3  -9  -6  240.48   17.70
  -3   9   6  231.18   13.60
  -3   9   6  215.48   13.30
  -3   9   6  232.38   13.40
  -3   9   6  185.68   17.20
  -3   9   6  238.28   13.20
  -2   9   6    1.30    2.50
  -2   9   6    2.00    1.10
  -2   9   6    2.60    1.20
  -2   9   6   -0.40    5.50
  -2   9   6    3.80    1.00
  -2   9   6    3.90    1.10
  -2   9   6  -11.10    5.10
  -1   9   6  177.98   15.60
  -1   9   6  164.78   10.80
  -1   9   6  171.28   10.20
  -1   9   6  179.08   10.50
   0   9   6   28.00    2.30
   0   9   6   27.60    2.50
   0   9   6   26.30    2.70
   0   9   6   21.90    8.40
   0   9   6   29.30    5.60
   1   9   6    2.80    0.80
   1   9   6    1.50    3.40
   1   9   6    4.60    0.80
   1   9   6    4.80    2.30
   7 -10  -6    7.70    2.40
   7 -10  -6    8.10    1.70
  -7  10   6    7.70    1.10
  -7  10   6    9.00    1.10
   6 -10  -6   47.40    5.90
   6 -10  -6   44.80    4.40
  -6  10   6   51.49    3.40
  -6  10   6   45.40    3.40
   5 -10  -6   48.40    4.80
   5 -10  -6   46.80    6.00
  -5  10   6   45.50    3.50
  -5  10   6   45.30    3.50
   4 -10  -6    7.60    2.80
  -4  10   6    2.90    4.10
  -4  10   6    5.00    1.20
  -4  10   6    2.50    2.40
  -4  10   6    6.70    1.70
  -4  10   6    8.80    1.40
  -4  10   6   -6.70    3.20
  -4  10   6    7.90    1.20
  -3  10   6    2.00    1.00
  -3  10   6    2.40    2.50
  -3  10   6    2.00    0.90
  -3  10   6    3.80    1.00
  -3  10   6    3.50    0.90
  -3  10   6   -6.20    3.40
  -3  10   6   -1.60    3.60
  -2  10   6  137.19    8.20
  -2  10   6  166.38    8.50
  -2  10   6  140.09    8.60
  -2  10   6  109.29   11.40
  -1  10   6   58.59    3.90
  -1  10   6   64.89    4.20
  -1  10   6   65.39    3.80
  -1  10   6   44.30    6.50
   0  10   6   39.10    2.70
   0  10   6   41.30    2.50
   0  10   6   30.90    4.50
   5 -11  -6   33.10    3.20
   5 -11  -6   34.30    4.00
  -5  11   6   34.00    2.40
  -5  11   6   34.00    2.50
   4 -11  -6  183.58   11.20
  -4  11   6  176.68   10.00
  -4  11   6  162.78   10.00
  -3  11   6   21.20    1.80
  -3  11   6   17.20    3.40
  -3  11   6   21.30    1.80
   0  11  -7   68.99    6.70
   0  11  -7   63.29    4.50
   0 -11   7   69.89    4.90
  -1  11  -7   41.20    3.60
  -1  11  -7   46.10    5.80
  -1  11  -7   47.30   11.40
  -1  11  -7   19.60    9.00
   1 -11   7   54.09    4.10
  -2  11  -7  173.18   10.40
  -2  11  -7  196.78   11.10
  -2  11  -7  164.18   13.00
   2 -11   7  189.48   11.40
   2 -11   7  173.18   13.60
  -3  11  -7   21.70    2.40
  -3  11  -7   20.80    2.20
   3 -11   7   22.00    2.80
   3 -11   7   16.10    3.70
  -4  11  -7    1.10    0.90
  -4  11  -7    0.90    0.80
   4 -11   7    0.80    1.00
   4 -11   7    0.50    1.30
  -5  11  -7   52.19    3.50
  -5  11  -7   42.70    3.20
   5 -11   7   50.29    5.20
   5 -11   7   51.69    4.10
  -6  11  -7    1.80    0.70
   2  10  -7   11.20    5.80
   2  10  -7    9.00    4.40
   2  10  -7    6.80    2.20
   2  10  -7    6.10    2.10
   2  10  -7    6.00    1.90
   1  10  -7   47.60    3.60
   1  10  -7   53.39    8.30
   1  10  -7   47.70    6.20
   1  10  -7   44.80    6.50
   1  10  -7   37.60    9.10
   0  10  -7    0.70    1.90
   0  10  -7    0.20    2.20
   0  10  -7    0.00    1.70
   0  10  -7    0.00    0.80
   0  10  -7   -0.40    5.80
   0  10  -7    4.00    8.00
  -1  10  -7   61.59    7.20
  -1  10  -7   63.39    4.50
  -1  10  -7   61.29    8.90
  -1  10  -7   80.89   15.20
  -1  10  -7   72.29    5.30
   1 -10   7   58.59    5.40
  -2  10  -7   88.19   13.90
  -2  10  -7  120.59   12.30
  -2  10  -7  131.49    8.40
  -2  10  -7  136.39    7.80
   2 -10   7  119.89    8.80
  -3  10  -7   69.39    4.90
  -3  10  -7   68.79    5.30
   3 -10   7   72.09    6.20
   3 -10   7   69.79    8.90
  -4  10  -7  127.09    8.60
  -4  10  -7  147.79    8.60
  -4  10  -7  134.99    8.10
   4 -10   7  149.88    9.90
   4 -10   7  122.19   11.40
  -5  10  -7    8.70    1.30
  -5  10  -7    8.90    1.40
   5 -10   7    8.30    2.70
   5 -10   7    9.90    2.20
  -6  10  -7   69.19    4.60
  -6  10  -7   70.69    4.70
   6 -10   7   75.29    6.80
   6 -10   7   80.39    5.80
  -7  10  -7   10.20    1.10
   7 -10   7   11.00    1.60
   3   9  -7   21.70    4.40
   3   9  -7   22.20    3.70
   3   9  -7   27.30    5.40
   3   9  -7   23.90    3.10
   3   9  -7   21.60    4.30
   3   9  -7   24.20    3.40
   2   9  -7   81.59    8.80
   2   9  -7   69.99    9.30
   2   9  -7   70.09    6.20
   2   9  -7   58.19    8.10
   2   9  -7   59.39    8.30
   2   9  -7   63.69    6.60
   1   9  -7  124.39   13.10
   1   9  -7  108.59    9.00
   1   9  -7  110.79    7.40
   1   9  -7  120.29   12.10
   1   9  -7  109.59    9.60
   1   9  -7   86.79   11.40
   1   9  -7  101.19   12.40
   0   9  -7  138.39   11.70
   0   9  -7  124.09   14.10
   0   9  -7  145.49   15.60
   0   9  -7  134.29    9.40
   0   9  -7  162.78   15.20
   0   9  -7  157.38   11.70
   0   9  -7  156.98   15.90
  -1   9  -7  221.78   12.40
  -1   9  -7  208.68   11.50
  -1   9  -7  164.38   20.20
  -1   9  -7  183.08   17.90
  -1   9  -7  143.79   14.30
  -1   9  -7  215.18   17.10
  -2   9  -7    9.60    2.10
  -2   9  -7   -9.20    7.60
  -2   9  -7   11.40    4.70
  -2   9  -7    6.80    1.50
   2  -9   7    7.50    2.20
  -3   9  -7   86.69    5.80
  -3   9  -7   77.19    6.00
   3  -9   7   78.79    7.00
  -4   9  -7  256.77   14.70
  -4   9  -7  261.37   15.20
  -4   9  -7  258.87   15.40
   4  -9   7  243.98   19.00
   4  -9   7  265.87   16.80
  -5   9  -7   28.30    2.80
  -5   9  -7   28.70    2.60
   5  -9   7   24.30    5.00
   5  -9   7   25.20    3.70
  -6   9  -7    8.40    1.40
  -6   9  -7    7.90    1.30
   6  -9   7    9.10    2.10
   6  -9   7    8.20    2.70
  -7   9  -7   22.20    1.90
   7  -9   7   21.50    2.80
   4   8  -7   20.90    5.90
   4   8  -7   16.60    2.60
   4   8  -7   14.80    1.40
   4   8  -7   17.70    3.20
   4   8  -7   20.40    4.10
   4   8  -7   15.40    3.70
   3   8  -7    5.60    3.40
   3   8  -7    6.10    3.20
   3   8  -7    4.90    4.60
   3   8  -7    5.20    3.10
   3   8  -7    4.80    2.00
   3   8  -7    3.80    0.90
   3   8  -7    5.90    2.60
   2   8  -7   43.80    8.60
   2   8  -7   39.70    6.30
   2   8  -7   40.40    5.30
   2   8  -7   42.60   11.20
   2   8  -7   48.00    7.40
   2   8  -7   37.10    8.80
   1   8  -7   85.89   10.20
   1   8  -7   94.79    6.50
   1   8  -7   88.39    8.00
   1   8  -7   84.39   12.20
   1   8  -7   98.79    9.40
   1   8  -7   91.99   13.60
   1   8  -7   80.09    5.70
   1   8  -7  110.89   12.80
   0   8  -7  410.76   26.70
   0   8  -7  392.96   25.70
   0   8  -7  451.65   32.30
   0   8  -7  402.86   23.90
   0   8  -7  408.56   29.10
   0   8  -7  441.96   32.30
   0   8  -7  401.86   30.90
   0  -8   7  413.66   23.00
  -1   8  -7  359.16   28.00
  -1   8  -7  391.96   21.00
  -1   8  -7  310.27   23.70
  -1   8  -7  417.16   29.60
  -1   8  -7  363.86   21.50
   1  -8   7  370.36   20.60
  -2   8  -7   23.70    6.10
  -2   8  -7   23.20    2.90
  -2   8  -7   23.40    2.60
  -2   8  -7    8.60    9.30
   2  -8   7   21.10    2.20
   2  -8   7   19.80    3.40
  -3   8  -7  264.37   15.90
  -3   8  -7  284.57   15.60
   3  -8   7  272.97   17.40
   3  -8   7  246.98   15.20
  -4   8  -7    0.40    0.70
  -4   8  -7   -0.20    0.80
  -4   8  -7    0.80    1.10
   4  -8   7    1.60    1.60
   4  -8   7   -0.40    1.40
   4  -8   7    1.40    1.00
  -5   8  -7  214.38   12.90
  -5   8  -7  217.18   12.70
   5  -8   7  216.98   16.90
   5  -8   7  227.38   12.70
   5  -8   7  215.88   14.80
  -6   8  -7  119.79    7.00
  -6   8  -7  102.69    6.60
  -6   8  -7  111.59    6.80
   6  -8   7  107.39    8.40
   6  -8   7  119.39    6.80
   6  -8   7   98.99    9.60
  -7   8  -7   -0.50    0.50
  -7   8  -7    0.50    0.70
   7  -8   7   -0.90    0.90
   7  -8   7    0.20    0.50
  -8   8  -7   86.29    5.10
  -8   8  -7   91.29    5.20
   8  -8   7   85.89    6.00
   8  -8   7   86.39    5.20
   5   7  -7    2.20    1.70
   5   7  -7    3.40    1.30
   5   7  -7    3.70    2.10
   5   7  -7    3.60    2.10
   5   7  -7    4.00    4.00
   5   7  -7    4.40    0.70
   4   7  -7   61.49   14.50
   4   7  -7   95.89    7.40
   4   7  -7   69.09    9.70
   4   7  -7   89.49    9.60
   4   7  -7   82.49    8.50
   4   7  -7   77.19    5.00
   3   7  -7  169.88   14.10
   3   7  -7  162.08   15.30
   3   7  -7  154.58    8.90
   3   7  -7  159.28   14.60
   3   7  -7  123.19   18.70
   3   7  -7  128.39   15.70
   2   7  -7  469.95   26.90
   2   7  -7  512.45   29.80
   2   7  -7  495.95   34.80
   2   7  -7  507.25   33.50
   2   7  -7  431.76   32.00
   2   7  -7  537.75   38.50
   2   7  -7  475.85   41.10
   1   7  -7  102.59    8.90
   1   7  -7  124.59   16.90
   1   7  -7  116.29    7.00
   1   7  -7  123.99   11.30
   1   7  -7  107.09    7.60
   1   7  -7  112.79   14.60
   1   7  -7  130.09   13.40
   1   7  -7  103.79   11.40
   0   7  -7   84.49    6.10
   0   7  -7   82.89    8.40
   0   7  -7   76.49    5.40
   0   7  -7   83.59   10.30
   0   7  -7   84.79    7.60
   0   7  -7   68.69   12.60
   0   7  -7   88.19   12.80
   0   7  -7  105.09    9.20
  -1   7  -7   29.20    3.20
  -1   7  -7   24.70    4.30
  -1   7  -7   31.90    2.80
  -1   7  -7   29.00    6.30
   1  -7   7   25.60    2.50
  -2   7  -7  163.78    9.40
  -2   7  -7  146.69    9.70
   2  -7   7  153.38    9.20
  -3   7  -7  131.09    7.30
  -3   7  -7  121.29    7.50
   3  -7   7  107.09    7.20
   3  -7   7  113.29    9.00
  -4   7  -7   67.99    4.80
  -4   7  -7   73.09    4.70
   4  -7   7   66.59    7.80
   4  -7   7   71.19    4.80
   4  -7   7   65.49    6.40
  -5   7  -7    0.10    0.60
  -5   7  -7    0.10    0.70
   5  -7   7    0.60    2.30
   5  -7   7    0.10    1.40
   5  -7   7   -0.30    0.70
  -6   7  -7   52.19    3.90
  -6   7  -7   49.00    3.70
  -6   7  -7   61.19    3.90
   6  -7   7   53.29    3.90
   6  -7   7   56.59    5.50
  -7   7  -7  155.98    8.90
  -7   7  -7  143.79    8.80
   7  -7   7  151.68    8.80
   7  -7   7  146.99   10.30
  -8   7  -7    5.60    0.90
  -8   7  -7    7.50    1.00
   8  -7   7    6.10    0.80
   8  -7   7    3.60    1.20
   6   6  -7   39.20    4.90
   6   6  -7   34.60    4.00
   6   6  -7   28.70    7.20
   6   6  -7   40.80    3.80
   6   6  -7   38.00    2.40
   5   6  -7    2.70    0.70
   5   6  -7    1.90    1.90
   5   6  -7    3.60    0.80
   5   6  -7    2.00    2.30
   5   6  -7    0.90    4.60
   5   6  -7    2.20    2.50
   5   6  -7    0.60    2.20
   4   6  -7  147.79   22.40
   4   6  -7  217.78   12.20
   4   6  -7  233.98   12.30
   4   6  -7  225.28   19.00
   4   6  -7  208.98   15.80
   4   6  -7  203.98   18.10
   4   6  -7  209.48   20.20
   3   6  -7   42.80    8.00
   3   6  -7   49.20    6.90
   3   6  -7   48.60    9.00
   3   6  -7   62.69    3.80
   3   6  -7   44.30   10.10
   3   6  -7   56.59    9.00
   3   6  -7   41.40   13.20
   2   6  -7   78.79    5.10
   2   6  -7   78.79   12.90
   2   6  -7   84.29    7.90
   2   6  -7   71.79    9.30
   2   6  -7   79.39   17.30
   2   6  -7   74.39    9.80
   2   6  -7   86.29    9.70
   1   6  -7  665.13   44.30
   1   6  -7  671.73   38.60
   1   6  -7  639.34   42.10
   1   6  -7  665.93   46.90
   1   6  -7  690.23   41.10
   1   6  -7  667.83   44.00
  -1  -6   7  824.22   41.60
  -1  -6   7  830.32   44.30
  -1  -6   7  820.62   49.70
   0   6  -7  555.34   37.70
   0  -6   7  656.93   37.00
   0  -6   7  664.53   39.00
   0  -6   7  632.94   40.70
  -1   6  -7  454.85   26.30
  -1   6  -7  421.26   28.00
   1  -6   7  458.65   31.00
   1  -6   7  473.35   27.50
  -2   6  -7  242.98   17.50
  -2   6  -7  252.47   16.10
   2  -6   7  271.27   17.40
   2  -6   7  267.37   20.90
  -3   6  -7  237.78   16.50
  -3   6  -7  219.68   15.20
   3  -6   7  265.57   16.90
   3  -6   7  243.98   21.00
  -4   6  -7  391.86   22.00
  -4   6  -7  413.06   21.90
   4  -6   7  386.96   24.00
   4  -6   7  376.86   22.00
  -5   6  -7  453.55   25.00
  -5   6  -7  462.85   25.10
   5  -6   7  429.16   25.10
   5  -6   7  471.15   27.40
   5  -6   7  436.26   24.90
  -6   6  -7    3.90    1.00
  -6   6  -7    3.20    1.00
   6  -6   7    4.20    1.00
   6  -6   7    4.90    1.90
   6  -6   7    3.40    1.10
  -7   6  -7  177.28   10.20
   7  -6   7  169.18   10.20
   7  -6   7  177.98   11.90
  -8   6  -7    4.70    0.80
  -8   6  -7    4.40    0.80
   8  -6   7    5.10    0.80
   8  -6   7    6.60    1.10
   8  -6   7    4.70    1.40
   6   5  -7    4.10    2.60
   6   5  -7    4.20    2.00
   6   5  -7    3.70    2.70
   6   5  -7    4.50    0.80
   6   5  -7    1.20    5.00
   6   5  -7    3.10    0.80
   5   5  -7   18.00    1.90
   5   5  -7   16.20    3.90
   5   5  -7   18.10    9.30
   5   5  -7   14.00    5.40
   5   5  -7   16.50    5.00
   5   5  -7   21.10    6.10
   5   5  -7   20.60    2.00
   4   5  -7  273.37   16.40
   4   5  -7  327.27   25.40
   4   5  -7  291.07   20.20
   4   5  -7  313.07   24.50
   4   5  -7  288.37   16.30
   4   5  -7  243.58   21.80
   3   5  -7 1026.00   66.09
   3   5  -7 1138.49   60.89
   3   5  -7 1036.10   67.29
   3   5  -7 1161.28   70.09
   3   5  -7 1115.09   68.79
   3   5  -7 1157.28   64.69
   3   5  -7 1217.48   60.89
   2   5  -7   44.60   13.30
   2   5  -7   84.29   11.10
   2   5  -7   62.19    7.10
  -2  -5   7   80.09    9.00
  -2  -5   7   70.79    6.40
   1   5  -7   95.19   17.80
   1   5  -7  125.09   11.50
   1   5  -7   96.89    8.80
  -1  -5   7  112.69    8.50
  -1  -5   7  119.49   11.10
   0   5  -7   49.90    5.90
   0   5  -7   38.50   10.70
   0   5  -7   55.09    4.70
   0  -5   7   59.99    6.90
   0  -5   7   55.99    7.90
   0  -5   7   55.29    5.70
  -1   5  -7  209.58   23.10
  -1   5  -7  248.68   16.80
  -1   5  -7  252.67   15.40
   1  -5   7  288.07   16.70
   1  -5   7  263.47   19.30
  -2   5  -7  250.77   17.20
  -2   5  -7  243.38   16.00
   2  -5   7  288.67   17.50
   2  -5   7  279.17   20.60
  -3   5  -7  501.05   30.60
  -3   5  -7  483.65   29.70
   3  -5   7  520.75   34.80
   3  -5   7  556.74   31.40
  -4   5  -7  236.28   15.00
  -4   5  -7  232.88   14.80
   4  -5   7  246.98   16.50
   4  -5   7  247.38   20.20
   4  -5   7  216.28   13.60
   4  -5   7  237.48   13.40
  -5   5  -7   17.20    2.00
   5  -5   7   21.00    2.00
   5  -5   7   15.50    2.00
   5  -5   7   17.70    1.90
   5  -5   7   16.20    3.20
   5  -5   7   17.30    2.10
  -6   5  -7  451.95   27.30
   6  -5   7  507.35   27.50
   6  -5   7  509.45   27.70
   6  -5   7  519.15   27.60
   6  -5   7  499.25   29.70
   6  -5   7  494.45   27.40
  -7   5  -7   59.39    3.90
   7  -5   7   55.39    3.90
   7  -5   7   55.69    3.90
   7  -5   7   53.59    5.20
   7  -5   7   61.89    4.00
   7  -5   7   56.09    3.80
  -8   5  -7  308.57   16.50
  -8   5  -7  303.17   16.40
   8  -5   7  303.07   16.40
   8  -5   7  313.47   16.50
   8  -5   7  267.57   17.40
   8  -5   7  292.17   16.50
   7   4  -7   32.30    4.80
   7   4  -7   30.30    2.30
   7   4  -7   31.70    4.40
   7   4  -7   35.80    6.20
   7   4  -7   33.30    2.30
   7   4  -7   25.00    8.00
   6   4  -7    5.50    1.20
   6   4  -7    5.60    6.00
   6   4  -7    3.80    2.80
   6   4  -7    6.30    1.10
   6   4  -7    5.10    3.70
   6   4  -7    9.80    3.80
   5   4  -7  284.67   31.60
   5   4  -7  346.77   27.70
   5   4  -7  347.37   18.90
   5   4  -7  346.47   23.20
   5   4  -7  370.46   25.80
   5   4  -7  312.57   18.90
   4   4  -7  251.97   13.60
   4   4  -7  226.68   18.80
   4   4  -7  183.88   23.90
   4   4  -7  254.67   21.90
   4   4  -7  306.07   21.80
   4   4  -7  208.78   16.90
   4   4  -7  227.18   13.60
   3   4  -7   17.60    7.70
   3   4  -7   33.60    7.20
  -3  -4   7   33.80    6.30
  -3  -4   7   34.10    4.00
  -3  -4   7   34.90    4.50
   2   4  -7  452.45   37.30
   2   4  -7  501.75   33.00
   2   4  -7  457.15   29.40
  -2  -4   7  519.05   32.40
  -2  -4   7  515.15   29.40
  -2  -4   7  526.85   28.70
   1   4  -7  548.95   33.90
   1   4  -7  649.43   36.60
   1   4  -7  549.35   39.90
  -1  -4   7  595.54   36.20
  -1  -4   7  575.94   32.90
  -1  -4   7  570.04   33.50
   0   4  -7 2795.92  145.09
   0   4  -7 2639.04  152.38
   0   4  -7 2474.65  146.79
   0  -4   7 2674.33  145.69
   0  -4   7 2752.82  148.69
   0  -4   7 2818.82  146.29
  -1   4  -7  398.76   24.80
  -1   4  -7  398.66   23.60
  -1   4  -7  431.96   29.70
   1  -4   7  410.26   26.80
   1  -4   7  420.16   24.60
   1  -4   7  417.56   24.20
  -2   4  -7  207.18   12.70
  -2   4  -7  218.68   14.10
  -2   4  -7  217.48   13.20
   2  -4   7  223.08   14.40
   2  -4   7  217.88   16.70
   2  -4   7  195.38   13.60
  -3   4  -7    3.10    1.70
  -3   4  -7    2.80    1.30
  -3   4  -7   -0.10    0.90
   3  -4   7    1.40    1.50
   3  -4   7    2.90    2.90
   3  -4   7    2.10    1.90
  -4   4  -7  144.59   10.30
  -4   4  -7  145.39   10.40
   4  -4   7  174.18   12.30
   4  -4   7  160.18   11.40
  -5   4  -7    1.30    0.70
   5  -4   7    0.80    1.40
   5  -4   7    0.70    0.70
   5  -4   7    1.10    0.80
   5  -4   7    0.40    0.50
   5  -4   7    1.10    0.90
   5  -4   7    0.20    0.60
   5  -4   7    0.60    0.50
   6  -4   7  117.39    7.20
   6  -4   7  118.59    7.40
   6  -4   7  108.19    6.90
   6  -4   7  121.49    7.00
   6  -4   7  119.49    7.10
   6  -4   7  115.19    8.90
   6  -4   7  121.29    7.10
   6  -4   7  114.49    7.30
  -7   4  -7    0.70    0.60
   7  -4   7    1.90    0.60
   7  -4   7    2.60    0.90
   7  -4   7    1.60    0.70
   7  -4   7    1.30    1.30
   7  -4   7    2.40    0.80
   7  -4   7    2.40    0.90
   7  -4   7    2.20    0.90
  -8   4  -7    0.00    0.40
   8  -4   7    0.10    0.50
   8  -4   7    0.40    0.50
   8  -4   7    0.50    0.50
   8  -4   7    0.80    1.00
   8  -4   7    0.20    0.40
   8  -4   7    0.40    0.50
   8  -4   7    0.10    0.50
   8   3  -7   34.00    7.30
   8   3  -7   37.30    2.60
   8   3  -7   42.20    4.00
   8   3  -7   42.30    2.60
   8   3  -7   44.40    5.20
   7   3  -7   29.00    5.00
   7   3  -7   29.60    2.30
   7   3  -7   32.20    7.20
   7   3  -7   30.60    5.50
   7   3  -7   16.20    7.80
   7   3  -7   27.50    2.40
   7   3  -7   28.70    2.20
   6   3  -7    1.00    0.70
   6   3  -7    0.10    0.60
   6   3  -7    0.40    2.70
   6   3  -7   -1.70    4.40
   6   3  -7    0.00    2.60
   6   3  -7    0.50    0.70
   6   3  -7    2.20    2.00
   5   3  -7  255.07   18.10
   5   3  -7  246.58   18.90
   5   3  -7  194.08   19.80
   5   3  -7  231.58   12.20
   5   3  -7  174.38   22.00
   5   3  -7  189.68   12.20
   5   3  -7  216.18   15.90
   5   3  -7  201.28   12.20
   4   3  -7  577.84   56.09
   4   3  -7  652.93   41.40
   4   3  -7  649.43   47.70
   4   3  -7  615.64   35.80
   4   3  -7  651.03   36.00
   4   3  -7  664.63   43.00
  -4  -3   7  676.83   37.30
  -4  -3   7  685.13   41.00
  -4  -3   7  664.83   37.90
   3   3  -7   25.90    6.90
   3   3  -7   24.60    5.70
  -3  -3   7   24.70    3.20
  -3  -3   7   20.40    4.30
  -3  -3   7   22.70    3.40
   2   3  -7  248.38   16.90
   2   3  -7  285.77   22.10
   2   3  -7  273.17   19.60
  -2  -3   7  288.77   17.00
  -2  -3   7  277.37   19.00
  -2  -3   7  270.27   16.50
   1   3  -7   32.00    6.20
   1   3  -7   27.70    3.80
   1   3  -7   28.60    4.90
  -1  -3   7   31.00    3.70
  -1  -3   7   30.30    3.40
  -1  -3   7   32.20    4.90
   0   3  -7    1.00    1.10
   0   3  -7    1.20    1.60
   0   3  -7    1.70    0.90
   0   3  -7    0.10    1.60
   0  -3   7    2.10    1.60
   0  -3   7    0.00    0.90
   0  -3   7    0.90    1.00
  -1   3  -7  314.87   18.90
  -1   3  -7  284.07   17.30
  -1   3  -7  313.67   20.70
  -1   3  -7  302.27   17.80
   1  -3   7  301.97   20.30
   1  -3   7  311.97   18.80
   1  -3   7  322.87   18.60
  -2   3  -7   17.10    2.30
  -2   3  -7   19.30    3.00
  -2   3  -7   15.50    2.40
   2  -3   7   16.10    2.90
   2  -3   7   19.40    2.50
   2  -3   7   17.10    4.40
   2  -3   7   18.70    3.20
  -3   3  -7    0.00    1.20
  -3   3  -7    0.90    1.00
  -3   3  -7    0.20    0.90
   3  -3   7    1.50    1.20
   3  -3   7    1.80    1.60
   3  -3   7    1.90    1.60
  -4   3  -7  299.67   19.40
  -4   3  -7  331.37   19.50
  -4   3  -7  313.27   19.60
   4  -3   7  368.86   21.10
   4  -3   7  317.17   21.10
   5  -3   7   87.39    5.20
   5  -3   7   83.39    5.40
   5  -3   7   88.69    5.30
   5  -3   7   77.59    5.60
   5  -3   7   86.29    5.60
   5  -3   7   79.59    6.90
   5  -3   7   85.99    5.30
   5  -3   7   79.09    5.10
   6  -3   7    4.90    1.00
   6  -3   7    6.00    1.30
   6  -3   7    5.10    1.10
   6  -3   7    3.10    1.10
   6  -3   7    3.00    0.80
   6  -3   7    3.10    0.70
   6  -3   7    4.00    1.00
   6  -3   7    4.80    1.80
   7  -3   7   75.89    4.60
   7  -3   7   73.39    4.90
   7  -3   7   77.39    4.90
   7  -3   7   74.79    4.90
   7  -3   7   74.89    4.80
   7  -3   7   69.69    5.90
   7  -3   7   72.99    4.80
   8  -3   7    3.20    0.60
   8  -3   7    4.00    0.80
   8  -3   7    2.70    0.70
   8  -3   7    2.00    0.60
   8  -3   7    3.80    0.70
   8  -3   7    3.20    0.70
   8   2  -7   33.70    2.60
   8   2  -7   38.20    2.60
   8   2  -7   40.20    2.60
   8   2  -7   29.00    8.20
   8   2  -7   42.50    6.40
   8   2  -7   34.80    4.80
   7   2  -7    5.30    3.80
   7   2  -7    3.90    1.00
   7   2  -7    4.20    0.90
   7   2  -7    3.50    2.40
   7   2  -7    4.70    3.20
   7   2  -7    4.90    1.00
   7   2  -7    6.00    5.70
   6   2  -7   16.70    1.90
   6   2  -7   22.80    7.30
   6   2  -7   17.30    2.00
   6   2  -7   13.50    3.90
   6   2  -7   17.30    5.10
   6   2  -7   15.30    1.90
   6   2  -7   13.40    6.80
   5   2  -7   59.29    4.10
   5   2  -7   57.49    4.10
   5   2  -7   55.69    7.40
   5   2  -7   55.79    6.90
   5   2  -7   61.09   11.70
   5   2  -7   63.69    7.70
   5   2  -7   83.69    9.10
   5   2  -7   51.69    4.10
   4   2  -7   86.69    9.40
   4   2  -7   81.49   11.80
   4   2  -7   76.19   10.20
  -4  -2   7   75.39    6.10
  -4  -2   7   68.29    6.30
   3   2  -7    6.50    1.90
   3   2  -7    7.00    3.40
   3   2  -7    8.30    3.20
   3   2  -7   10.10    3.50
  -3  -2   7    7.00    1.70
  -3  -2   7   10.30    2.10
   2   2  -7  107.09   11.00
   2   2  -7  118.99    8.20
   2   2  -7  114.49    9.90
  -2  -2   7  120.49    7.90
  -2  -2   7  114.59    7.10
  -2  -2   7  109.29    7.90
  -2  -2   7  106.39    9.00
   1   2  -7 7233.68  359.26
   1   2  -7 6987.20  361.56
   1   2  -7 6038.50  357.56
   1   2  -7 6651.13  356.26
  -1  -2   7 6642.64  357.26
  -1  -2   7 6760.72  358.76
  -1  -2   7 6345.07  357.26
   0   2  -7  119.59    7.70
   0   2  -7  135.39    9.00
   0   2  -7  119.79   10.50
   0  -2   7  121.99    8.50
   0  -2   7  121.19    8.40
   0  -2   7  125.59    7.90
   0  -2   7  128.39    9.40
  -1   2  -7 1375.66   76.49
  -1   2  -7 1393.26   75.49
  -1   2  -7 1379.96   75.59
  -1   2  -7 1459.35   77.89
  -1   2  -7 1375.66   75.29
  -1   2  -7 1382.36   74.99
   1  -2   7 1371.36   75.59
   1  -2   7 1426.26   76.39
   1  -2   7 1334.47   76.29
  -2   2  -7  610.44   34.20
  -2   2  -7  598.34   33.70
  -2   2  -7  625.64   34.50
  -2   2  -7  607.14   35.00
  -2   2  -7  614.84   34.30
   2  -2   7  596.14   35.10
   2  -2   7  625.74   34.50
   2  -2   7  603.34   35.30
  -3   2  -7  424.96   23.80
  -3   2  -7  376.86   23.60
  -3   2  -7  388.16   23.10
  -3   2  -7  384.16   23.90
   3  -2   7  409.66   25.00
   3  -2   7  442.16   25.00
   3  -2   7  429.66   24.00
  -4   2  -7   42.10    4.80
  -4   2  -7   49.99    5.00
   4  -2   7   56.49    6.50
   4  -2   7   51.79    6.10
   5  -2   7    0.50    0.50
   5  -2   7    0.60    0.70
   5  -2   7    0.40    0.80
   5  -2   7    1.70    0.70
   5  -2   7    1.40    0.70
   5  -2   7    1.50    0.60
   5  -2   7    0.40    0.70
   6  -2   7   17.30    1.90
   6  -2   7   15.50    1.60
   6  -2   7   16.80    2.10
   6  -2   7   17.20    1.90
   6  -2   7   17.50    2.00
   6  -2   7   16.30    1.90
   6  -2   7   15.30    1.60
   7  -2   7    6.50    1.10
   7  -2   7    7.10    1.10
   7  -2   7    7.40    1.20
   7  -2   7    6.80    1.00
   7  -2   7    8.70    1.20
   7  -2   7    7.40    1.20
   7  -2   7    4.90    0.90
   8  -2   7    6.50    0.90
   8  -2   7    7.40    0.80
   8  -2   7    9.10    1.00
   8  -2   7    7.90    1.00
   8  -2   7    8.00    1.00
   8  -2   7    6.90    0.90
   8   1  -7    1.50    0.70
   8   1  -7    1.50    0.60
   8   1  -7    1.50    2.60
   8   1  -7    1.60    0.70
   8   1  -7    1.80    1.80
   8   1  -7    2.30    4.30
   8   1  -7    1.90    2.30
  -8  -1   7    1.10    0.50
   7   1  -7   24.20    2.60
   7   1  -7   28.60    2.40
   7   1  -7   31.10    2.50
   7   1  -7   38.90    9.80
   7   1  -7   31.30    5.40
   7   1  -7   30.10    5.80
   7   1  -7   34.40    8.00
   6   1  -7  429.06   31.30
   6   1  -7  404.16   22.10
   6   1  -7  391.96   22.50
   6   1  -7  393.16   29.10
   6   1  -7  385.26   22.30
   6   1  -7  391.76   22.40
   6   1  -7  387.36   25.50
   6   1  -7  440.66   26.60
   5   1  -7  505.55   30.70
   5   1  -7  464.85   31.20
   5   1  -7  425.56   32.20
  -5  -1   7  433.46   26.70
  -5  -1   7  413.76   26.30
   4   1  -7  497.15   29.90
   4   1  -7  425.66   30.90
   4   1  -7  483.15   29.20
  -4  -1   7  426.06   26.00
  -4  -1   7  445.66   25.50
  -4  -1   7  421.86   26.20
   3   1  -7  905.31   58.49
   3   1  -7 1005.90   56.39
   3   1  -7 1006.90   55.99
   3   1  -7  987.20   53.79
  -3  -1   7  954.40   53.19
  -3  -1   7  938.91   53.79
  -3  -1   7 1002.10   53.89
   2   1  -7  239.48   15.40
   2   1  -7  232.18   14.20
   2   1  -7  238.18   17.60
  -2  -1   7  218.38   14.00
  -2  -1   7  226.18   13.90
  -2  -1   7  226.78   13.50
   1   1  -7    5.10    2.60
   1   1  -7    3.40    1.50
   1   1  -7    3.10    1.50
   1   1  -7    3.00    0.90
  -1  -1   7    7.20    1.50
  -1  -1   7    4.60    1.40
  -1  -1   7    1.90    0.90
   0   1  -7 1482.55   83.29
   0   1  -7 1457.15   80.99
   0   1  -7 1497.95   80.09
   0  -1   7 1511.85   79.89
   0  -1   7 1450.75   80.49
   0  -1   7 1451.95   80.69
   0  -1   7 1487.85   80.29
  -1   1  -7  223.18   13.60
  -1   1  -7  223.68   13.20
  -1   1  -7  215.48   13.60
  -1   1  -7  229.28   13.80
  -1   1  -7  219.68   14.30
  -1   1  -7  245.98   15.70
   1  -1   7  240.38   14.30
   1  -1   7  224.88   13.80
   1  -1   7  216.88   14.30
  -2   1  -7  621.44   33.10
  -2   1  -7  565.74   32.50
  -2   1  -7  567.84   33.50
  -2   1  -7  586.04   33.40
  -2   1  -7  560.74   33.00
   2  -1   7  602.34   33.30
   2  -1   7  594.04   34.10
   2  -1   7  582.54   33.80
  -3   1  -7  771.12   45.80
  -3   1  -7  838.92   45.70
  -3   1  -7  810.52   46.20
  -3   1  -7  805.32   45.20
   3  -1   7  843.02   47.00
   3  -1   7  854.11   47.00
   3  -1   7  798.42   46.00
  -4   1  -7   45.60    4.40
  -4   1  -7   55.09    5.30
  -4   1  -7   44.80    4.90
  -4   1  -7   32.70    4.60
   4  -1   7   51.09    6.20
   4  -1   7   59.79    6.80
   5  -1   7  897.21   47.30
   5  -1   7  889.91   47.60
   5  -1   7  902.11   47.70
   5  -1   7  844.92   47.60
   5  -1   7  891.61   47.40
   5  -1   7  842.32   47.70
   5  -1   7  841.52   47.50
   6  -1   7  265.07   16.10
   6  -1   7  279.67   16.00
   6  -1   7  279.17   16.30
   6  -1   7  286.07   16.10
   6  -1   7  300.67   16.20
   6  -1   7  295.17   15.90
   6  -1   7  281.67   15.80
   7  -1   7   18.90    1.60
   7  -1   7   19.10    1.80
   7  -1   7   18.70    1.80
   7  -1   7   16.40    1.70
   7  -1   7   18.70    1.80
   7  -1   7   16.60    1.80
   8  -1   7   82.29    5.50
   8  -1   7   98.49    5.60
   8  -1   7  102.59    5.50
   8  -1   7  103.39    5.70
   8  -1   7   98.09    5.60
   8  -1   7   96.19    5.60
   9   0  -7   87.79    8.30
   9   0  -7   57.99    4.00
   9   0  -7   63.69    4.00
   9   0  -7   67.49    4.10
   9   0  -7   66.39    5.60
   9   0  -7   84.99   10.20
  -9   0   7   64.79    3.90
   8   0  -7    1.40    1.90
   8   0  -7    2.90    3.70
   8   0  -7    1.50    2.60
   8   0  -7    0.60    0.50
   8   0  -7    0.90    1.80
   8   0  -7   -0.10    0.60
   8   0  -7    0.00    0.50
  -8   0   7    0.10    0.40
   7   0  -7   53.99   10.00
   7   0  -7   53.09    3.80
   7   0  -7   49.20    3.70
   7   0  -7   53.19    3.80
   7   0  -7   48.20    7.70
   7   0  -7   50.29    3.50
   7   0  -7   53.49    6.30
   7   0  -7   58.69    6.90
   6   0  -7  139.29    8.10
   6   0  -7  137.59    7.90
   6   0  -7  122.19   13.00
   6   0  -7  129.79   10.30
   6   0  -7  155.78   12.30
   6   0  -7  128.99    8.10
   6   0  -7  124.79    8.10
   6   0  -7  135.89   10.90
   5   0  -7   76.69    8.70
   5   0  -7   69.39    9.00
   5   0  -7   67.69   10.40
  -5   0   7   65.39    5.40
  -5   0   7   67.79    6.10
  -5   0   7   57.19    6.10
   4   0  -7  474.15   32.90
   4   0  -7  518.75   30.90
   4   0  -7  497.85   30.90
  -4   0   7  440.36   28.00
  -4   0   7  513.55   27.90
  -4   0   7  483.95   28.20
   3   0  -7  986.00   64.29
   3   0  -7 1088.29   62.09
   3   0  -7 1202.68   62.09
   3   0  -7 1085.39   59.99
  -3   0   7 1056.09   60.09
  -3   0   7 1104.99   59.69
  -3   0   7 1099.49   59.89
   2   0  -7 6386.96  348.87
   2   0  -7 6808.92  352.26
   2   0  -7 6425.66  347.97
  -2   0   7 6843.82  347.57
  -2   0   7 6254.87  347.37
  -2   0   7 6200.78  347.77
   1   0  -7  867.01   48.70
   1   0  -7  874.41   47.90
   1   0  -7  870.31   51.89
   1   0  -7  879.51   49.00
  -1   0   7  866.51   48.30
  -1   0   7  862.61   47.80
  -1   0   7  916.81   48.20
  -1   0   7  879.41   48.60
   0   0  -7  324.67   18.70
   0   0  -7  287.67   17.50
   0   0  -7  311.47   20.60
   0   0   7  308.37   18.00
   0   0   7  294.87   18.20
   0   0   7  282.97   17.50
   0   0   7  327.57   18.00
  -1   0  -7 1611.84   91.79
  -1   0  -7 1609.84   90.89
  -1   0  -7 1727.53   93.49
   1   0   7 1686.03   91.89
   1   0   7 1717.43   91.39
   1   0   7 1621.04   90.89
   1   0   7 1740.83   91.49
  -2   0  -7  544.35   31.10
  -2   0  -7  528.75   31.60
  -2   0  -7  574.34   31.10
  -2   0  -7  540.45   30.50
  -2   0  -7  518.45   31.30
   2   0   7  550.14   31.60
   2   0   7  527.35   31.90
   2   0   7  559.84   31.40
  -3   0  -7   77.49    6.00
  -3   0  -7   68.39    5.80
  -3   0  -7   66.79    6.80
  -3   0  -7   71.89    6.50
   3   0   7   80.29    8.00
   3   0   7   71.59    6.90
   3   0   7   79.49    6.90
  -4   0  -7   22.40    3.30
   4   0   7   19.00    2.10
   4   0   7   21.10    2.10
   4   0   7   18.30    2.20
   4   0   7   27.70    4.70
   4   0   7   19.10    1.90
   4   0   7   17.10    1.90
   4   0   7   18.60    1.80
   5   0   7   95.49    5.90
   5   0   7   94.29    6.00
   5   0   7   99.29    6.20
   5   0   7   90.89    6.00
   5   0   7   87.39    5.90
   5   0   7   95.69    5.70
   5   0   7   90.99    5.80
   6   0   7  204.28   11.70
   6   0   7  196.48   11.90
   6   0   7  203.78   11.70
   6   0   7  203.58   11.60
   6   0   7  192.28   11.40
   6   0   7  214.28   11.80
   6   0   7  209.28   11.80
   7   0   7   45.20    3.10
   7   0   7   43.70    3.00
   7   0   7   52.69    3.20
   7   0   7   49.90    3.20
   7   0   7   38.80    3.00
   7   0   7   48.00    3.10
   9  -1  -7   11.60    4.70
   9  -1  -7   13.30    2.70
   9  -1  -7   12.30    3.90
   9  -1  -7   10.50    1.20
   9  -1  -7   13.20    1.30
  -9   1   7   11.00    1.10
   8  -1  -7   11.20    1.40
   8  -1  -7   11.80    4.90
   8  -1  -7   14.80    3.60
   8  -1  -7   10.80    3.10
   8  -1  -7   14.90    4.60
   8  -1  -7   12.30    1.50
   8  -1  -7   13.70    1.60
   7  -1  -7  114.19   11.40
   7  -1  -7  139.59    9.70
   7  -1  -7   97.89    7.70
   7  -1  -7  125.79    7.00
   7  -1  -7  116.29    9.70
   7  -1  -7  112.69   12.20
   7  -1  -7  109.79    7.10
   7  -1  -7  106.19    7.00
   6  -1  -7   60.09    4.30
   6  -1  -7   67.79    4.20
   6  -1  -7   59.69    4.30
   6  -1  -7   66.79    6.50
   6  -1  -7   70.49    8.60
   5  -1  -7  112.09   10.10
   5  -1  -7  106.09   10.20
   5  -1  -7   95.59   11.20
  -5   1   7   90.59    7.60
  -5   1   7  105.79    7.60
   4  -1  -7   12.60    4.10
   4  -1  -7   12.20    3.30
   4  -1  -7   13.40    3.30
  -4   1   7   11.10    2.30
  -4   1   7   17.10    2.60
  -4   1   7   11.60    2.10
   3  -1  -7  221.38   14.00
   3  -1  -7  226.98   15.60
   3  -1  -7  208.18   17.50
  -3   1   7  237.68   14.10
  -3   1   7  242.38   13.50
  -3   1   7  224.68   13.70
  -3   1   7  248.48   14.40
   2  -1  -7  915.91   48.50
   2  -1  -7  880.51   50.29
   2  -1  -7  886.41   53.09
   2  -1  -7  874.91   49.50
  -2   1   7  907.11   49.30
  -2   1   7  884.91   48.60
  -2   1   7  867.51   49.10
   1  -1  -7  908.81   50.89
   1  -1  -7  916.21   49.99
   1  -1  -7  943.91   54.39
  -1   1   7  914.71   50.49
  -1   1   7  864.11   49.99
  -1   1   7  925.91   50.39
   0  -1  -7    4.40    2.40
   0  -1  -7    2.50    1.40
   0  -1  -7    3.40    1.20
   0   1   7    3.90    1.20
   0   1   7    3.40    1.50
   0   1   7    2.90    1.30
  -1  -1  -7    1.10    1.10
  -1  -1  -7    3.30    2.20
  -1  -1  -7    0.50    0.90
   1   1   7    1.00    1.20
   1   1   7   -0.40    0.70
   1   1   7    2.20    1.30
  -2  -1  -7  309.47   18.30
  -2  -1  -7  312.07   19.10
   2   1   7  296.47   19.10
   2   1   7  298.67   18.70
   2   1   7  296.17   18.30
  -3  -1  -7   -0.10    1.00
  -3  -1  -7    0.20    1.20
  -3  -1  -7    0.60    1.10
  -3  -1  -7    1.70    1.10
   3   1   7   -1.90    0.80
   3   1   7    1.20    1.30
   4   1   7  272.57   14.70
   4   1   7  251.27   14.90
   4   1   7  265.17   15.10
   4   1   7  256.87   14.80
   4   1   7  256.27   14.90
   4   1   7  263.17   14.70
   5   1   7  110.79    6.90
   5   1   7  114.49    7.20
   5   1   7  115.09    6.80
   5   1   7  118.39    7.10
   5   1   7  112.49    6.80
   5   1   7  108.99    7.00
   6   1   7   28.20    2.30
   6   1   7   25.20    2.40
   6   1   7   28.20    2.20
   6   1   7   23.70    2.10
   6   1   7   27.40    2.20
   7   1   7   83.89    5.10
   7   1   7   86.49    5.20
   7   1   7   85.09    5.30
   7   1   7   87.79    5.10
   7   1   7   88.19    5.10
   9  -2  -7   16.10    4.20
   9  -2  -7   10.80    1.30
   9  -2  -7   12.90    4.30
  -9   2   7   12.50    1.30
   8  -2  -7   11.40    3.00
   8  -2  -7   10.10    3.60
   8  -2  -7    9.80    1.40
   8  -2  -7   10.00    4.10
   8  -2  -7   10.10    1.30
  -8   2   7   10.30    1.40
   7  -2  -7   81.49    7.30
   7  -2  -7   75.29    4.90
   7  -2  -7   78.79    8.50
   7  -2  -7   79.39    9.60
   7  -2  -7   75.99    5.00
  -7   2   7   72.49    5.00
   6  -2  -7  160.28    9.60
   6  -2  -7  167.68   12.00
   6  -2  -7  167.18    9.50
   6  -2  -7  159.18   14.10
  -6   2   7  160.98    9.60
   5  -2  -7  902.11   57.99
   5  -2  -7  954.60   55.89
  -5   2   7  971.20   53.09
  -5   2   7  946.61   52.89
   4  -2  -7    0.40    2.30
   4  -2  -7    3.20    2.00
  -4   2   7    2.40    1.10
  -4   2   7    3.80    1.40
  -4   2   7    2.70    1.30
   3  -2  -7   63.09    6.50
   3  -2  -7   61.99    5.30
   3  -2  -7   59.59    8.70
  -3   2   7   69.29    5.30
  -3   2   7   63.49    4.80
  -3   2   7   66.29    5.30
   2  -2  -7  668.53   40.80
   2  -2  -7  620.64   36.60
   2  -2  -7  640.24   37.50
  -2   2   7  651.13   36.30
  -2   2   7  618.94   35.80
  -2   2   7  632.14   35.60
  -2   2   7  670.73   36.10
   1  -2  -7   72.79    8.50
   1  -2  -7   68.79    6.10
   1  -2  -7   76.29    6.20
  -1   2   7   77.19    5.70
  -1   2   7   63.79    5.20
  -1   2   7   73.69    5.80
  -1   2   7   78.89    5.60
   0  -2  -7 1904.51  112.59
   0  -2  -7 1949.01  108.59
   0  -2  -7 1968.40  109.59
   0   2   7 2106.89  109.29
   0   2   7 2030.10  109.09
   0   2   7 2045.80  108.69
  -1  -2  -7 1254.47   67.59
  -1  -2  -7 1144.39   69.99
  -1  -2  -7 1227.78   66.49
   1   2   7 1218.68   67.19
   1   2   7 1155.88   66.79
   1   2   7 1228.78   66.49
  -2  -2  -7    9.60    2.30
  -2  -2  -7   16.10    3.40
   2   2   7   17.40    3.20
   2   2   7   10.50    2.90
   2   2   7   13.60    2.60
  -3  -2  -7   31.70    4.20
   3   2   7   28.50    4.70
   3   2   7   30.50    2.40
   3   2   7   32.30    2.50
   3   2   7   26.80    2.50
   3   2   7   29.40    2.70
   4   2   7    2.10    0.80
   4   2   7    1.20    0.70
   4   2   7    1.40    0.70
   4   2   7    1.20    0.70
   4   2   7    1.70    0.70
   5   2   7   38.80    2.80
   5   2   7   38.10    2.80
   5   2   7   38.60    3.00
   5   2   7   43.30    3.00
   5   2   7   40.30    3.10
   5   2   7   39.30    3.00
   6   2   7   48.50    3.00
   6   2   7   47.80    3.10
   6   2   7   41.10    3.00
   6   2   7   42.80    3.00
   6   2   7   44.20    2.90
   9  -3  -7   55.69    6.50
   9  -3  -7   40.10    3.00
   9  -3  -7   51.39    6.90
  -9   3   7   43.80    3.20
  -9   3   7   52.09    3.20
   8  -3  -7  246.48   16.00
   8  -3  -7  252.57   19.30
   8  -3  -7  247.58   17.60
   8  -3  -7  230.58   13.60
  -8   3   7  237.58   13.60
  -8   3   7  227.48   13.80
   7  -3  -7  616.94   35.80
   7  -3  -7  606.54   37.30
   7  -3  -7  534.95   32.90
   7  -3  -7  665.83   39.40
  -7   3   7  588.84   33.10
   6  -3  -7  293.17   17.80
   6  -3  -7  306.27   22.80
   6  -3  -7  368.76   21.20
   6  -3  -7  310.07   20.30
  -6   3   7  317.37   18.10
   5  -3  -7    5.30    2.60
   5  -3  -7    7.60    3.90
  -5   3   7    1.60    1.40
   4  -3  -7  110.69   11.90
   4  -3  -7  140.09   11.00
  -4   3   7  111.69    8.20
  -4   3   7  117.59    8.70
   3  -3  -7 1652.43   94.49
   3  -3  -7 1742.43   92.79
   3  -3  -7 1594.84   97.49
  -3   3   7 1714.23   92.19
  -3   3   7 1722.43   92.59
  -3   3   7 1717.73   92.19
   2  -3  -7  101.09    8.20
   2  -3  -7  108.19    9.00
   2  -3  -7  118.89   11.70
  -2   3   7  116.09    8.00
  -2   3   7  108.79    7.70
  -2   3   7  107.69    7.70
  -2   3   7  108.99    7.50
   1  -3  -7  258.47   19.80
   1  -3  -7  249.88   16.10
  -1   3   7  253.17   16.40
  -1   3   7  249.18   15.70
  -1   3   7  232.18   15.20
  -1   3   7  256.47   15.30
   0  -3  -7    0.10    1.20
   0  -3  -7    0.40    2.00
   0   3   7    0.90    1.20
   0   3   7   -0.20    1.10
   0   3   7    1.20    1.10
  -1  -3  -7  115.99    9.40
  -1  -3  -7  111.89    8.30
  -1  -3  -7  122.19   18.40
   1   3   7  113.09    8.70
   1   3   7  111.69    8.40
  -2  -3  -7 1009.50   57.29
  -2  -3  -7 1046.40   58.79
   2   3   7 1029.30   57.69
   2   3   7 1018.70   57.99
   3   3   7   30.20    2.80
   3   3   7   31.70    2.70
   3   3   7   28.60    2.50
   3   3   7   30.40    2.70
   3   3   7   27.60    2.60
   4   3   7  842.22   45.00
   4   3   7  831.82   44.80
   4   3   7  837.02   44.80
   4   3   7  793.22   44.90
   4   3   7  823.62   45.00
   5   3   7  185.08   10.60
   5   3   7  179.58   10.70
   5   3   7  194.58   10.70
   5   3   7  187.98   10.70
   6   3   7   27.50    1.90
   9  -4  -7   18.90    4.40
   9  -4  -7   18.30    3.80
  -9   4   7   14.60    1.50
  -9   4   7   13.70    1.60
   8  -4  -7    0.10    1.20
   8  -4  -7    0.70    1.70
   8  -4  -7    0.50    1.90
  -8   4   7    0.20    0.60
  -8   4   7   -0.30    0.70
   7  -4  -7   11.70    3.90
   7  -4  -7   11.20    2.80
  -7   4   7    9.50    1.40
  -7   4   7    9.30    1.60
   6  -4  -7 1957.60  113.89
   6  -4  -7 1943.61  110.69
  -6   4   7 2041.30  108.09
  -6   4   7 2102.39  108.49
   5  -4  -7  349.77   28.60
   5  -4  -7  439.06   27.70
  -5   4   7  424.16   24.90
  -5   4   7  417.16   24.30
   4  -4  -7 1169.18   65.99
   4  -4  -7 1091.49   68.59
  -4   4   7 1128.59   63.09
  -4   4   7 1132.79   62.79
   3  -4  -7 1399.56   86.59
   3  -4  -7 1505.75   81.59
   3  -4  -7 1507.75   83.69
  -3   4   7 1485.35   81.09
  -3   4   7 1473.05   81.19
  -3   4   7 1465.65   80.59
   2  -4  -7   62.69   10.10
   2  -4  -7   68.49    6.80
   2  -4  -7   60.09    6.80
  -2   4   7   71.59    6.50
  -2   4   7   66.49    6.00
  -2   4   7   73.39    6.00
   1  -4  -7  803.22   48.10
   1  -4  -7  839.02   52.89
  -1   4   7  810.92   47.00
  -1   4   7  890.01   47.50
  -1   4   7  837.82   47.30
   0  -4  -7  897.01   55.19
   0  -4  -7  841.12   50.29
   0   4   7  840.32   49.10
   0   4   7  862.81   49.20
   0   4   7  905.71   49.50
  -1  -4  -7    5.60    1.90
  -1  -4  -7    5.10    2.30
   1   4   7   11.70    2.80
   1   4   7    5.20    2.00
   2   4   7   75.19    5.10
   2   4   7   73.99    5.00
   2   4   7   77.99    5.10
   2   4   7   77.19    5.30
   2   4   7   78.09    5.10
   3   4   7   15.20    1.90
   3   4   7   19.10    2.00
   3   4   7   19.70    2.10
   3   4   7   16.90    1.90
   4   4   7   13.20    1.60
   4   4   7   13.80    1.70
   9  -5  -7   31.30    4.80
   9  -5  -7   29.50    4.10
  -9   5   7   24.60    2.30
  -9   5   7   24.20    2.10
   8  -5  -7  261.77   17.10
   8  -5  -7  244.38   19.60
   8  -5  -7  287.57   18.90
  -8   5   7  267.27   15.10
  -8   5   7  280.97   15.40
   7  -5  -7   15.00    4.50
   7  -5  -7   17.10    3.30
  -7   5   7   18.20    1.90
  -7   5   7   18.00    2.20
  -7   5   7   15.90    2.00
   6  -5  -7    1.10    2.00
   6  -5  -7   -0.30    1.20
  -6   5   7    0.40    0.70
  -6   5   7    0.60    0.80
  -6   5   7    0.70    0.90
   5  -5  -7   10.90    3.90
   5  -5  -7    7.60    2.40
  -5   5   7    9.80    1.50
  -5   5   7    8.30    1.50
  -5   5   7    9.70    1.30
  -5   5   7    3.50    3.90
   4  -5  -7 1158.98   72.69
   4  -5  -7 1252.37   69.89
  -4   5   7 1128.59   66.29
  -4   5   7 1209.88   66.49
   3  -5  -7  238.78   15.80
   3  -5  -7  239.98   17.80
   3  -5  -7  227.58   20.40
  -3   5   7  232.68   15.10
  -3   5   7  211.98   15.10
  -3   5   7  241.68   15.00
   2  -5  -7  426.56   26.90
   2  -5  -7  452.25   28.50
   2  -5  -7  447.56   32.40
  -2   5   7  402.76   25.90
  -2   5   7  433.06   26.20
  -2   5   7  441.06   25.90
   1  -5  -7   16.50    3.70
   1  -5  -7   25.60    7.20
  -1   5   7   22.60    3.80
  -1   5   7   21.50    3.70
  -1   5   7   23.40    3.80
   0  -5  -7   15.90    6.20
   0   5   7    8.10    3.20
   0   5   7   13.90    1.90
   0   5   7   12.40    3.90
   0   5   7   13.00    1.80
   0   5   7   17.00    2.10
   0   5   7   14.20    1.70
   1   5   7 1035.70   55.29
   1   5   7  836.32   49.30
   1   5   7  849.32   49.40
   1   5   7  914.61   49.40
   1   5   7  865.11   49.30
   1   5   7  938.41   49.70
   2   5   7  406.96   23.20
   2   5   7  413.36   23.30
   2   5   7  445.16   23.40
   2   5   7  410.16   23.30
   2   5   7  407.36   23.50
   3   5   7  631.04   35.50
   3   5   7  668.33   35.60
   3   5   7  652.03   35.50
   9  -6  -7   92.39    8.60
   9  -6  -7  105.29    7.90
  -9   6   7   95.19    5.60
  -9   6   7   85.09    5.80
   8  -6  -7    2.60    2.40
   8  -6  -7    5.00    2.00
   8  -6  -7    1.50    1.40
  -8   6   7    3.50    0.90
  -8   6   7    2.60    1.00
  -8   6   7    3.90    0.90
   7  -6  -7  188.78   13.60
   7  -6  -7  186.88   16.10
  -7   6   7  207.58   11.50
  -7   6   7  206.88   11.90
  -7   6   7  203.58   11.80
   6  -6  -7    2.40    2.30
   6  -6  -7    1.70    1.60
  -6   6   7    2.60    1.00
  -6   6   7    2.10    1.10
   5  -6  -7  244.28   17.40
   5  -6  -7  273.37   20.50
  -5   6   7  270.77   15.40
  -5   6   7  268.17   15.30
  -3   6   7  185.98   10.40
  -3   6   7  176.38   10.30
  -3   6   7  174.28   10.50
  -3   6   7  148.59   13.80
  -3   6   7  176.18   10.30
  -2   6   7  191.98   12.30
  -2   6   7  180.58   10.60
  -2   6   7  168.18   10.40
  -2   6   7  158.48   10.50
  -2   6   7  166.28   14.90
  -2   6   7  186.28   10.60
  -1   6   7  199.78   12.00
  -1   6   7  212.08   12.00
  -1   6   7  169.08   19.80
  -1   6   7  202.38   11.90
  -1   6   7  205.48   12.30
  -1   6   7  204.28   17.00
  -1   6   7  205.58   12.00
   0   6   7   65.09    8.50
   0   6   7   72.49    4.70
   0   6   7   67.69    4.70
   0   6   7   57.29    4.80
   0   6   7   66.59    4.60
   0   6   7   55.69   12.10
   0   6   7   63.49    5.10
   1   6   7   61.19    4.30
   1   6   7   57.09    4.40
   1   6   7   53.19    4.20
   1   6   7   72.39   13.70
   1   6   7   63.09    8.00
   1   6   7   66.59    4.70
   2   6   7  108.09    6.90
   2   6   7  120.69   11.30
   2   6   7  114.59    7.10
   2   6   7  112.89    6.90
   2   6   7  107.09    7.20
   9  -7  -7   91.79    8.20
  -9   7   7   95.29    5.70
   8  -7  -7   18.10    2.90
   8  -7  -7   19.20    4.30
  -8   7   7   15.60    1.80
  -8   7   7   19.20    2.00
   7  -7  -7   90.19    9.80
   7  -7  -7   94.29    7.80
  -7   7   7   96.29    6.20
  -7   7   7   94.79    6.20
   6  -7  -7   21.20    3.70
   6  -7  -7   18.80    4.90
  -6   7   7   19.80    2.40
  -6   7   7   21.30    2.50
   5  -7  -7   86.99   10.00
   5  -7  -7   83.69    7.90
  -5   7   7   93.49    6.10
  -5   7   7   90.99    6.20
  -5   7   7   93.79    6.00
   4  -7  -7  148.79   13.50
  -4   7   7  141.59    8.90
  -4   7   7  152.08    9.00
  -4   7   7  162.68    9.30
  -4   7   7  121.49   13.80
  -3   7   7   19.20    2.40
  -3   7   7   22.90    2.60
  -3   7   7   28.40    2.90
  -3   7   7   14.00    5.90
  -3   7   7   22.20    2.40
  -3   7   7   24.20    2.50
  -3   7   7   20.10    5.20
  -2   7   7   45.20    4.30
  -2   7   7   52.29    4.50
  -2   7   7   55.09    4.00
  -2   7   7   52.19    4.40
  -2   7   7   45.50    4.30
  -2   7   7   74.89    6.80
  -2   7   7   60.19    9.20
  -1   7   7    2.50    1.00
  -1   7   7    3.50    1.30
  -1   7   7    3.00    2.90
  -1   7   7    2.90    1.10
  -1   7   7    6.60    7.30
  -1   7   7    7.10    7.90
  -1   7   7    3.60    1.20
   0   7   7  429.86   39.40
   0   7   7  562.74   30.50
   0   7   7  594.74   30.60
   0   7   7  596.24   31.10
   0   7   7  533.55   36.30
   0   7   7  550.84   30.70
   1   7   7   15.40    1.90
   1   7   7   18.20    4.90
   1   7   7   15.90    2.00
   1   7   7   21.70    2.20
   1   7   7   14.10    2.20
   1   7   7   25.70    9.20
   2   7   7  446.46   23.00
   2   7   7  416.36   23.30
   2   7   7  320.17   31.40
   2   7   7  449.86   23.10
   8  -8  -7   46.10    5.60
   8  -8  -7   42.10    4.00
  -8   8   7   42.00    3.20
  -8   8   7   44.50    3.20
   7  -8  -7   85.49    8.70
   7  -8  -7   77.69    6.60
  -7   8   7   79.29    5.20
  -7   8   7   65.59    5.10
   6  -8  -7  517.05   31.10
   6  -8  -7  470.35   33.70
  -6   8   7  540.75   29.20
  -6   8   7  562.54   29.00
  -6   8   7  515.15   28.80
   5  -8  -7   34.30    6.60
   5  -8  -7   31.70    4.80
  -5   8   7   34.70    3.10
  -5   8   7   32.70    3.20
  -5   8   7   37.60    3.30
   4  -8  -7  346.67   24.60
  -4   8   7  309.97   19.60
  -4   8   7  338.77   19.60
  -4   8   7  359.56   19.50
  -4   8   7  356.66   19.60
  -3   8   7  101.39   11.80
  -3   8   7  132.99    8.20
  -3   8   7  129.49    8.10
  -3   8   7  131.19    8.20
  -3   8   7  141.19    8.50
  -2   8   7   59.69    4.40
  -2   8   7   58.89    4.40
  -2   8   7   25.10   10.50
  -2   8   7   55.49    8.00
  -2   8   7   60.59    4.20
  -2   8   7   60.79    4.60
  -1   8   7  133.39    8.50
  -1   8   7  109.79   18.40
  -1   8   7  133.69    8.20
  -1   8   7  138.19    7.90
  -1   8   7  101.09   11.90
  -1   8   7  126.79    7.90
   0   8   7   47.00    3.50
   0   8   7   43.70   11.50
   0   8   7   42.70    3.80
   0   8   7   53.89    7.50
   0   8   7   50.49    3.50
   0   8   7   44.70    3.60
   1   8   7   14.50    1.50
   1   8   7   15.40    1.80
   1   8   7    6.80    5.20
   1   8   7   13.60    4.10
   1   8   7   12.60    1.60
   2   8   7  109.39    6.70
   8  -9  -7   44.10    4.80
   8  -9  -7   40.70    3.50
  -8   9   7   40.90    2.90
  -8   9   7   44.30    2.90
   7  -9  -7    1.30    1.60
   7  -9  -7    1.80    1.30
  -7   9   7    1.70    0.80
  -7   9   7    1.80    0.80
   6  -9  -7    1.30    1.80
   6  -9  -7    0.70    1.20
  -6   9   7    0.70    0.70
  -6   9   7   -1.00    0.70
  -6   9   7    1.40    0.90
   5  -9  -7  274.67   20.30
   5  -9  -7  286.07   18.20
  -5   9   7  275.67   16.10
  -5   9   7  282.27   16.20
   4  -9  -7   24.50    5.10
  -4   9   7   12.50    4.40
  -4   9   7   20.00    2.30
  -4   9   7   19.20    2.20
  -4   9   7   22.50    2.40
  -3   9   7   49.50    3.90
  -3   9   7   61.19    4.10
  -3   9   7   38.40    7.40
  -3   9   7   54.59    3.90
  -3   9   7   53.69    4.10
  -2   9   7   31.60    2.70
  -2   9   7   29.30    2.90
  -2   9   7   13.50    7.00
  -2   9   7   26.90    5.80
  -2   9   7   30.40    3.00
  -2   9   7   29.00    2.70
  -1   9   7  164.48    9.80
  -1   9   7  149.59    9.50
  -1   9   7  168.58    9.20
  -1   9   7  145.09    9.30
  -1   9   7  154.88   13.90
   0   9   7  123.39    7.90
   0   9   7  122.19   11.50
   0   9   7  140.49    7.60
   0   9   7  128.99    7.70
   1   9   7   52.19    3.10
   1   9   7   46.80    5.20
   1   9   7   48.70    3.20
   7 -10  -7   53.29    5.10
   7 -10  -7   48.60    4.00
  -7  10   7   51.19    3.50
   6 -10  -7    3.50    1.30
   6 -10  -7    4.10    2.00
  -6  10   7    4.80    0.90
  -6  10   7    5.00    1.00
   5 -10  -7   65.29    6.80
   5 -10  -7   69.99    5.80
  -5  10   7   65.79    4.50
  -5  10   7   70.09    4.50
   4 -10  -7   70.69    5.80
  -4  10   7   66.89    4.40
  -4  10   7   49.10    6.50
  -4  10   7   65.29    4.40
  -4  10   7   81.09    4.60
  -3  10   7   19.60    2.10
  -3  10   7   12.20    3.90
  -3  10   7   25.70    2.30
  -3  10   7   25.10    2.10
  -3  10   7   20.60    2.10
  -2  10   7   21.40    1.90
  -2  10   7   21.60    2.00
  -2  10   7   18.20    4.40
  -2  10   7   23.80    2.20
  -2  10   7    6.10    4.70
  -1  10   7    0.30    0.60
  -1  10   7    1.00    1.90
  -1  10   7   -0.50    2.80
  -1  10   7    0.40    0.40
  -1  10   7    0.30    0.50
   0  11  -8   51.09    3.90
   0  11  -8   64.69    6.10
   0 -11   8   61.89    4.40
  -1  11  -8    0.40    0.80
  -1  11  -8    0.50    1.60
   1 -11   8    1.20    1.00
  -2  11  -8   29.10    4.30
  -2  11  -8   38.10    3.10
  -2  11  -8   32.90    2.60
   2 -11   8   39.60    3.50
   2 -11   8   31.30    4.90
  -3  11  -8   21.60    2.10
  -3  11  -8   21.50    2.40
   3 -11   8   23.10    2.80
   3 -11   8   20.10    3.70
  -4  11  -8   46.30    3.50
  -4  11  -8   51.79    3.50
   4 -11   8   47.60    5.10
   4 -11   8   54.09    4.30
  -5  11  -8   78.69    5.00
   5 -11   8   76.19    6.80
   5 -11   8   86.99    5.70
   2  10  -8   89.99    6.50
   2  10  -8   73.79    6.70
   2  10  -8  100.99   10.70
   2  10  -8   66.59    6.50
   2  10  -8   81.29    9.00
   1  10  -8   47.00    6.70
   1  10  -8   57.19    6.50
   1  10  -8   56.09    4.00
   1  10  -8   80.49   11.80
   0  10  -8   13.30    7.60
   0  10  -8   31.40    6.40
   0  10  -8   19.80    3.60
   0  10  -8   26.20    2.80
   0  10  -8   37.30   10.50
   0  10  -8   24.10    4.50
   0 -10   8   28.70    3.40
  -1  10  -8  134.29    7.80
  -1  10  -8   71.69   14.20
  -1  10  -8   94.29   11.20
  -1  10  -8  107.69    6.80
   1 -10   8  121.89    8.20
  -2  10  -8   56.59    4.60
  -2  10  -8   52.79    7.60
  -2  10  -8   59.79    4.10
   2 -10   8   54.99    5.20
  -3  10  -8    0.60    1.00
  -3  10  -8    0.30    0.80
   3 -10   8   -1.30    2.20
   3 -10   8    1.20    1.30
  -4  10  -8  101.69    7.00
  -4  10  -8  103.09    6.80
   4 -10   8  109.19    9.60
   4 -10   8  113.29    8.10
  -5  10  -8    0.90    0.70
  -5  10  -8    1.20    0.60
   5 -10   8   -0.50    0.90
   5 -10   8    1.60    1.70
  -6  10  -8   47.30    3.20
  -6  10  -8   52.39    3.40
   6 -10   8   49.70    4.10
   3   9  -8   37.60    3.90
   3   9  -8   29.30    4.10
   3   9  -8   33.30    4.80
   3   9  -8   38.50    5.40
   3   9  -8   35.90    3.90
   3   9  -8   35.70    5.30
   2   9  -8   45.00    4.80
   2   9  -8   47.50    6.70
   2   9  -8   45.50    7.00
   2   9  -8   43.00    5.00
   2   9  -8   40.70    7.00
   2   9  -8   34.30    6.60
  -2  -9   8   39.40    3.00
   1   9  -8   19.80    3.80
   1   9  -8   27.40    2.90
   1   9  -8   28.30    6.50
   1   9  -8   22.20    4.00
   1   9  -8   27.00    6.50
   1   9  -8   17.60    4.90
   1   9  -8   22.50    6.40
  -1  -9   8   23.30    2.00
   0   9  -8   46.20    8.40
   0   9  -8   48.40    4.30
   0   9  -8   47.50   10.00
   0   9  -8   58.59    8.30
   0   9  -8   59.49   10.10
   0   9  -8   43.40    6.40
   0   9  -8   48.30    5.60
   0  -9   8   55.59    3.60
  -1   9  -8   77.09   10.90
  -1   9  -8   97.29    6.10
  -1   9  -8   84.99    6.70
  -1   9  -8  110.09   16.20
   1  -9   8   92.69    5.70
  -2   9  -8   22.70    8.80
  -2   9  -8   41.90    4.10
  -2   9  -8   44.90    3.70
  -2   9  -8   35.80    7.60
   2  -9   8   47.30    4.90
   2  -9   8   42.70    3.10
  -3   9  -8  104.19    6.40
  -3   9  -8   93.29    6.70
   3  -9   8   79.49   10.20
   3  -9   8   93.09    5.90
   3  -9   8   96.49    7.90
  -4   9  -8  261.67   14.00
  -4   9  -8  220.78   14.00
  -4   9  -8  224.18   13.40
   4  -9   8  253.57   15.60
   4  -9   8  228.58   17.40
   4  -9   8  226.38   13.50
  -5   9  -8   13.40    1.70
  -5   9  -8   15.00    1.90
   5  -9   8   15.60    3.70
   5  -9   8   16.60    2.90
   5  -9   8   15.80    1.70
  -6   9  -8   12.80    1.40
  -6   9  -8    8.80    1.30
   6  -9   8   11.20    2.20
   6  -9   8    8.60    1.20
  -7   9  -8   81.19    5.00
   7  -9   8   85.39    5.90
   4   8  -8    1.00    1.70
   4   8  -8    1.60    1.20
   4   8  -8    2.90    2.70
   4   8  -8    0.90    1.60
   4   8  -8    2.70    1.70
   3   8  -8   88.79    8.30
   3   8  -8   87.29    9.70
   3   8  -8   66.29   12.60
   3   8  -8   92.29    7.30
   3   8  -8   85.29    9.10
   3   8  -8   83.99   10.50
   2   8  -8  131.99    8.50
   2   8  -8  134.89   13.20
   2   8  -8  145.79   15.90
   2   8  -8  155.38   15.00
   2   8  -8  151.18   12.40
   2   8  -8  152.68   11.00
   1   8  -8   55.19   10.00
   1   8  -8   55.49    6.10
   1   8  -8   59.09    4.80
   1   8  -8   61.09    8.10
   1   8  -8   64.59   12.50
   1   8  -8   64.49   11.40
   1   8  -8   62.79    7.20
   0   8  -8   17.50    5.20
   0   8  -8   12.70    5.10
   0   8  -8   14.60    2.40
   0   8  -8   19.50    6.30
   0   8  -8   12.90    4.90
   0   8  -8   16.40    5.60
   0   8  -8   18.80    3.80
   0  -8   8   16.20    1.80
  -1   8  -8   70.99   10.40
  -1   8  -8   93.19    6.50
  -1   8  -8   80.19    8.80
  -1   8  -8   90.69   14.20
  -1   8  -8   91.39    5.90
   1  -8   8   88.49    5.60
  -2   8  -8    2.70    1.10
  -2   8  -8    3.50    1.40
  -2   8  -8    3.70    3.20
   2  -8   8    2.40    0.90
   2  -8   8    1.90    1.70
  -3   8  -8  274.07   15.20
  -3   8  -8  247.38   15.50
   3  -8   8  250.67   17.00
   3  -8   8  261.97   14.90
  -4   8  -8    3.90    1.00
  -4   8  -8    2.80    1.10
  -4   8  -8    2.50    1.20
   4  -8   8    1.80    1.70
   4  -8   8    4.30    1.10
   4  -8   8    3.00    2.30
  -5   8  -8  202.78   12.10
  -5   8  -8  204.78   12.20
   5  -8   8  209.28   14.00
   5  -8   8  213.88   12.10
  -6   8  -8    1.30    0.70
  -6   8  -8    0.00    0.70
   6  -8   8    1.40    1.30
   6  -8   8    0.90    0.60
  -7   8  -8    2.70    0.80
  -7   8  -8    1.30    0.60
   7  -8   8    1.30    0.60
   7  -8   8    1.80    1.20
   5   7  -8  100.99    9.10
   5   7  -8  100.39    6.20
   5   7  -8  113.89    9.30
   5   7  -8  112.69    8.50
   5   7  -8  112.99    7.60
   4   7  -8   68.19   14.20
   4   7  -8   56.99    3.80
   4   7  -8   61.29    7.60
   4   7  -8   68.29    7.30
   4   7  -8   59.99    5.70
   4   7  -8   45.50    8.70
   3   7  -8   87.79    9.90
   3   7  -8  106.89    8.30
   3   7  -8   86.49   11.00
   3   7  -8   97.79   15.60
   3   7  -8  103.09   10.80
   3   7  -8   98.29    6.00
   3   7  -8   83.99   14.10
   2   7  -8  353.46   26.90
   2   7  -8  338.87   19.30
   2   7  -8  361.96   21.90
   2   7  -8  315.67   31.20
   2   7  -8  330.97   24.90
   2   7  -8  380.06   30.20
   2   7  -8  337.27   24.60
   1   7  -8  327.07   27.90
   1   7  -8  329.17   25.30
   1   7  -8  306.57   18.20
   1   7  -8  356.36   23.20
   1   7  -8  311.07   29.10
   1   7  -8  333.97   19.00
   1   7  -8  306.87   23.70
   1   7  -8  328.07   20.80
   0   7  -8  265.67   22.40
   0   7  -8  269.87   24.60
   0   7  -8  333.27   21.60
   0   7  -8  302.37   17.50
   0   7  -8  290.17   19.10
  -1   7  -8  114.29    7.10
  -1   7  -8  116.49    7.80
  -1   7  -8  109.49   11.70
  -1   7  -8  104.39    9.50
   1  -7   8  116.69    7.00
  -2   7  -8  178.78   10.60
  -2   7  -8  177.78   19.20
  -2   7  -8  206.68   11.20
   2  -7   8  155.98   11.90
   2  -7   8  168.58   10.30
  -3   7  -8  107.89    7.10
  -3   7  -8  106.29    6.50
  -3   7  -8  103.99    6.80
   3  -7   8  101.39    6.60
   3  -7   8  101.79    8.40
  -4   7  -8   89.09    5.60
  -4   7  -8   86.59    5.80
   4  -7   8   84.49    7.40
   4  -7   8   83.59    5.70
  -5   7  -8   30.10    2.90
  -5   7  -8   37.80    3.00
   5  -7   8   31.80    4.50
   5  -7   8   32.30    3.00
  -6   7  -8    8.80    1.30
  -6   7  -8    8.20    1.30
  -6   7  -8   10.10    1.50
   6  -7   8    8.50    2.20
   6  -7   8    8.10    1.30
  -7   7  -8   36.50    2.60
  -7   7  -8   36.40    2.70
   7  -7   8   32.80    3.60
   7  -7   8   36.00    2.60
  -8   7  -8   58.59    3.40
  -8   7  -8   55.69    3.40
   8  -7   8   56.59    3.30
   8  -7   8   47.00    4.00
   6   6  -8   -0.30    0.80
   6   6  -8    0.30    1.10
   6   6  -8    0.10    1.10
   6   6  -8    0.20    0.30
   6   6  -8    1.40    3.00
   5   6  -8    0.60    3.90
   5   6  -8    2.20    1.70
   5   6  -8    3.40    0.80
   5   6  -8    2.90    2.80
   5   6  -8    1.90    2.20
   5   6  -8    3.40    0.80
   5   6  -8    2.50    2.40
   4   6  -8  112.39   21.30
   4   6  -8  117.89    7.10
   4   6  -8  109.29    9.70
   4   6  -8  119.59   12.00
   4   6  -8  137.39   13.00
   4   6  -8  118.09    7.10
   4   6  -8  101.09   13.70
   4   6  -8  115.49   12.60
   3   6  -8  276.07   16.00
   3   6  -8  301.17   22.80
   3   6  -8  267.67   22.30
   3   6  -8  294.57   21.90
   3   6  -8  289.37   19.30
   3   6  -8  287.47   25.20
   3   6  -8  274.67   16.00
   2   6  -8  752.42   39.70
   2   6  -8  856.51   47.10
   2   6  -8  653.83   45.40
   2   6  -8  734.83   39.40
   2   6  -8  763.82   49.40
   2   6  -8  720.43   45.20
   2   6  -8  677.93   42.20
   2   6  -8  603.44   52.39
   1   6  -8   43.80    7.00
   1   6  -8   30.50    4.30
   1   6  -8   37.50    2.80
   1   6  -8   39.90   11.50
   1   6  -8   42.90    8.90
   1   6  -8   37.80    3.60
   1   6  -8   39.30    7.00
   0   6  -8   77.89   14.40
   0   6  -8   88.49    9.30
   0   6  -8   70.29    8.20
   0   6  -8   83.19    6.00
   0  -6   8  100.59   10.80
   0  -6   8  102.69    8.10
  -1   6  -8   98.69   10.10
  -1   6  -8  115.89    7.90
   1  -6   8  109.99    9.00
   1  -6   8   99.39   11.30
  -2   6  -8  188.28   13.30
  -2   6  -8  212.08   15.10
   2  -6   8  221.68   14.90
   2  -6   8  202.28   18.30
  -3   6  -8  264.37   14.20
  -3   6  -8  258.07   14.80
  -3   6  -8  255.87   14.50
   3  -6   8  221.48   14.30
   3  -6   8  252.27   16.40
  -4   6  -8  179.78   10.00
  -4   6  -8  172.78   10.20
   4  -6   8  157.68   10.20
   4  -6   8  165.18   12.00
  -5   6  -8    5.20    1.10
  -5   6  -8    3.80    1.00
   5  -6   8    3.70    0.90
   5  -6   8    4.50    1.10
   5  -6   8    4.60    1.20
   5  -6   8    4.40    1.90
  -6   6  -8  183.48   10.90
  -6   6  -8  184.98   10.90
   6  -6   8  193.68   10.90
   6  -6   8  192.18   11.00
   6  -6   8  182.18   10.80
   6  -6   8  179.58   12.70
  -7   6  -8   10.10    1.30
   7  -6   8   10.20    1.30
   7  -6   8   10.00    2.20
   7  -6   8   11.40    1.40
  -8   6  -8    8.10    0.90
  -8   6  -8   10.50    1.10
   8  -6   8    9.20    1.00
   8  -6   8    5.70    1.30
   6   5  -8    7.80    1.10
   6   5  -8    7.80    3.20
   6   5  -8    5.00    2.20
   6   5  -8    7.90    1.10
   6   5  -8    8.00    3.30
   6   5  -8    7.50    5.90
   5   5  -8   69.89    7.40
   5   5  -8   81.39    9.50
   5   5  -8   81.69   11.20
   5   5  -8   76.49    9.90
   5   5  -8   71.39    4.90
   5   5  -8   70.79   16.60
   5   5  -8   79.09    4.90
   4   5  -8  226.18   17.40
   4   5  -8  260.87   21.30
   4   5  -8  246.48   14.30
   4   5  -8  270.57   22.80
   4   5  -8  253.27   14.40
   4   5  -8  249.68   20.60
   3   5  -8  474.75   35.60
   3   5  -8  523.65   36.30
   3   5  -8  567.74   29.70
   3   5  -8  545.65   29.70
   3   5  -8  586.04   35.70
   3   5  -8  511.35   33.00
   3   5  -8  541.55   38.10
   2   5  -8  251.37   19.60
   2   5  -8  215.18   15.70
   2   5  -8  263.07   22.80
   2   5  -8  231.08   16.20
   2   5  -8  187.28   18.30
   2   5  -8  246.48   17.80
   2   5  -8  206.58   18.10
   2   5  -8  214.58   12.90
  -2  -5   8  263.77   19.70
   1   5  -8  603.64   50.49
   1   5  -8  786.22   43.50
   1   5  -8  653.53   40.30
  -1  -5   8  666.03   39.50
  -1  -5   8  692.03   42.80
   0   5  -8  671.63   50.99
   0   5  -8  627.14   41.10
   0  -5   8  791.82   41.30
   0  -5   8  723.73   44.20
  -1   5  -8  585.44   33.10
  -1   5  -8  582.74   34.90
   1  -5   8  582.74   34.30
   1  -5   8  577.34   37.40
  -2   5  -8  187.18   12.10
  -2   5  -8  181.28   13.30
   2  -5   8  178.88   16.40
   2  -5   8  194.38   13.50
  -3   5  -8  796.42   49.70
  -3   5  -8  924.31   54.99
   3  -5   8  968.00   51.99
  -4   5  -8  457.25   24.10
   4  -5   8  419.96   23.70
   4  -5   8  426.56   24.10
   4  -5   8  444.46   24.20
   4  -5   8  407.26   23.80
   4  -5   8  434.16   26.00
  -5   5  -8    3.70    1.00
   5  -5   8    2.50    1.00
   5  -5   8    2.10    1.70
   5  -5   8    3.60    1.00
   5  -5   8    3.00    1.10
   5  -5   8    3.60    0.90
  -6   5  -8  241.38   13.50
  -6   5  -8  230.18   13.50
   6  -5   8  221.98   13.40
   6  -5   8  241.58   15.50
   6  -5   8  247.78   13.70
   6  -5   8  233.28   13.70
  -7   5  -8  387.86   21.60
   7  -5   8  404.06   21.70
   7  -5   8  396.26   23.10
   7  -5   8  398.96   21.60
   7  -5   8  405.56   21.70
   7  -5   8  350.96   21.40
  -8   5  -8    3.30    0.70
  -8   5  -8    3.70    0.70
   8  -5   8    2.60    0.60
   8  -5   8    2.80    0.60
   8  -5   8    2.20    0.60
   8  -5   8    1.40    1.00
   7   4  -8    8.00    2.60
   7   4  -8    9.20    3.10
   7   4  -8    5.30    4.50
   7   4  -8    8.60    1.00
   7   4  -8    8.60    2.20
   7   4  -8    8.70    1.00
   6   4  -8    0.70    1.70
   6   4  -8    1.10    2.50
   6   4  -8    0.30    0.60
   6   4  -8    1.60    2.40
   6   4  -8   -0.10    0.60
   6   4  -8    0.40    4.70
   6   4  -8    0.90    2.70
   5   4  -8  143.69   15.60
   5   4  -8  121.29   13.30
   5   4  -8  136.89    8.60
   5   4  -8  159.08    8.70
   5   4  -8  133.69   11.90
   5   4  -8  118.89   18.80
   5   4  -8  169.58   15.90
   4   4  -8   71.09   16.10
   4   4  -8   66.79    8.60
   4   4  -8   67.29   10.00
   4   4  -8   62.79    4.70
   4   4  -8   71.79    8.90
   4   4  -8   77.79   10.20
   4   4  -8   74.39    4.70
   3   4  -8 1080.69   62.49
   3   4  -8 1098.29   63.89
   3   4  -8  940.11   55.79
   3   4  -8  925.51   60.49
   3   4  -8 1012.10   55.89
  -3  -4   8 1082.59   57.69
  -3  -4   8 1131.69   62.19
   2   4  -8  109.39    9.00
   2   4  -8  119.89   11.80
   2   4  -8   89.39   14.50
  -2  -4   8  122.79    8.40
  -2  -4   8  111.69    8.70
  -2  -4   8  122.09   11.20
   1   4  -8   40.50    5.00
   1   4  -8   36.30    8.00
   1   4  -8   35.80    6.00
  -1  -4   8   41.20    4.30
  -1  -4   8   34.10    4.40
  -1  -4   8   34.20    5.80
   0   4  -8 1070.19   61.29
   0   4  -8 1158.38   59.49
   0   4  -8 1004.90   65.89
   0  -4   8 1087.99   60.19
   0  -4   8 1059.69   60.79
   0  -4   8 1118.99   63.39
  -1   4  -8   10.50    2.60
  -1   4  -8    9.80    1.80
   1  -4   8    9.90    3.70
   1  -4   8   10.50    2.50
   1  -4   8   12.90    2.60
  -2   4  -8 1132.99   65.59
  -2   4  -8 1177.68   64.59
   2  -4   8 1189.88   65.39
   2  -4   8 1183.08   66.19
  -3   4  -8   16.20    4.00
  -3   4  -8   16.80    2.60
  -3   4  -8   15.00    2.50
   3  -4   8   21.00    4.10
   3  -4   8   20.60    3.60
  -4   4  -8    5.50    2.50
   4  -4   8    9.30    1.50
   4  -4   8    9.20    2.60
   4  -4   8    8.90    1.20
   4  -4   8    8.40    2.90
   4  -4   8   11.20    1.60
   4  -4   8    8.80    1.20
  -5   4  -8  485.95   26.20
   5  -4   8  462.25   26.10
   5  -4   8  462.25   26.40
   5  -4   8  476.45   26.00
   5  -4   8  462.45   26.50
   5  -4   8  461.35   26.20
   5  -4   8  506.65   28.40
   5  -4   8  470.75   26.10
   6  -4   8    6.90    1.20
   6  -4   8    6.40    1.30
   6  -4   8    6.40    1.00
   6  -4   8    6.70    1.10
   6  -4   8    6.40    1.10
   6  -4   8    7.20    2.10
   6  -4   8    6.30    1.30
   6  -4   8    5.00    1.00
  -7   4  -8   17.10    1.60
   7  -4   8   15.90    1.70
   7  -4   8   17.00    1.80
   7  -4   8   14.90    1.50
   7  -4   8   18.70    1.80
   7  -4   8   15.50    1.80
   7  -4   8   14.80    2.60
   7  -4   8   19.00    1.80
  -8   4  -8   93.19    5.60
   8  -4   8  100.99    5.80
   8  -4   8  103.59    5.80
   8  -4   8   93.89    5.70
   8  -4   8   99.19    5.60
   8  -4   8   99.49    5.60
   8   3  -8   32.90    2.10
   8   3  -8   27.20    6.40
   8   3  -8   33.30    4.20
   8   3  -8   32.00    2.10
   7   3  -8   12.20    1.40
   7   3  -8   13.10    4.60
   7   3  -8    7.80    6.20
   7   3  -8   10.70    1.20
   7   3  -8   12.50    4.00
   7   3  -8   11.80    1.40
   7   3  -8    8.50    2.80
   6   3  -8    3.90    5.70
   6   3  -8    6.60    1.20
   6   3  -8    4.60    1.10
   6   3  -8    7.70    3.70
   6   3  -8    6.10    1.10
   6   3  -8    5.20    2.80
   6   3  -8    6.90    4.20
   6   3  -8    8.20    3.90
   5   3  -8   66.49   15.20
   5   3  -8   96.79    6.30
   5   3  -8   95.39   10.40
   5   3  -8  109.59    6.30
   5   3  -8  100.59    6.30
   5   3  -8  111.79   13.40
   5   3  -8  109.69   11.70
   5   3  -8   93.19    9.30
   4   3  -8   28.70    9.20
   4   3  -8   36.10    6.10
   4   3  -8   31.40    2.50
   4   3  -8   36.20    5.70
   4   3  -8   28.50    2.70
   4   3  -8   31.50    2.60
   4   3  -8   32.10    6.00
   3   3  -8    3.80    3.70
   3   3  -8   -0.60    2.40
  -3  -3   8    6.10    1.80
  -3  -3   8    4.60    2.90
  -3  -3   8    3.90    1.60
   2   3  -8  452.55   28.30
   2   3  -8  524.65   31.30
   2   3  -8  460.45   33.50
  -2  -3   8  483.95   30.50
  -2  -3   8  485.05   27.90
  -2  -3   8  468.95   28.10
   1   3  -8 1058.49   62.09
   1   3  -8 1175.48   63.79
   1   3  -8 1140.09   66.69
  -1  -3   8 1098.79   61.39
  -1  -3   8 1055.79   61.59
  -1  -3   8 1135.29   63.69
   0   3  -8  860.41   48.50
   0   3  -8  861.91   46.90
   0   3  -8  843.62   51.49
   0  -3   8  883.31   49.90
   0  -3   8  838.52   48.10
   0  -3   8  828.82   47.70
  -1   3  -8  206.78   12.30
  -1   3  -8  198.48   13.30
   1  -3   8  190.88   13.30
   1  -3   8  204.68   13.20
  -2   3  -8  626.34   36.50
  -2   3  -8  653.43   37.50
  -2   3  -8  656.23   36.30
   2  -3   8  671.03   37.70
   2  -3   8  651.43   36.60
   2  -3   8  637.54   37.90
  -3   3  -8  314.67   18.50
  -3   3  -8  286.47   18.10
   3  -3   8  286.67   19.60
   3  -3   8  333.87   19.80
   3  -3   8  302.17   18.30
  -4   3  -8   86.89    7.70
  -4   3  -8  102.79    7.30
  -4   3  -8   86.19    6.80
   4  -3   8   81.09    5.10
   4  -3   8   76.49    5.50
   4  -3   8  109.99    8.50
   4  -3   8   77.99    5.40
   4  -3   8   84.49    5.60
   4  -3   8   92.19   11.00
   5  -3   8    1.10    0.60
   5  -3   8    0.10    0.50
   5  -3   8    0.90    0.50
   5  -3   8    0.80    0.70
   5  -3   8    0.80    0.80
   5  -3   8    1.50    0.70
   5  -3   8    1.20    0.80
   6  -3   8    6.40    1.10
   6  -3   8    8.00    1.20
   6  -3   8    5.30    1.10
   6  -3   8    7.10    1.10
   6  -3   8    7.80    1.40
   6  -3   8    6.00    1.30
   6  -3   8    7.50    1.10
   7  -3   8    2.50    0.80
   7  -3   8    3.00    0.80
   7  -3   8    2.30    0.60
   7  -3   8    4.20    0.90
   7  -3   8    4.10    1.00
   7  -3   8    2.90    0.80
   8  -3   8   20.60    1.50
   8  -3   8   22.50    1.70
   8  -3   8   18.50    1.60
   8  -3   8   23.40    1.70
   8  -3   8   21.20    1.60
   8  -3   8   22.80    1.70
   8   2  -8    1.40    0.50
   8   2  -8    2.00    2.30
   8   2  -8    0.60    3.50
   8   2  -8    1.50    1.50
   8   2  -8    2.00    0.60
   8   2  -8    2.80    1.90
   7   2  -8    4.10    1.00
   7   2  -8    6.20    5.50
   7   2  -8    4.90    3.00
   7   2  -8    5.40    3.80
   7   2  -8    3.00    0.90
   7   2  -8    3.20    0.90
   7   2  -8    2.40    2.20
   6   2  -8  187.38   15.60
   6   2  -8  209.38   11.10
   6   2  -8  179.48   11.00
   6   2  -8  188.38   18.70
   6   2  -8  145.89   19.20
   6   2  -8  189.88   11.10
   6   2  -8  230.58   15.10
   5   2  -8   29.50    5.90
   5   2  -8   26.70    2.60
   5   2  -8   27.60    5.20
   5   2  -8   33.70    2.60
   5   2  -8   28.50    8.20
   5   2  -8   30.10    2.70
   5   2  -8   32.50    5.50
   4   2  -8  192.78   18.70
   4   2  -8  192.88   16.80
  -4  -2   8  208.88   13.20
  -4  -2   8  191.78   13.20
   3   2  -8  115.09   10.80
   3   2  -8  113.19    8.30
   3   2  -8  117.09   12.50
  -3  -2   8  104.39    8.00
  -3  -2   8  103.09    8.10
  -3  -2   8  105.69    9.60
   2   2  -8    1.20    1.80
   2   2  -8    0.80    1.80
   2   2  -8   -1.80    0.80
  -2  -2   8   -0.40    1.30
  -2  -2   8    0.10    0.90
  -2  -2   8    1.60    1.10
   1   2  -8 1085.19   58.99
   1   2  -8 1064.79   61.79
   1   2  -8 1054.29   58.09
   1   2  -8  973.90   56.29
  -1  -2   8 1007.10   57.49
  -1  -2   8 1025.20   58.69
  -1  -2   8 1081.69   56.79
  -1  -2   8 1019.20   57.49
   0   2  -8  226.98   15.70
   0   2  -8  250.27   14.50
   0   2  -8  249.78   18.10
   0  -2   8  258.97   14.80
   0  -2   8  247.78   15.40
   0  -2   8  246.28   15.40
  -1   2  -8 1760.92   94.89
  -1   2  -8 1724.13   95.09
  -1   2  -8 1810.22   96.29
  -1   2  -8 1773.32   94.49
  -1   2  -8 1732.73   95.09
   1  -2   8 1694.33   95.19
   1  -2   8 1691.53   95.99
   1  -2   8 1829.02   96.19
  -2   2  -8  344.47   21.70
  -2   2  -8  339.87   21.00
  -2   2  -8  352.16   20.40
  -2   2  -8  365.66   21.30
  -2   2  -8  369.46   21.00
   2  -2   8  359.46   22.00
   2  -2   8  364.66   22.30
   2  -2   8  368.46   21.30
  -3   2  -8   84.69    6.80
  -3   2  -8   84.99    6.10
  -3   2  -8   79.19    6.50
  -3   2  -8   83.09    6.60
   3  -2   8   89.49    6.90
   3  -2   8   88.69    7.60
   3  -2   8   88.89    7.60
  -4   2  -8  203.38   14.40
   4  -2   8  196.08   11.60
   4  -2   8  207.68   11.40
   4  -2   8  197.48   11.30
   4  -2   8  246.88   16.00
   4  -2   8  206.98   11.60
   4  -2   8  198.18   11.70
   4  -2   8  182.08   11.60
   4  -2   8  187.68   11.40
   4  -2   8  203.48   11.90
   5  -2   8    2.20    0.70
   5  -2   8    3.00    0.70
   5  -2   8    3.00    1.10
   5  -2   8    2.60    0.80
   5  -2   8    2.70    0.80
   5  -2   8    3.30    1.10
   5  -2   8    3.10    1.00
   5  -2   8    2.90    0.70
   6  -2   8   68.39    4.50
   6  -2   8   75.59    4.80
   6  -2   8   66.59    4.70
   6  -2   8   73.19    4.80
   6  -2   8   74.39    5.00
   6  -2   8   75.99    4.60
   6  -2   8   69.19    4.70
   7  -2   8   39.80    2.70
   7  -2   8   38.20    2.90
   7  -2   8   38.70    2.90
   7  -2   8   44.70    3.00
   7  -2   8   48.50    3.20
   7  -2   8   40.30    2.90
   8  -2   8    0.00    0.40
   8  -2   8    0.30    0.40
   8  -2   8    0.90    0.40
   8  -2   8    0.50    0.40
   8  -2   8    1.10    0.40
   8  -2   8    0.40    0.30
   8   1  -8   47.10    5.30
   8   1  -8   45.30    3.30
   8   1  -8   45.60    3.30
   8   1  -8   47.80    3.30
   8   1  -8   55.79    6.40
   8   1  -8   62.89   11.90
   8   1  -8   64.19    8.10
   7   1  -8   77.29    7.40
   7   1  -8   68.99    4.40
   7   1  -8   62.69    9.80
   7   1  -8   57.89    4.30
   7   1  -8   53.39    4.10
   7   1  -8   75.79    8.20
   7   1  -8   72.69   11.70
  -7  -1   8   66.09    4.10
   6   1  -8    0.90    1.90
   6   1  -8    0.00    2.80
   6   1  -8    0.90    0.60
   6   1  -8    1.30    0.70
   6   1  -8    0.00    1.90
   6   1  -8    0.30    0.70
   6   1  -8    2.40    2.90
   5   1  -8   83.19    5.40
   5   1  -8   85.09    8.10
   5   1  -8   88.99    8.70
   5   1  -8   89.69    5.50
   5   1  -8   82.99    7.90
   5   1  -8   74.49   10.00
   5   1  -8   95.19    5.60
   4   1  -8    3.60    2.60
   4   1  -8    4.20    3.10
   4   1  -8    6.30    3.10
  -4  -1   8    5.00    1.50
  -4  -1   8    3.00    1.50
  -4  -1   8    6.80    1.90
   3   1  -8  276.27   18.60
   3   1  -8  281.37   16.40
   3   1  -8  269.67   18.30
   3   1  -8  236.68   20.30
  -3  -1   8  250.17   15.50
  -3  -1   8  257.77   16.20
  -3  -1   8  267.47   16.40
   2   1  -8  583.14   36.40
   2   1  -8  561.94   32.30
   2   1  -8  581.14   33.60
  -2  -1   8  550.44   31.50
  -2  -1   8  568.64   32.00
  -2  -1   8  524.95   32.20
   1   1  -8  799.42   47.60
   1   1  -8  720.83   43.90
   1   1  -8  772.22   42.60
  -1  -1   8  779.52   43.40
  -1  -1   8  805.52   43.70
  -1  -1   8  794.12   43.20
   0   1  -8  483.55   27.50
   0   1  -8  488.85   29.90
   0   1  -8  471.15   26.30
   0  -1   8  462.45   26.00
   0  -1   8  442.76   26.60
   0  -1   8  449.06   26.90
   0  -1   8  469.15   27.20
  -1   1  -8  671.43   37.50
  -1   1  -8  668.93   37.00
  -1   1  -8  647.14   37.40
  -1   1  -8  667.93   37.70
  -1   1  -8  659.83   38.40
   1  -1   8  702.33   38.30
   1  -1   8  668.33   38.50
   1  -1   8  672.03   37.80
  -2   1  -8  684.33   38.60
  -2   1  -8  683.03   39.20
  -2   1  -8  699.83   40.00
  -2   1  -8  696.63   39.20
  -2   1  -8  675.43   39.50
   2  -1   8  733.73   39.70
   2  -1   8  687.63   40.40
   2  -1   8  709.53   40.10
  -3   1  -8  981.30   56.09
  -3   1  -8  980.90   56.89
  -3   1  -8 1010.20   57.29
  -3   1  -8 1025.20   56.79
   3  -1   8 1048.10   57.19
   3  -1   8 1020.60   58.19
   3  -1   8 1070.89   58.19
   4  -1   8  104.29    6.20
   4  -1   8   97.79    6.00
   4  -1   8   95.79    6.10
   4  -1   8  102.19    6.40
   4  -1   8   92.79    6.20
   4  -1   8   98.79    6.50
   4  -1   8  102.49    6.10
   4  -1   8   98.39    6.00
   5  -1   8   91.09    6.00
   5  -1   8   98.19    6.00
   5  -1   8   90.49    6.10
   5  -1   8   97.09    5.90
   5  -1   8   94.59    6.30
   5  -1   8   98.19    6.00
   5  -1   8   92.89    5.80
   6  -1   8  206.08   11.50
   6  -1   8  194.88   11.30
   6  -1   8  176.68   11.40
   6  -1   8  181.98   11.20
   6  -1   8  198.48   11.60
   6  -1   8  209.08   11.80
   6  -1   8  233.68   11.70
   7  -1   8   35.60    2.50
   7  -1   8   30.80    2.20
   7  -1   8   37.60    2.50
   7  -1   8   28.70    2.40
   7  -1   8   28.60    2.30
   7  -1   8   34.30    2.40
   9   0  -8    0.40    1.60
   9   0  -8    0.80    0.40
   9   0  -8   -0.20    2.60
  -9   0   8    0.40    0.30
   8   0  -8    0.10    0.50
   8   0  -8    0.90    2.60
   8   0  -8    1.80    1.90
   8   0  -8    0.00    0.50
   8   0  -8    0.40    1.60
   8   0  -8   -1.00    3.00
   8   0  -8    0.10    0.50
  -8   0   8   -0.80    0.40
   7   0  -8  112.89   14.20
   7   0  -8  145.99   11.70
   7   0  -8  164.68   14.70
   7   0  -8  154.48    8.60
   7   0  -8  153.98   11.50
   7   0  -8  133.59    8.30
   7   0  -8  129.29    8.30
  -7   0   8  139.39    8.20
   6   0  -8  187.98   13.80
   6   0  -8  192.98   10.90
   6   0  -8  181.78   10.80
   6   0  -8  192.28   16.90
   6   0  -8  174.18   10.80
   5   0  -8   -4.90    2.40
   5   0  -8    1.40    2.20
  -5   0   8   -0.60    1.10
  -5   0   8    0.40    1.30
  -5   0   8    1.30    1.80
   4   0  -8  240.18   16.70
   4   0  -8  201.38   18.20
  -4   0   8  215.98   13.60
  -4   0   8  229.98   14.10
  -4   0   8  208.68   14.00
   3   0  -8  185.38   16.20
   3   0  -8  188.88   13.80
   3   0  -8  189.48   12.20
  -3   0   8  178.48   11.70
  -3   0   8  190.58   12.30
  -3   0   8  201.58   12.10
   2   0  -8  944.81   57.79
   2   0  -8  929.71   53.59
   2   0  -8  979.80   54.49
  -2   0   8  990.50   53.19
  -2   0   8  924.31   53.49
  -2   0   8 1000.80   53.09
   1   0  -8  356.76   23.70
   1   0  -8  351.46   19.30
   1   0  -8  311.67   20.20
  -1   0   8  324.27   19.60
  -1   0   8  313.77   20.00
  -1   0   8  347.97   19.10
  -1   0   8  337.17   19.40
   0   0  -8    8.10    2.20
   0   0  -8    5.50    2.60
   0   0  -8    8.00    1.60
   0   0   8    6.10    2.00
   0   0   8    8.70    2.00
   0   0   8    5.60    1.50
   0   0   8    8.10    1.90
  -1   0  -8 1619.34   82.39
  -1   0  -8 1449.35   81.09
   1   0   8 1497.25   81.59
   1   0   8 1392.46   80.89
   1   0   8 1479.35   81.49
   1   0   8 1474.95   82.19
  -2   0  -8    1.00    1.10
  -2   0  -8    1.20    1.40
  -2   0  -8    1.50    1.00
  -2   0  -8   -0.40    1.00
  -2   0  -8    1.50    1.00
   2   0   8    0.70    1.20
   2   0   8    0.50    1.10
   2   0   8    1.10    1.30
  -3   0  -8   -0.10    1.00
  -3   0  -8    1.80    1.10
  -3   0  -8   -1.00    1.20
  -3   0  -8    0.90    1.10
   3   0   8    1.00    1.30
   3   0   8    0.90    1.30
   4   0   8  334.87   19.40
   4   0   8  349.96   19.70
   4   0   8  365.76   20.00
   4   0   8  365.56   19.50
   4   0   8  343.57   19.60
   4   0   8  345.97   19.80
   4   0   8  353.36   19.60
   5   0   8  383.26   23.60
   5   0   8  447.96   23.90
   5   0   8  426.86   23.90
   5   0   8  439.26   23.50
   5   0   8  406.76   23.80
   5   0   8  434.56   23.70
   5   0   8  445.46   23.60
   6   0   8   56.49    3.90
   6   0   8   61.79    3.70
   6   0   8   53.29    3.60
   6   0   8   51.59    3.70
   6   0   8   58.09    4.00
   6   0   8   55.39    3.90
   6   0   8   57.19    3.80
   7   0   8   69.79    4.20
   7   0   8   68.29    4.30
   7   0   8   63.29    4.20
   7   0   8   73.59    4.20
   7   0   8   70.69    4.30
   9  -1  -8  157.38   12.20
   9  -1  -8  136.69   13.50
   9  -1  -8  120.69    7.40
  -9   1   8  123.69    7.40
   8  -1  -8   52.99    7.60
   8  -1  -8   49.40    5.70
   8  -1  -8   53.29    3.50
   8  -1  -8   52.19    8.60
   8  -1  -8   43.70    3.30
  -8   1   8   48.60    3.30
   7  -1  -8    7.90    1.30
   7  -1  -8    8.10    3.80
   7  -1  -8    7.00    3.60
   7  -1  -8    7.40    1.20
   7  -1  -8    7.00    2.70
  -7   1   8    7.00    1.10
   5  -1  -8   25.20    6.40
   5  -1  -8   27.00    5.30
  -5   1   8   26.60    4.00
  -5   1   8   27.20    3.70
   4  -1  -8   88.69   10.50
   4  -1  -8   85.79    8.40
  -4   1   8   88.29    7.00
  -4   1   8   84.09    6.60
   3  -1  -8  211.78   14.40
   3  -1  -8  174.58   16.10
   3  -1  -8  189.68   12.60
  -3   1   8  214.08   12.70
  -3   1   8  204.08   12.90
   2  -1  -8  666.33   36.90
   2  -1  -8  630.14   41.80
   2  -1  -8  638.94   38.00
   2  -1  -8  696.83   38.70
  -2   1   8  707.13   37.80
  -2   1   8  673.63   37.10
  -2   1   8  660.53   37.80
   1  -1  -8  583.44   35.70
   1  -1  -8  532.65   31.90
   1  -1  -8  533.25   30.80
  -1   1   8  548.95   31.50
  -1   1   8  572.64   31.60
  -1   1   8  535.45   30.90
   0  -1  -8  200.98   13.00
   0  -1  -8  207.28   16.40
   0  -1  -8  220.68   14.10
   0   1   8  221.38   13.90
   0   1   8  199.08   13.00
   0   1   8  227.28   13.70
  -1  -1  -8   71.09    5.90
  -1  -1  -8   81.89    6.90
   1   1   8   78.39    6.80
   1   1   8   79.09    6.10
   1   1   8   78.59    6.50
  -2  -1  -8  891.51   50.39
  -2  -1  -8  889.61   49.40
   2   1   8  846.22   49.80
   2   1   8  887.61   50.49
  -3  -1  -8   37.90    4.60
   3   1   8   29.60    2.60
   3   1   8   30.20    2.50
   3   1   8   30.60    2.40
   3   1   8   31.00    4.80
   3   1   8   32.20    3.00
   3   1   8   31.60    2.60
   4   1   8    8.60    1.30
   4   1   8   11.10    1.40
   4   1   8   10.20    1.50
   4   1   8    9.90    1.60
   4   1   8    8.10    1.30
   4   1   8    8.30    1.40
   4   1   8   10.20    1.30
   5   1   8    2.60    0.90
   5   1   8    2.60    0.70
   5   1   8    3.20    1.00
   5   1   8    2.80    0.80
   5   1   8    2.80    0.80
   5   1   8    2.00    0.70
   6   1   8   -0.10    0.50
   6   1   8    0.60    0.50
   6   1   8    0.20    0.50
   6   1   8   -0.40    0.40
   6   1   8    0.50    0.60
   7   1   8    6.30    0.80
   7   1   8    5.30    0.70
   7   1   8    5.10    0.70
   9  -2  -8   33.50    6.60
   9  -2  -8   37.00    5.60
  -9   2   8   30.40    2.30
   8  -2  -8   87.99    5.90
   8  -2  -8  106.99   11.20
   8  -2  -8  102.59    8.40
   8  -2  -8  107.69   10.40
  -8   2   8   84.19    5.90
   7  -2  -8  484.25   34.20
   7  -2  -8  568.24   33.00
   7  -2  -8  475.95   28.40
   7  -2  -8  509.55   31.10
  -7   2   8  551.74   28.40
  -7   2   8  503.25   28.40
   6  -2  -8   15.40    3.30
   6  -2  -8   14.00    4.20
   6  -2  -8   15.40    1.70
  -6   2   8   14.40    1.60
  -6   2   8   12.30    1.60
   5  -2  -8    8.00    3.10
   5  -2  -8    6.90    3.80
  -5   2   8    6.90    2.40
  -5   2   8    5.30    2.00
   4  -2  -8    5.90    3.50
   4  -2  -8    8.00    2.80
  -4   2   8    5.70    1.80
  -4   2   8    7.40    2.10
   3  -2  -8    2.60    1.80
   3  -2  -8    2.70    2.60
   3  -2  -8    3.60    1.60
  -3   2   8    1.60    1.20
  -3   2   8    4.50    1.60
  -3   2   8    4.80    1.70
   2  -2  -8  873.51   49.80
   2  -2  -8  831.62   49.00
   2  -2  -8  893.11   53.79
   2  -2  -8  884.01   48.00
  -2   2   8  905.81   48.70
  -2   2   8  873.01   48.20
  -2   2   8  825.32   48.70
   1  -2  -8  715.83   44.00
   1  -2  -8  671.43   39.80
   1  -2  -8  660.83   38.60
  -1   2   8  648.74   39.30
  -1   2   8  712.73   39.00
  -1   2   8  740.63   39.50
   0  -2  -8 2589.54  147.89
   0  -2  -8 2570.14  143.09
   0  -2  -8 2697.03  144.39
   0   2   8 2566.04  143.69
   0   2   8 2700.53  143.19
   0   2   8 2738.43  144.09
  -1  -2  -8    3.10    1.40
  -1  -2  -8    2.20    1.80
   1   2   8    2.60    1.80
   1   2   8   -0.10    1.10
   1   2   8   -0.30    0.90
  -2  -2  -8    5.70    1.90
  -2  -2  -8    4.40    2.20
   2   2   8    4.60    1.70
   2   2   8    5.30    2.60
   2   2   8    7.10    2.20
   3   2   8  165.18    9.40
   3   2   8  162.08    9.60
   3   2   8  157.98    9.60
   3   2   8  153.38    9.30
   3   2   8  152.58    9.40
   3   2   8  166.38    9.40
   4   2   8    0.50    0.50
   4   2   8    0.40    0.50
   4   2   8    2.90    0.80
   4   2   8    0.90    0.70
   4   2   8    1.30    0.70
   4   2   8    2.60    0.90
   5   2   8  208.08   12.30
   5   2   8  215.68   12.40
   5   2   8  228.28   12.20
   5   2   8  209.68   12.40
   5   2   8  212.98   12.20
   6   2   8    0.00    0.50
   6   2   8    0.10    0.50
   6   2   8    2.30    0.60
   6   2   8    0.60    0.50
   9  -3  -8    0.60    1.80
   9  -3  -8    0.90    2.30
  -9   3   8    1.10    0.60
  -9   3   8   -0.10    0.50
   8  -3  -8   33.00    4.50
   8  -3  -8   29.10    5.90
   8  -3  -8   29.10    2.40
   8  -3  -8   31.40    5.50
  -8   3   8   31.90    2.60
  -8   3   8   32.80    2.60
   7  -3  -8    2.10    2.40
   7  -3  -8    1.00    1.50
   7  -3  -8    2.40    0.90
  -7   3   8    2.30    0.90
  -7   3   8    2.60    0.90
   6  -3  -8  525.45   33.70
   6  -3  -8  516.25   30.90
   6  -3  -8  477.35   28.20
  -6   3   8  517.95   28.30
  -6   3   8  530.75   28.50
   5  -3  -8  466.55   33.70
   5  -3  -8  527.55   31.80
  -5   3   8  457.65   28.80
   4  -3  -8  428.86   26.10
   4  -3  -8  362.56   27.90
  -4   3   8  371.86   23.50
  -4   3   8  395.56   23.00
   3  -3  -8 1071.29   69.19
   3  -3  -8 1191.48   66.19
   3  -3  -8 1155.98   64.19
  -3   3   8 1225.08   63.79
  -3   3   8 1112.39   64.09
   2  -3  -8  208.58   15.60
   2  -3  -8  216.68   14.40
   2  -3  -8  225.58   18.50
  -2   3   8  227.08   13.70
  -2   3   8  206.38   13.90
  -2   3   8  207.88   13.30
   1  -3  -8  336.87   22.00
   1  -3  -8  362.56   26.20
  -1   3   8  343.37   21.60
  -1   3   8  367.76   21.40
  -1   3   8  354.46   21.00
   0  -3  -8  550.24   37.30
   0  -3  -8  566.44   33.60
   0  -3  -8  544.75   32.20
   0   3   8  548.45   32.70
   0   3   8  583.14   32.50
  -1  -3  -8  353.46   22.40
  -1  -3  -8  382.16   24.00
   1   3   8  384.36   22.90
   1   3   8  374.36   23.20
   2   3   8  156.38    9.70
   2   3   8  158.78    9.50
   2   3   8  167.78    9.90
   2   3   8  167.58    9.70
   2   3   8  159.48    9.60
   2   3   8  169.38    9.80
   3   3   8  288.47   16.30
   3   3   8  283.27   16.40
   3   3   8  287.07   16.50
   3   3   8  287.17   17.50
   3   3   8  295.77   16.30
   3   3   8  288.17   16.20
   4   3   8   80.19    5.10
   4   3   8   79.19    5.20
   4   3   8   78.19    5.20
   4   3   8   81.69    5.00
   4   3   8   79.89    5.00
   5   3   8    0.70    0.50
   5   3   8    0.10    0.60
   5   3   8    1.30    0.50
   5   3   8    0.80    0.50
   9  -4  -8   16.20    3.60
   9  -4  -8   14.30    3.80
  -9   4   8   14.30    1.40
  -9   4   8   12.00    1.40
   8  -4  -8  218.28   14.20
   8  -4  -8  224.68   15.60
   8  -4  -8  206.38   16.80
  -8   4   8  209.98   12.10
  -8   4   8  198.88   12.30
   7  -4  -8  348.87   22.50
   7  -4  -8  360.86   25.40
  -7   4   8  358.26   20.40
  -7   4   8  372.76   20.10
   6  -4  -8   86.09    9.50
   6  -4  -8   79.49    7.50
  -6   4   8   91.09    5.50
  -6   4   8   89.79    5.80
   5  -4  -8  127.79   10.70
   5  -4  -8  132.79   12.00
   5  -4  -8  126.19    9.90
  -5   4   8  122.99    8.80
  -5   4   8  138.59    9.60
  -5   4   8  126.99    8.00
  -5   4   8  135.39    7.80
   4  -4  -8  674.43   46.70
   4  -4  -8  774.42   44.30
  -4   4   8  679.33   41.30
  -4   4   8  743.53   41.10
   3  -4  -8 2113.29  115.09
   3  -4  -8 2055.69  121.09
   3  -4  -8 2145.59  117.19
  -3   4   8 2142.69  114.69
  -3   4   8 2022.30  114.79
   2  -4  -8   92.79    8.30
   2  -4  -8  102.29   12.00
  -2   4   8  109.09    8.00
  -2   4   8  102.69    7.60
  -2   4   8   89.29    7.80
   1  -4  -8 1114.99   65.29
   1  -4  -8 1200.88   71.09
  -1   4   8 1143.99   64.59
  -1   4   8 1145.69   64.19
  -1   4   8 1154.68   64.49
   0  -4  -8  238.08   20.20
   0  -4  -8  203.78   15.50
   0   4   8  230.28   15.00
   0   4   8  207.08   14.50
   1   4   8  611.04   33.70
   1   4   8  594.74   33.40
   1   4   8  622.74   33.70
   1   4   8  639.04   33.80
   1   4   8  618.34   33.70
   1   4   8  584.84   33.80
   2   4   8    6.80    1.40
   2   4   8    8.90    1.30
   2   4   8    6.80    1.30
   2   4   8    6.20    1.30
   2   4   8    7.30    1.40
   2   4   8    7.00    1.30
   3   4   8   10.60    1.60
   3   4   8   12.20    1.60
   3   4   8   10.90    1.40
   3   4   8   15.50    1.80
   3   4   8   11.10    1.50
   4   4   8 1258.37   68.19
   4   4   8 1282.07   68.29
   4   4   8 1283.17   68.29
   4   4   8 1237.18   68.39
   9  -5  -8    6.20    2.50
   9  -5  -8    6.70    2.30
  -9   5   8    4.50    0.80
  -9   5   8    4.60    0.90
   8  -5  -8   80.59    8.60
   8  -5  -8   72.89    6.50
  -8   5   8   71.09    4.80
  -8   5   8   80.89    5.20
   7  -5  -8   48.50    5.20
   7  -5  -8   45.40    6.70
  -7   5   8   46.20    3.70
  -7   5   8   49.99    3.40
   6  -5  -8  144.79   13.10
   6  -5  -8  141.69   10.90
  -6   5   8  139.69    9.00
  -6   5   8  154.58    8.60
  -6   5   8  136.19    8.70
   5  -5  -8  124.09   10.10
   5  -5  -8  142.29   12.70
  -5   5   8  138.69    8.00
  -5   5   8  144.19    8.50
  -5   5   8  122.79    8.20
   4  -5  -8  822.02   47.70
   4  -5  -8  936.71   59.09
  -4   5   8  820.12   45.50
  -4   5   8  804.12   45.50
  -4   5   8  834.42   46.00
   3  -5  -8  401.86   24.20
   3  -5  -8  374.46   29.50
   3  -5  -8  376.56   25.70
  -3   5   8  360.96   23.40
  -3   5   8  393.36   23.00
  -3   5   8  365.86   23.30
   2  -5  -8  833.52   54.19
   2  -5  -8  810.22   47.90
  -2   5   8  838.22   47.30
  -2   5   8  816.72   47.10
  -2   5   8  806.32   46.80
  -1   5   8  849.32   47.10
  -1   5   8  816.52   47.10
  -1   5   8  722.03   54.99
  -1   5   8  833.92   47.10
  -1   5   8  869.61   47.20
  -1   5   8 1023.60   50.09
  -1   5   8  973.60   52.89
   0   5   8   -0.30    1.60
   0   5   8   -0.40    0.60
   0   5   8    0.10    0.70
   0   5   8    2.70    0.90
   0   5   8    1.40    0.90
   0   5   8    1.60    0.90
   0   5   8    2.40    4.10
   1   5   8  297.37   20.70
   1   5   8  254.67   15.60
   1   5   8  275.17   15.50
   1   5   8  258.27   15.40
   1   5   8  264.07   15.50
   1   5   8  262.77   15.40
   2   5   8  144.99    8.40
   2   5   8  133.39    8.30
   2   5   8  131.79    8.30
   2   5   8  134.69    8.60
   2   5   8  139.99    8.40
   3   5   8    2.60    0.80
   3   5   8    3.20    0.80
   3   5   8    3.20    0.90
   9  -6  -8    0.50    1.50
  -9   6   8    0.30    0.60
  -9   6   8    1.10    0.50
   8  -6  -8  235.78   17.20
   8  -6  -8  209.68   14.60
  -8   6   8  252.37   13.40
  -8   6   8  227.08   13.00
   7  -6  -8    8.10    3.30
   7  -6  -8    7.50    2.30
  -7   6   8    8.60    1.60
  -7   6   8    7.50    1.20
  -7   6   8    8.20    1.40
   6  -6  -8   57.09    7.60
   6  -6  -8   50.19    5.80
  -6   6   8   55.29    4.10
  -6   6   8   58.19    3.90
  -6   6   8   57.59    4.20
   5  -6  -8   26.70    5.90
   5  -6  -8   27.20    4.40
  -5   6   8   32.30    3.10
  -5   6   8   25.80    2.80
  -4   6   8   19.10    2.30
  -4   6   8   19.10    4.90
  -4   6   8   15.70    1.90
  -4   6   8    7.30    4.90
  -4   6   8   18.80    2.30
  -3   6   8   92.49    6.10
  -3   6   8   87.39    5.90
  -3   6   8  100.59    6.00
  -3   6   8   70.79    9.20
  -3   6   8   97.29    6.10
  -3   6   8   86.79    5.90
  -1   6   8  210.58   12.50
  -1   6   8  209.38   17.40
  -1   6   8  207.88   12.40
  -1   6   8  210.58   12.80
  -1   6   8  210.98   12.50
  -1   6   8  218.88   12.60
   0   6   8  798.62   45.30
   0   6   8  864.91   45.30
   0   6   8  826.62   45.70
   0   6   8  848.52   51.29
   0   6   8  803.12   45.40
   0   6   8  820.22   45.40
   1   6   8    9.90    1.60
   1   6   8   10.80    1.60
   1   6   8    8.70    1.70
   1   6   8    9.00    1.50
   1   6   8    8.50    3.60
   1   6   8   11.00    1.60
   2   6   8   26.00    2.60
   2   6   8   23.70    2.30
   2   6   8   22.50    2.20
   2   6   8   21.90    2.20
   3   6   8  331.27   18.20
   9  -7  -8    0.00    1.10
  -9   7   8   -1.00    0.50
   8  -7  -8   13.20    3.50
   8  -7  -8   12.50    2.30
  -8   7   8   12.10    1.50
  -8   7   8   16.60    1.80
   7  -7  -8   72.79    8.50
   7  -7  -8   86.99    7.10
  -7   7   8   81.19    5.40
  -7   7   8   78.09    5.40
   6  -7  -8   27.40    5.70
   6  -7  -8   25.20    4.40
   6  -7  -8   29.50    4.40
  -6   7   8   25.20    2.70
  -6   7   8   26.20    2.80
   5  -7  -8   71.59    8.60
   5  -7  -8   65.69    6.70
  -5   7   8   66.89    4.70
  -5   7   8   67.69    5.00
  -5   7   8   67.49    4.90
  -4   7   8   98.59    6.90
  -4   7   8  102.19    7.00
  -4   7   8  102.49    7.00
  -4   7   8  123.99    7.80
  -4   7   8  101.89   11.00
  -3   7   8   53.19    3.80
  -3   7   8   48.30    3.80
  -3   7   8   51.39    3.90
  -3   7   8   42.10    3.80
  -3   7   8   49.90    4.00
  -3   7   8   36.00    7.50
  -2   7   8  127.19    7.90
  -2   7   8  122.99    7.80
  -2   7   8  154.18   17.80
  -2   7   8   89.89   11.30
  -2   7   8  121.99    8.10
  -2   7   8  130.79    7.80
  -2   7   8  127.09    7.90
  -1   7   8    2.50    2.70
  -1   7   8   -0.50    0.70
  -1   7   8    1.20    0.90
  -1   7   8    1.80    1.00
  -1   7   8    2.30    1.00
  -1   7   8   -1.50    5.50
  -1   7   8    0.30    0.90
   0   7   8  176.98   10.50
   0   7   8  161.88   10.80
   0   7   8  166.08   10.50
   0   7   8  202.28   10.90
   0   7   8  178.98   15.70
   1   7   8   24.10    2.50
   1   7   8   26.40    2.80
   1   7   8   24.00    2.40
   1   7   8   29.10    2.50
   1   7   8   28.30    6.00
   2   7   8  128.79    7.40
   2   7   8  123.29    7.40
   2   7   8  128.79    7.70
   8  -8  -8    5.30    2.10
   8  -8  -8    5.30    1.50
  -8   8   8    6.10    1.00
  -8   8   8    5.60    1.00
   7  -8  -8   15.30    3.80
   7  -8  -8   15.60    2.80
  -7   8   8   15.00    1.90
  -7   8   8   18.00    2.00
   6  -8  -8  209.98   13.90
   6  -8  -8  207.38   16.00
   6  -8  -8  184.48   13.90
  -6   8   8  198.18   11.90
  -6   8   8  203.18   11.90
   5  -8  -8   14.20    4.10
   5  -8  -8   11.20    2.90
  -5   8   8   15.00    1.90
  -5   8   8   14.30    2.00
  -5   8   8   14.60    1.90
  -4   8   8  311.97   18.20
  -4   8   8  315.57   18.30
  -4   8   8  323.77   23.50
  -4   8   8  319.87   18.10
  -3   8   8    5.80    1.30
  -3   8   8    5.10    1.30
  -3   8   8    5.70    1.20
  -3   8   8    2.60    3.00
  -3   8   8   -4.10    3.80
  -3   8   8    5.10    1.30
  -3   8   8    2.90    1.10
  -3   8   8   -0.20    3.80
  -2   8   8   57.49    4.80
  -2   8   8   63.99   10.00
  -2   8   8   71.39    4.80
  -2   8   8   63.89    4.70
  -2   8   8   67.69    4.70
  -1   8   8  180.38   10.90
  -1   8   8  188.98   11.10
  -1   8   8  193.98   10.90
  -1   8   8  172.38   15.90
  -1   8   8  177.08   11.20
   0   8   8   62.19    3.80
   0   8   8   52.19    3.90
   0   8   8   61.79    3.90
   0   8   8   54.79    7.70
   0   8   8   55.59    4.20
   0   8   8   27.20    8.90
   1   8   8   30.80    2.40
   1   8   8   31.30    5.20
   1   8   8   31.40    2.20
   1   8   8   29.60    2.50
  -8   9   8   14.90    1.40
   7  -9  -8   15.90    2.50
   7  -9  -8   15.30    3.30
  -7   9   8   17.20    1.80
  -7   9   8   17.10    1.70
   6  -9  -8   21.10    4.20
   6  -9  -8   20.10    3.30
  -6   9   8   25.60    2.50
  -6   9   8   25.90    2.30
  -6   9   8   25.10    2.20
   5  -9  -8  275.47   19.50
   5  -9  -8  284.17   17.90
  -5   9   8  268.97   15.90
  -5   9   8  292.87   15.80
  -5   9   8  268.97   16.00
   4  -9  -8   82.99    6.80
  -4   9   8   55.69    7.60
  -4   9   8   75.79    5.00
  -4   9   8   79.59    5.10
  -4   9   8   72.09    4.90
  -3   9   8   18.60    5.00
  -3   9   8    4.30    4.50
  -2   9   8  182.58   10.40
  -2   9   8  195.78   10.30
  -2   9   8  186.88   10.60
  -2   9   8  170.78   10.30
  -2   9   8  131.09   14.00
  -1   9   8   40.00    2.90
  -1   9   8   31.80    6.30
  -1   9   8   33.90    2.70
  -1   9   8   39.60    2.70
  -1   9   8   36.20    3.00
   0   9   8   17.60    1.50
   0   9   8   18.60    1.70
   0   9   8    5.40    4.00
   0   9   8   19.80    4.00
   0   9   8   17.90    1.80
   6 -10  -8    2.90    1.50
   6 -10  -8    4.10    1.30
  -6  10   8    3.50    0.70
  -6  10   8    3.80    0.80
   5 -10  -8   39.00    3.70
  -5  10   8   36.90    2.70
  -5  10   8   33.60    2.70
   4 -10  -8   30.40    3.30
  -4  10   8   26.00    2.30
  -4  10   8   27.70    2.20
  -4  10   8   25.30    2.10
  -4  10   8   21.60    4.30
   3 -10  -8    3.60    1.40
  -3  10   8    3.80    0.90
  -3  10   8    4.70    1.00
  -3  10   8    4.70    1.00
  -3  10   8    2.90    2.20
  -3  10   8    3.80    0.90
  -3  10   8    1.80    3.10
   2 -10  -8    3.30    1.20
  -2  10   8    2.90    2.20
  -2  10   8    2.90    0.80
  -2  10   8    2.80    0.70
  -2  10   8    3.40    0.90
  -2  10   8    0.20    2.90
  -1  11  -9   28.60    4.00
  -1  11  -9   28.30    2.70
   1 -11   9   32.90    2.90
   1 -11   9   27.30    4.30
  -2  11  -9    0.30    0.80
  -2  11  -9    2.90    0.70
   2 -11   9    0.30    1.10
   2 -11   9    0.20    0.90
  -3  11  -9   80.99    4.90
  -3  11  -9   76.89    5.10
   3 -11   9   79.39    5.60
   3 -11   9   72.99    6.40
  -4  11  -9   32.20    2.40
  -4  11  -9   28.50    3.40
   4 -11   9   33.20    3.00
   1  10  -9    2.90    1.70
   1  10  -9    2.00    6.70
   1  10  -9  -12.50    5.50
   1  10  -9    2.30    0.90
   1  10  -9    3.60    2.40
   1  10  -9    1.90    1.70
  -1 -10   9    2.80    1.20
   0  10  -9    5.10    8.10
   0  10  -9    5.00    2.20
   0  10  -9    7.70    1.50
   0  10  -9    9.00    3.50
   0 -10   9    7.70    1.80
  -1  10  -9   98.39    7.00
  -1  10  -9  105.09   11.10
   1 -10   9  107.09    7.60
  -2  10  -9   37.80    3.00
  -2  10  -9   38.10    3.60
  -2  10  -9   35.30    6.30
   2 -10   9   40.70    6.70
   2 -10   9   38.30    4.10
  -3  10  -9    0.60    0.70
  -3  10  -9    0.00    0.90
   3 -10   9   -1.40    1.30
   3 -10   9    0.20    1.10
  -4  10  -9  145.99    9.50
  -4  10  -9  157.18    9.70
   4 -10   9  158.18   11.90
   4 -10   9  182.18   10.90
  -5  10  -9    6.30    0.90
  -5  10  -9    6.10    1.10
   5 -10   9    5.60    1.50
  -6  10  -9    1.30    0.50
  -6  10  -9    1.10    0.60
   6 -10   9    1.80    0.90
   3   9  -9    4.60    1.90
   3   9  -9    4.30    2.00
   3   9  -9    4.60    3.10
   3   9  -9    5.40    2.20
   3   9  -9    4.50    1.70
   3   9  -9    4.30    1.50
   2   9  -9   23.30    5.00
   2   9  -9   25.00    5.40
   2   9  -9   19.70    3.30
   2   9  -9   29.80    5.80
   2   9  -9   23.10    5.30
  -2  -9   9   25.40    1.90
   1   9  -9    0.00    1.80
   1   9  -9    2.60    4.30
   1   9  -9    3.00    2.80
   1   9  -9   -0.30    1.40
   1   9  -9    1.00    2.20
   1   9  -9    0.90    1.00
   1   9  -9   -0.60    1.90
  -1  -9   9    1.40    0.70
   0   9  -9   49.50   10.80
   0   9  -9   68.49    9.70
   0   9  -9   65.79    5.00
   0   9  -9   69.19    9.10
   0  -9   9   66.89    4.30
  -1   9  -9    0.20    1.20
  -1   9  -9    0.20    2.60
  -1   9  -9    0.80    0.80
   1  -9   9    1.70    1.50
   1  -9   9    1.40    0.80
  -2   9  -9    8.80    1.60
  -2   9  -9   11.30    2.10
  -2   9  -9   10.00    4.10
   2  -9   9   10.60    1.50
   2  -9   9   10.60    2.50
  -3   9  -9   18.60    2.30
  -3   9  -9   22.80    2.80
   3  -9   9   20.90    3.50
   3  -9   9   20.40    2.10
   3  -9   9   21.60    4.70
  -4   9  -9   25.00    2.30
  -4   9  -9   30.10    3.00
  -4   9  -9   29.60    2.80
   4  -9   9   24.50    4.80
   4  -9   9   25.10    3.70
   4  -9   9   26.50    2.40
  -5   9  -9   30.80    2.40
  -5   9  -9   32.00    2.80
   5  -9   9   29.80    2.40
   5  -9   9   31.80    3.90
  -6   9  -9   41.00    2.90
  -6   9  -9   40.40    3.00
   6  -9   9   42.10    3.90
   6  -9   9   43.60    2.80
   4   8  -9   24.10    5.20
   4   8  -9   21.90    2.80
   4   8  -9   18.30    4.00
   4   8  -9   24.30    3.70
   4   8  -9   18.50    3.10
   3   8  -9    1.20    1.70
   3   8  -9    0.30    2.30
   3   8  -9    0.20    1.30
   3   8  -9   -0.20    2.40
   3   8  -9    0.60    1.80
   3   8  -9   -0.60    1.70
   3   8  -9   -0.50    0.60
   2   8  -9   43.00    8.00
   2   8  -9   33.60    8.70
   2   8  -9   47.40    6.70
   2   8  -9   41.90    5.20
   2   8  -9   34.40    8.30
   2   8  -9   46.40    6.30
   1   8  -9    1.70    2.00
   1   8  -9    1.10    1.10
   1   8  -9    1.80    3.00
   1   8  -9    1.20    2.90
   1   8  -9    1.40    2.40
   1   8  -9    1.80    1.90
   1   8  -9    1.10    3.20
   0   8  -9    9.60    4.70
   0   8  -9    4.40    1.50
   0   8  -9    5.60    2.70
   0   8  -9    6.20    3.90
   0   8  -9    6.50    4.50
   0  -8   9    5.40    1.10
  -1   8  -9   42.90    8.40
  -1   8  -9   58.99   12.10
  -1   8  -9   51.59    3.90
  -1   8  -9   58.49    4.60
   1  -8   9   47.40    3.70
  -2   8  -9   13.80    2.30
  -2   8  -9   19.00    5.10
  -2   8  -9   15.30    2.00
  -2   8  -9   17.40    5.20
   2  -8   9   13.60    2.90
   2  -8   9   11.20    1.60
  -3   8  -9  324.97   19.10
  -3   8  -9  339.27   18.80
   3  -8   9  319.17   20.60
   3  -8   9  324.67   18.50
  -4   8  -9   17.60    2.40
  -4   8  -9   20.70    2.30
  -4   8  -9   18.50    2.00
   4  -8   9   16.60    3.20
   4  -8   9   21.00    2.20
  -5   8  -9   29.00    2.70
  -5   8  -9   31.00    2.60
   5  -8   9   26.90    2.60
   5  -8   9   28.00    4.00
  -6   8  -9   10.50    1.40
  -6   8  -9   11.90    1.40
   6  -8   9   10.50    2.20
   6  -8   9   10.70    1.30
  -7   8  -9   64.09    4.00
   7  -8   9   55.09    4.60
   7  -8   9   70.79    3.90
   5   7  -9    6.60    3.50
   5   7  -9    9.60    2.40
   5   7  -9   10.90    2.70
   5   7  -9    9.90    1.90
   5   7  -9   12.10    1.10
   5   7  -9   10.90    2.80
   4   7  -9   42.80    8.10
   4   7  -9   59.59    5.10
   4   7  -9   47.30    3.30
   4   7  -9   50.69    6.10
   4   7  -9   54.19    6.70
   4   7  -9   37.70    9.70
   4   7  -9   56.89    7.10
   3   7  -9  617.94   32.90
   3   7  -9  503.75   37.10
   3   7  -9  619.04   46.00
   3   7  -9  623.64   40.20
   3   7  -9  667.03   35.40
   3   7  -9  615.24   38.50
   3   7  -9  539.25   41.80
   2   7  -9  115.19    7.30
   2   7  -9  121.29   12.00
   2   7  -9  127.89    9.60
   2   7  -9  120.49   13.20
   2   7  -9  127.09   17.00
   2   7  -9  108.39   11.20
   2   7  -9  107.09   14.60
   1   7  -9  786.92   56.09
   1   7  -9  828.22   46.80
   1   7  -9  771.32   48.60
   1   7  -9  976.60   59.29
   1   7  -9  835.32   51.99
   1   7  -9  839.82   53.59
   1   7  -9  936.81   51.19
   1   7  -9  827.02   46.20
   0   7  -9   60.69    8.70
   0   7  -9   70.59   12.30
   0   7  -9   70.49    6.80
   0   7  -9   66.09    5.10
   0  -7   9   60.59    4.40
  -1   7  -9    1.30    0.90
  -1   7  -9    1.50    2.40
  -1   7  -9    1.50    2.40
  -1   7  -9    1.50    1.10
   1  -7   9    1.50    0.80
  -2   7  -9   80.49    5.20
  -2   7  -9   77.89    5.60
   2  -7   9   65.09    6.40
   2  -7   9   74.49    5.00
  -3   7  -9    7.90    1.30
  -3   7  -9   11.20    1.70
  -3   7  -9    8.90    1.70
   3  -7   9    8.00    2.50
   3  -7   9    8.40    1.50
  -4   7  -9  229.88   12.70
  -4   7  -9  217.48   12.40
  -4   7  -9  218.48   12.90
   4  -7   9  206.38   12.60
   4  -7   9  202.58   14.40
  -5   7  -9   23.60    2.30
  -5   7  -9   27.90    2.60
   5  -7   9   23.60    3.80
   5  -7   9   24.30    2.50
  -6   7  -9   48.20    3.30
  -6   7  -9   37.70    3.00
  -6   7  -9   45.40    3.20
   6  -7   9   45.10    4.50
   6  -7   9   45.80    3.30
  -7   7  -9   14.90    1.40
  -7   7  -9   15.90    1.50
   7  -7   9   13.90    1.50
   7  -7   9   12.50    2.10
   6   6  -9   40.00    2.50
   6   6  -9   38.60    3.30
   6   6  -9   37.10    7.00
   6   6  -9   37.00    3.90
   6   6  -9   39.70    4.40
   5   6  -9   40.50   10.60
   5   6  -9   60.99    7.10
   5   6  -9   57.79    3.80
   5   6  -9   65.09    5.60
   5   6  -9   54.59    8.70
   5   6  -9   62.19    7.20
   4   6  -9   25.40    4.50
   4   6  -9   33.10    6.60
   4   6  -9   36.50    7.10
   4   6  -9   45.30    7.40
   4   6  -9   34.60    2.70
   4   6  -9   35.70    8.80
   4   6  -9   30.60   10.80
   4   6  -9   37.60    2.80
   3   6  -9   17.60    8.70
   3   6  -9   26.90    7.80
   3   6  -9   17.10    3.70
   3   6  -9   24.20    5.90
   3   6  -9   20.90    2.10
   3   6  -9   26.00    6.00
   3   6  -9   18.80    5.50
   2   6  -9  259.17   18.90
   2   6  -9  257.37   20.10
   2   6  -9  254.07   13.90
   2   6  -9  235.48   21.80
   2   6  -9  243.48   16.20
   2   6  -9  246.28   19.10
   2   6  -9  189.18   23.70
   1   6  -9    1.00    1.00
   1   6  -9    0.10    1.30
   1   6  -9    0.00    1.90
   1   6  -9    0.30    0.70
   1   6  -9    1.50    2.90
   1   6  -9   -0.10    2.60
  -1  -6   9    0.20    0.80
   0   6  -9  367.56   25.00
   0   6  -9  376.66   20.50
   0   6  -9  298.87   25.80
   0   6  -9  380.16   22.20
   0  -6   9  344.67   19.90
  -1   6  -9  241.88   17.10
  -1   6  -9  271.87   15.00
  -1   6  -9  247.08   18.50
  -1   6  -9  262.57   14.40
   1  -6   9  231.68   14.30
  -2   6  -9  280.87   15.30
  -2   6  -9  279.27   15.70
   2  -6   9  243.58   15.10
   2  -6   9  246.38   16.80
   2  -6   9  277.57   15.80
  -3   6  -9  139.29    8.60
  -3   6  -9  134.99    8.40
  -3   6  -9  131.49    7.90
   3  -6   9  133.09    8.30
   3  -6   9  126.09    8.20
   3  -6   9  138.29   10.10
  -4   6  -9  192.18   10.70
  -4   6  -9  183.88   10.90
   4  -6   9  176.28   11.00
   4  -6   9  185.68   12.90
   4  -6   9  178.28   10.90
  -5   6  -9   24.40    2.50
  -5   6  -9   23.50    2.30
   5  -6   9   24.30    2.60
   5  -6   9   25.30    2.30
   5  -6   9   24.10    3.80
   5  -6   9   31.10    2.80
  -6   6  -9  112.89    6.90
  -6   6  -9   99.19    6.80
   6  -6   9  108.99    6.70
   6  -6   9  119.99    7.10
   6  -6   9  118.39    6.90
   6  -6   9  115.79    8.50
  -7   6  -9   47.40    3.20
  -7   6  -9   49.70    3.30
   7  -6   9   50.09    3.30
   7  -6   9   56.09    3.40
   7  -6   9   42.90    4.10
   6   5  -9    0.80    1.40
   6   5  -9    4.70    2.50
   6   5  -9    1.10    1.80
   6   5  -9   -0.20    3.40
   6   5  -9    2.20    0.60
   6   5  -9    1.50    0.60
   6   5  -9    0.20    1.80
   5   5  -9   16.00    1.70
   5   5  -9   18.40    1.90
   5   5  -9   13.90    7.60
   5   5  -9   16.20    3.70
   5   5  -9   17.80    4.80
   5   5  -9   20.50    6.40
   5   5  -9   16.60    5.00
   4   5  -9  432.96   31.20
   4   5  -9  420.06   38.90
   4   5  -9  443.46   30.50
   4   5  -9  418.06   32.90
   4   5  -9  418.36   27.90
   4   5  -9  473.15   24.80
   4   5  -9  424.56   31.20
   4   5  -9  503.55   24.80
   3   5  -9  320.77   23.40
   3   5  -9  339.67   17.90
   3   5  -9  308.77   23.10
   3   5  -9  309.67   25.50
   3   5  -9  311.37   31.10
   3   5  -9  290.57   23.60
   3   5  -9  313.17   21.00
   3   5  -9  327.47   18.00
   2   5  -9 1084.09   63.99
   2   5  -9 1062.89   64.89
   2   5  -9 1089.19   58.89
   2   5  -9 1050.09   64.39
   2   5  -9 1039.40   66.19
   2   5  -9 1145.29   59.09
   2   5  -9  982.90   61.39
   2   5  -9 1288.07   75.79
   1   5  -9  108.79    9.50
   1   5  -9   80.19   16.60
  -1  -5   9  120.79   11.60
  -1  -5   9  111.89    8.90
   0   5  -9  132.99   20.00
   0   5  -9  135.29   10.90
   0  -5   9  139.59   13.10
   0  -5   9  144.09   10.70
  -1   5  -9  525.65   32.00
  -1   5  -9  522.85   30.00
   1  -5   9  521.35   31.70
  -2   5  -9   15.80    3.50
  -2   5  -9   12.70    2.50
   2  -5   9   18.90    3.90
  -3   5  -9  751.22   39.50
  -3   5  -9  729.93   39.70
   3  -5   9  714.43   41.30
   3  -5   9  704.13   39.50
   3  -5   9  724.83   39.00
   3  -5   9  686.33   39.40
  -4   5  -9   46.40    3.40
   4  -5   9   45.20    3.10
   4  -5   9   43.70    3.50
   4  -5   9   43.80    3.80
   4  -5   9   43.40    4.80
  -5   5  -9  327.67   19.20
   5  -5   9  359.66   19.50
   5  -5   9  338.17   21.20
   5  -5   9  351.56   19.10
   5  -5   9  344.37   19.50
   5  -5   9  327.77   19.10
  -6   5  -9   64.39    4.30
  -6   5  -9   68.69    4.40
   6  -5   9   65.09    5.80
   6  -5   9   62.79    4.40
   6  -5   9   63.19    4.30
   6  -5   9   65.69    4.50
  -7   5  -9   15.90    1.60
   7  -5   9   14.40    2.40
   7  -5   9   16.30    1.60
   7  -5   9   17.50    1.70
   7  -5   9   18.40    1.80
   7  -5   9   13.10    1.40
  -8   5  -9    0.30    0.50
  -8   5  -9    0.20    0.40
   8  -5   9    0.40    0.40
   7   4  -9   20.90    1.60
   7   4  -9   18.90    2.90
   7   4  -9   20.80    3.80
   7   4  -9   22.20    1.60
   7   4  -9   20.20    6.60
   7   4  -9   20.80    4.10
   6   4  -9    9.60    1.20
   6   4  -9   10.00    3.90
   6   4  -9   11.10    1.40
   6   4  -9    9.30    2.90
   6   4  -9   14.70    4.40
   6   4  -9    4.10    5.40
   6   4  -9   12.40    5.00
   5   4  -9   17.80    8.70
   5   4  -9   33.90    2.60
   5   4  -9   36.40    8.00
   5   4  -9   30.40    7.60
   5   4  -9   34.20    7.10
   5   4  -9   32.00    2.60
   5   4  -9   33.50    5.30
   4   4  -9    0.10    0.60
   4   4  -9    1.30    2.80
   4   4  -9    0.80    1.70
   4   4  -9    1.00    2.20
   4   4  -9    0.50    0.70
   4   4  -9    0.50    2.00
   4   4  -9    0.20    4.50
   3   4  -9   81.79    8.60
   3   4  -9   78.99   16.30
   3   4  -9   82.29    5.40
   3   4  -9   89.29    9.50
   3   4  -9   90.99   10.20
   3   4  -9   90.89    5.60
   3   4  -9   86.69    8.10
   2   4  -9    8.60    4.10
   2   4  -9   10.40    2.70
   2   4  -9   13.70    6.00
  -2  -4   9   10.50    2.70
  -2  -4   9   10.70    2.40
  -2  -4   9   12.40    4.50
   1   4  -9  403.26   26.70
   1   4  -9  439.86   33.00
  -1  -4   9  441.06   28.70
  -1  -4   9  414.16   26.30
  -1  -4   9  494.05   26.30
   0   4  -9  282.57   16.60
   0   4  -9  276.27   22.50
   0   4  -9  242.48   17.80
   0  -4   9  291.07   17.20
   0  -4   9  269.97   17.60
  -1   4  -9  335.67   22.10
  -1   4  -9  342.97   20.50
   1  -4   9  343.07   22.00
   1  -4   9  377.66   21.70
  -2   4  -9 1296.97   76.29
  -2   4  -9 1292.97   74.99
   2  -4   9 1389.66   76.89
   2  -4   9 1485.95   76.29
  -3   4  -9  808.02   47.20
   3  -4   9  832.52   49.10
   3  -4   9  876.11   48.50
  -4   4  -9   29.30    2.70
   4  -4   9   33.30    2.30
   4  -4   9   30.50    2.80
   4  -4   9   31.10    3.00
   4  -4   9   29.30    2.30
   4  -4   9   29.60    2.90
  -5   4  -9  350.96   18.90
   5  -4   9  325.67   18.70
   5  -4   9  337.57   20.70
   5  -4   9  318.77   18.60
   5  -4   9  337.07   18.80
   5  -4   9  336.17   19.10
   5  -4   9  338.57   18.70
   5  -4   9  338.87   19.20
   6  -4   9   92.09    5.70
   6  -4   9   73.39    9.50
   6  -4   9   93.29    5.90
   6  -4   9   96.09    5.70
   6  -4   9   87.39    5.60
   6  -4   9   97.49    6.00
   6  -4   9   81.39    5.50
   6  -4   9   94.69    5.60
  -7   4  -9  131.19    8.00
   7  -4   9  151.38    8.30
   7  -4   9  150.28    8.10
   7  -4   9  130.39    8.00
   7  -4   9  129.89    7.80
   7  -4   9  141.59    8.10
   7  -4   9  139.09    8.10
  -8   4  -9   19.10    1.40
   8  -4   9   16.50    1.30
   8  -4   9   17.80    1.30
   7   3  -9   57.59    6.60
   7   3  -9   26.80    9.00
   7   3  -9   42.60    2.90
   7   3  -9   36.90    6.90
   7   3  -9   42.20    4.70
   7   3  -9   42.90    2.80
  -7  -3   9   35.60    2.70
   6   3  -9   62.49    8.90
   6   3  -9   58.59   14.00
   6   3  -9   55.39    7.40
   6   3  -9   72.99    8.70
   6   3  -9   67.99    4.40
   6   3  -9   63.89    9.50
   6   3  -9   61.59    4.20
   6   3  -9   60.19    4.20
   5   3  -9  373.36   18.90
   5   3  -9  351.86   31.60
   5   3  -9  356.06   27.10
   5   3  -9  333.07   18.90
   5   3  -9  351.46   25.30
   5   3  -9  295.67   22.10
   5   3  -9  331.17   19.00
   5   3  -9  286.97   23.90
   4   3  -9   19.60    2.10
   4   3  -9   16.70    4.40
   4   3  -9   17.80    2.00
   4   3  -9   17.30    7.90
   4   3  -9   22.60    4.90
   4   3  -9   20.60    2.00
   4   3  -9   17.30    4.70
   3   3  -9  221.88   21.20
   3   3  -9  258.37   19.50
  -3  -3   9  244.68   18.30
  -3  -3   9  243.48   15.40
  -3  -3   9  219.08   15.50
   2   3  -9   29.10    5.70
   2   3  -9   27.70    6.80
   2   3  -9   30.20    4.30
  -2  -3   9   25.60    3.60
  -2  -3   9   24.20    5.30
  -2  -3   9   26.20    3.80
   1   3  -9  795.32   48.80
   1   3  -9  919.51   53.99
  -1  -3   9  819.52   48.40
  -1  -3   9  901.91   48.50
   0   3  -9  535.55   34.80
   0   3  -9  600.04   38.00
   0   3  -9  595.64   33.00
   0  -3   9  578.24   34.30
   0  -3   9  636.84   34.30
  -1   3  -9   -0.60    1.10
  -1   3  -9    3.00    1.20
   1  -3   9   -0.10    1.30
   1  -3   9    1.60    1.50
  -2   3  -9  803.92   45.90
  -2   3  -9  828.82   47.00
  -2   3  -9  807.52   46.00
   2  -3   9  886.71   47.40
   2  -3   9  782.22   47.30
  -3   3  -9  198.28   12.30
  -3   3  -9  173.58   11.90
   3  -3   9  168.68   13.20
   3  -3   9  203.18   13.70
   4  -3   9  261.37   14.40
   4  -3   9  267.67   14.50
   4  -3   9  263.67   15.00
   4  -3   9  236.58   14.40
   4  -3   9  256.37   14.40
   4  -3   9  259.27   14.50
   4  -3   9  258.07   14.90
   5  -3   9   47.70    3.80
   5  -3   9   48.20    3.30
   5  -3   9   48.50    3.40
   5  -3   9   50.39    3.60
   5  -3   9   48.30    3.30
   5  -3   9   46.90    3.70
   5  -3   9   47.00    3.40
   6  -3   9    8.00    1.20
   6  -3   9    8.70    1.30
   6  -3   9    7.70    1.10
   6  -3   9    8.80    1.40
   6  -3   9    9.70    1.20
   6  -3   9    8.70    1.40
   6  -3   9    8.00    1.20
  -7   3  -9    5.40    0.90
   7  -3   9    6.20    1.00
   7  -3   9    5.70    1.00
   7  -3   9    6.00    0.80
   7  -3   9    8.10    1.10
   7  -3   9    6.20    1.00
   7  -3   9    5.40    0.90
   8   2  -9   41.00    2.60
   8   2  -9   38.90    5.40
   8   2  -9   32.50    8.10
   8   2  -9   36.60    2.40
   8   2  -9   33.30    3.70
   8   2  -9   41.90    4.70
  -8  -2   9   37.70    2.50
   7   2  -9    0.20    3.70
   7   2  -9    2.10    2.30
   7   2  -9    1.70    0.70
   7   2  -9    1.40    0.70
   7   2  -9    1.70    0.70
   7   2  -9    1.60    2.70
   7   2  -9    0.80    1.90
   6   2  -9   67.89   11.50
   6   2  -9   55.49    7.20
   6   2  -9   60.19    7.80
   6   2  -9   54.89    7.90
   6   2  -9   44.90    3.50
   6   2  -9   39.10   10.90
   6   2  -9   42.50    3.50
   6   2  -9   53.69    3.70
   5   2  -9    0.30    1.80
   5   2  -9    0.00    0.60
   5   2  -9   -0.50    1.60
   5   2  -9    0.80    0.70
   5   2  -9    0.60    0.60
   5   2  -9   -0.70    2.50
   5   2  -9    0.50    2.00
   4   2  -9    8.40    1.30
   4   2  -9    7.40    2.60
   4   2  -9   10.30    4.40
   4   2  -9    6.60    1.10
   4   2  -9    8.60    3.10
  -4  -2   9    7.80    2.30
   3   2  -9  387.76   25.30
   3   2  -9  341.97   27.00
  -3  -2   9  351.46   21.60
  -3  -2   9  342.47   21.50
   2   2  -9  324.67   22.10
   2   2  -9  332.27   24.40
   2   2  -9  317.57   20.20
  -2  -2   9  317.97   19.80
  -2  -2   9  333.37   20.00
   1   2  -9   25.50    5.60
   1   2  -9   27.10    3.90
  -1  -2   9   31.60    3.90
  -1  -2   9   28.10    3.70
   0   2  -9  192.28   11.70
   0   2  -9  196.38   15.50
   0   2  -9  196.88   13.10
   0  -2   9  186.28   12.60
   0  -2   9  194.48   12.70
   0  -2   9  179.28   11.80
  -1   2  -9 1631.94   90.19
  -1   2  -9 1674.43   90.69
  -1   2  -9 1681.93   90.89
  -1   2  -9 1651.43   90.89
  -1   2  -9 1691.83   92.19
   1  -2   9 1652.23   92.09
   1  -2   9 1614.14   91.09
   1  -2   9 1754.32   92.29
  -2   2  -9  947.71   52.69
  -2   2  -9  959.10   54.49
  -2   2  -9  958.90   53.59
  -2   2  -9  957.80   53.49
  -2   2  -9  923.71   53.19
   2  -2   9  988.40   53.79
   2  -2   9  975.70   54.79
   2  -2   9  979.30   54.89
  -3   2  -9   11.30    2.40
  -3   2  -9   10.00    2.00
  -3   2  -9   10.10    2.20
  -3   2  -9    9.80    2.50
   3  -2   9   13.30    3.40
   3  -2   9   10.50    2.50
   3  -2   9   13.00    3.20
   4  -2   9  491.25   26.90
   4  -2   9  475.05   26.70
   4  -2   9  477.85   26.80
   4  -2   9  480.45   27.30
   4  -2   9  497.65   26.70
   4  -2   9  512.85   26.80
   4  -2   9  470.25   27.00
   4  -2   9  486.35   27.10
   5  -2   9   27.60    2.60
   5  -2   9   22.70    2.10
   5  -2   9   23.50    2.60
   5  -2   9   20.30    2.10
   5  -2   9   23.10    2.00
   5  -2   9   22.90    2.10
   5  -2   9   25.90    2.50
   5  -2   9   25.30    2.30
   6  -2   9  152.28    8.70
   6  -2   9  147.89    8.60
   6  -2   9  137.29    8.80
   6  -2   9  146.19    8.40
   6  -2   9  133.29    8.50
   6  -2   9  156.88    8.60
   6  -2   9  139.19    8.40
   7  -2   9   19.90    1.90
   7  -2   9   19.30    1.70
   7  -2   9   24.10    1.80
   7  -2   9   18.70    1.60
   7  -2   9   21.20    1.90
   7  -2   9   22.20    1.80
   8   1  -9   48.90    3.10
   8   1  -9   37.30    4.80
   8   1  -9   47.40    5.80
   8   1  -9   41.30    2.90
   8   1  -9   62.49   11.30
   8   1  -9   52.39    7.00
   7   1  -9    9.70    1.40
   7   1  -9   12.90    1.50
   7   1  -9   10.90    4.90
   7   1  -9   16.10    6.60
   7   1  -9   10.20    3.70
   7   1  -9    8.50    1.40
   7   1  -9   11.90    3.40
  -7  -1   9   10.90    1.20
   6   1  -9   71.69    4.90
   6   1  -9   72.39    5.00
   6   1  -9   88.79    8.40
   6   1  -9   78.59    7.80
   6   1  -9   79.09    8.70
   6   1  -9   80.09   11.20
   6   1  -9  108.19   11.30
   6   1  -9   71.19    5.00
  -6  -1   9   67.29    4.70
   5   1  -9  289.67   17.40
   5   1  -9  333.47   20.90
   5   1  -9  316.67   21.60
   5   1  -9  282.17   23.80
   5   1  -9  311.67   17.40
   5   1  -9  330.77   17.50
  -5  -1   9  306.37   17.20
   4   1  -9   79.39   11.60
   4   1  -9   82.89   10.10
  -4  -1   9   86.69    7.10
  -4  -1   9   81.99    7.10
   3   1  -9    2.10    2.50
   3   1  -9    4.40    1.90
   3   1  -9    3.10    2.20
  -3  -1   9    3.50    1.80
  -3  -1   9    2.30    1.50
  -3  -1   9    2.70    1.30
   2   1  -9  563.04   33.40
   2   1  -9  532.25   32.00
   2   1  -9  549.45   36.20
  -2  -1   9  580.94   31.30
  -2  -1   9  540.15   31.60
  -2  -1   9  535.95   32.20
   1   1  -9  206.68   16.00
   1   1  -9  163.18   12.20
   1   1  -9  185.68   11.10
  -1  -1   9  204.68   12.20
  -1  -1   9  172.78   11.60
  -1  -1   9  168.88   12.20
   0   1  -9   22.10    4.90
   0   1  -9   25.00    3.00
   0  -1   9   28.60    3.80
   0  -1   9   22.40    3.20
   0  -1   9   25.60    3.90
  -1   1  -9  590.64   32.40
  -1   1  -9  546.95   33.00
  -1   1  -9  589.94   31.50
  -1   1  -9  568.84   32.00
  -1   1  -9  510.45   31.90
   1  -1   9  560.64   33.30
   1  -1   9  567.74   32.80
   1  -1   9  569.34   32.50
  -2   1  -9  787.12   45.10
  -2   1  -9  752.52   44.60
  -2   1  -9  809.92   45.70
  -2   1  -9  800.42   44.80
  -2   1  -9  813.82   44.10
   2  -1   9  828.32   46.40
   2  -1   9  753.92   45.60
   2  -1   9  825.32   45.30
  -3   1  -9  101.49    7.50
  -3   1  -9  103.79    8.60
  -3   1  -9  110.59    8.20
  -3   1  -9  110.99    8.30
   3  -1   9  104.19    9.20
   3  -1   9  119.49    9.40
   3  -1   9  115.19    8.70
   4  -1   9  144.19    8.50
   4  -1   9  147.59    9.00
   4  -1   9  147.49    8.70
   4  -1   9  138.69    8.70
   4  -1   9  139.09    8.50
   4  -1   9  148.49    8.90
   4  -1   9  143.69    8.60
   4  -1   9  143.49    8.40
   5  -1   9  308.27   16.80
   5  -1   9  292.97   16.40
   5  -1   9  297.87   16.90
   5  -1   9  283.57   16.60
   5  -1   9  293.27   16.30
   5  -1   9  294.67   16.60
   5  -1   9  277.97   16.40
   5  -1   9  299.77   16.70
   6  -1   9  152.18    9.40
   6  -1   9  154.58    9.60
   6  -1   9  146.99    9.30
   6  -1   9  167.58    9.30
   6  -1   9  173.18    9.30
   6  -1   9  162.18    9.50
   6  -1   9  179.18    9.60
   7  -1   9   44.00    2.80
   7  -1   9   41.10    2.70
   7  -1   9   38.50    2.80
   7  -1   9   39.20    2.80
   7  -1   9   42.20    2.80
   9   0  -9   50.19    7.50
  -9   0   9   43.40    2.90
   8   0  -9    1.30    0.60
   8   0  -9    1.80    2.70
   8   0  -9    0.60    3.10
   8   0  -9    2.30    1.90
   8   0  -9    0.80    0.50
  -8   0   9    0.80    0.50
   7   0  -9   12.20    5.00
   7   0  -9    6.80    4.00
   7   0  -9    7.20    2.80
   7   0  -9    7.80    1.30
   7   0  -9    9.00    1.40
   7   0  -9    7.70    1.70
  -7   0   9    7.60    1.10
   6   0  -9   -1.00    2.10
   6   0  -9    0.80    1.80
   6   0  -9    0.70    1.60
   6   0  -9    0.40    0.60
   6   0  -9    0.50    0.60
  -6   0   9    0.50    0.60
   5   0  -9   18.80    4.10
   5   0  -9   23.00    2.20
   5   0  -9   20.10    5.20
   5   0  -9   21.70    3.90
   5   0  -9   19.90    2.10
  -5   0   9   21.10    1.90
   4   0  -9  127.99   11.10
   4   0  -9  110.89   12.40
  -4   0   9  114.39    8.80
  -4   0   9  116.39    8.30
   3   0  -9  226.78   14.80
   3   0  -9  238.28   16.40
   3   0  -9  219.48   19.00
  -3   0   9  222.78   14.90
  -3   0   9  247.28   14.50
   2   0  -9   79.99    9.20
   2   0  -9   72.49    6.20
  -2   0   9   68.49    5.70
  -2   0   9   75.69    6.20
   1   0  -9  463.95   30.10
   1   0  -9  453.75   25.20
   1   0  -9  424.56   26.30
  -1   0   9  428.16   25.00
  -1   0   9  442.66   26.20
  -1   0   9  448.16   25.90
   0   0  -9   26.90    5.50
   0   0  -9   27.20    4.10
   0   0  -9   30.30    3.40
   0   0   9   27.60    3.20
   0   0   9   30.70    4.30
   0   0   9   25.70    3.60
  -1   0  -9  577.44   33.00
  -1   0  -9  519.45   31.60
   1   0   9  524.85   32.80
   1   0   9  604.34   32.50
   1   0   9  550.44   31.60
  -2   0  -9   55.89    5.10
  -2   0  -9   56.69    6.50
  -2   0  -9   56.69    5.80
  -2   0  -9   59.79    5.90
  -2   0  -9   56.19    6.10
   2   0   9   66.09    7.40
   2   0   9   56.99    6.20
   3   0   9  301.27   17.40
   3   0   9  292.67   16.90
   3   0   9  299.37   16.90
   3   0   9  309.67   17.00
   3   0   9  319.27   17.30
   3   0   9  306.87   17.10
   3   0   9  287.97   16.90
   4   0   9   48.40    3.60
   4   0   9   50.49    3.40
   4   0   9   49.10    3.60
   4   0   9   49.20    3.70
   4   0   9   50.49    3.90
   4   0   9   49.00    3.50
   4   0   9   51.79    3.50
   5   0   9  265.97   14.70
   5   0   9  266.07   14.70
   5   0   9  266.97   14.90
   5   0   9  260.07   15.00
   5   0   9  251.47   14.90
   5   0   9  253.77   15.10
   6   0   9   19.90    1.80
   6   0   9   19.60    2.00
   6   0   9   21.00    2.00
   6   0   9   22.40    2.00
   6   0   9   21.00    1.90
   6   0   9   20.30    1.80
   7   0   9   35.30    2.20
   7   0   9   32.70    2.20
   7   0   9   33.70    2.30
   7   0   9   35.20    2.30
   7   0   9   34.70    2.30
   9  -1  -9   31.00    4.60
   9  -1  -9   28.10    6.30
  -9   1   9   24.40    1.90
  -9   1   9   21.20    1.70
   8  -1  -9   16.80    4.80
   8  -1  -9   10.80    1.30
   8  -1  -9   11.30    1.40
   8  -1  -9   14.30    4.90
   8  -1  -9   13.00    3.10
  -8   1   9   11.00    1.30
   7  -1  -9  141.29   13.70
   7  -1  -9  129.09    8.10
   7  -1  -9  145.09   11.00
   7  -1  -9  129.29    8.10
  -7   1   9  134.89    8.00
   6  -1  -9  129.69    8.50
   6  -1  -9  144.29   11.80
   6  -1  -9  149.79   11.20
   6  -1  -9  151.88   13.70
   6  -1  -9  142.89    8.70
  -6   1   9  152.48    8.60
   5  -1  -9    6.00    3.30
   5  -1  -9    6.50    1.20
   5  -1  -9    5.00    2.10
   5  -1  -9    4.80    4.80
   5  -1  -9    6.50    2.60
  -5   1   9    7.40    1.10
   4  -1  -9   52.89    7.10
   4  -1  -9   49.90    8.70
  -4   1   9   58.79    5.70
  -4   1   9   59.59    6.00
   3  -1  -9   14.40    4.50
   3  -1  -9   12.50    2.60
   3  -1  -9   14.40    3.50
  -3   1   9   17.20    3.00
  -3   1   9   15.30    2.70
   2  -1  -9  112.39   11.60
   2  -1  -9  113.59    8.50
  -2   1   9  104.79    8.20
  -2   1   9  105.89    7.50
  -2   1   9  118.19    8.20
   1  -1  -9   51.79    4.60
   1  -1  -9   49.70    5.60
   1  -1  -9   44.50    7.50
  -1   1   9   62.19    6.10
  -1   1   9   52.69    4.80
  -1   1   9   52.99    5.50
   0  -1  -9  475.65   27.20
   0  -1  -9  446.16   30.00
   0  -1  -9  400.86   25.60
   0   1   9  459.05   26.60
   0   1   9  466.95   26.00
   0   1   9  436.56   26.80
  -1  -1  -9  908.11   50.49
  -1  -1  -9  811.82   49.10
   1   1   9  859.11   50.39
   1   1   9  913.31   50.09
   1   1   9  902.71   49.40
  -2  -1  -9   22.30    3.60
  -2  -1  -9   13.70    2.70
  -2  -1  -9   12.60    2.40
  -2  -1  -9   13.30    3.10
  -2  -1  -9   17.80    3.70
   2   1   9   12.50    3.10
   2   1   9   21.90    4.20
   3   1   9   10.10    1.60
   3   1   9   11.60    1.50
   3   1   9   11.90    1.70
   3   1   9   12.10    1.50
   3   1   9    9.20    1.50
   3   1   9   11.10    1.80
   3   1   9   11.70    1.50
   4   1   9   23.60    2.60
   4   1   9   29.30    2.50
   4   1   9   30.50    2.30
   4   1   9   25.40    2.60
   4   1   9   28.60    2.80
   4   1   9   28.30    2.50
   4   1   9   28.10    2.70
   5   1   9   18.80    2.00
   5   1   9   20.40    2.10
   5   1   9   22.20    2.00
   5   1   9   21.50    1.90
   5   1   9   20.00    2.00
   5   1   9   19.40    2.10
   6   1   9   30.90    2.20
   6   1   9   29.40    2.20
   6   1   9   29.10    2.20
   6   1   9   30.60    2.10
   6   1   9   25.00    2.10
   6   1   9   27.80    2.00
   9  -2  -9   19.40    4.20
   9  -2  -9   18.50    4.80
   9  -2  -9   16.10    2.90
  -9   2   9   14.70    1.40
  -9   2   9   15.30    1.50
   8  -2  -9    0.70    1.90
   8  -2  -9    0.20    0.50
   8  -2  -9    0.40    1.50
   8  -2  -9    0.00    2.00
  -8   2   9    0.50    0.60
   7  -2  -9   48.40    7.10
   7  -2  -9   44.20    3.30
   7  -2  -9   45.70    5.20
  -7   2   9   44.90    3.30
  -7   2   9   41.60    3.20
   6  -2  -9   94.49    9.00
   6  -2  -9  104.69    8.60
   6  -2  -9   94.69    6.20
   6  -2  -9  105.69   10.60
  -6   2   9   95.09    6.20
  -6   2   9  102.39    6.20
   5  -2  -9   32.40    4.50
   5  -2  -9   29.90    5.10
   5  -2  -9   30.70    6.30
   5  -2  -9   28.90    2.60
  -5   2   9   32.60    2.60
  -5   2   9   35.10    4.70
  -5   2   9   26.90    2.70
   4  -2  -9  320.57   20.60
   4  -2  -9  250.17   22.20
  -4   2   9  292.17   18.40
  -4   2   9  297.87   18.30
   3  -2  -9  105.69    9.40
   3  -2  -9  113.39   12.00
   3  -2  -9  108.89    8.40
  -3   2   9  108.09    7.70
  -3   2   9  121.29    8.60
  -3   2   9  107.89    8.40
   2  -2  -9  984.00   53.69
   2  -2  -9  959.20   54.99
   2  -2  -9  968.50   59.79
  -2   2   9  989.70   53.99
  -2   2   9  972.30   54.69
  -2   2   9  963.60   54.49
   1  -2  -9  162.38   12.00
   1  -2  -9  175.28   15.60
   1  -2  -9  166.08   11.00
  -1   2   9  170.08   11.80
  -1   2   9  182.68   11.40
  -1   2   9  166.98   11.80
   0  -2  -9  711.23   45.80
   0  -2  -9  719.13   41.90
   0  -2  -9  672.63   40.40
   0   2   9  683.53   41.30
   0   2   9  774.12   41.00
   0   2   9  751.82   41.70
  -1  -2  -9   79.39    7.60
  -1  -2  -9   90.89    8.10
   1   2   9   99.79    8.20
   1   2   9   88.59    7.20
   1   2   9   81.49    8.30
   2   2   9  169.28   10.50
   2   2   9  183.08   10.40
   2   2   9  176.58   10.70
   2   2   9  188.48   10.50
   2   2   9  183.08   10.70
   2   2   9  186.78   10.70
   2   2   9  172.38   10.50
   3   2   9   49.40    3.50
   3   2   9   51.89    3.70
   3   2   9   49.40    3.60
   3   2   9   54.99    3.60
   3   2   9   47.20    3.70
   3   2   9   53.19    3.80
   4   2   9   12.00    1.50
   4   2   9   13.70    1.60
   4   2   9   14.60    1.80
   4   2   9   14.10    1.80
   4   2   9   12.00    1.60
   4   2   9   14.10    1.50
   5   2   9   13.50    1.40
   5   2   9   14.30    1.50
   5   2   9   12.40    1.50
   5   2   9   13.80    1.50
   5   2   9   13.50    1.40
   6   2   9  254.97   13.90
   6   2   9  241.48   13.70
   6   2   9  258.47   13.80
   6   2   9  247.88   13.80
   9  -3  -9   28.20    4.40
   9  -3  -9   21.20    3.20
   9  -3  -9   26.10    5.20
  -9   3   9   19.90    1.90
  -9   3   9   23.20    1.90
   8  -3  -9  245.18   17.90
   8  -3  -9  211.28   17.40
   8  -3  -9  231.08   15.00
  -8   3   9  214.18   12.80
  -8   3   9  225.08   12.80
   7  -3  -9    3.70    2.50
   7  -3  -9    5.30    2.20
  -7   3   9    4.40    1.10
  -7   3   9    4.50    1.00
   6  -3  -9  443.66   29.80
   6  -3  -9  461.15   27.40
   6  -3  -9  422.86   28.10
  -6   3   9  442.46   24.90
  -6   3   9  462.45   24.70
   5  -3  -9  245.58   18.50
   5  -3  -9  243.28   17.40
   5  -3  -9  248.18   16.60
  -5   3   9  259.77   14.40
  -5   3   9  242.98   14.20
  -5   3   9  262.27   14.40
   4  -3  -9   50.69    7.00
   4  -3  -9   35.10    7.50
  -4   3   9   37.50    4.90
   3  -3  -9  406.56   24.60
   3  -3  -9  394.96   29.50
   3  -3  -9  409.96   26.80
  -3   3   9  409.96   23.90
  -3   3   9  393.96   24.50
   2  -3  -9   28.90    3.60
   2  -3  -9   29.50    7.10
   2  -3  -9   28.40    4.30
  -2   3   9   26.80    4.10
  -2   3   9   28.70    3.70
   1  -3  -9  443.16   31.50
   1  -3  -9  424.46   27.00
   1  -3  -9  443.96   25.80
  -1   3   9  445.26   26.10
  -1   3   9  431.56   26.50
   0  -3  -9  896.01   54.29
   0  -3  -9  857.91   49.60
   0  -3  -9  785.12   48.00
   0   3   9  871.01   48.40
   0   3   9  848.02   48.90
   1   3   9  216.68   12.90
   1   3   9  228.28   12.80
   1   3   9  219.78   12.80
   1   3   9  212.28   12.60
   1   3   9  222.38   12.90
   1   3   9  228.48   13.00
   2   3   9   44.30    3.50
   2   3   9   45.70    3.30
   2   3   9   43.30    3.20
   2   3   9   44.20    3.20
   2   3   9   42.40    3.30
   2   3   9   41.20    3.40
   3   3   9  204.38   11.80
   3   3   9  195.48   12.00
   3   3   9  204.08   11.70
   3   3   9  200.28   11.80
   3   3   9  215.28   12.00
   3   3   9  205.08   11.90
   4   3   9    3.40    0.90
   4   3   9    3.70    0.90
   4   3   9    3.20    0.80
   4   3   9    3.80    0.80
   4   3   9    5.10    1.10
   4   3   9    2.80    0.80
   5   3   9  335.77   18.60
   5   3   9  335.37   18.80
   5   3   9  350.26   18.70
   9  -4  -9    5.80    2.50
   9  -4  -9    5.90    1.80
  -9   4   9    5.20    0.90
  -9   4   9    7.00    0.90
   8  -4  -9   15.40    4.20
   8  -4  -9   16.50    3.10
  -8   4   9   17.40    1.80
  -8   4   9   18.50    2.00
   7  -4  -9  317.67   20.70
   7  -4  -9  319.77   23.20
  -7   4   9  320.17   18.60
  -7   4   9  348.47   18.40
   6  -4  -9  102.79    9.30
   6  -4  -9  102.29    8.70
   6  -4  -9  102.09   10.40
  -6   4   9  104.99    6.50
  -6   4   9  106.89    6.80
   5  -4  -9  519.45   33.40
   5  -4  -9  544.15   34.70
   5  -4  -9  570.74   32.60
  -5   4   9  562.34   29.90
  -5   4   9  519.45   30.10
   4  -4  -9  640.94   37.10
   4  -4  -9  567.04   34.20
  -4   4   9  659.33   34.30
  -4   4   9  533.85   32.20
  -4   4   9  565.04   31.90
   3  -4  -9 1593.44   94.29
   3  -4  -9 1593.74   87.49
  -3   4   9 1666.03   87.09
  -3   4   9 1445.76   87.29
   2  -4  -9  191.48   18.10
   2  -4  -9  187.38   13.60
  -2   4   9  202.28   13.10
  -2   4   9  194.78   12.60
  -2   4   9  162.28   13.00
   1  -4  -9 1324.87   76.39
   1  -4  -9 1192.18   69.99
   1  -4  -9 1200.88   68.59
  -1   4   9 1210.48   69.29
  -1   4   9 1232.58   68.99
   0   4   9  102.89    6.70
   0   4   9   87.69   14.10
   0   4   9   97.69    6.60
   0   4   9   96.89   10.40
   0   4   9  109.49    6.50
   0   4   9  105.69    6.60
   0   4   9  108.39    6.30
   0   4   9  101.49    6.50
   1   4   9  489.25   29.60
   1   4   9  414.66   23.60
   1   4   9  410.76   23.50
   1   4   9  379.96   23.50
   1   4   9  419.36   23.60
   1   4   9  408.56   23.30
   1   4   9  435.96   23.80
   2   4   9  268.07   15.20
   2   4   9  253.47   15.10
   2   4   9  274.57   15.00
   2   4   9  266.77   14.90
   2   4   9  250.67   15.20
   2   4   9  260.17   15.00
   3   4   9  113.69    7.00
   3   4   9  119.89    7.20
   3   4   9  116.89    7.20
   3   4   9  120.29    7.20
   3   4   9  117.39    7.20
   4   4   9  627.44   34.00
   4   4   9  619.04   33.90
   4   4   9  608.54   33.80
   4   4   9  641.94   34.00
   9  -5  -9   97.19    8.30
   9  -5  -9   80.59    6.10
  -9   5   9   80.39    5.20
  -9   5   9   82.49    5.00
   8  -5  -9   92.09    9.10
   8  -5  -9   86.69    7.20
  -8   5   9   93.49    5.80
  -8   5   9   83.19    5.40
   7  -5  -9  280.77   20.60
   7  -5  -9  281.67   18.30
  -7   5   9  284.07   16.00
  -7   5   9  283.87   16.30
   6  -5  -9    0.40    1.80
   6  -5  -9    0.00    1.40
   6  -5  -9    0.50    1.60
  -6   5   9    0.00    0.70
  -6   5   9    0.30    0.80
  -6   5   9   -0.40    0.60
   5  -5  -9   40.00    5.00
   5  -5  -9   45.50    6.50
  -5   5   9   44.90    4.00
  -5   5   9   50.29    3.40
  -5   5   9   49.10    3.60
   4  -5  -9  360.16   23.00
  -4   5   9  359.66   20.50
  -4   5   9  323.27   20.70
  -4   5   9  413.56   25.70
  -4   5   9  386.76   20.90
  -3   5   9   98.89    6.30
  -3   5   9  104.79   10.30
  -3   5   9   99.59    6.20
  -3   5   9   98.09    6.30
  -3   5   9   89.59    5.90
  -3   5   9   88.99    6.30
  -2   5   9  439.16   25.10
  -2   5   9  438.06   25.10
  -2   5   9  463.75   25.30
  -2   5   9  441.56   30.60
  -2   5   9  473.75   25.40
  -2   5   9  438.26   25.80
  -2   5   9  462.45   25.30
  -1   5   9  546.95   29.90
  -1   5   9  533.35   35.60
  -1   5   9  540.65   29.90
  -1   5   9  557.34   30.00
  -1   5   9  550.54   30.10
  -1   5   9  497.75   29.70
   0   5   9  924.61   52.09
   0   5   9  915.61   52.19
   0   5   9  911.61   52.09
   0   5   9 1100.99   59.19
   0   5   9  948.71   52.19
   0   5   9  948.71   52.39
   1   5   9   40.20    3.50
   1   5   9   35.90    3.40
   1   5   9   36.30    3.30
   1   5   9   37.10    3.20
   1   5   9   38.10    3.10
   1   5   9   39.50    7.30
   2   5   9   94.59    5.90
   2   5   9   80.69    5.50
   2   5   9   83.49    5.60
   2   5   9   81.09    5.50
   2   5   9   88.39    5.60
   3   5   9    2.10    0.70
   3   5   9    2.00    0.80
   3   5   9    3.80    0.80
   3   5   9    1.20    0.70
   9  -6  -9   -0.70    0.90
   9  -6  -9    0.10    1.10
  -9   6   9    0.10    0.50
  -9   6   9    0.40    0.50
   8  -6  -9  190.78   13.20
   8  -6  -9  206.28   15.40
  -8   6   9  222.28   12.10
  -8   6   9  209.28   11.70
   7  -6  -9   52.09    6.80
   7  -6  -9   50.49    5.30
  -7   6   9   52.99    3.70
  -7   6   9   52.19    4.10
  -7   6   9   55.09    3.90
   6  -6  -9   20.80    3.70
   6  -6  -9   19.30    4.10
   6  -6  -9   22.70    5.10
  -6   6   9   18.80    2.00
  -6   6   9   17.60    2.40
  -6   6   9   16.30    2.10
   5  -6  -9    2.00    2.30
   5  -6  -9    2.20    1.70
  -5   6   9    3.60    1.20
  -5   6   9   -2.00    3.30
  -5   6   9    2.50    1.00
   4  -6  -9   33.30    4.80
  -4   6   9   12.20    6.30
  -4   6   9   34.40    6.60
  -4   6   9   46.50    3.60
  -4   6   9   38.10    3.30
  -4   6   9   31.70    2.90
  -3   6   9  167.78    9.90
  -3   6   9  158.38    9.90
  -3   6   9  172.48    9.80
  -3   6   9  179.68   10.00
  -3   6   9  145.69   10.30
  -3   6   9  164.38   10.00
  -2   6   9  134.59    8.70
  -2   6   9  131.99    8.20
  -2   6   9  101.89   12.20
  -2   6   9  136.89    8.20
  -2   6   9  138.89    8.40
  -2   6   9  146.79    8.30
  -2   6   9  122.59    8.30
  -1   6   9   13.10    2.00
  -1   6   9   13.50    1.90
  -1   6   9   15.50    2.00
  -1   6   9   11.80    4.50
  -1   6   9   16.90    2.00
  -1   6   9    5.30    5.70
  -1   6   9   11.60    1.80
   0   6   9  394.96   30.30
   0   6   9  485.25   25.00
   0   6   9  430.86   24.90
   0   6   9  421.56   24.90
   0   6   9  466.05   24.90
   0   6   9  457.65   25.20
   1   6   9  109.89    7.40
   1   6   9  116.49    7.30
   1   6   9  120.79   11.70
   1   6   9  115.29    7.20
   1   6   9  113.29    7.20
   1   6   9  119.09    7.30
   2   6   9   67.19    4.50
   2   6   9   73.59    4.80
   2   6   9   68.79    4.60
   2   6   9   70.89    4.50
   3   6   9  159.38    8.90
   8  -7  -9   91.69    6.80
   8  -7  -9   97.19    8.40
  -8   7   9   91.59    5.80
  -8   7   9   86.79    5.60
   7  -7  -9    6.40    2.10
   7  -7  -9    6.90    2.80
  -7   7   9    7.20    1.30
  -7   7   9    7.50    1.40
   6  -7  -9  158.88   11.30
   6  -7  -9  153.28   11.70
   6  -7  -9  153.28   12.90
  -6   7   9  134.79    9.10
  -6   7   9  139.59    9.10
   5  -7  -9   79.99    8.70
   5  -7  -9   60.49    6.50
  -5   7   9   68.09    5.00
  -5   7   9   69.89    6.10
  -5   7   9   73.19    5.10
   4  -7  -9    7.80    2.50
  -4   7   9    0.10    3.90
  -4   7   9    6.10    1.30
  -4   7   9   10.90    4.10
  -4   7   9    7.10    1.50
  -4   7   9    5.20    1.30
  -3   7   9    7.60    1.50
  -3   7   9    6.60    1.40
  -3   7   9    8.00    1.50
  -3   7   9   -4.20    3.80
  -3   7   9    8.00    1.40
  -3   7   9    1.70    4.10
  -3   7   9    3.30    3.10
  -3   7   9    7.40    1.40
  -2   7   9   16.40    2.00
  -2   7   9   16.40    2.10
  -2   7   9   14.00    5.00
  -2   7   9   15.00    2.00
  -2   7   9    2.70    4.80
  -2   7   9   16.50    2.20
  -2   7   9   15.80    2.00
  -1   7   9  265.97   22.90
  -1   7   9  335.67   17.90
  -1   7   9  297.97   17.60
  -1   7   9  321.17   17.40
  -1   7   9  297.67   17.50
  -1   7   9  307.57   17.60
   0   7   9    1.90    0.90
   0   7   9    0.00    0.70
   0   7   9    1.20    2.40
   0   7   9    0.00    3.70
   0   7   9    0.30    0.70
   0   7   9    2.00    1.00
   1   7   9   35.50    3.10
   1   7   9   38.70    2.80
   1   7   9   44.70    6.90
   1   7   9   36.10    2.80
   1   7   9   37.80    2.90
   2   7   9  104.99    6.30
   2   7   9  107.19    6.40
   2   7   9  110.39    6.20
   8  -8  -9   38.50    4.30
   8  -8  -9   35.20    3.30
  -8   8   9   40.60    2.70
  -8   8   9   32.40    2.50
   7  -8  -9   41.70    5.20
   7  -8  -9   43.30    4.30
  -7   8   9   39.60    3.10
  -7   8   9   37.40    3.00
   6  -8  -9   20.60    4.30
   6  -8  -9   20.30    3.70
   6  -8  -9   25.50    3.80
  -6   8   9   21.60    2.30
  -6   8   9   26.00    2.50
   5  -8  -9  133.09   10.00
  -5   8   9  123.09    7.90
  -5   8   9  140.99    8.30
  -5   8   9  125.19    8.00
   4  -8  -9  541.25   31.20
  -4   8   9  490.65   29.10
  -4   8   9  512.35   33.90
  -4   8   9  469.45   28.70
  -4   8   9  556.74   28.80
  -4   8   9  534.95   29.10
  -3   8   9   19.90    2.10
  -3   8   9   13.60    4.60
  -3   8   9   17.90    2.20
  -3   8   9   18.60    2.20
  -3   8   9   18.50    2.10
  -3   8   9   18.90    2.10
  -3   8   9    2.50    4.60
  -2   8   9   29.00    2.70
  -2   8   9    7.20    5.70
  -2   8   9   23.40    2.40
  -2   8   9   18.10    5.30
  -2   8   9   26.40    2.50
  -2   8   9   24.90    2.60
  -1   8   9  214.78   12.40
  -1   8   9  208.38   12.20
  -1   8   9  226.38   12.70
  -1   8   9  197.58   12.30
   0   8   9    4.00    2.50
   0   8   9    4.60    1.00
   0   8   9    0.50    3.90
   0   8   9    4.60    0.90
   0   8   9    4.30    1.10
   0   8   9    3.70    0.90
   1   8   9   56.49    3.60
   1   8   9   57.49    3.30
   1   8   9   58.29    3.40
   1   8   9   40.80    5.20
   7  -9  -9   61.69    4.90
   7  -9  -9   63.49    5.70
  -7   9   9   54.99    4.00
  -7   9   9   64.69    4.00
   6  -9  -9   39.30    4.60
   6  -9  -9   36.40    3.80
   6  -9  -9   34.60    3.90
  -6   9   9   35.40    2.70
  -6   9   9   37.20    2.90
   5  -9  -9   42.90    4.40
  -5   9   9   35.70    3.30
  -5   9   9   48.70    3.10
  -5   9   9   37.80    3.00
   4  -9  -9  129.79    8.80
  -4   9   9  116.29    7.10
  -4   9   9  115.69    6.90
  -4   9   9   86.19    9.60
  -4   9   9  118.09    7.00
   3  -9  -9   63.09    5.50
  -3   9   9   60.19    4.30
  -3   9   9   63.69    4.20
  -3   9   9   67.09    4.30
  -3   9   9   56.99    4.20
  -3   9   9   58.79    7.50
   2  -9  -9  232.38   14.00
  -2   9   9  233.08   13.00
  -2   9   9  209.18   12.80
  -2   9   9  229.48   12.80
  -2   9   9  207.98   16.80
  -2   9   9  224.78   12.90
  -1   9   9   15.80    1.90
  -1   9   9   21.10    4.50
  -1   9   9   17.60    1.80
  -1   9   9   20.90    1.80
  -1   9   9   21.40    1.80
   5 -10  -9   54.19    4.20
   5 -10  -9   47.60    4.40
  -5  10   9   49.00    3.20
  -5  10   9   48.10    3.30
   4 -10  -9    0.30    0.80
  -4  10   9    0.00    0.50
  -4  10   9   -1.00    2.40
  -4  10   9   -0.10    0.40
   3 -10  -9   31.50    3.30
  -3  10   9   27.40    2.00
  -3  10   9   25.20    2.40
  -3  10   9   17.50    3.70
  -3  10   9   28.50    2.00
  -3  10   9   32.00    2.10
  -2  11 -10   17.20    1.90
   2 -11  10   18.00    2.00
  -3  11 -10   32.80    2.50
  -3  11 -10   38.30    2.80
   3 -11  10   39.10    3.20
   1  10 -10  114.09   10.50
   1  10 -10  128.59    9.60
  -1 -10  10  136.19    8.20
   0  10 -10   57.19   10.20
   0  10 -10   64.49    4.70
   0  10 -10   67.59    8.00
   0 -10  10   75.59    5.40
  -1  10 -10   28.00    3.10
  -1  10 -10   30.60    5.90
   1 -10  10   43.10    3.80
   1 -10  10   31.40    2.40
  -2  10 -10   18.50    1.90
  -2  10 -10   19.90    2.30
   2 -10  10   19.10    1.70
   2 -10  10   17.60    2.70
   2 -10  10   17.40    3.70
  -3  10 -10   16.80    1.80
  -3  10 -10   18.30    2.20
   3 -10  10   17.70    2.70
   3 -10  10   16.40    1.60
  -4  10 -10   43.30    3.20
  -4  10 -10   45.20    3.30
   4 -10  10   43.30    4.00
   4 -10  10   41.30    2.90
  -5  10 -10   15.00    1.50
   5 -10  10   12.00    1.90
   2   9 -10    0.00    1.70
   2   9 -10    1.90    1.90
   2   9 -10    0.70    1.50
   2   9 -10   -0.30    1.00
   2   9 -10    0.60    4.00
   2   9 -10   -0.80    1.50
  -2  -9  10    0.80    0.50
   1   9 -10   15.50    6.60
   1   9 -10   21.10    4.10
   1   9 -10   22.30    5.30
   1   9 -10   22.40    2.50
   1   9 -10   23.20    5.90
  -1  -9  10   22.40    1.90
   0   9 -10   52.59   10.60
   0   9 -10   60.69    4.70
   0   9 -10   61.59    8.90
   0   9 -10   66.69    8.30
   0  -9  10   65.09    4.10
  -1   9 -10   17.40    5.20
  -1   9 -10   19.90    2.60
  -1   9 -10   14.10    1.70
  -1   9 -10    7.50    6.20
   1  -9  10   19.70    3.10
   1  -9  10   15.60    1.70
  -2   9 -10   20.20    2.60
  -2   9 -10   15.10    4.70
  -2   9 -10   22.20    2.20
   2  -9  10   15.20    1.80
   2  -9  10   20.30    3.30
  -3   9 -10  112.09    7.10
  -3   9 -10   98.89    6.70
   3  -9  10  104.49    6.50
   3  -9  10  102.19    8.00
  -4   9 -10   12.10    1.90
  -4   9 -10   11.80    1.70
   4  -9  10   14.70    2.70
   4  -9  10   14.80    1.60
  -5   9 -10   -0.20    0.50
  -5   9 -10    0.00    0.70
   5  -9  10    0.30    0.60
   5  -9  10    0.20    1.00
  -6   9 -10   26.10    2.00
  -6   9 -10   25.00    1.90
   6  -9  10   23.40    2.60
   6  -9  10   24.40    1.80
   4   8 -10    3.60    1.70
   4   8 -10    2.40    1.20
   4   8 -10    1.80    1.20
   4   8 -10    1.70    1.70
   4   8 -10    2.10    1.60
  -4  -8  10    2.70    0.60
   3   8 -10   22.20    5.60
   3   8 -10   18.20    4.70
   3   8 -10   16.20    2.70
   3   8 -10   18.80    5.20
   3   8 -10   20.30    3.60
   3   8 -10   17.10    3.80
   2   8 -10    1.80    1.60
   2   8 -10    1.00    2.70
   2   8 -10    2.30    2.90
   2   8 -10    1.40    2.10
   2   8 -10    1.40    1.80
   2   8 -10    0.20    2.30
   1   8 -10   21.80    5.50
   1   8 -10   26.10    7.00
   1   8 -10   25.50    4.20
   1   8 -10   25.40    2.90
   1   8 -10   22.90    6.30
  -1  -8  10   24.00    2.30
   0   8 -10  138.89    9.40
   0   8 -10  150.78   16.40
   0   8 -10  140.59   11.80
   0   8 -10  147.79   15.10
   0   8 -10  127.19   14.30
   0  -8  10  156.48    8.70
  -1   8 -10    0.40    2.50
  -1   8 -10    2.00    1.00
  -1   8 -10    1.50    1.20
   1  -8  10    0.90    1.20
   1  -8  10    0.60    0.70
  -2   8 -10    1.60    3.80
  -2   8 -10    4.00    1.20
  -2   8 -10    4.70    1.50
   2  -8  10    5.20    1.10
   2  -8  10    4.80    2.10
  -3   8 -10   65.39    5.10
  -3   8 -10   67.49    4.80
   3  -8  10   67.59    4.60
   3  -8  10   68.49    6.30
  -4   8 -10   86.59    6.10
  -4   8 -10  106.09    6.40
  -4   8 -10   92.29    5.80
   4  -8  10   87.59    7.40
   4  -8  10   91.69    6.00
  -5   8 -10   69.79    4.50
  -5   8 -10   61.39    4.30
   5  -8  10   63.39    5.60
   5  -8  10   67.69    4.40
  -6   8 -10   10.40    1.30
  -6   8 -10   10.30    1.40
   6  -8  10   11.90    1.30
   6  -8  10   10.60    2.00
  -7   8 -10   76.09    4.60
   7  -8  10   74.19    6.20
   7  -8  10   81.09    4.50
   5   7 -10   25.40    4.40
   5   7 -10   29.50    5.80
   5   7 -10   37.90    4.10
   5   7 -10   38.90    3.30
   5   7 -10   38.20    3.80
   5   7 -10   36.10    2.30
   4   7 -10   12.10    3.30
   4   7 -10   15.90    1.60
   4   7 -10   15.50    4.00
   4   7 -10   15.90    3.50
   4   7 -10   15.50    4.90
   4   7 -10   13.50    5.40
   4   7 -10   12.10    2.40
   3   7 -10  115.99   11.40
   3   7 -10  119.49    7.60
   3   7 -10  122.79   15.60
   3   7 -10  117.39   12.60
   3   7 -10  150.68   11.90
   3   7 -10  143.09    9.80
   3   7 -10  129.59   15.30
   2   7 -10   63.69    4.50
   2   7 -10   61.69    8.10
   2   7 -10   64.89   12.20
   2   7 -10   74.09    9.80
   2   7 -10   63.49    7.80
   2   7 -10   61.29    6.20
   2   7 -10   74.59   14.00
   1   7 -10  312.07   27.60
   1   7 -10  332.67   21.50
   1   7 -10  335.37   25.70
   1   7 -10  327.87   19.70
   1   7 -10  377.06   23.90
   0   7 -10   97.79   11.10
   0   7 -10   96.79    8.70
   0   7 -10   95.09    6.80
   0   7 -10   98.79   12.80
   0  -7  10   96.89    6.20
  -1   7 -10   43.50    7.60
  -1   7 -10   43.80    3.40
  -1   7 -10   45.80    3.90
   1  -7  10   43.60    3.40
  -2   7 -10  305.17   17.00
  -2   7 -10  294.67   17.50
   2  -7  10  294.27   16.90
   2  -7  10  290.67   18.80
  -3   7 -10    9.00    1.50
  -3   7 -10    5.90    1.50
   3  -7  10    8.60    1.50
   3  -7  10    8.10    2.40
  -4   7 -10  132.89    8.50
  -4   7 -10  141.39    8.30
  -4   7 -10  147.19    8.80
   4  -7  10  135.09   10.20
   4  -7  10  133.39    8.50
  -5   7 -10    5.40    1.20
  -5   7 -10    6.30    1.10
   5  -7  10    6.20    1.30
   5  -7  10    5.30    1.90
  -6   7 -10   82.99    5.10
  -6   7 -10   72.49    5.00
   6  -7  10   77.99    6.20
   6  -7  10   91.19    5.20
  -7   7 -10   63.69    3.80
  -7   7 -10   70.19    4.00
   7  -7  10   68.29    3.90
   7  -7  10   55.09    4.50
   5   6 -10   62.89   11.80
   5   6 -10   60.89    3.80
   5   6 -10   62.89    5.20
   5   6 -10   57.09    8.00
   5   6 -10   61.79    6.90
   5   6 -10   60.19    6.60
  -5  -6  10   60.59    3.90
   4   6 -10  378.86   27.10
   4   6 -10  446.06   28.60
   4   6 -10  393.66   22.40
   4   6 -10  411.36   27.80
   4   6 -10  439.96   24.60
   4   6 -10  361.66   30.40
   3   6 -10   11.60    5.50
   3   6 -10   11.70    7.40
   3   6 -10   13.50    4.40
   3   6 -10    9.30    3.80
   3   6 -10   12.40    1.50
   3   6 -10    8.20    2.30
   3   6 -10   13.50    4.60
  -3  -6  10   10.80    1.50
   2   6 -10    5.60    4.20
   2   6 -10    6.30    2.00
   2   6 -10    6.90    3.50
   2   6 -10    8.60    3.80
   2   6 -10    6.70    1.20
   2   6 -10    4.60    2.00
  -2  -6  10    6.30    1.30
   1   6 -10  638.74   48.10
   1   6 -10  791.22   47.80
   1   6 -10  795.22   41.30
  -1  -6  10  747.13   40.90
   0   6 -10  202.18   12.60
   0   6 -10  220.18   14.50
   0   6 -10  224.38   17.00
   0  -6  10  205.18   12.10
   0  -6  10  192.88   12.10
  -1   6 -10   17.90    2.50
  -1   6 -10   22.00    2.20
  -1   6 -10   20.20    4.60
   1  -6  10   17.80    2.10
   1  -6  10   20.40    2.10
  -2   6 -10  165.38   10.30
  -2   6 -10  164.18    9.80
   2  -6  10  161.98    9.90
   2  -6  10  162.28   11.50
   2  -6  10  165.18    9.90
  -3   6 -10   44.20    3.70
  -3   6 -10   44.70    3.20
  -3   6 -10   42.90    3.50
   3  -6  10   46.30    3.80
   3  -6  10   46.70    3.50
   3  -6  10   38.70    5.10
  -4   6 -10  262.37   15.00
  -4   6 -10  259.37   14.70
   4  -6  10  259.17   16.90
   4  -6  10  265.47   15.10
   4  -6  10  249.68   15.10
  -5   6 -10    0.50    0.70
  -5   6 -10    0.30    0.60
   5  -6  10    0.50    1.30
   5  -6  10   -0.20    0.80
   5  -6  10    0.70    0.80
  -6   6 -10   47.30    3.20
  -6   6 -10   39.00    3.10
   6  -6  10   42.10    4.20
   6  -6  10   44.50    3.20
   6  -6  10   47.50    3.30
  -7   6 -10   37.20    2.60
  -7   6 -10   41.90    2.70
   7  -6  10   31.60    3.20
   7  -6  10   41.20    2.60
   7  -6  10   40.80    2.70
   6   5 -10   33.80    2.30
   6   5 -10   36.10    3.50
   6   5 -10   33.30    5.70
   6   5 -10   32.00    4.70
   6   5 -10   33.40    5.30
   6   5 -10   21.40    7.20
   5   5 -10   66.09   10.70
   5   5 -10   54.89    7.70
   5   5 -10   64.59   14.50
   5   5 -10   59.09    6.00
   5   5 -10   61.39    4.20
   5   5 -10   72.99    8.40
   5   5 -10   68.99    4.20
   4   5 -10   25.90    6.30
   4   5 -10   31.20    6.20
   4   5 -10   25.40    2.40
   4   5 -10   29.40    7.60
   4   5 -10   23.70    2.30
   4   5 -10   21.70    6.00
   4   5 -10   19.80    4.00
   4   5 -10   26.70   10.20
   3   5 -10    5.90    3.80
   3   5 -10    8.30    2.70
   3   5 -10   11.50    1.50
   3   5 -10   11.60    7.00
   3   5 -10    7.30    3.40
   3   5 -10    8.60    1.30
   3   5 -10    7.70    4.50
   2   5 -10  265.07   17.70
   2   5 -10  278.47   15.80
   2   5 -10  301.57   20.80
   2   5 -10  335.47   23.50
   2   5 -10  225.28   20.30
   1   5 -10   19.50    3.30
   1   5 -10   25.40    2.40
   1   5 -10   27.90    5.30
   1   5 -10   30.40    3.00
   1   5 -10   27.40    6.10
  -1  -5  10   30.90    2.80
   0   5 -10  121.69   10.80
   0   5 -10  115.59    7.60
   0  -5  10  109.69    7.20
  -1   5 -10  231.18   14.40
  -1   5 -10  263.87   14.00
  -1   5 -10  249.48   15.20
   1  -5  10  223.98   14.00
   1  -5  10  249.97   14.00
  -2   5 -10   34.70    3.00
  -2   5 -10   38.20    3.60
   2  -5  10   29.80    2.90
   2  -5  10   33.40    4.40
   2  -5  10   37.10    3.10
  -3   5 -10  961.30   51.49
  -3   5 -10  976.10   51.89
   3  -5  10  958.80   51.09
   3  -5  10  919.41   51.69
   3  -5  10  940.81   51.59
   3  -5  10  912.41   53.39
  -4   5 -10  137.19    8.80
   4  -5  10  141.19    9.00
   4  -5  10  148.49    9.00
   4  -5  10  156.28    8.60
   4  -5  10  142.49   10.50
  -5   5 -10  368.26   20.70
   5  -5  10  402.66   21.00
   5  -5  10  366.26   21.00
   5  -5  10  339.87   22.30
   5  -5  10  374.86   20.50
  -6   5 -10  102.19    6.40
  -6   5 -10  112.69    6.50
   6  -5  10  115.09    6.70
   6  -5  10   95.19    8.90
   6  -5  10  107.39    6.60
   6  -5  10  100.19    6.30
  -7   5 -10    3.90    0.80
   7  -5  10    3.50    0.80
   7  -5  10    3.80    0.80
   7  -5  10    2.80    0.70
   7   4 -10    3.50    1.20
   7   4 -10    3.20    1.80
   7   4 -10    3.10    1.80
   7   4 -10    3.00    3.40
   7   4 -10    2.50    0.50
   6   4 -10   83.09    5.10
   6   4 -10   69.99    6.80
   6   4 -10   90.79   10.40
   6   4 -10   87.59    5.00
   6   4 -10   79.69    8.80
   6   4 -10   79.99   15.00
   6   4 -10   90.39    9.30
  -6  -4  10   70.39    5.50
   5   4 -10  258.47   16.60
   5   4 -10  225.88   13.40
   5   4 -10  255.57   19.60
   5   4 -10  184.28   18.20
   5   4 -10  230.48   20.40
   5   4 -10  247.28   13.60
  -5  -4  10  240.88   13.40
   4   4 -10   40.70    3.20
   4   4 -10   50.09    8.60
   4   4 -10   47.50    6.70
   4   4 -10   44.50    6.10
   4   4 -10   35.00   11.50
   4   4 -10   43.10    7.70
   4   4 -10   51.19    3.50
  -4  -4  10   43.90    3.30
   3   4 -10    0.30    0.60
   3   4 -10    1.70    2.30
   3   4 -10    2.00    6.60
   3   4 -10   -0.10    1.60
   3   4 -10    0.00    1.60
   3   4 -10    0.10    0.60
   3   4 -10    0.90    2.20
   2   4 -10    5.00    2.80
   2   4 -10    6.00    3.30
   2   4 -10    5.90    1.10
   2   4 -10    4.20    1.00
   2   4 -10    6.30    2.70
  -2  -4  10    5.50    2.20
   1   4 -10  156.38   17.00
   1   4 -10  136.69   11.70
  -1  -4  10  176.58   11.50
  -1  -4  10  160.28   11.60
   0   4 -10   33.30   10.30
   0   4 -10   25.20    4.50
   0  -4  10   42.30    4.90
   0  -4  10   31.80    4.60
  -1   4 -10  357.16   24.30
  -1   4 -10  381.46   22.70
   1  -4  10  433.46   24.30
   1  -4  10  378.36   24.40
  -2   4 -10   59.99    5.90
  -2   4 -10   65.39    7.40
   2  -4  10   75.49    7.60
   2  -4  10   62.09    7.30
  -3   4 -10  867.41   45.40
   3  -4  10  829.22   44.80
   3  -4  10  816.52   45.10
   3  -4  10  787.42   45.40
   3  -4  10  832.22   45.30
  -4   4 -10   82.79    5.20
   4  -4  10   81.89    5.10
   4  -4  10   68.99    4.70
   4  -4  10   79.29    5.40
   4  -4  10   75.79    5.20
   4  -4  10   71.49    4.70
  -5   4 -10  107.79    6.70
   5  -4  10  104.29    6.90
   5  -4  10   99.89    6.40
   5  -4  10  106.29    6.80
   5  -4  10  112.69    6.50
  -6   4 -10  131.19    7.70
   6  -4  10  120.39    7.80
   6  -4  10  131.49    7.60
   6  -4  10  148.99    8.10
   6  -4  10  125.89    7.70
   6  -4  10  123.19    7.60
   6  -4  10  124.09    7.60
  -7   4 -10   44.40    3.00
   7  -4  10   46.10    2.90
   7  -4  10   52.19    3.20
   7  -4  10   45.80    3.00
   7  -4  10   40.00    3.00
   7  -4  10   48.40    3.10
   7   3 -10   65.29    4.30
   7   3 -10   65.79    5.80
   7   3 -10   74.99    4.20
   7   3 -10   59.99    7.10
   7   3 -10   78.59    7.80
   7   3 -10   46.60   10.80
  -7  -3  10   67.79    4.20
   6   3 -10   17.00    1.70
   6   3 -10   18.00    5.30
   6   3 -10   17.60    7.90
   6   3 -10   21.00    4.00
   6   3 -10   16.00    1.80
   6   3 -10   21.00    5.20
   6   3 -10   19.20    5.90
  -6  -3  10   16.60    1.70
   5   3 -10   90.99   17.10
   5   3 -10   86.79    9.90
   5   3 -10   97.19   11.00
   5   3 -10  122.09   10.70
   5   3 -10  102.09    6.30
   5   3 -10   84.29    6.00
   5   3 -10   96.59    8.80
   4   3 -10   38.60   10.70
   4   3 -10   21.50    4.30
   4   3 -10   27.10    2.60
   4   3 -10   26.40    5.50
   4   3 -10   30.90    6.20
   4   3 -10   30.30    5.40
   4   3 -10   26.00    2.40
  -4  -3  10   25.80    2.40
   3   3 -10  230.08   14.00
   3   3 -10  253.67   17.90
   3   3 -10  260.17   18.70
   3   3 -10  216.38   28.10
   3   3 -10  247.58   13.90
   3   3 -10  247.48   17.50
  -3  -3  10  239.28   13.90
   2   3 -10  157.98   12.10
   2   3 -10  164.08   16.70
  -2  -3  10  158.68   11.60
  -2  -3  10  179.98   11.80
   1   3 -10   67.99    7.60
   1   3 -10   88.89   10.80
  -1  -3  10   89.39    7.20
  -1  -3  10   84.19    7.20
   0   3 -10    2.20    1.30
   0   3 -10    0.10    2.50
   0   3 -10    0.30    1.40
   0  -3  10   -1.10    0.90
   0  -3  10    0.70    1.30
  -1   3 -10  156.08   10.90
  -1   3 -10  161.88   12.20
   1  -3  10  172.48   12.40
   1  -3  10  190.78   12.60
  -2   3 -10 1647.84   91.29
  -2   3 -10 1516.85   89.89
   2  -3  10 1816.82   91.89
   2  -3  10 1610.74   91.79
  -3   3 -10   35.90    3.00
   3  -3  10   32.90    2.50
   3  -3  10   37.80    2.50
   3  -3  10   38.20    3.50
   3  -3  10   31.20    2.90
   3  -3  10   38.00    3.30
   3  -3  10   29.30    2.40
   4  -3  10  530.95   28.60
   4  -3  10  481.25   28.10
   4  -3  10  527.55   28.10
   4  -3  10  519.75   28.50
   4  -3  10  499.55   28.10
   4  -3  10  510.45   28.70
   4  -3  10  522.45   28.10
   4  -3  10  515.35   28.10
   5  -3  10  378.46   22.00
   5  -3  10  409.86   22.60
   5  -3  10  394.46   21.90
   5  -3  10  402.56   22.10
   5  -3  10  402.56   22.30
   5  -3  10  408.46   22.00
   5  -3  10  388.86   22.20
   6  -3  10   69.39    4.70
   6  -3  10   69.19    4.70
   6  -3  10   69.99    4.60
   6  -3  10   73.39    4.60
   6  -3  10   73.29    4.50
   6  -3  10   71.19    4.90
   6  -3  10   81.59    4.50
  -7   3 -10   46.10    3.10
   7  -3  10   45.00    3.10
   7  -3  10   48.40    3.20
   7  -3  10   52.09    3.20
   7  -3  10   52.49    3.40
   7  -3  10   51.19    3.10
   7  -3  10   54.29    3.30
   8   2 -10   23.70    3.70
   8   2 -10   21.30    1.50
   8   2 -10   15.70    5.30
   8   2 -10   24.90    1.70
   8   2 -10   25.00    3.60
  -8  -2  10   22.10    1.60
   7   2 -10  107.49    6.60
   7   2 -10  121.49   10.60
   7   2 -10  103.99   11.10
   7   2 -10  104.79    6.40
   7   2 -10  114.99   15.00
   7   2 -10  106.19    8.40
  -7  -2  10  111.19    6.60
   6   2 -10  124.19    7.30
   6   2 -10   80.69   13.80
   6   2 -10  130.79   12.20
   6   2 -10  150.88   13.90
   6   2 -10  120.99    7.10
   6   2 -10  113.09   11.00
   6   2 -10   98.39    9.50
   5   2 -10  186.08   14.60
   5   2 -10  139.69   17.30
   5   2 -10  138.99    9.30
   5   2 -10  170.18    9.60
   5   2 -10  155.88   13.10
   5   2 -10  165.88    9.50
   4   2 -10  221.88   20.80
   4   2 -10  221.18   12.80
   4   2 -10  217.28   16.90
   4   2 -10  239.38   16.30
   4   2 -10  219.38   16.40
   4   2 -10  226.68   13.00
   3   2 -10    3.60    3.30
   3   2 -10    7.20    3.90
  -3  -2  10    1.30    1.80
  -3  -2  10    0.40    1.40
   2   2 -10  798.52   50.99
   2   2 -10  805.02   46.30
  -2  -2  10  822.72   46.00
  -2  -2  10  791.52   45.80
   1   2 -10  239.58   19.30
   1   2 -10  222.38   15.60
  -1  -2  10  238.48   15.40
  -1  -2  10  238.08   15.40
   0   2 -10  583.64   35.50
   0   2 -10  584.04   38.40
   0   2 -10  576.74   33.70
   0  -2  10  636.64   35.50
   0  -2  10  610.34   35.70
   0  -2  10  632.74   35.40
  -1   2 -10  189.48   13.40
  -1   2 -10  183.98   12.10
   1  -2  10  192.08   13.40
   1  -2  10  202.58   13.70
   1  -2  10  181.38   12.40
  -2   2 -10  706.63   39.30
  -2   2 -10  701.73   40.40
  -2   2 -10  671.13   39.10
  -2   2 -10  631.74   38.20
  -2   2 -10  643.44   38.80
   2  -2  10  692.43   40.50
   2  -2  10  746.43   39.70
   2  -2  10  729.23   41.00
   3  -2  10  188.58   10.60
   3  -2  10  180.38   10.60
   3  -2  10  183.88   11.20
   3  -2  10  174.78   10.90
   3  -2  10  178.78   10.60
   3  -2  10  194.08   10.80
   3  -2  10  196.88   11.10
   3  -2  10  188.18   10.70
   4  -2  10  238.58   13.70
   4  -2  10  238.18   13.60
   4  -2  10  247.08   14.30
   4  -2  10  246.68   14.00
   4  -2  10  239.48   13.60
   4  -2  10  244.08   14.00
   4  -2  10  239.78   13.60
   4  -2  10  236.18   13.80
   5  -2  10    7.20    1.20
   5  -2  10    8.60    1.40
   5  -2  10    7.90    1.20
   5  -2  10    8.30    1.10
   5  -2  10    9.50    1.50
   5  -2  10    8.30    1.20
   5  -2  10    8.70    1.60
   5  -2  10    8.00    1.10
   6  -2  10  142.19    8.60
   6  -2  10  151.98    8.90
   6  -2  10  160.38    9.10
   6  -2  10  136.79    8.70
   6  -2  10  150.58    8.60
   6  -2  10  152.78    8.80
   6  -2  10  162.68    8.90
  -7   2 -10   20.80    1.60
   7  -2  10   24.70    1.80
   7  -2  10   17.40    1.60
   7  -2  10   25.40    1.80
   7  -2  10   25.50    1.80
   7  -2  10   24.60    1.70
   7  -2  10   23.40    1.80
   8   1 -10   31.60    2.20
   8   1 -10   24.00    1.90
   8   1 -10   40.20    8.80
   8   1 -10   32.30    5.10
   8   1 -10   35.40    5.20
  -8  -1  10   28.50    2.20
   7   1 -10  135.79   16.00
   7   1 -10  132.79    7.90
   7   1 -10  125.29    7.70
   7   1 -10  138.89   11.60
  -7  -1  10  131.19    7.60
   6   1 -10   26.80    2.50
   6   1 -10   29.50    8.00
   6   1 -10   24.30    2.40
   6   1 -10   23.80    2.40
   6   1 -10   28.80    5.50
   6   1 -10   27.50    5.00
  -6  -1  10   24.70    2.10
   5   1 -10   18.40    6.00
   5   1 -10   12.30    3.20
   5   1 -10   13.50    1.70
   5   1 -10   15.10    2.00
   5   1 -10   15.80    4.10
   5   1 -10   13.40    1.70
  -5  -1  10   12.70    1.40
   4   1 -10   28.30    4.40
   4   1 -10   23.20    4.60
   4   1 -10   26.50    6.00
   4   1 -10   21.70    2.20
   3   1 -10  335.27   20.90
   3   1 -10  325.77   25.90
  -3  -1  10  354.16   20.80
  -3  -1  10  325.57   20.90
   2   1 -10  108.89    8.70
   2   1 -10  115.69   12.00
  -2  -1  10  111.79    8.50
  -2  -1  10  107.09    8.60
  -2  -1  10  124.69    8.30
   1   1 -10    0.70    1.20
   1   1 -10   -0.80    1.90
  -1  -1  10    0.30    1.30
  -1  -1  10    2.10    1.40
  -1  -1  10    1.60    1.50
   0   1 -10  361.96   25.80
   0   1 -10  363.36   23.20
   0   1 -10  364.56   21.80
   0  -1  10  378.66   23.30
   0  -1  10  393.96   22.90
   0  -1  10  387.46   22.50
  -1   1 -10  458.55   27.70
  -1   1 -10  471.45   27.40
  -1   1 -10  489.35   27.50
  -1   1 -10  482.45   26.80
  -1   1 -10  479.75   28.70
   1  -1  10  450.65   28.50
   1  -1  10  450.95   28.90
   1  -1  10  503.85   28.20
  -2   1 -10  385.86   23.70
  -2   1 -10  380.06   23.40
  -2   1 -10  390.96   24.60
  -2   1 -10  381.36   22.70
  -2   1 -10  378.76   23.40
   2  -1  10  423.56   24.20
   2  -1  10  422.16   25.40
   3  -1  10   22.60    2.10
   3  -1  10   23.50    2.20
   3  -1  10   26.00    2.10
   3  -1  10   23.30    2.40
   3  -1  10   24.20    2.20
   3  -1  10   25.60    2.70
   3  -1  10   26.10    2.40
   3  -1  10   29.00    2.90
   4  -1  10  528.45   28.20
   4  -1  10  494.65   28.30
   4  -1  10  547.15   28.80
   4  -1  10  522.25   28.10
   4  -1  10  489.25   28.20
   4  -1  10  514.05   28.60
   4  -1  10  497.35   28.10
   5  -1  10  522.05   29.30
   5  -1  10  542.15   29.40
   5  -1  10  546.05   29.60
   5  -1  10  526.65   29.80
   5  -1  10  565.64   29.70
   5  -1  10  544.55   29.90
   5  -1  10  555.94   29.50
   5  -1  10  501.55   29.50
   6  -1  10   20.80    1.80
   6  -1  10   18.40    1.70
   6  -1  10   20.20    2.00
   6  -1  10   21.20    1.90
   6  -1  10   19.30    2.00
   6  -1  10   19.70    1.90
   7  -1  10   43.70    2.60
   7  -1  10   40.20    2.70
   7  -1  10   42.00    2.70
   7  -1  10   43.70    2.70
   8   0 -10   31.00    2.40
   8   0 -10   42.00    8.70
   8   0 -10   42.20    6.10
   8   0 -10   35.40    5.10
  -8   0  10   31.30    2.30
  -8   0  10   32.10    2.50
   7   0 -10   17.40    1.90
   7   0 -10   14.90    1.80
   7   0 -10   21.10    6.20
   7   0 -10   17.10    3.80
  -7   0  10   17.00    1.70
   6   0 -10  228.18   12.40
   6   0 -10  199.48   12.20
   6   0 -10  209.28   15.40
   6   0 -10  208.28   18.50
   6   0 -10  220.18   16.10
  -6   0  10  207.88   12.10
   5   0 -10   37.20    5.30
   5   0 -10   38.00    5.20
   5   0 -10   37.80    7.30
   5   0 -10   34.10    2.80
   5   0 -10   32.20    2.70
  -5   0  10   35.40    2.60
   4   0 -10   34.70    6.00
   4   0 -10   24.90    6.50
  -4   0  10   33.90    4.10
  -4   0  10   30.20    4.50
   3   0 -10  306.17   20.20
  -3   0  10  341.87   20.00
  -3   0  10  339.47   20.70
   2   0 -10    2.10    2.30
   2   0 -10    1.10    1.40
  -2   0  10    1.30    1.40
  -2   0  10    2.60    1.50
   1   0 -10  155.98   14.10
   1   0 -10  139.99   10.70
   1   0 -10  148.29    9.60
  -1   0  10  140.89   10.60
  -1   0  10  163.08   10.60
   0   0 -10  418.16   25.70
   0   0 -10  457.55   30.30
   0   0 -10  457.25   27.20
   0   0  10  452.15   26.60
   0   0  10  436.26   27.10
   0   0  10  452.25   25.70
  -1   0 -10  355.36   22.10
  -1   0 -10  336.27   20.80
   1   0  10  325.77   22.10
   1   0  10  377.86   21.90
  -2   0 -10  187.28   13.30
  -2   0 -10  213.28   13.10
  -2   0 -10  219.58   13.90
  -2   0 -10  202.48   14.10
  -2   0 -10  214.48   14.60
   2   0  10  203.68   15.00
   2   0  10  209.98   14.30
   3   0  10  216.38   13.20
   3   0  10  248.38   13.20
   3   0  10  233.68   13.20
   3   0  10  234.88   13.30
   3   0  10  227.88   13.40
   3   0  10  235.38   13.20
   3   0  10  227.68   13.50
   3   0  10  228.18   13.60
   4   0  10   16.50    1.90
   4   0  10   13.40    1.60
   4   0  10   18.90    2.10
   4   0  10   16.90    1.90
   4   0  10   14.60    1.70
   4   0  10   15.30    1.70
   4   0  10   13.80    2.00
   5   0  10  200.98   11.50
   5   0  10  196.88   11.10
   5   0  10  185.58   11.30
   5   0  10  194.78   11.20
   5   0  10  196.78   11.10
   5   0  10  192.78   11.40
   5   0  10  202.58   11.50
   6   0  10   33.70    2.30
   6   0  10   33.90    2.50
   6   0  10   32.10    2.50
   6   0  10   33.50    2.50
   6   0  10   37.80    2.40
   6   0  10   35.20    2.50
   9  -1 -10    3.90    2.90
  -9   1  10    3.00    0.60
  -9   1  10    2.70    0.50
   8  -1 -10   71.59    4.90
   8  -1 -10   84.49    7.50
   8  -1 -10   98.19   10.90
  -8   1  10   82.19    5.20
  -8   1  10   82.09    4.90
   7  -1 -10   27.10    6.30
   7  -1 -10   25.80    2.40
   7  -1 -10   25.40    4.40
  -7   1  10   25.70    2.30
   6  -1 -10   61.29    4.50
   6  -1 -10   75.79    9.00
   6  -1 -10   73.29    6.90
   6  -1 -10   64.59    4.50
   6  -1 -10   70.09    7.40
  -6   1  10   68.19    4.50
   5  -1 -10   14.50    4.30
   5  -1 -10   14.30    3.10
   5  -1 -10   13.20    3.50
  -5   1  10   12.90    1.50
   4  -1 -10   16.20    4.00
   4  -1 -10    6.10    4.10
  -4   1  10   17.20    3.40
  -4   1  10   15.60    2.90
   3  -1 -10   98.59    8.30
   3  -1 -10  112.89   12.40
  -3   1  10  122.69    8.60
  -3   1  10  112.29    8.80
   2  -1 -10  204.28   14.60
   2  -1 -10  246.68   19.60
  -2   1  10  243.08   14.90
  -2   1  10  209.18   14.70
   1  -1 -10   60.49    9.50
   1  -1 -10   70.89    5.50
   1  -1 -10   68.79    7.20
  -1   1  10   72.89    7.10
  -1   1  10   68.69    7.20
  -1   1  10   64.89    5.90
   0  -1 -10   21.70    4.00
   0  -1 -10   20.10    3.10
   0  -1 -10   25.60    5.90
   0   1  10   23.70    4.00
   0   1  10   18.80    3.50
   0   1  10   25.10    3.40
  -1  -1 -10 1098.79   65.49
  -1  -1 -10 1180.18   67.09
   1   1  10 1253.07   65.79
   1   1  10 1177.18   67.09
   1   1  10 1195.18   66.59
   2   1  10   59.59    4.00
   2   1  10   53.59    4.00
   2   1  10   58.39    4.20
   2   1  10   55.99    3.90
   2   1  10   53.19    3.80
   2   1  10   56.49    3.80
   2   1  10   57.69    3.90
   3   1  10  139.19    9.10
   3   1  10  151.38    8.80
   3   1  10  146.49    9.10
   3   1  10  146.69    8.90
   3   1  10  143.69    8.90
   3   1  10  151.88    9.10
   3   1  10  154.28    8.80
   3   1  10  156.28    8.80
   4   1  10  301.77   17.50
   4   1  10  299.57   17.60
   4   1  10  311.77   17.30
   4   1  10  319.07   17.30
   4   1  10  300.57   17.60
   4   1  10  324.97   17.40
   4   1  10  305.57   17.50
   5   1  10   29.00    2.30
   5   1  10   30.80    2.30
   5   1  10   27.20    2.30
   5   1  10   26.70    2.40
   5   1  10   30.70    2.10
   5   1  10   23.10    2.30
   6   1  10   55.39    3.40
   6   1  10   51.29    3.20
   6   1  10   53.49    3.30
   6   1  10   56.29    3.40
   6   1  10   56.09    3.50
   9  -2 -10    6.50    2.00
   9  -2 -10    6.40    3.20
  -9   2  10    5.50    0.80
  -9   2  10    5.50    0.80
   8  -2 -10   36.90    4.60
   8  -2 -10   41.70    6.60
  -8   2  10   41.20    2.80
  -8   2  10   39.00    3.00
   7  -2 -10   29.20    4.50
   7  -2 -10   30.90    6.30
  -7   2  10   29.90    2.60
   6  -2 -10   18.80    4.00
   6  -2 -10   21.50    5.20
   6  -2 -10   18.10    3.60
  -6   2  10   19.10    2.00
  -6   2  10   19.60    2.00
   5  -2 -10   85.39    8.40
   5  -2 -10   91.19    7.70
   5  -2 -10   91.19    9.30
  -5   2  10   82.59    5.50
  -5   2  10   80.39    5.40
  -5   2  10   87.29    5.70
   4  -2 -10  564.84   33.10
   4  -2 -10  476.75   35.80
  -4   2  10  516.65   30.90
  -4   2  10  516.05   31.10
   3  -2 -10    5.70    2.30
   3  -2 -10    4.80    3.40
  -3   2  10    8.10    2.70
  -3   2  10    6.20    2.30
   2  -2 -10   90.79   10.90
   2  -2 -10   81.29    7.60
  -2   2  10  105.39    7.40
  -2   2  10   91.29    7.70
  -2   2  10  103.59    9.10
   1  -2 -10  303.87   23.50
   1  -2 -10  280.37   19.30
   1  -2 -10  273.47   18.00
  -1   2  10  308.07   19.30
  -1   2  10  309.87   19.30
  -1   2  10  325.57   18.60
   0  -2 -10  399.26   24.70
   0  -2 -10  420.26   26.30
   0   2  10  402.76   25.60
   0   2  10  429.86   26.00
   0   2  10  440.76   25.20
   1   2  10  208.08   13.70
   1   2  10  168.08   10.00
   1   2  10  171.78   10.20
   1   2  10  159.98   10.00
   1   2  10  174.28   10.30
   1   2  10  167.88   10.00
   1   2  10  162.68   10.10
   1   2  10  185.08   10.30
   2   2  10  155.08    9.10
   2   2  10  145.79    9.30
   2   2  10  159.78    9.20
   2   2  10  156.38    9.30
   2   2  10  160.08    9.20
   2   2  10  148.99    9.30
   2   2  10  150.28    9.30
   3   2  10    8.50    1.30
   3   2  10    6.20    1.20
   3   2  10    8.30    1.30
   3   2  10    8.40    1.40
   3   2  10    8.80    1.40
   3   2  10    7.40    1.30
   3   2  10    8.80    1.40
   4   2  10   33.50    2.50
   4   2  10   34.70    2.50
   4   2  10   34.10    2.70
   4   2  10   33.00    2.70
   4   2  10   33.10    2.70
   4   2  10   32.70    2.50
   5   2  10   24.40    2.00
   5   2  10   24.50    1.90
   5   2  10   25.90    1.90
   5   2  10   24.90    1.80
   5   2  10   24.20    1.90
   9  -3 -10    4.10    2.40
   9  -3 -10    0.40    1.40
  -9   3  10    1.30    0.60
  -9   3  10    2.40    0.60
   8  -3 -10   30.20    5.80
   8  -3 -10   26.60    3.90
  -8   3  10   31.10    2.40
  -8   3  10   28.70    2.40
  -8   3  10   25.50    2.40
   7  -3 -10  113.79   11.40
   7  -3 -10  122.79    9.60
  -7   3  10  133.19    7.40
  -7   3  10  113.59    7.40
  -7   3  10  119.19    7.50
   6  -3 -10   81.69    8.20
   6  -3 -10   91.29    7.80
   6  -3 -10   88.59    9.40
  -6   3  10   91.19    5.60
  -6   3  10   87.29    5.70
  -6   3  10   84.29    5.80
   5  -3 -10  114.89   10.40
   5  -3 -10  124.39    9.70
  -5   3  10  128.99    7.50
  -5   3  10  119.69    7.60
  -5   3  10  123.19    7.60
   4  -3 -10  275.77   18.10
   4  -3 -10  255.87   19.10
  -4   3  10  353.26   23.80
  -4   3  10  282.27   15.90
  -4   3  10  264.67   16.00
   3  -3 -10  495.75   30.00
   3  -3 -10  501.45   35.40
  -3   3  10  543.95   29.50
  -3   3  10  454.85   29.90
   2  -3 -10    3.20    1.80
   2  -3 -10    8.80    2.70
   2  -3 -10    4.40    3.40
  -2   3  10    8.50    2.60
  -2   3  10    5.70    2.00
   1  -3 -10  186.98   17.40
   1  -3 -10  172.58   13.00
   1  -3 -10  178.68   11.90
  -1   3  10  154.58   12.50
  -1   3  10  182.48   12.20
   0   3  10  436.26   23.30
   0   3  10  392.36   23.40
   0   3  10  403.36   23.50
   0   3  10  438.66   23.40
   0   3  10  402.16   23.40
   0   3  10  422.66   23.60
   0   3  10  449.66   28.50
   1   3  10  182.38   10.80
   1   3  10  216.08   15.70
   1   3  10  175.68   10.80
   1   3  10  175.38   10.90
   1   3  10  185.38   11.00
   1   3  10  181.08   10.70
   1   3  10  169.48   10.70
   2   3  10  122.89    7.40
   2   3  10  121.59    7.40
   2   3  10  113.69    7.40
   2   3  10  119.49    7.30
   2   3  10  120.99    7.60
   2   3  10  116.59    7.50
   3   3  10  247.58   14.30
   3   3  10  252.87   14.40
   3   3  10  248.08   14.30
   3   3  10  265.97   14.40
   3   3  10  245.08   14.40
   3   3  10  255.87   14.60
   3   3  10  250.57   15.00
   4   3  10  111.19    6.80
   4   3  10  113.09    6.90
   4   3  10  118.79    6.70
   4   3  10  110.99    6.60
   4   3  10  107.99    6.60
   5   3  10  396.56   21.90
   5   3  10  404.96   21.80
   5   3  10  401.46   21.80
   9  -4 -10  101.29    7.00
   9  -4 -10  119.59    9.50
  -9   4  10   92.09    5.70
  -9   4  10   84.49    5.70
   8  -4 -10   30.10    4.90
   8  -4 -10   26.60    3.80
  -8   4  10   29.70    2.60
  -8   4  10   28.80    2.40
   7  -4 -10    7.60    3.10
   7  -4 -10    7.60    2.30
  -7   4  10    8.80    1.50
  -7   4  10    9.10    1.40
   6  -4 -10   36.30    4.90
   6  -4 -10   32.20    6.00
   6  -4 -10   30.80    5.10
  -6   4  10   31.00    3.00
  -6   4  10   34.50    2.90
   5  -4 -10  274.07   19.30
   5  -4 -10  261.57   17.90
  -5   4  10  273.67   15.90
  -5   4  10  289.47   15.70
   4  -4 -10   54.59    5.70
  -4   4  10   54.79    4.10
  -4   4  10   68.89    7.10
  -4   4  10   63.29    4.10
  -4   4  10   55.59    4.30
   3  -4 -10  257.67   16.50
  -3   4  10  246.38   14.60
  -3   4  10  249.88   14.30
  -3   4  10  230.08   14.40
  -3   4  10  275.77   19.20
  -2   4  10   98.89    6.40
  -2   4  10  107.29    6.50
  -2   4  10  104.89    6.30
  -2   4  10  109.59    6.70
  -2   4  10  106.59    6.70
  -2   4  10  103.39   10.40
  -2   4  10   99.69    6.50
  -2   4  10   79.99   13.80
  -1   4  10  671.03   37.80
  -1   4  10  684.83   38.00
  -1   4  10  760.22   43.70
  -1   4  10  685.13   37.60
  -1   4  10  673.03   38.00
  -1   4  10  656.63   37.90
  -1   4  10  703.83   37.80
   0   4  10  206.88   12.80
   0   4  10  214.68   13.00
   0   4  10  226.78   12.70
   0   4  10  252.47   18.20
   0   4  10  221.68   13.10
   0   4  10  214.78   12.90
   0   4  10  213.88   12.80
   1   4  10   55.69    4.40
   1   4  10   66.09    4.50
   1   4  10   54.79    4.30
   1   4  10   73.59    8.40
   1   4  10   60.59    4.40
   1   4  10   65.19    4.20
   1   4  10   63.79    4.60
   2   4  10  334.57   19.20
   2   4  10  336.37   19.10
   2   4  10  333.87   19.30
   2   4  10  363.86   19.40
   2   4  10  327.37   19.10
   2   4  10  345.27   19.00
   3   4  10  156.98    9.30
   3   4  10  164.58    9.60
   3   4  10  162.78    9.50
   3   4  10  168.08    9.50
   3   4  10  162.78    9.60
   4   4  10   64.69    4.10
   4   4  10   68.39    4.00
   4   4  10   66.59    4.10
   4   4  10   61.99    4.00
   9  -5 -10   29.00    3.00
   9  -5 -10   38.00    4.60
  -9   5  10   29.40    2.20
  -9   5  10   29.70    2.10
   8  -5 -10   50.19    4.90
   8  -5 -10   52.49    6.40
  -8   5  10   56.59    3.60
  -8   5  10   51.19    3.70
   7  -5 -10  129.09   11.70
   7  -5 -10  130.69   10.00
  -7   5  10  134.79    8.00
  -7   5  10  136.99    8.30
   6  -5 -10  214.28   16.20
   6  -5 -10  233.88   17.70
   6  -5 -10  228.48   15.80
  -6   5  10  231.18   13.30
  -6   5  10  253.27   13.80
   5  -5 -10   97.39    8.50
   5  -5 -10  102.59    9.60
  -5   5  10  106.99    6.40
  -5   5  10  100.69    6.50
  -5   5  10   98.19    6.70
   4  -5 -10   78.49    7.00
  -4   5  10   72.89    4.80
  -4   5  10   74.29    5.40
  -4   5  10   80.39    5.20
  -4   5  10   65.99    8.10
   3  -5 -10   13.10    3.10
  -3   5  10   12.70    4.30
  -3   5  10   13.10    1.90
  -3   5  10   12.50    1.80
  -3   5  10   11.90    1.60
  -3   5  10   13.80    1.90
  -3   5  10    4.90    4.70
  -3   5  10   13.00    1.50
  -2   5  10  577.34   32.40
  -2   5  10  578.24   32.40
  -2   5  10  596.94   32.20
  -2   5  10  573.54   32.20
  -2   5  10  573.94   32.40
  -2   5  10  598.34   38.10
  -2   5  10  589.94   32.00
  -1   5  10    5.20    1.20
  -1   5  10    4.30    1.10
  -1   5  10    6.20    1.30
  -1   5  10    5.40    1.30
  -1   5  10    4.40    2.90
  -1   5  10    3.50    4.60
  -1   5  10    5.10    1.20
   0   5  10 1330.07   75.09
   0   5  10 1303.17   80.69
   0   5  10 1389.56   75.29
   0   5  10 1411.46   75.09
   0   5  10 1443.86   75.09
   0   5  10 1414.06   74.79
   0   5  10 1399.86   75.19
   1   5  10   63.89    4.30
   1   5  10   66.89    8.10
   1   5  10   56.59    4.30
   1   5  10   56.39    4.20
   1   5  10   55.99    4.20
   1   5  10   58.99    4.40
   2   5  10   43.30    3.00
   2   5  10   37.90    3.00
   2   5  10   41.20    3.10
   2   5  10   38.50    3.20
   2   5  10   40.50    3.10
   3   5  10  217.58   12.00
   3   5  10  214.88   12.10
   3   5  10  214.28   12.00
   3   5  10  207.08   12.00
   8  -6 -10   79.09    6.50
   8  -6 -10   87.69    8.10
  -8   6  10   88.09    5.40
   7  -6 -10    0.70    1.50
   7  -6 -10    0.80    1.20
  -7   6  10    0.00    0.70
  -7   6  10   -0.10    0.70
   6  -6 -10   50.59    5.40
   6  -6 -10   49.90    5.80
   6  -6 -10   53.49    6.70
  -6   6  10   48.10    3.50
  -6   6  10   49.70    4.00
  -6   6  10   42.90    3.60
   5  -6 -10   31.10    4.60
  -5   6  10   31.00    3.00
  -5   6  10   24.90    2.70
  -5   6  10   23.30    2.40
   4  -6 -10   32.20    4.80
  -4   6  10   33.00    6.60
  -4   6  10   37.80    3.50
  -4   6  10   33.70    3.00
  -4   6  10   39.40    3.40
   3  -6 -10   10.80    2.80
  -3   6  10   10.60    4.10
  -3   6  10    9.50    1.60
  -3   6  10    9.60    1.60
  -3   6  10    2.50    4.40
  -3   6  10    8.60    1.40
  -3   6  10    7.40    1.50
  -3   6  10    9.70    1.50
  -2   6  10  146.39    8.70
  -2   6  10  147.49    8.80
  -2   6  10  138.69    8.60
  -2   6  10  114.99   13.00
  -2   6  10  143.19    8.80
  -2   6  10  142.09    8.70
  -1   6  10  131.99    9.00
  -1   6  10  139.79    8.90
  -1   6  10  192.58   15.40
  -1   6  10  140.29    8.90
  -1   6  10  140.79    9.00
  -1   6  10  137.99    8.80
   0   6  10   31.50    2.90
   0   6  10   26.50    2.70
   0   6  10   24.50    2.80
   0   6  10   25.90    5.90
   0   6  10   28.10    2.70
   0   6  10   25.70    2.70
   1   6  10  151.58    9.40
   1   6  10  142.49    9.50
   1   6  10  157.78    9.40
   1   6  10  167.98    9.50
   1   6  10  156.68    9.30
   1   6  10  175.88   13.90
   2   6  10  120.89    7.30
   2   6  10  125.29    7.50
   2   6  10  126.29    7.30
   2   6  10  136.09    8.00
   2   6  10  119.59    7.30
   8  -7 -10  188.48   11.90
   8  -7 -10  191.58   13.40
  -8   7  10  187.88   10.90
   7  -7 -10    0.40    1.10
   7  -7 -10    0.30    1.50
  -7   7  10    0.50    0.70
  -7   7  10    0.50    0.80
   6  -7 -10   87.79    8.30
   6  -7 -10  112.19    8.40
   6  -7 -10  101.69    9.40
  -6   7  10   89.49    6.30
  -6   7  10  102.29    6.50
   5  -7 -10   10.60    2.70
  -5   7  10    9.00    1.60
  -5   7  10    9.80    1.70
   4  -7 -10    4.00    1.90
  -4   7  10   -0.50    3.20
  -4   7  10    3.50    1.10
  -4   7  10    4.50    1.30
  -4   7  10    4.00    2.90
  -4   7  10    4.10    1.10
   3  -7 -10  241.98   15.90
  -3   7  10  230.18   13.80
  -3   7  10  203.28   18.40
  -3   7  10  239.78   13.70
  -3   7  10  241.68   14.00
  -3   7  10  269.27   14.10
  -3   7  10  222.18   13.70
  -2   7  10  160.48   10.20
  -2   7  10  166.68   10.10
  -2   7  10  160.18    9.90
  -2   7  10  165.78   10.00
  -2   7  10  170.28   15.40
  -2   7  10  168.18    9.90
  -1   7  10  628.94   34.00
  -1   7  10  620.04   34.10
  -1   7  10  548.45   34.30
  -1   7  10  611.54   34.10
  -1   7  10  624.94   34.20
  -1   7  10  688.03   41.00
   0   7  10    6.70    1.20
   0   7  10    7.30    1.40
   0   7  10    7.30    1.30
   0   7  10    8.70    1.30
   0   7  10   10.30    1.30
   0   7  10    1.90    3.60
   0   7  10   10.70    3.80
   1   7  10   40.20    5.50
   1   7  10   46.90    3.40
   1   7  10   49.60    3.10
   1   7  10   45.50    3.20
   1   7  10   48.10    3.10
   7  -8 -10   69.09    5.50
   7  -8 -10   70.09    6.40
  -7   8  10   64.59    4.40
  -7   8  10   72.09    4.50
   6  -8 -10  134.79    9.40
   6  -8 -10  122.99    9.60
  -6   8  10  123.59    7.80
  -6   8  10  133.39    7.90
   5  -8 -10  218.28   13.70
  -5   8  10  193.28   11.50
  -5   8  10  205.28   11.80
  -5   8  10  183.28   11.80
   4  -8 -10  130.79    9.20
  -4   8  10   86.59   10.10
  -4   8  10  126.39    7.30
  -4   8  10  123.19    7.50
  -4   8  10  116.19    7.20
   3  -8 -10   77.29    6.70
  -3   8  10   79.89    5.10
  -3   8  10   81.89    5.20
  -3   8  10   66.69    5.10
  -3   8  10   79.79    5.30
  -3   8  10   82.79    5.40
  -3   8  10   77.69    9.10
  -2   8  10  175.68    9.80
  -2   8  10  158.58    9.70
  -2   8  10  166.68    9.70
  -2   8  10  135.59   13.60
  -2   8  10  179.08    9.60
  -2   8  10  158.98    9.90
  -1   8  10  101.89    6.30
  -1   8  10   97.29    6.00
  -1   8  10   95.49    5.90
  -1   8  10   99.29    6.00
  -1   8  10   80.69    9.30
   0   8  10   28.90    2.20
   0   8  10   27.40    5.00
   0   8  10   30.80    2.50
   0   8  10   29.70    2.20
   0   8  10   34.60    2.40
   6  -9 -10   24.20    3.00
   6  -9 -10   26.70    3.00
  -6   9  10   27.70    2.10
  -6   9  10   24.00    2.20
   5  -9 -10   49.10    4.50
   5  -9 -10   47.00    4.90
  -5   9  10   53.29    3.40
  -5   9  10   51.99    3.40
  -5   9  10   46.10    3.50
  -4   9  10  101.59    8.80
   3  -9 -10   38.00    3.60
  -3   9  10   37.20    2.80
  -3   9  10   26.80    5.40
  -3   9  10   37.00    2.70
  -3   9  10   39.30    2.80
  -3   9  10   37.40    2.70
  -2   9  10  262.77   14.90
  -2   9  10  277.87   15.10
  -2   9  10  259.17   14.90
  -2   9  10  264.97   14.90
  -1   9  10  127.29    7.20
  -1   9  10  122.89    7.10
  -1   9  10  123.89    7.30
   0  10 -11   63.19    4.50
   0  10 -11   68.39    7.30
   0 -10  11   65.59    5.00
   0 -10  11   68.19    4.00
  -1  10 -11   72.59    4.70
  -1  10 -11   59.49    7.20
   1 -10  11   63.39    5.10
   1 -10  11   65.89    4.00
  -2  10 -11   -0.10    0.60
  -2  10 -11   -0.50    0.70
   2 -10  11   -0.40    0.50
   2 -10  11   -0.30    0.80
  -3  10 -11   68.29    4.70
  -3  10 -11   64.79    4.30
   3 -10  11   66.09    5.20
   3 -10  11   72.99    4.20
  -4  10 -11    9.10    1.20
  -4  10 -11    9.80    1.40
   4 -10  11    9.80    1.70
   4 -10  11    9.70    1.00
   2   9 -11    6.30    2.70
   2   9 -11    5.20    2.40
   2   9 -11   -2.60    4.70
  -2  -9  11    5.50    0.80
   1   9 -11   -6.20    5.40
   1   9 -11    5.30    2.80
   1   9 -11    5.80    3.10
   1   9 -11    6.20    1.30
  -1  -9  11    5.30    0.90
   0   9 -11    6.90    1.40
   0   9 -11    8.20    3.70
   0  -9  11    8.00    2.00
   0  -9  11    8.20    1.10
  -1   9 -11   21.00    5.40
  -1   9 -11   23.90    2.80
   1  -9  11   26.70    3.50
   1  -9  11   24.30    2.20
  -2   9 -11   52.19    4.10
  -2   9 -11   48.20    3.50
   2  -9  11   43.00    4.50
   2  -9  11   44.00    3.30
  -3   9 -11   38.60    3.40
  -3   9 -11   36.90    3.00
   3  -9  11   39.00    4.00
   3  -9  11   40.90    3.00
  -4   9 -11   61.59    4.40
  -4   9 -11   59.99    4.20
   4  -9  11   63.49    5.20
   4  -9  11   61.99    4.00
  -5   9 -11    0.00    0.60
  -5   9 -11   -0.80    0.50
   5  -9  11    0.10    0.50
   5  -9  11   -0.40    0.80
   3   8 -11   19.60    4.50
   3   8 -11   20.70    5.00
   3   8 -11   22.60    3.10
   3   8 -11   22.80    3.40
   3   8 -11   24.00    4.60
   3   8 -11   23.10    4.30
  -3  -8  11   23.80    1.80
   2   8 -11   15.90    3.20
   2   8 -11   20.00    3.40
   2   8 -11   18.60    5.10
   2   8 -11   18.70    4.50
   2   8 -11   18.90    5.40
  -2  -8  11   21.20    1.90
   1   8 -11    1.80    2.30
   1   8 -11   -3.10    4.10
   1   8 -11    2.60    3.00
   1   8 -11    2.00    1.10
   1   8 -11    2.40    3.10
  -1  -8  11    2.30    0.80
   0   8 -11  168.58   17.40
   0   8 -11  247.78   13.20
   0  -8  11  219.98   12.30
  -1   8 -11  196.68   12.50
  -1   8 -11  248.28   13.40
  -1   8 -11  220.08   18.40
   1  -8  11  212.18   12.50
   1  -8  11  210.38   14.10
  -2   8 -11   79.09    5.40
  -2   8 -11   87.59    5.90
   2  -8  11   81.79    5.30
   2  -8  11   70.99    6.70
  -3   8 -11   25.20    2.80
  -3   8 -11   24.10    2.50
   3  -8  11   22.50    3.50
   3  -8  11   25.30    2.40
  -4   8 -11    4.40    0.90
  -4   8 -11    5.30    1.20
  -4   8 -11    4.50    1.20
   4  -8  11    5.60    1.20
   4  -8  11    4.70    1.70
  -5   8 -11  128.69    7.50
  -5   8 -11  126.49    7.70
   5  -8  11  133.49    7.60
   5  -8  11  120.59    8.70
  -6   8 -11    0.30    0.60
  -6   8 -11    0.00    0.50
   6  -8  11   -0.70    0.40
   6  -8  11    0.50    0.80
   4   7 -11  134.79    8.00
   4   7 -11  126.29   10.50
   4   7 -11  145.59   13.20
   4   7 -11  125.59   11.20
   4   7 -11  151.58   10.60
   4   7 -11  151.08    9.40
   3   7 -11   22.10    6.40
   3   7 -11   21.40    2.00
   3   7 -11   22.20    5.30
   3   7 -11   17.80    3.00
   3   7 -11   20.50    4.10
   3   7 -11   21.00    6.60
   3   7 -11   16.30    3.90
  -3  -7  11   15.80    1.70
   2   7 -11   78.49    6.90
   2   7 -11   77.59    9.80
   2   7 -11   82.69    8.30
   2   7 -11   87.69    8.30
   2   7 -11   69.59   12.40
  -2  -7  11   70.29    5.00
   1   7 -11   22.90    3.90
   1   7 -11   23.60    6.00
   1   7 -11   22.00    2.70
   1   7 -11   21.60    7.00
  -1  -7  11   23.60    2.30
  -1  -7  11   20.90    2.20
   0   7 -11   16.00    4.00
   0   7 -11   18.90    5.10
   0   7 -11   18.30    2.50
   0  -7  11   17.10    2.00
   0  -7  11   16.70    2.10
  -1   7 -11  122.99    8.60
  -1   7 -11  133.19   12.80
  -1   7 -11  129.29    8.00
   1  -7  11  138.39    8.00
   1  -7  11  131.59    8.80
   1  -7  11  123.69    9.50
  -2   7 -11   79.29    5.80
  -2   7 -11   80.99    5.40
   2  -7  11   78.09    6.90
   2  -7  11   86.99    6.20
   2  -7  11   74.49    5.30
  -3   7 -11  174.38   10.20
  -3   7 -11  167.58   10.50
   3  -7  11  170.48   10.20
   3  -7  11  163.88   11.80
   3  -7  11  166.98   10.20
  -4   7 -11   94.89    6.40
  -4   7 -11  123.59    7.00
  -4   7 -11  114.59    7.00
   4  -7  11  104.79    8.20
   4  -7  11  101.89    6.80
   4  -7  11  106.89    6.70
  -5   7 -11   50.09    3.60
  -5   7 -11   49.50    3.40
   5  -7  11   46.60    4.50
   5  -7  11   52.49    3.60
   5  -7  11   48.50    3.90
  -6   7 -11  122.69    6.80
  -6   7 -11  121.29    6.90
   6  -7  11  129.59    6.90
   6  -7  11   93.69    7.50
   5   6 -11    3.80    1.90
   5   6 -11    4.50    1.50
   5   6 -11    6.40    0.90
   5   6 -11    6.10    3.90
   5   6 -11    3.70    2.20
   5   6 -11    3.70    2.50
  -5  -6  11    4.10    0.80
   4   6 -11   95.69    5.80
   4   6 -11   81.79   11.40
   4   6 -11  112.49   10.60
   4   6 -11   91.19    8.90
   4   6 -11   81.59    9.10
   4   6 -11  101.79   13.80
   4   6 -11   92.79    7.30
  -4  -6  11   91.99    5.80
   3   6 -11   34.90    4.80
   3   6 -11   48.00    7.90
   3   6 -11   48.20   11.90
   3   6 -11   46.50    3.50
   3   6 -11   53.09    6.10
   3   6 -11   60.99   10.70
   3   6 -11   53.89    8.00
  -3  -6  11   51.09    3.60
   2   6 -11  120.59   12.10
   2   6 -11  116.19    9.00
   2   6 -11  123.49    7.10
   2   6 -11  120.89   11.20
   2   6 -11   80.89   12.00
   2   6 -11  110.29    7.40
  -2  -6  11  110.79    7.10
   1   6 -11  796.52   43.70
   1   6 -11  782.42   47.40
   1   6 -11  778.72   41.80
   1   6 -11  628.34   48.30
  -1  -6  11  771.22   41.40
   0   6 -11    8.10    3.10
   0   6 -11    8.00    1.70
   0   6 -11    9.20    3.50
   0  -6  11   10.40    1.60
   0  -6  11    8.40    1.40
  -1   6 -11  140.19   12.40
  -1   6 -11  141.29    8.50
  -1   6 -11  143.69    9.30
   1  -6  11  136.19   10.10
   1  -6  11  143.09    8.60
   1  -6  11  134.19    8.60
  -2   6 -11   52.19    4.20
  -2   6 -11   51.09    3.70
   2  -6  11   44.90    5.10
   2  -6  11   47.80    3.70
   2  -6  11   49.70    3.80
  -3   6 -11    0.60    0.60
  -3   6 -11    1.20    1.00
  -3   6 -11    0.60    0.70
   3  -6  11    0.30    1.40
   3  -6  11    0.70    0.90
   3  -6  11    1.80    1.00
  -4   6 -11  140.09    8.50
  -4   6 -11  154.48    9.00
  -4   6 -11  147.09    8.80
   4  -6  11  128.89    8.80
   4  -6  11  151.48    8.90
   4  -6  11  136.39   10.20
  -5   6 -11   19.60    2.10
  -5   6 -11   17.20    1.90
   5  -6  11   21.40    3.10
   5  -6  11   21.40    2.20
   5  -6  11   23.10    2.30
  -6   6 -11  217.18   12.50
  -6   6 -11  209.68   12.50
   6  -6  11  236.28   12.70
   6  -6  11  224.48   12.50
  -7   6 -11   25.90    1.80
   7  -6  11   22.90    1.70
   6   5 -11   36.40    2.30
   6   5 -11   35.20    4.20
   6   5 -11   24.30    6.70
   6   5 -11   35.40    5.50
   6   5 -11   37.60    3.30
   6   5 -11   34.40    5.10
  -6  -5  11   36.40    2.50
   5   5 -11   86.09    8.90
   5   5 -11  109.39   11.90
   5   5 -11   93.19    9.40
   5   5 -11   89.99    7.10
   5   5 -11  101.69    5.70
   5   5 -11   78.19   14.90
   4   5 -11   31.70    2.50
   4   5 -11   32.90    6.10
   4   5 -11   21.90    5.70
   4   5 -11   26.00    4.00
   4   5 -11   39.10    5.40
   4   5 -11   33.80    7.90
   4   5 -11   30.90   10.50
   3   5 -11    2.50    3.20
   3   5 -11    3.90    1.90
   3   5 -11    4.70    2.80
   3   5 -11    3.60    0.90
   3   5 -11    3.60    3.50
   2   5 -11    7.80    2.10
   2   5 -11    7.60    4.00
   2   5 -11    6.30    5.00
   2   5 -11    6.10    1.20
   2   5 -11    8.90    3.20
   2   5 -11    8.40    1.60
  -2  -5  11    6.70    1.40
   1   5 -11    1.10    2.00
   1   5 -11    1.50    0.70
   1   5 -11    0.70    1.50
   1   5 -11    0.10    0.90
   1   5 -11    0.70    2.60
  -1  -5  11   -1.00    0.60
   0   5 -11   81.69    5.70
   0   5 -11   90.19    8.90
   0   5 -11   83.99    8.70
   0  -5  11   68.09    5.10
   0  -5  11   70.59    5.20
  -1   5 -11  113.99    7.60
  -1   5 -11  122.79   10.70
  -1   5 -11  122.19    7.20
   1  -5  11  107.89    7.20
   1  -5  11  107.39    7.10
  -2   5 -11  194.98   12.10
  -2   5 -11  209.48   11.80
   2  -5  11  196.38   11.80
   2  -5  11  196.28   11.90
  -3   5 -11  477.45   27.10
  -3   5 -11  483.55   26.80
   3  -5  11  469.15   27.00
   3  -5  11  505.65   27.00
   3  -5  11  470.65   26.40
  -4   5 -11   46.70    3.60
   4  -5  11   46.10    3.30
   4  -5  11   48.50    3.80
   4  -5  11   50.59    3.80
  -5   5 -11   23.50    2.30
   5  -5  11   22.80    2.00
   5  -5  11   24.80    2.50
   5  -5  11   23.30    2.50
  -6   5 -11   59.99    4.10
  -6   5 -11   61.79    4.20
   6  -5  11   69.59    4.30
   6  -5  11   66.99    4.30
   6  -5  11   65.99    4.10
  -7   5 -11    0.80    0.40
  -7   5 -11    0.40    0.40
   7  -5  11   -0.20    0.40
   7  -5  11    0.10    0.40
   6   4 -11    9.50    3.20
   6   4 -11    8.80    5.60
   6   4 -11   10.10    1.10
   6   4 -11   10.20    3.50
   6   4 -11   10.60    4.00
   6   4 -11   10.30    1.30
   6   4 -11    9.60    2.40
   5   4 -11   16.90    8.30
   5   4 -11   44.30    6.30
   5   4 -11   37.80    5.30
   5   4 -11   43.40    7.60
   5   4 -11   43.90    3.10
   5   4 -11   36.40    2.80
   5   4 -11   42.80    8.30
  -5  -4  11   40.50    2.90
   4   4 -11    0.70    0.60
   4   4 -11    1.70    0.80
   4   4 -11    7.40    3.80
   4   4 -11    2.50    1.90
   4   4 -11    3.10    2.30
   4   4 -11    2.20    5.20
   4   4 -11    1.20    2.50
  -4  -4  11    1.40    0.80
   3   4 -11    8.50    2.50
   3   4 -11    8.00    3.50
   3   4 -11   10.90    3.90
   3   4 -11   12.70    3.80
   3   4 -11   10.90    1.40
   3   4 -11   11.30    1.60
  -3  -4  11   10.60    1.40
   2   4 -11   10.70    3.30
   2   4 -11   11.30    3.90
   2   4 -11   10.70    2.20
   2   4 -11   10.40    1.40
  -2  -4  11   10.50    1.60
   1   4 -11    0.30    0.60
   1   4 -11    1.20    2.10
   1   4 -11    1.40    1.00
   1   4 -11    0.90    1.70
  -1  -4  11    1.70    0.80
   0   4 -11   26.80    4.90
   0   4 -11   31.00    3.10
   0  -4  11   25.30    2.60
   0  -4  11   29.30    4.50
   0  -4  11   25.60    2.50
  -1   4 -11    7.60    2.80
  -1   4 -11    7.50    1.60
  -1   4 -11   10.20    2.80
  -1   4 -11    5.00    1.20
   1  -4  11    8.30    1.40
   1  -4  11    6.70    1.30
  -2   4 -11    1.30    0.90
   2  -4  11    1.20    0.90
   2  -4  11    1.00    0.80
   2  -4  11    0.70    0.80
  -3   4 -11   39.70    3.40
   3  -4  11   37.70    2.70
   3  -4  11   39.70    3.10
   3  -4  11   43.30    3.60
   3  -4  11   40.80    3.40
  -4   4 -11  335.97   17.60
   4  -4  11  308.87   17.80
   4  -4  11  317.77   17.40
   4  -4  11  314.97   17.10
   4  -4  11  272.87   17.10
   4  -4  11  301.37   17.60
  -5   4 -11  206.98   12.00
   5  -4  11  216.48   12.00
   5  -4  11  225.28   11.80
   5  -4  11  203.08   12.30
   5  -4  11  210.88   12.20
   5  -4  11  185.88   11.80
  -6   4 -11   52.49    3.70
   6  -4  11   60.19    3.80
   6  -4  11   57.59    3.70
   6  -4  11   56.09    3.80
   6  -4  11   54.19    3.70
   6  -4  11   64.69    4.00
  -7   4 -11    3.90    0.60
   7  -4  11    3.60    0.70
   7  -4  11    4.30    0.60
   7  -4  11    3.50    0.60
   7  -4  11    4.10    0.70
   7   3 -11   73.79    7.10
   7   3 -11   85.59    7.80
   7   3 -11   71.69    4.50
   7   3 -11   77.89   10.90
   7   3 -11   83.99    4.80
  -7  -3  11   77.09    4.70
   6   3 -11  165.38   20.10
   6   3 -11  215.78   17.50
   6   3 -11  194.88   11.50
   6   3 -11  205.78   16.50
   6   3 -11  213.78   11.70
   6   3 -11  241.68   16.80
   6   3 -11  181.38   13.40
  -6  -3  11  199.88   11.60
   5   3 -11    3.70    3.00
   5   3 -11    4.30    5.40
   5   3 -11    6.00    3.20
   5   3 -11    4.20    2.50
   5   3 -11    4.80    1.00
   5   3 -11    4.60    1.00
  -5  -3  11    6.10    1.10
   4   3 -11   52.59    3.90
   4   3 -11   53.59   16.90
   4   3 -11   62.49    4.20
   4   3 -11   61.69    8.10
   4   3 -11   65.59    7.40
   4   3 -11   57.69    8.30
  -4  -3  11   59.49    4.10
   3   3 -11   92.49    9.20
   3   3 -11  102.09    9.60
   3   3 -11  106.49   10.30
   3   3 -11   90.69    6.10
   3   3 -11   89.99    5.80
  -3  -3  11   94.39    6.00
   2   3 -11   87.09    9.10
   2   3 -11   86.39    8.90
   2   3 -11   94.59    9.00
  -2  -3  11   91.49   10.10
  -2  -3  11   90.99    6.00
  -2  -3  11   91.49    5.80
   1   3 -11   -1.70    1.30
   1   3 -11    1.20    3.20
  -1  -3  11    0.90    1.70
  -1  -3  11    2.10    1.50
   0   3 -11   10.90    3.10
   0  -3  11   12.00    3.00
   0  -3  11    9.00    2.70
  -1   3 -11  233.78   16.70
  -1   3 -11  221.08   15.10
   1  -3  11  276.67   17.30
   1  -3  11  261.97   17.20
  -2   3 -11  869.81   46.80
   2  -3  11  834.22   46.10
   2  -3  11  836.22   46.20
   2  -3  11  851.91   46.90
   2  -3  11  854.61   46.60
   2  -3  11  872.01   46.60
  -3   3 -11   33.80    3.10
   3  -3  11   27.40    3.00
   3  -3  11   27.00    2.20
   3  -3  11   31.20    2.20
   3  -3  11   27.20    2.80
   3  -3  11   24.30    2.70
   4  -3  11   83.19    6.00
   4  -3  11   94.29    5.60
   4  -3  11   94.29    5.70
   4  -3  11   92.79    5.70
   4  -3  11   93.39    5.70
   4  -3  11   95.09    6.10
   4  -3  11   93.79    6.30
  -5   3 -11  317.47   17.40
   5  -3  11  331.37   17.80
   5  -3  11  307.87   17.50
   5  -3  11  291.67   17.40
   5  -3  11  326.57   17.30
   5  -3  11  291.87   17.20
   5  -3  11  320.27   17.10
   5  -3  11  287.27   17.20
   6  -3  11   28.60    2.10
   6  -3  11   27.10    2.10
   6  -3  11   27.10    2.50
   6  -3  11   24.20    2.20
   6  -3  11   24.60    2.00
   6  -3  11   25.30    1.90
   6  -3  11   25.60    2.00
  -7   3 -11   91.19    5.60
   7  -3  11  104.29    5.80
   7  -3  11   86.59    5.80
   7  -3  11  104.79    5.60
   7  -3  11   99.59    5.60
   7  -3  11  101.69    5.70
   7   2 -11   81.69    8.80
   7   2 -11   95.99    5.60
   7   2 -11   95.39    5.70
   7   2 -11  112.19    9.60
   7   2 -11   85.29   12.50
  -7  -2  11   98.99    5.80
   6   2 -11  147.99    8.70
   6   2 -11  156.38   18.00
   6   2 -11  171.58   13.90
   6   2 -11  127.19    8.40
   6   2 -11  157.28   12.90
  -6  -2  11  131.19    8.60
   5   2 -11  106.39   15.30
   5   2 -11  128.09    7.80
   5   2 -11  130.79    8.00
   5   2 -11  159.18   13.00
   5   2 -11  130.59   11.40
  -5  -2  11  134.69    8.10
   4   2 -11  493.55   30.20
   4   2 -11  443.06   25.90
   4   2 -11  485.05   29.70
   4   2 -11  460.05   26.20
   4   2 -11  490.35   31.00
  -4  -2  11  466.55   26.20
   3   2 -11    1.20    0.60
   3   2 -11    1.10    0.70
   3   2 -11    2.10    1.90
   3   2 -11    0.80    1.60
   3   2 -11    0.70    1.60
  -3  -2  11   -2.30    2.80
  -3  -2  11    1.00    0.70
   2   2 -11 1351.56   79.09
   2   2 -11 1229.88   73.39
  -2  -2  11 1330.47   73.29
  -2  -2  11 1330.77   73.49
   1   2 -11   59.29    7.00
   1   2 -11   66.59    9.90
  -1  -2  11   69.29    7.10
  -1  -2  11   66.89    7.00
   0   2 -11   63.99    6.00
   0   2 -11   72.99    7.70
   0  -2  11   78.79    7.10
   0  -2  11   87.59    8.40
  -1   2 -11  155.28   10.80
  -1   2 -11  159.48   12.20
   1  -2  11  167.38   12.30
   1  -2  11  181.08   13.00
   2  -2  11    4.50    0.80
   2  -2  11    5.60    0.90
   2  -2  11    6.00    3.20
   2  -2  11    4.00    1.20
   2  -2  11    6.00    1.20
   2  -2  11    3.80    0.90
   2  -2  11    6.00    1.00
  -3   2 -11  504.15   26.90
   3  -2  11  462.75   26.30
   3  -2  11  475.55   27.00
   3  -2  11  496.15   26.80
   3  -2  11  465.75   26.70
   3  -2  11  481.75   26.40
   3  -2  11  483.45   26.40
   3  -2  11  456.95   26.30
   3  -2  11  491.35   26.30
   4  -2  11  119.69    7.50
   4  -2  11  116.29    6.90
   4  -2  11  116.29    7.00
   4  -2  11  110.29    6.90
   4  -2  11  118.99    7.20
   4  -2  11  108.99    6.90
   4  -2  11  113.49    6.90
   4  -2  11  114.49    7.30
   5  -2  11  231.38   13.30
   5  -2  11  249.18   12.80
   5  -2  11  214.98   12.90
   5  -2  11  239.98   12.90
   5  -2  11  218.18   13.00
   5  -2  11  202.88   12.80
   5  -2  11  229.18   12.80
   6  -2  11  188.88   10.10
   6  -2  11  173.48    9.90
   6  -2  11  163.68   10.00
   6  -2  11  184.88    9.90
   6  -2  11  182.68   10.20
   6  -2  11  193.88   10.10
   6  -2  11  147.49    9.80
   8   1 -11   68.99    4.40
   8   1 -11   78.19   10.10
   8   1 -11   79.99    7.00
  -8  -1  11   74.39    4.50
   7   1 -11  228.18   15.80
   7   1 -11  200.78   11.80
   7   1 -11  182.38   19.30
  -7  -1  11  216.88   12.00
   6   1 -11   55.89   11.20
   6   1 -11   53.09    6.80
   6   1 -11   51.89    6.90
   6   1 -11   49.60    3.60
  -6  -1  11   49.99    3.70
  -6  -1  11   47.90    3.30
   5   1 -11   63.59    6.70
   5   1 -11   64.69    7.50
   5   1 -11   62.49    9.70
   5   1 -11   56.19    4.10
  -5  -1  11   58.59    4.20
  -5  -1  11   60.99    3.90
   4   1 -11   47.80    5.40
   4   1 -11   39.20    3.20
   4   1 -11   44.80    5.70
   4   1 -11   51.09    6.20
  -4  -1  11   46.00    3.40
  -4  -1  11   47.00    3.10
   3   1 -11  443.96   33.10
  -3  -1  11  452.05   28.00
  -3  -1  11  475.55   25.90
   2   1 -11  233.68   20.10
   2   1 -11  216.58   15.80
  -2  -1  11  226.38   16.10
  -2  -1  11  301.37   16.40
   1   1 -11   96.39   10.80
   1   1 -11   80.09    7.60
  -1  -1  11  100.49    7.50
  -1  -1  11   93.79    7.90
   0   1 -11  806.72   47.90
   0   1 -11  841.92   46.30
   0  -1  11  785.82   48.00
   0  -1  11  876.11   47.20
  -1   1 -11  652.73   39.70
  -1   1 -11  740.43   41.60
   1  -1  11  755.12   40.80
   1  -1  11  664.63   41.60
   2  -1  11  191.88   10.90
   2  -1  11  175.48   10.70
   2  -1  11  188.68   10.80
   2  -1  11  185.58   10.70
   2  -1  11  189.78   11.20
   2  -1  11  191.18   10.80
   2  -1  11  181.28   10.80
   2  -1  11  196.68   11.40
   3  -1  11   81.39    5.60
   3  -1  11   75.39    5.10
   3  -1  11   86.89    5.60
   3  -1  11   81.99    5.10
   3  -1  11   79.09    5.10
   3  -1  11   77.99    5.00
   3  -1  11   82.49    5.10
   3  -1  11   76.29    5.20
   4  -1  11  181.78   10.80
   4  -1  11  184.58   10.70
   4  -1  11  177.48   10.40
   4  -1  11  177.88   10.30
   4  -1  11  182.48   10.30
   4  -1  11  164.98   10.40
   4  -1  11  172.68   10.30
   5  -1  11   54.49    3.60
   5  -1  11   61.09    3.80
   5  -1  11   55.19    3.80
   5  -1  11   56.29    3.70
   5  -1  11   54.49    4.00
   5  -1  11   58.49    3.70
   5  -1  11   59.09    4.10
   6  -1  11   27.50    2.20
   6  -1  11   31.00    2.10
   6  -1  11   29.80    2.20
   6  -1  11   30.90    2.30
   6  -1  11   30.80    2.30
   8   0 -11   56.79    5.70
   8   0 -11   47.10    9.00
   8   0 -11   48.20    3.10
  -8   0  11   45.60    3.00
  -8   0  11   45.90    3.30
   7   0 -11  115.89   13.00
   7   0 -11  111.39    9.20
   7   0 -11   94.99    6.20
   7   0 -11  133.89   14.20
  -7   0  11   87.19    6.00
  -7   0  11  100.99    6.50
   6   0 -11  130.49    8.40
   6   0 -11  137.59   11.20
   6   0 -11  161.18   15.20
   6   0 -11  137.59   11.90
  -6   0  11  154.78    8.80
  -6   0  11  136.29    8.30
   5   0 -11  195.58   14.50
   5   0 -11  171.48   16.90
   5   0 -11  180.98   13.20
   5   0 -11  167.78   10.50
  -5   0  11  185.48   10.40
  -5   0  11  186.58   10.80
   4   0 -11    0.40    1.30
   4   0 -11    8.70    1.20
   4   0 -11    0.40    1.50
   4   0 -11    0.20    1.40
  -4   0  11    0.10    0.60
  -4   0  11    1.40    0.80
   3   0 -11  177.68   17.30
   3   0 -11  182.98   13.20
  -3   0  11  216.18   13.20
  -3   0  11  198.88   13.80
   2   0 -11    1.00    2.40
   2   0 -11    1.00    1.40
  -2   0  11    3.90    1.90
  -2   0  11   -0.40    1.40
   1   0 -11    3.20    2.60
   1   0 -11    2.80    1.90
  -1   0  11   10.20    2.80
  -1   0  11    6.90    2.20
   0   0 -11  307.27   20.20
   0   0 -11  310.47   18.80
   0   0  11  319.27   19.80
   0   0  11  286.07   20.20
   0   0  11  344.37   20.00
  -1   0 -11  145.79    9.80
  -1   0 -11  141.79   10.10
  -1   0 -11  135.59    9.00
  -1   0 -11  120.39    9.20
  -1   0 -11  142.39   10.70
   1   0  11  115.59    8.50
   1   0  11  146.49   10.40
   1   0  11  121.59    8.10
   1   0  11  131.39    8.50
   1   0  11  127.59    8.20
   1   0  11  132.29   10.80
   2   0  11  269.37   15.60
   2   0  11  285.57   15.60
   2   0  11  278.07   15.70
   2   0  11  297.27   15.80
   2   0  11  270.37   15.80
   2   0  11  289.17   16.10
   2   0  11  262.87   16.00
   2   0  11  268.47   15.70
   3   0  11   74.79    5.20
   3   0  11   82.29    5.20
   3   0  11   82.59    5.10
   3   0  11   76.49    5.10
   3   0  11   76.09    5.40
   3   0  11   75.49    5.50
   3   0  11   80.89    5.10
   3   0  11   86.49    5.10
   4   0  11  314.47   17.70
   4   0  11  314.27   17.60
   4   0  11  305.27   17.30
   4   0  11  324.47   17.50
   4   0  11  291.57   17.60
   4   0  11  321.47   17.40
   4   0  11  302.07   17.30
   5   0  11  223.88   13.30
   5   0  11  262.97   13.70
   5   0  11  245.98   13.70
   5   0  11  252.07   13.50
   5   0  11  232.88   13.60
   5   0  11  232.78   13.70
   5   0  11  235.58   13.40
   6   0  11   11.40    1.20
   6   0  11   14.70    1.20
   6   0  11   13.10    1.10
   6   0  11   12.70    1.20
   6   0  11   11.10    1.20
   6   0  11   12.20    1.20
   8  -1 -11   81.59    9.80
   8  -1 -11   68.89    6.60
  -8   1  11   71.49    4.60
  -8   1  11   66.89    4.30
   7  -1 -11   27.20    5.50
   7  -1 -11   28.70    4.40
   7  -1 -11   24.60    6.10
  -7   1  11   25.80    2.30
  -7   1  11   27.30    2.60
   6  -1 -11   57.69    6.20
   6  -1 -11   60.29    8.20
   6  -1 -11   59.19    6.70
  -6   1  11   57.39    4.20
  -6   1  11   60.39    4.00
   5  -1 -11    1.30    1.60
   5  -1 -11    0.80    1.50
  -5   1  11    1.90    0.70
  -5   1  11    1.60    0.90
   4  -1 -11  167.08   12.90
   4  -1 -11  186.28   12.60
   4  -1 -11  168.58   13.60
  -4   1  11  171.88   10.20
  -4   1  11  185.38   10.50
   3  -1 -11  559.84   34.80
   3  -1 -11  586.24   40.30
  -3   1  11  570.94   35.40
  -3   1  11  667.73   35.20
   2  -1 -11    6.00    2.10
   2  -1 -11    7.00    3.90
  -2   1  11    4.50    2.10
  -2   1  11    8.70    2.50
   1  -1 -11  448.06   26.00
   1  -1 -11  403.06   27.20
   1  -1 -11  477.75   32.20
  -1   1  11  431.86   27.50
  -1   1  11  482.15   27.70
  -1   1  11  452.65   27.20
   0  -1 -11   30.30    3.90
   0  -1 -11   23.90    4.40
   0   1  11   25.30    4.80
   0   1  11   32.10    4.70
   0   1  11   36.10    4.40
   1   1  11  542.75   28.80
   1   1  11  521.05   28.70
   1   1  11  528.25   29.10
   1   1  11  507.15   28.70
   1   1  11  530.45   28.80
   1   1  11  486.75   28.80
   1   1  11  502.25   28.90
   1   1  11  561.74   32.00
   2   1  11   67.39    4.70
   2   1  11   62.99    4.40
   2   1  11   64.99    4.40
   2   1  11   64.09    4.30
   2   1  11   67.89    4.60
   2   1  11   65.99    4.30
   2   1  11   61.19    4.40
   3   1  11   67.99    4.50
   3   1  11   67.59    4.40
   3   1  11   66.09    5.30
   3   1  11   68.69    4.40
   3   1  11   65.99    4.70
   3   1  11   64.39    4.60
   3   1  11   67.99    4.50
   3   1  11   63.49    4.40
   4   1  11  190.28   11.00
   4   1  11  186.88   10.70
   4   1  11  188.98   10.80
   4   1  11  181.58   11.00
   4   1  11  183.38   10.70
   4   1  11  187.28   10.70
   4   1  11  187.38   10.90
   5   1  11    4.90    0.90
   5   1  11    5.10    0.80
   5   1  11    5.90    0.90
   5   1  11    5.70    0.90
   5   1  11    5.80    1.00
   9  -2 -11    1.00    2.10
  -9   2  11    0.50    0.40
   8  -2 -11   69.99    6.30
   8  -2 -11   79.89    8.90
  -8   2  11   67.39    4.60
  -8   2  11   66.89    4.40
   7  -2 -11   52.29    5.60
   7  -2 -11   47.50    6.10
   7  -2 -11   52.19    7.30
  -7   2  11   48.60    3.70
  -7   2  11   51.69    3.50
   6  -2 -11   50.19    5.50
   6  -2 -11   45.00    5.80
   6  -2 -11   53.49    7.10
  -6   2  11   50.99    3.50
  -6   2  11   43.80    3.60
   5  -2 -11  295.87   18.90
   5  -2 -11  275.87   19.90
  -5   2  11  292.87   16.60
  -5   2  11  280.17   16.40
  -5   2  11  301.67   16.40
   4  -2 -11    0.40    1.50
   4  -2 -11    0.50    1.30
   4  -2 -11    0.10    1.30
  -4   2  11    1.30    0.70
  -4   2  11    0.20    0.70
  -4   2  11    1.30    0.80
   3  -2 -11  121.49   10.70
   3  -2 -11  119.19    9.80
  -3   2  11  133.09   10.40
  -3   2  11  148.19   10.60
  -3   2  11  124.59    7.70
   2  -2 -11    6.30    2.40
   2  -2 -11    4.90    3.70
  -2   2  11    6.10    2.80
  -2   2  11    5.00    2.40
   1  -2 -11  199.68   14.30
   1  -2 -11  201.98   12.70
   1  -2 -11  205.28   18.10
  -1   2  11  218.68   13.40
  -1   2  11  212.88   14.20
  -1   2  11  161.28   11.80
  -1   2  11  189.58   16.20
  -1   2  11  191.68   14.10
   0   2  11  538.95   29.50
   0   2  11  548.05   29.40
   0   2  11  491.05   29.50
   0   2  11  549.25   29.70
   0   2  11  606.34   34.40
   0   2  11  521.25   29.60
   0   2  11  504.35   29.30
   0   2  11  527.15   29.40
   1   2  11  119.79    7.70
   1   2  11  123.39    8.00
   1   2  11  131.49    7.80
   1   2  11  133.69    8.00
   1   2  11  131.19    8.00
   1   2  11  124.69    7.70
   1   2  11  126.39    7.90
   1   2  11  142.79   11.40
   2   2  11  184.08   11.30
   2   2  11  189.68   11.20
   2   2  11  193.68   11.10
   2   2  11  196.38   11.10
   2   2  11  203.88   11.20
   2   2  11  187.98   11.40
   2   2  11  178.38   11.20
   3   2  11  245.78   13.70
   3   2  11  234.18   13.40
   3   2  11  245.68   13.60
   3   2  11  229.08   13.60
   3   2  11  241.88   13.50
   3   2  11  221.38   13.40
   3   2  11  233.08   13.50
   4   2  11   80.29    4.90
   4   2  11   85.99    5.10
   4   2  11   79.29    5.00
   4   2  11   80.49    5.20
   4   2  11   81.09    5.00
   4   2  11   75.89    5.10
   5   2  11   49.30    3.10
   5   2  11   46.60    3.10
   5   2  11   50.79    3.20
   5   2  11   46.30    3.00
   5   2  11   51.99    3.10
   9  -3 -11   66.39    5.60
   9  -3 -11   84.79    8.00
  -9   3  11   67.99    4.30
   8  -3 -11    3.00    1.60
   8  -3 -11    4.00    2.40
  -8   3  11    2.60    0.90
  -8   3  11    2.80    0.80
   7  -3 -11   49.20    5.90
   7  -3 -11   57.29    5.80
   7  -3 -11   58.99    7.40
  -7   3  11   61.89    4.10
  -7   3  11   58.89    4.10
  -7   3  11   59.79    4.00
   6  -3 -11    6.90    2.30
   6  -3 -11    4.60    2.30
   6  -3 -11    6.10    3.00
  -6   3  11    4.50    1.10
  -6   3  11    4.90    1.20
  -6   3  11    5.60    1.30
   5  -3 -11    1.20    1.70
   5  -3 -11    1.40    1.50
  -5   3  11    2.00    1.00
  -5   3  11    3.80    1.00
  -5   3  11    1.30    1.00
   4  -3 -11  779.62   44.40
   4  -3 -11  748.33   45.90
  -4   3  11  822.42   45.10
  -4   3  11  752.72   42.20
  -4   3  11  725.33   42.10
  -4   3  11  779.62   42.00
   3  -3 -11   48.00    5.10
  -3   3  11   48.90    3.70
  -3   3  11   45.90    3.50
  -3   3  11   56.59    6.20
  -2   3  11  213.18   13.00
  -2   3  11  217.38   12.80
  -2   3  11  227.28   13.00
  -2   3  11  242.58   17.50
  -2   3  11  222.98   13.10
  -1   3  11   50.29   10.80
  -1   3  11   72.79    4.80
  -1   3  11   88.99    9.20
  -1   3  11   77.59    4.90
  -1   3  11   75.09    5.00
  -1   3  11   71.59    5.10
  -1   3  11   75.99    4.90
  -1   3  11   76.49    5.20
   0   3  11  171.18   10.40
   0   3  11  171.18   10.50
   0   3  11  171.38   10.60
   0   3  11  169.98   10.60
   0   3  11  171.98   10.30
   0   3  11  199.08   15.40
   0   3  11  182.58   10.40
   1   3  11  105.99    6.40
   1   3  11  101.69    6.40
   1   3  11   96.09   10.00
   1   3  11  105.99    6.70
   1   3  11   98.49    6.50
   1   3  11  100.19    6.60
   1   3  11  105.19    6.40
   2   3  11   38.10    3.10
   2   3  11   39.50    3.00
   2   3  11   41.30    3.10
   2   3  11   33.40    3.10
   2   3  11   37.30    3.00
   2   3  11   40.50    3.00
   2   3  11   38.80    3.10
   3   3  11  400.96   21.30
   3   3  11  353.26   21.30
   3   3  11  383.46   21.50
   3   3  11  379.96   21.40
   3   3  11  389.96   21.30
   3   3  11  394.36   21.30
   3   3  11  386.46   21.60
   4   3  11  141.49    8.10
   4   3  11  142.59    8.00
   4   3  11  134.59    7.90
   4   3  11  138.89    8.20
   4   3  11  140.59    8.00
   9  -4 -11  102.19    7.20
  -9   4  11   95.09    5.70
   8  -4 -11   22.20    4.40
   8  -4 -11   19.60    3.10
  -8   4  11   17.40    1.80
  -8   4  11   17.90    1.80
   7  -4 -11   11.90    2.70
   7  -4 -11   12.70    3.80
   7  -4 -11   12.40    3.10
  -7   4  11   12.40    1.60
  -7   4  11   15.00    1.90
   6  -4 -11  164.78   12.20
   6  -4 -11  160.58   12.90
   6  -4 -11  171.08   13.90
  -6   4  11  170.48   10.30
  -6   4  11  183.18   10.10
   5  -4 -11   82.99    8.40
   5  -4 -11   83.89    7.50
  -5   4  11   83.59    5.80
  -5   4  11   92.59    5.70
   4  -4 -11   58.49    6.90
   4  -4 -11   60.49    6.00
  -4   4  11   63.49    6.70
  -4   4  11   51.89    4.10
  -4   4  11   57.79    4.40
  -4   4  11   61.69    4.10
   3  -4 -11   61.69    6.00
  -3   4  11   61.39    4.20
  -3   4  11   62.79    4.60
  -3   4  11   58.19    7.40
  -3   4  11   64.79    4.40
  -2   4  11    4.00    1.20
  -2   4  11    1.90    0.80
  -2   4  11    2.80    2.30
  -2   4  11    3.10    0.90
  -2   4  11    0.60    3.30
  -2   4  11    3.70    1.10
  -2   4  11    3.40    1.00
  -2   4  11    1.50    0.80
  -1   4  11  380.06   20.80
  -1   4  11  374.96   20.80
  -1   4  11  364.66   21.00
  -1   4  11  414.46   26.80
  -1   4  11  365.76   20.60
  -1   4  11  344.77   21.00
  -1   4  11  352.46   20.90
   0   4  11  209.18   12.00
   0   4  11  189.88   16.30
   0   4  11  191.18   11.70
   0   4  11  209.18   12.00
   0   4  11  193.78   11.70
   0   4  11  194.68   11.80
   0   4  11  205.08   11.60
   1   4  11  201.58   11.70
   1   4  11  192.88   11.60
   1   4  11  201.78   11.40
   1   4  11  197.08   16.00
   1   4  11  179.18   11.60
   1   4  11  204.28   11.50
   1   4  11  193.88   11.50
   2   4  11   63.49    4.40
   2   4  11   67.49    4.40
   2   4  11   66.29    4.60
   2   4  11   67.49    4.50
   2   4  11   69.89    4.50
   2   4  11   65.79    4.60
   3   4  11   79.19    5.00
   3   4  11   81.79    4.90
   3   4  11   83.69    5.20
   3   4  11   79.59    5.00
   3   4  11   84.99    5.20
   4   4  11  336.37   18.60
   4   4  11  337.77   18.50
   4   4  11  346.47   18.60
   8  -5 -11   60.89    6.30
   8  -5 -11   51.19    4.80
  -8   5  11   52.49    3.60
  -8   5  11   55.29    3.80
   7  -5 -11   15.40    3.00
   7  -5 -11   15.00    3.80
   7  -5 -11   13.70    3.60
  -7   5  11   17.70    1.80
  -7   5  11   15.60    1.90
   6  -5 -11   42.70    5.50
   6  -5 -11   44.50    5.00
  -6   5  11   44.80    3.30
  -6   5  11   43.40    3.80
   5  -5 -11  196.28   14.90
   5  -5 -11  195.68   13.70
  -5   5  11  195.58   11.50
  -5   5  11  200.48   11.30
  -5   5  11  181.78   11.60
   4  -5 -11   17.00    3.50
  -4   5  11   20.10    4.40
  -4   5  11   18.40    2.20
  -4   5  11   18.10    2.30
  -4   5  11   18.30    2.00
   3  -5 -11   27.10    4.20
  -3   5  11   32.20    2.60
  -3   5  11   25.60    2.50
  -3   5  11   30.10    2.90
  -3   5  11   27.40    2.80
  -3   5  11   28.70    2.90
  -3   5  11   28.10    6.20
  -2   5  11  385.76   21.00
  -2   5  11  369.96   26.50
  -2   5  11  337.07   21.10
  -2   5  11  376.26   21.10
  -2   5  11  382.46   20.90
  -2   5  11  372.96   21.20
  -2   5  11  374.46   20.70
  -1   5  11   45.40    3.60
  -1   5  11   37.30    7.60
  -1   5  11   44.60    3.50
  -1   5  11   45.30    3.50
  -1   5  11   49.70    3.70
  -1   5  11   48.90    3.80
  -1   5  11   47.60    3.30
   0   5  11  170.38   10.10
   0   5  11  162.28   10.00
   0   5  11  178.48   10.30
   0   5  11  157.88    9.90
   0   5  11  168.28   14.60
   0   5  11  158.78    9.60
   0   5  11  159.48    9.90
   1   5  11   49.30    7.80
   1   5  11   49.99    3.50
   1   5  11   53.29    3.70
   1   5  11   51.79    3.90
   1   5  11   54.89    3.90
   1   5  11   51.59    3.80
   1   5  11   53.79    3.90
   2   5  11  130.49    7.70
   2   5  11  132.09    7.70
   2   5  11  125.99    7.70
   2   5  11  130.89    7.80
   2   5  11  128.29    7.70
   3   5  11  156.78    8.70
   3   5  11  157.78    8.80
   3   5  11  153.38    8.70
   3   5  11  150.08    8.70
   8  -6 -11   61.89    5.30
   8  -6 -11   72.49    6.60
  -8   6  11   67.09    4.30
  -8   6  11   64.29    4.00
   7  -6 -11   25.90    3.70
   7  -6 -11   26.00    4.10
  -7   6  11   27.60    2.60
  -7   6  11   26.60    2.20
   6  -6 -11   14.80    3.00
   6  -6 -11   14.50    3.30
  -6   6  11   16.50    1.90
  -6   6  11   17.30    1.80
  -6   6  11   17.40    2.10
   5  -6 -11   62.39    7.10
   5  -6 -11   66.39    6.30
  -5   6  11   67.19    4.30
  -5   6  11   64.79    4.80
  -5   6  11   62.39    4.60
   4  -6 -11   26.50    4.20
  -4   6  11   23.60    2.60
  -4   6  11   21.00    5.10
  -4   6  11   25.60    2.30
  -4   6  11   27.20    2.80
   3  -6 -11   39.30    4.60
  -3   6  11   41.10    3.60
  -3   6  11   32.60    6.90
  -3   6  11   36.40    3.40
  -3   6  11   37.10    2.90
  -3   6  11   36.70    3.20
  -3   6  11   40.60    3.30
  -2   6  11   38.80    3.60
  -2   6  11   36.90    3.30
  -2   6  11   43.70    8.10
  -2   6  11   38.30    3.30
  -2   6  11   41.20    3.10
  -2   6  11   38.70    3.50
  -1   6  11  428.16   25.30
  -1   6  11  492.85   25.60
  -1   6  11  415.86   30.70
  -1   6  11  461.15   25.70
  -1   6  11  454.05   25.40
  -1   6  11  474.05   25.50
   0   6  11   50.79    7.20
   0   6  11   49.60    3.90
   0   6  11   62.09    4.10
   0   6  11   63.09    4.40
   0   6  11   56.29    4.10
   0   6  11   57.29    4.00
   1   6  11    4.80    2.60
   1   6  11    8.90    1.30
   1   6  11    6.80    1.10
   1   6  11    7.00    1.20
   1   6  11    8.70    1.20
   1   6  11    7.60    1.20
   2   6  11  141.49    8.20
   2   6  11  148.99    8.10
   2   6  11  129.69    8.00
   2   6  11  149.88    8.20
   2   6  11  136.39    8.10
   8  -7 -11  103.89    7.10
  -8   7  11  105.69    6.20
   7  -7 -11   16.10    2.60
  -7   7  11   14.50    1.80
  -7   7  11   13.50    1.50
   6  -7 -11  103.49    7.40
   6  -7 -11   82.69    7.50
  -6   7  11   76.29    5.60
  -6   7  11   78.79    5.50
   5  -7 -11  135.39   10.10
   5  -7 -11  136.79   11.20
  -5   7  11  141.49    8.50
  -5   7  11  138.39    8.60
   4  -7 -11   71.09    6.20
  -4   7  11   70.59    4.60
  -4   7  11   66.89    4.70
  -4   7  11   52.49    7.20
  -4   7  11   68.89    4.70
   3  -7 -11  433.96   24.70
  -3   7  11  390.26   22.70
  -3   7  11  344.17   27.30
  -3   7  11  414.56   22.90
  -3   7  11  413.16   22.50
  -3   7  11  410.96   22.60
  -3   7  11  415.16   22.80
  -2   7  11  169.98    9.80
  -2   7  11  163.78    9.80
  -2   7  11  166.48   10.00
  -2   7  11  168.98   10.00
  -2   7  11  147.09    9.70
  -1   7  11   96.09    5.80
  -1   7  11   85.99    6.10
  -1   7  11   97.09    6.00
  -1   7  11   78.69    9.40
  -1   7  11   94.19    6.00
  -1   7  11  101.99    6.00
   0   7  11   20.10    1.90
   0   7  11   18.60    1.90
   0   7  11   21.10    2.00
   0   7  11   17.60    2.10
   0   7  11   19.50    4.50
   0   7  11   19.40    1.80
   1   7  11    6.00    0.80
   1   7  11    5.70    0.80
   1   7  11    4.20    1.70
   1   7  11    6.70    1.00
   1   7  11    6.20    0.80
   7  -8 -11   85.39    5.90
  -7   8  11   75.49    4.90
  -7   8  11   77.09    4.80
   6  -8 -11   63.19    5.70
   6  -8 -11   66.99    5.40
  -6   8  11   61.39    4.20
  -6   8  11   61.39    4.20
   5  -8 -11   54.79    5.90
   5  -8 -11   59.89    5.30
  -5   8  11   61.89    4.10
  -5   8  11   60.99    4.10
   4  -8 -11   42.30    4.30
  -4   8  11   40.50    3.10
  -4   8  11   40.20    3.00
  -4   8  11   46.30    5.50
  -4   8  11   39.20    3.20
   3  -8 -11   53.59    4.80
  -3   8  11   58.49    3.80
  -3   8  11   52.19    3.60
  -3   8  11   51.19    3.70
  -3   8  11   40.30    7.00
  -3   8  11   55.39    3.80
  -3   8  11   56.99    3.90
  -2   8  11  504.85   27.20
  -2   8  11  482.95   27.20
  -2   8  11  466.35   27.30
  -2   8  11  514.05   27.00
  -2   8  11  496.85   27.20
  -1   8  11   82.99    5.00
  -1   8  11   80.29    5.20
  -1   8  11   81.99    5.00
  -1   8  11   76.89    4.90
   0   8  11    6.40    0.80
   0   8  11    5.80    0.80
   0   8  11    3.80    2.10
   0   8  11    6.40    0.90
   5  -9 -11   55.29    4.30
   5  -9 -11   49.50    4.60
  -5   9  11   49.90    4.00
  -5   9  11   50.69    3.40
   4  -9 -11  164.38   10.70
   4  -9 -11  158.98    9.70
  -4   9  11  152.68    8.80
  -4   9  11  134.49   10.10
  -4   9  11  149.09    8.70
  -3   9  11   29.80    2.10
  -3   9  11   25.80    3.60
  -3   9  11   31.30    2.20
  -3   9  11   31.30    2.20
  -3   9  11   28.50    2.10
  -1  10 -12   40.10    5.20
  -1  10 -12   40.70    3.30
   1 -10  12   48.70    3.70
   1 -10  12   47.40    2.90
  -2  10 -12   -0.30    0.90
  -2  10 -12    0.10    0.70
   2 -10  12    0.40    0.50
   2 -10  12    0.10    0.80
  -3  10 -12  119.99    8.30
  -3  10 -12  154.08    8.70
   3 -10  12  163.28    8.30
   3 -10  12  150.58    9.20
   2   9 -12   30.20    4.30
   2   9 -12   25.00    4.20
  -2  -9  12   31.10    1.90
  -2  -9  12   27.40    2.60
   1   9 -12  145.79    9.10
   1   9 -12  151.68   11.80
   1   9 -12  162.38   13.40
  -1  -9  12  149.59    8.70
  -1  -9  12  162.88    9.80
   0   9 -12   13.40    4.10
   0   9 -12   13.30    1.80
   0  -9  12   14.90    1.50
   0  -9  12   13.90    2.30
  -1   9 -12  237.58   13.50
   1  -9  12  229.18   12.80
   1  -9  12  213.38   14.00
  -2   9 -12   -0.90    0.80
  -2   9 -12    0.70    0.70
   2  -9  12    0.10    1.00
   2  -9  12    0.50    0.70
  -3   9 -12   -0.70    0.60
  -3   9 -12    0.60    0.80
   3  -9  12    0.20    0.90
   3  -9  12   -0.10    0.60
  -4   9 -12   12.30    1.50
  -4   9 -12   12.20    1.60
   4  -9  12   12.70    1.40
   4  -9  12   11.10    1.90
  -5   9 -12   -0.20    0.40
   5  -9  12    0.70    0.40
   5  -9  12   -0.60    0.60
   3   8 -12   16.70    3.80
   3   8 -12   14.50    2.30
   3   8 -12   16.90    2.70
   3   8 -12   16.70    4.10
  -3  -8  12   19.70    1.50
   2   8 -12   30.40    6.30
   2   8 -12   29.30    5.90
   2   8 -12   30.30    4.20
  -2  -8  12   35.20    2.40
   1   8 -12   11.60    1.80
   1   8 -12   12.00    4.40
   1   8 -12   14.80    4.70
  -1  -8  12   12.10    1.40
   0   8 -12    5.40    3.30
   0   8 -12    5.90    1.50
   0  -8  12    7.30    1.20
   0  -8  12    5.80    1.80
  -1   8 -12  127.59   13.00
  -1   8 -12  137.69    9.10
  -1   8 -12  135.59    8.30
   1  -8  12  146.89   10.00
   1  -8  12  147.59    8.40
  -2   8 -12  515.85   29.10
  -2   8 -12  567.04   29.70
   2  -8  12  491.15   30.50
   2  -8  12  534.35   29.10
  -3   8 -12  103.29    6.90
  -3   8 -12  108.79    6.60
   3  -8  12  109.39    6.60
   3  -8  12  100.89    7.80
  -4   8 -12    9.00    1.40
  -4   8 -12   10.10    1.40
   4  -8  12   11.30    1.40
   4  -8  12    9.10    2.00
  -5   8 -12  119.09    7.20
  -5   8 -12  125.59    7.40
   5  -8  12  135.19    7.40
   5  -8  12  120.19    8.10
   4   7 -12  140.99   13.40
   4   7 -12  165.58   11.40
   4   7 -12  202.98   11.10
   4   7 -12  158.08   12.40
  -4  -7  12  176.78    9.60
   3   7 -12    4.60    3.50
   3   7 -12    5.20    2.20
   3   7 -12    6.70    1.90
   3   7 -12    6.20    3.00
  -3  -7  12    5.70    0.90
   2   7 -12   57.49   10.60
   2   7 -12   70.89    6.40
   2   7 -12   71.89    9.10
  -2  -7  12   80.39    4.70
  -2  -7  12   63.99    4.50
   1   7 -12  189.98   13.00
   1   7 -12  174.38   10.50
   1   7 -12  202.98   16.20
   1   7 -12  143.19   16.20
  -1  -7  12  156.68    9.90
  -1  -7  12  156.88   10.00
   0   7 -12  297.77   23.70
   0   7 -12  344.17   19.00
   0  -7  12  349.27   18.50
   0  -7  12  309.17   18.40
  -1   7 -12    5.20    3.20
  -1   7 -12    4.50    1.10
  -1   7 -12    5.80    1.50
   1  -7  12    5.80    1.20
   1  -7  12    4.10    1.80
   1  -7  12    4.90    1.20
  -2   7 -12   19.10    2.50
  -2   7 -12   20.00    2.10
   2  -7  12   22.60    3.50
   2  -7  12   20.50    2.20
   2  -7  12   20.80    2.20
  -3   7 -12   55.09    4.00
  -3   7 -12   59.09    4.40
   3  -7  12   55.59    5.30
   3  -7  12   56.59    4.20
   3  -7  12   53.99    3.90
  -4   7 -12   16.00    1.60
  -4   7 -12   14.60    1.90
  -4   7 -12   16.70    2.00
   4  -7  12   18.30    2.00
   4  -7  12   18.30    1.90
   4  -7  12   18.10    2.90
  -5   7 -12  107.29    6.30
  -5   7 -12  102.19    6.10
   5  -7  12   95.69    6.20
   5  -7  12  106.79    6.20
   5  -7  12   96.89    7.10
  -6   7 -12  196.08   11.20
  -6   7 -12  192.08   11.30
   6  -7  12  217.08   11.30
   5   6 -12   86.19    5.20
   5   6 -12   91.19    7.30
   5   6 -12   93.89    6.10
   5   6 -12   85.19    8.80
  -5  -6  12   81.69    5.20
   4   6 -12    0.00    1.10
   4   6 -12   -0.70    3.00
   4   6 -12   -0.10    1.90
   4   6 -12    4.30    3.40
   4   6 -12    0.60    1.80
   4   6 -12    0.70    0.60
  -4  -6  12    0.80    0.60
   3   6 -12  232.28   20.10
   3   6 -12  225.48   12.80
   3   6 -12  211.18   16.70
   3   6 -12  228.28   14.60
   3   6 -12  264.47   18.70
  -3  -6  12  188.48   12.70
   2   6 -12  152.38   10.40
   2   6 -12  123.39    8.50
   2   6 -12  145.09   13.30
  -2  -6  12  128.59    8.30
   1   6 -12   80.29    5.60
   1   6 -12   85.39    7.50
   1   6 -12   66.29   11.20
   1   6 -12   74.09    9.10
  -1  -6  12   79.49    5.30
  -1  -6  12   81.79    5.40
   0   6 -12    6.10    1.50
   0   6 -12    5.40    2.80
   0  -6  12    7.60    1.50
   0  -6  12    7.50    1.30
  -1   6 -12  559.44   32.10
  -1   6 -12  574.44   36.10
  -1   6 -12  563.14   31.40
   1  -6  12  617.04   31.60
   1  -6  12  577.34   31.70
   1  -6  12  529.85   33.10
  -2   6 -12  246.28   14.00
  -2   6 -12  236.58   14.50
   2  -6  12  249.88   14.10
   2  -6  12  228.68   15.70
   2  -6  12  251.37   14.20
  -3   6 -12  238.38   14.60
  -3   6 -12  258.67   14.40
   3  -6  12  254.47   14.50
   3  -6  12  243.28   14.50
  -4   6 -12   99.39    6.20
  -4   6 -12   90.49    6.00
  -4   6 -12   91.59    5.70
   4  -6  12   87.79    6.00
   4  -6  12   95.79    6.10
  -5   6 -12   -0.10    0.50
  -5   6 -12    0.00    0.60
   5  -6  12    0.60    0.70
   5  -6  12   -0.10    0.60
  -6   6 -12  142.09    8.10
  -6   6 -12  134.39    8.00
   6  -6  12  140.49    8.20
   6  -6  12  146.09    8.10
   6   5 -12   10.70    2.50
   6   5 -12    9.50    2.90
   6   5 -12   11.70    1.00
  -6  -5  12    8.60    1.00
   5   5 -12  358.56   26.70
   5   5 -12  391.16   24.40
   5   5 -12  358.66   21.60
   5   5 -12  386.76   20.40
  -5  -5  12  360.26   20.60
   4   5 -12   23.50    2.10
   4   5 -12   18.00    3.00
   4   5 -12   22.10    4.90
   4   5 -12   25.00    5.60
   4   5 -12   22.20    6.30
  -4  -5  12   22.20    2.20
   3   5 -12    8.90    2.30
   3   5 -12    8.60    4.40
   3   5 -12    7.40    3.90
   3   5 -12    9.30    3.50
   3   5 -12   12.20    1.50
  -3  -5  12   11.60    1.70
   2   5 -12  102.79    8.80
   2   5 -12  111.09   12.50
   2   5 -12  125.69   11.50
   2   5 -12  120.39    7.40
   2   5 -12  125.99    7.70
  -2  -5  12  130.19    7.70
   1   5 -12   39.70    7.40
   1   5 -12   38.50    6.40
   1   5 -12   39.30    3.40
  -1  -5  12   37.00    3.30
  -1  -5  12   37.30    3.20
   0   5 -12   85.39    8.90
   0   5 -12   84.69    5.90
   0  -5  12   77.79    5.30
   0  -5  12   76.89    5.50
  -1   5 -12    2.60    2.20
  -1   5 -12    1.10    1.10
  -1   5 -12    2.10    0.80
   1  -5  12    0.70    0.90
   1  -5  12    1.50    0.80
  -2   5 -12    2.40    1.10
  -2   5 -12    1.90    0.90
   2  -5  12    2.70    1.00
   2  -5  12    1.90    1.00
  -3   5 -12    4.20    1.10
  -3   5 -12    3.80    1.20
   3  -5  12    3.00    1.10
   3  -5  12    4.70    1.30
  -4   5 -12  122.69    7.70
   4  -5  12  122.99    7.80
   4  -5  12  124.79    7.80
  -5   5 -12  104.99    6.30
  -5   5 -12  102.69    6.20
   5  -5  12  105.39    6.40
   5  -5  12   91.59    6.30
  -6   5 -12   54.49    3.40
  -6   5 -12   51.09    3.40
   6  -5  12   49.99    3.40
   6  -5  12   56.79    3.50
   6  -5  12   49.60    3.30
   6   4 -12  129.99    7.10
   6   4 -12  110.59   11.30
   6   4 -12  137.29   10.60
   6   4 -12  100.29   13.00
  -6  -4  12  127.09    7.30
   5   4 -12    1.00    2.50
   5   4 -12    1.80    2.70
   5   4 -12    1.20    1.30
   5   4 -12    1.80    0.70
   5   4 -12    1.20    4.00
  -5  -4  12    3.40    0.80
   4   4 -12    8.10    3.90
   4   4 -12    6.50    1.10
   4   4 -12    8.20    3.00
   4   4 -12    8.50    3.70
  -4  -4  12    5.60    1.10
   3   4 -12   13.00    4.30
   3   4 -12   12.80    1.50
   3   4 -12   14.20    3.90
   3   4 -12   13.50    4.30
  -3  -4  12    9.90    1.40
  -3  -4  12   15.10    1.90
   2   4 -12   15.90    1.80
   2   4 -12   17.50    4.30
   2   4 -12   22.10    2.50
   2   4 -12   18.40    4.80
  -2  -4  12   17.60    2.20
  -2  -4  12   18.40    1.90
   1   4 -12   29.90    3.00
   1   4 -12   26.80    5.30
   1   4 -12   26.70    5.40
  -1  -4  12   27.40    2.50
  -1  -4  12   28.10    2.70
  -1  -4  12   27.80    2.80
   0   4 -12   71.29    8.00
   0   4 -12   78.19    5.40
   0  -4  12   71.89    5.20
   0  -4  12   75.29    5.00
   0  -4  12   76.29    5.00
  -1   4 -12    3.80    2.30
  -1   4 -12    5.20    1.00
  -1   4 -12    4.40    1.30
   1  -4  12    4.30    1.10
   1  -4  12    5.20    1.30
   1  -4  12    3.30    1.00
  -2   4 -12 1035.20   53.39
  -2   4 -12  994.40   53.69
   2  -4  12  982.50   53.69
   2  -4  12  924.01   53.19
   2  -4  12  960.20   53.39
  -3   4 -12   59.39    4.10
   3  -4  12   56.69    3.60
   3  -4  12   52.79    4.20
   3  -4  12   55.99    4.20
   3  -4  12   51.99    4.00
  -4   4 -12    3.20    1.00
   4  -4  12    1.70    0.60
   4  -4  12    2.30    1.00
   4  -4  12    3.90    1.00
   4  -4  12    2.90    1.10
  -5   4 -12   78.79    5.30
   5  -4  12   85.39    5.20
   5  -4  12   92.09    5.70
   5  -4  12   84.19    5.30
   5  -4  12   96.89    5.20
   5  -4  12   69.39    5.30
  -6   4 -12   29.70    2.00
  -6   4 -12   22.80    1.90
   6  -4  12   26.80    2.10
   6  -4  12   25.10    1.90
   6  -4  12   25.00    1.90
   6  -4  12   22.60    2.00
   7   3 -12    0.10    1.50
   7   3 -12    2.10    3.20
   7   3 -12    0.60    0.40
  -7  -3  12   -0.30    0.40
  -7  -3  12    0.60    0.40
   6   3 -12  272.27   15.50
   6   3 -12  279.37   15.70
   6   3 -12  295.97   21.30
   6   3 -12  305.97   20.30
  -6  -3  12  260.07   15.60
   5   3 -12    5.50    3.10
   5   3 -12    5.60    2.90
   5   3 -12    5.60    5.40
   5   3 -12    7.80    1.30
  -5  -3  12    4.90    1.10
   4   3 -12  192.78   17.40
   4   3 -12  251.27   18.10
   4   3 -12  254.37   14.30
   4   3 -12  253.77   13.90
   4   3 -12  262.77   19.50
  -4  -3  12  252.77   14.20
   3   3 -12   64.39    4.40
   3   3 -12   74.09    8.40
   3   3 -12   72.99    7.90
   3   3 -12   56.69    7.30
  -3  -3  12   70.29    4.90
  -3  -3  12   70.89    4.70
   2   3 -12   11.80    1.80
   2   3 -12   11.90    3.50
   2   3 -12   10.40    1.40
   2   3 -12   12.10    3.50
  -2  -3  12   10.50    1.50
  -2  -3  12   17.80    2.10
   1   3 -12   59.69    4.30
   1   3 -12   54.29    6.60
   1   3 -12   62.79    7.00
  -1  -3  12   55.09    4.00
  -1  -3  12   57.59    4.00
  -1  -3  12   52.19    4.20
   0   3 -12   27.10    5.00
   0   3 -12   21.70    2.60
   0  -3  12   22.80    2.40
   0  -3  12   23.70    2.60
   0  -3  12   28.20    2.30
   0  -3  12   23.60    2.40
  -1   3 -12  160.28   10.20
  -1   3 -12  179.68   13.40
   1  -3  12  165.78   10.30
   1  -3  12  168.18    9.60
   1  -3  12  153.58    9.90
   1  -3  12  172.58   10.00
  -2   3 -12   42.00    3.50
   2  -3  12   42.50    2.90
   2  -3  12   39.20    3.20
   2  -3  12   41.50    3.60
   2  -3  12   39.70    2.80
   2  -3  12   42.80    3.60
  -3   3 -12  140.99    8.40
   3  -3  12  126.39    7.70
   3  -3  12  130.59    8.40
   3  -3  12  130.59    8.20
   3  -3  12  137.99    7.80
   3  -3  12  126.89    8.20
   4  -3  12  194.08   10.00
   4  -3  12  162.78   10.30
   4  -3  12  170.48   10.40
   4  -3  12  183.48   10.70
   4  -3  12  176.28   10.00
   4  -3  12  161.88   10.00
  -5   3 -12   82.69    5.50
   5  -3  12   84.59    5.60
   5  -3  12   91.39    5.90
   5  -3  12   86.89    5.60
   5  -3  12   82.49    5.30
   5  -3  12   92.69    5.50
   5  -3  12  106.79    5.50
   5  -3  12   87.09    5.40
   6  -3  12   10.30    1.10
   6  -3  12   10.70    1.00
   6  -3  12   10.30    1.20
   6  -3  12   11.30    1.10
   6  -3  12   10.60    1.20
   6  -3  12   10.70    1.30
   7   2 -12  136.39   11.00
   7   2 -12  148.09    7.80
   7   2 -12  135.89   11.30
   7   2 -12  106.49   13.50
  -7  -2  12  130.79    7.70
   6   2 -12   79.19    8.70
   6   2 -12   95.79    5.80
   6   2 -12  101.69   10.00
   6   2 -12   88.19    5.40
   6   2 -12   92.49   13.50
  -6  -2  12   87.69    5.70
   5   2 -12    0.80    0.60
   5   2 -12    1.60    2.00
   5   2 -12    1.30    0.70
   5   2 -12    2.50    2.20
  -5  -2  12    0.10    0.60
   4   2 -12  343.07   17.60
   4   2 -12  286.37   20.20
   4   2 -12  311.27   21.30
   4   2 -12  279.67   19.70
   4   2 -12  267.57   16.60
  -4  -2  12  286.67   16.60
   3   2 -12  202.18   15.10
   3   2 -12  188.78   15.20
   3   2 -12  200.78   14.20
  -3  -2  12  189.78   11.40
  -3  -2  12  194.08   11.60
   2   2 -12  681.43   41.30
   2   2 -12  670.03   37.40
   2   2 -12  651.93   41.10
  -2  -2  12  724.63   37.70
  -2  -2  12  675.53   37.30
   1   2 -12   46.60    8.70
   1   2 -12   40.90    5.50
   1   2 -12   44.10    3.50
  -1  -2  12   45.60    3.50
  -1  -2  12   44.70    3.30
   0   2 -12  223.98   15.70
   0  -2  12  219.78   12.50
   0  -2  12  206.88   12.60
   0  -2  12  200.38   12.40
  -1   2 -12 2153.98  112.99
   1  -2  12 1991.10  108.99
   1  -2  12 1939.31  109.39
   1  -2  12 2078.29  108.89
   1  -2  12 1977.60  109.59
   2  -2  12  108.39    6.30
   2  -2  12  101.19    6.40
   2  -2  12  112.29    7.10
   2  -2  12  111.39    6.90
   2  -2  12   97.99    6.40
  -3   2 -12   76.69    5.20
   3  -2  12   67.69    4.60
   3  -2  12   77.69    4.70
   3  -2  12   75.99    4.70
   3  -2  12   79.39    5.20
   3  -2  12   75.19    4.70
   3  -2  12   71.19    5.20
   3  -2  12   66.79    4.70
   4  -2  12   10.50    1.80
   4  -2  12    8.90    1.40
   4  -2  12    8.10    1.10
   4  -2  12   10.60    1.40
   4  -2  12    7.10    1.10
   4  -2  12    8.90    1.20
   4  -2  12    8.10    1.10
  -5   2 -12  249.78   14.00
   5  -2  12  232.48   13.80
   5  -2  12  248.18   13.90
   5  -2  12  250.07   13.90
   5  -2  12  250.07   14.10
   5  -2  12  267.67   14.30
   5  -2  12  237.58   13.80
   6  -2  12   23.70    1.80
   6  -2  12   24.90    1.90
   6  -2  12   27.60    1.90
   6  -2  12   23.80    1.90
   6  -2  12   23.60    1.80
   6  -2  12   24.70    1.70
   8   1 -12   46.50    5.00
   8   1 -12   41.70    6.90
  -8  -1  12   51.29    3.00
  -8  -1  12   47.00    3.00
   7   1 -12   82.49    8.20
   7   1 -12   63.29    7.50
   7   1 -12   84.09   11.40
   7   1 -12   72.99    4.70
  -7  -1  12   79.39    4.90
   6   1 -12   96.49   13.20
   6   1 -12  120.89    9.80
   6   1 -12   93.39    6.30
   6   1 -12  104.79   10.00
  -6  -1  12   94.19    6.10
  -6  -1  12  114.39    6.60
   5   1 -12  409.66   23.00
   5   1 -12  424.46   27.50
   5   1 -12  375.56   26.00
  -5  -1  12  418.16   22.80
  -5  -1  12  436.56   23.20
   4   1 -12   20.70    4.00
   4   1 -12   23.50    4.80
   4   1 -12   24.50    4.50
  -4  -1  12   24.80    2.50
  -4  -1  12   25.10    2.20
   3   1 -12  364.46   24.50
   3   1 -12  369.66   24.30
  -3  -1  12  369.46   20.80
  -3  -1  12  387.36   21.00
  -3  -1  12  355.86   20.40
   2   1 -12  209.88   14.70
   2   1 -12  175.58   11.50
   2   1 -12  181.28   14.10
  -2  -1  12  184.68   11.10
  -2  -1  12  175.58   11.10
  -2  -1  12  195.58   11.30
   1   1 -12    9.90    2.90
   1   1 -12   10.80    4.50
   1   1 -12    5.60    2.70
  -1  -1  12   11.00    1.60
  -1  -1  12   10.70    1.70
   0   1 -12  163.28   12.50
   0   1 -12  162.48   10.80
   0  -1  12  181.88   11.90
   0  -1  12  155.28    9.80
   0  -1  12  160.28    9.40
   0  -1  12  156.38    9.30
   0  -1  12  161.18    9.40
   0  -1  12  155.28    9.70
  -1   1 -12  151.88   11.40
   1  -1  12  134.49    8.60
   1  -1  12  133.09    8.10
   1  -1  12  133.59    8.50
   1  -1  12  130.99    8.00
   1  -1  12  129.79    7.90
   1  -1  12  140.29    8.20
   2  -1  12  247.78   13.80
   2  -1  12  242.28   14.40
   2  -1  12  234.18   13.80
   2  -1  12  249.97   13.80
   2  -1  12  236.38   14.20
   2  -1  12  246.88   14.00
   2  -1  12  246.68   13.90
   2  -1  12  247.98   13.90
   3  -1  12  337.07   18.20
   3  -1  12  305.67   18.20
   3  -1  12  315.27   17.70
   3  -1  12  299.17   17.60
   3  -1  12  305.57   17.60
   3  -1  12  319.77   17.80
   3  -1  12  326.67   17.60
   4  -1  12   97.59    5.50
   4  -1  12   86.69    5.60
   4  -1  12   85.89    5.50
   4  -1  12   84.89    5.60
   4  -1  12   88.49    5.80
   4  -1  12   90.69    6.00
   4  -1  12   88.99    5.50
   5  -1  12   31.40    2.20
   5  -1  12   29.10    2.50
   5  -1  12   31.10    2.20
   5  -1  12   23.70    2.40
   5  -1  12   27.80    2.20
   5  -1  12   30.40    2.20
   6  -1  12  135.49    7.40
   6  -1  12  140.09    7.50
   6  -1  12  133.19    7.50
   6  -1  12  130.29    7.50
   6  -1  12  129.79    7.40
   6  -1  12  117.19    7.40
   8   0 -12   59.09    5.50
   8   0 -12   64.09    8.50
  -8   0  12   47.50    3.30
  -8   0  12   45.30    3.10
  -8   0  12   52.39    3.40
   7   0 -12  205.78   14.70
   7   0 -12  199.48   18.30
   7   0 -12  179.28   11.20
   7   0 -12  206.98   14.20
  -7   0  12  204.98   11.50
  -7   0  12  189.58   11.10
   6   0 -12    1.20    1.80
   6   0 -12    1.70    1.80
   6   0 -12    0.60    0.60
   6   0 -12    1.80    3.10
  -6   0  12    1.40    0.70
  -6   0  12    0.00    0.70
   5   0 -12   93.19    8.90
   5   0 -12   76.99    5.50
   5   0 -12   86.49    7.80
  -5   0  12   86.79    5.80
  -5   0  12   91.29    5.40
   4   0 -12   58.09    5.90
   4   0 -12   54.79    6.30
   4   0 -12   53.19    6.90
  -4   0  12   55.09    4.10
  -4   0  12   58.29    3.80
   3   0 -12   62.89    6.90
   3   0 -12   66.59    7.30
  -3   0  12   68.99    4.80
  -3   0  12   66.49    4.30
  -3   0  12   65.29    4.70
   2   0 -12  308.77   20.70
   2   0 -12  325.97   21.20
  -2   0  12  285.87   17.60
  -2   0  12  359.06   20.20
  -2   0  12  297.17   17.30
   1   0 -12  103.49   11.70
  -1   0  12   73.99    5.40
  -1   0  12   72.39    5.10
  -1   0  12   87.99    5.30
  -1   0  12  101.19    8.70
   0   0  12  661.13   35.40
   0   0  12  632.24   35.50
   0   0  12  635.34   35.00
   0   0  12  659.33   34.90
   0   0  12  637.64   35.10
   0   0  12  620.84   35.10
   1   0  12    6.50    1.40
   1   0  12    5.90    1.10
   1   0  12    5.30    1.10
   1   0  12    6.80    1.10
   1   0  12    8.40    1.40
   1   0  12    4.40    1.20
   1   0  12    6.00    1.10
   1   0  12    5.80    1.00
   2   0  12  196.28   11.40
   2   0  12  207.18   11.30
   2   0  12  184.78   11.30
   2   0  12  202.58   11.20
   2   0  12  189.98   11.30
   2   0  12  192.08   11.60
   2   0  12  184.08   11.10
   2   0  12  199.18   11.70
   3   0  12    3.10    0.80
   3   0  12    3.40    1.20
   3   0  12    4.20    1.10
   3   0  12    2.50    0.80
   3   0  12    4.10    0.90
   3   0  12    2.70    0.80
   3   0  12    2.80    0.80
   3   0  12    4.30    0.90
   4   0  12  507.75   27.50
   4   0  12  480.45   27.30
   4   0  12  490.75   27.30
   4   0  12  498.55   27.20
   4   0  12  473.35   27.50
   4   0  12  530.65   27.30
   4   0  12  502.85   27.60
   5   0  12   82.79    5.00
   5   0  12   78.99    5.10
   5   0  12   93.29    5.10
   5   0  12   84.09    5.00
   5   0  12   86.89    5.10
   5   0  12   82.29    5.20
   5   0  12   76.99    4.90
   8  -1 -12    1.70    1.60
   8  -1 -12    1.90    2.80
  -8   1  12    2.20    0.70
  -8   1  12    1.70    0.50
   7  -1 -12   83.19    7.80
   7  -1 -12   90.39   10.30
   7  -1 -12   85.39    7.60
  -7   1  12   79.59    5.10
  -7   1  12   74.99    5.30
   6  -1 -12  173.08   15.70
   6  -1 -12  197.58   13.30
   6  -1 -12  165.48   13.60
  -6   1  12  187.88   10.50
  -6   1  12  178.08   10.70
   5  -1 -12   25.00    4.80
   5  -1 -12   28.40    4.40
  -5   1  12   28.10    2.50
  -5   1  12   26.50    2.80
   4  -1 -12  578.94   37.50
   4  -1 -12  657.73   37.10
   4  -1 -12  627.84   38.70
  -4   1  12  622.94   34.40
  -4   1  12  655.63   34.80
   3  -1 -12   13.10    3.40
   3  -1 -12   13.40    3.40
  -3   1  12   14.80    1.70
  -3   1  12   16.10    2.00
   2  -1 -12  452.05   28.10
  -2   1  12  422.06   24.40
  -2   1  12  439.56   24.30
  -2   1  12  422.86   24.30
  -2   1  12  478.35   27.50
  -2   1  12  422.56   24.60
   1  -1 -12  179.58   13.10
  -1   1  12  174.88   10.00
  -1   1  12  176.58   12.70
  -1   1  12  157.88   10.10
  -1   1  12  158.88    9.70
  -1   1  12  171.98   10.00
  -1   1  12  164.68    9.90
   0   1  12   79.39    5.00
   0   1  12   73.99    4.80
   0   1  12   68.59    4.60
   0   1  12   69.79    5.00
   0   1  12   68.49    4.90
   0   1  12   67.59    4.60
   0   1  12   76.89    4.80
   0   1  12   81.89    7.30
   1   1  12  155.28    9.30
   1   1  12  159.78    9.20
   1   1  12  161.98    9.20
   1   1  12  156.98    9.40
   1   1  12  151.18   11.70
   1   1  12  153.68    9.40
   1   1  12  155.88    9.60
   1   1  12  156.58    9.30
   2   1  12  311.27   16.70
   2   1  12  304.77   16.70
   2   1  12  298.47   16.80
   2   1  12  287.87   16.90
   2   1  12  290.57   17.10
   2   1  12  272.17   16.70
   2   1  12  306.47   16.90
   3   1  12  217.38   12.50
   3   1  12  217.68   12.40
   3   1  12  221.18   12.40
   3   1  12  205.28   12.50
   3   1  12  213.78   12.70
   3   1  12  220.58   12.60
   3   1  12  220.58   12.40
   4   1  12  172.28    9.60
   4   1  12  165.48    9.80
   4   1  12  166.78    9.90
   4   1  12  166.38    9.90
   4   1  12  174.48    9.70
   4   1  12  166.18    9.70
   5   1  12  103.89    5.90
   5   1  12   94.09    5.70
   5   1  12  103.29    5.70
   5   1  12   96.19    5.80
   5   1  12   95.69    5.80
   8  -2 -12   90.99    9.30
   8  -2 -12   72.79    6.50
  -8   2  12   76.59    4.80
  -8   2  12   79.59    5.00
   7  -2 -12   24.70    5.40
   7  -2 -12   25.00    4.10
   7  -2 -12   27.50    4.20
  -7   2  12   23.50    2.20
  -7   2  12   23.70    2.40
   6  -2 -12   12.00    2.90
   6  -2 -12    9.50    3.00
  -6   2  12   12.60    1.80
  -6   2  12   13.80    1.60
   5  -2 -12   62.19    6.10
   5  -2 -12   57.59    6.80
  -5   2  12   55.19    4.00
  -5   2  12   58.39    4.10
  -5   2  12   58.79    4.30
   4  -2 -12   10.90    2.90
   4  -2 -12   11.10    3.30
   4  -2 -12   14.10    3.00
  -4   2  12   12.70    1.70
  -4   2  12   14.20    1.80
  -4   2  12   10.80    1.70
   3  -2 -12 2105.49  113.19
  -3   2  12 1967.60  108.99
  -3   2  12 2015.50  108.89
  -3   2  12 2121.19  112.19
  -3   2  12 1894.71  108.79
   2  -2 -12  171.88   13.30
  -2   2  12  169.68    9.90
  -2   2  12  168.88   12.80
  -2   2  12  162.18    9.70
  -2   2  12  161.58   10.00
  -2   2  12  161.18    9.90
   1  -2 -12  176.08   13.50
  -1   2  12  177.18   10.20
  -1   2  12  170.38   10.30
  -1   2  12  180.28   10.40
  -1   2  12  178.28   10.30
  -1   2  12  175.28   10.50
  -1   2  12  165.88   10.50
  -1   2  12  179.98   13.60
   0   2  12  260.87   17.80
   0   2  12  233.98   14.10
   0   2  12  256.77   14.50
   0   2  12  238.48   14.30
   0   2  12  242.58   14.20
   0   2  12  251.67   14.40
   0   2  12  249.18   14.10
   0   2  12  250.27   14.20
   1   2  12   18.20    3.70
   1   2  12   12.80    1.60
   1   2  12   14.70    1.90
   1   2  12   13.60    1.80
   1   2  12   14.80    1.70
   1   2  12   13.50    1.80
   1   2  12   13.90    1.90
   1   2  12   12.60    1.80
   2   2  12   32.70    2.60
   2   2  12   30.90    3.10
   2   2  12   33.00    3.00
   2   2  12   34.40    2.90
   2   2  12   37.00    3.20
   2   2  12   31.20    2.80
   3   2  12  310.77   17.60
   3   2  12  314.57   17.70
   3   2  12  304.57   17.50
   3   2  12  311.77   17.70
   3   2  12  325.37   17.60
   3   2  12  327.37   17.80
   3   2  12  308.87   17.50
   4   2  12  231.08   13.40
   4   2  12  243.18   13.30
   4   2  12  235.98   13.40
   4   2  12  253.47   13.50
   4   2  12  239.08   13.60
   4   2  12  235.18   13.40
   8  -3 -12   51.49    5.00
   8  -3 -12   64.69    7.10
  -8   3  12   49.90    3.50
  -8   3  12   50.09    3.50
   7  -3 -12   49.50    5.00
   7  -3 -12   40.90    4.90
   7  -3 -12   37.60    5.80
  -7   3  12   41.00    3.10
  -7   3  12   42.30    3.20
  -7   3  12   43.80    3.10
   6  -3 -12   61.29    6.90
   6  -3 -12   67.09    6.30
  -6   3  12   63.09    4.60
  -6   3  12   64.49    4.60
  -6   3  12   78.19    4.60
   5  -3 -12  344.47   22.00
   5  -3 -12  344.47   23.30
  -5   3  12  352.26   19.80
  -5   3  12  353.16   19.70
  -5   3  12  353.96   19.80
   4  -3 -12   55.39    5.60
   4  -3 -12   57.99    6.70
  -4   3  12   51.39    4.00
  -4   3  12   53.29    4.00
  -4   3  12   48.40    3.70
   3  -3 -12  343.87   23.20
  -3   3  12  351.06   22.60
  -3   3  12  358.46   19.30
  -3   3  12  313.37   19.70
  -3   3  12  337.07   19.40
   2  -3 -12  102.29    9.40
  -2   3  12   94.39    6.20
  -2   3  12  111.29    9.90
  -2   3  12   98.19    6.30
  -2   3  12   91.19    6.30
  -2   3  12  101.09    6.50
  -1   3  12  104.99    6.60
  -1   3  12  103.79    6.50
  -1   3  12  105.89   10.20
  -1   3  12  106.89    6.70
  -1   3  12  101.29    6.60
  -1   3  12  103.29    6.50
  -1   3  12  106.89    6.80
   0   3  12  254.17   14.10
   0   3  12  234.78   14.20
   0   3  12  233.98   14.30
   0   3  12  226.58   14.00
   0   3  12  296.67   19.10
   0   3  12  238.48   14.00
   0   3  12  241.68   14.20
   1   3  12  259.47   15.30
   1   3  12  270.17   15.60
   1   3  12  273.47   18.80
   1   3  12  276.47   15.70
   1   3  12  257.47   15.30
   1   3  12  265.57   15.50
   1   3  12  290.47   15.80
   1   3  12  268.17   15.40
   2   3  12  157.98   10.00
   2   3  12  165.58    9.80
   2   3  12  173.88   10.00
   2   3  12  182.58   10.30
   2   3  12  175.68    9.90
   2   3  12  167.28    9.90
   2   3  12  160.28   10.00
   3   3  12  164.78    9.80
   3   3  12  176.48    9.90
   3   3  12  168.08   10.00
   3   3  12  170.18    9.80
   3   3  12  169.38   10.00
   3   3  12  183.28   10.20
   4   3  12  163.68    9.30
   4   3  12  168.28    9.40
   4   3  12  167.28    9.40
   4   3  12  175.28    9.50
   4   3  12  167.18    9.50
   8  -4 -12  203.78   14.30
   8  -4 -12  184.28   12.10
  -8   4  12  192.58   10.70
  -8   4  12  170.68   10.60
   7  -4 -12    4.10    2.20
   7  -4 -12    4.20    1.80
   7  -4 -12    4.90    1.90
  -7   4  12    3.90    1.00
  -7   4  12    4.10    1.00
   6  -4 -12   23.60    4.40
   6  -4 -12   21.60    3.60
  -6   4  12   21.60    2.40
  -6   4  12   25.10    2.30
   5  -4 -12   94.29    9.10
   5  -4 -12   94.99    8.10
  -5   4  12  103.59    6.20
  -5   4  12   95.19    6.40
   4  -4 -12  735.33   46.60
   4  -4 -12  777.22   44.80
  -4   4  12  762.12   42.70
  -4   4  12  836.32   45.90
  -4   4  12  765.52   42.40
  -3   4  12    2.00    0.80
  -3   4  12    2.30    0.80
  -3   4  12    2.30    1.00
  -3   4  12    2.30    0.90
  -3   4  12    2.60    1.90
  -2   4  12  110.09    6.40
  -2   4  12   92.89    5.80
  -2   4  12   75.79    9.40
  -2   4  12   82.09    5.90
  -2   4  12   85.69    6.00
  -2   4  12   89.89    5.80
  -2   4  12  106.89    5.90
  -1   4  12  101.99    6.60
  -1   4  12   96.89   10.60
  -1   4  12  103.89    6.50
  -1   4  12  101.39    6.70
  -1   4  12  102.29    6.50
  -1   4  12  109.99    6.80
  -1   4  12  103.29    6.40
   0   4  12   52.19    3.50
   0   4  12   42.20    3.60
   0   4  12   49.90    3.50
   0   4  12   46.50    3.50
   0   4  12   44.80    3.70
   0   4  12   52.49    3.80
   0   4  12   46.80    7.60
   1   4  12   91.19    5.80
   1   4  12   94.29    6.10
   1   4  12   92.19    5.90
   1   4  12   99.09    6.00
   1   4  12   84.19    8.50
   1   4  12   98.99    6.20
   1   4  12   95.69    6.20
   2   4  12   31.50    2.40
   2   4  12   34.80    2.50
   2   4  12   34.60    2.70
   2   4  12   36.50    2.60
   2   4  12   31.50    2.50
   2   4  12   29.40    2.50
   3   4  12  160.98    9.10
   3   4  12  165.58    9.00
   3   4  12  159.78    8.90
   3   4  12  156.88    9.10
   3   4  12  151.08    9.00
   8  -5 -12   53.99    5.50
   8  -5 -12   45.70    4.20
  -8   5  12   43.60    3.00
  -8   5  12   46.20    3.20
   7  -5 -12   87.89    6.80
   7  -5 -12   74.29    6.70
  -7   5  12   76.59    5.00
  -7   5  12   81.89    5.30
   6  -5 -12   30.20    4.20
   6  -5 -12   29.10    4.80
  -6   5  12   33.90    3.10
  -6   5  12   33.70    2.70
   5  -5 -12   82.79    8.10
   5  -5 -12   74.69    6.90
  -5   5  12   85.69    5.60
  -5   5  12   77.59    5.20
  -5   5  12   76.69    5.20
   4  -5 -12   51.59    6.60
   4  -5 -12   56.39    5.70
  -4   5  12   61.69    6.70
  -4   5  12   57.99    4.10
  -4   5  12   52.09    4.20
  -4   5  12   50.49    3.80
  -3   5  12  126.09   11.10
  -3   5  12  105.59    7.20
  -3   5  12  120.69    7.10
  -3   5  12   98.79    7.00
  -3   5  12  103.29    6.80
  -2   5  12   -0.20    0.60
  -2   5  12    1.00    0.80
  -2   5  12    0.80    0.70
  -2   5  12    0.20    2.10
  -2   5  12   -1.00    3.20
  -2   5  12    0.10    0.60
  -2   5  12    0.70    0.70
  -2   5  12    0.00    0.80
  -1   5  12  205.08   12.20
  -1   5  12  207.78   11.80
  -1   5  12  188.18   11.90
  -1   5  12  216.78   12.30
  -1   5  12  203.78   12.10
  -1   5  12  195.48   11.90
  -1   5  12  220.18   17.40
   0   5  12  105.89    6.50
   0   5  12   97.49    6.30
   0   5  12   85.39    9.60
   0   5  12   97.69    6.40
   0   5  12  110.29    6.40
   0   5  12   94.79    6.50
   0   5  12  106.69    6.20
   1   5  12   15.10    1.70
   1   5  12   16.50    1.60
   1   5  12   13.70    1.80
   1   5  12   13.20    1.70
   1   5  12   12.60    1.50
   1   5  12   16.40    3.60
   1   5  12   14.50    1.70
   2   5  12   25.60    2.00
   2   5  12   23.40    2.00
   2   5  12   26.90    2.10
   2   5  12   25.60    2.00
   2   5  12   31.10    2.10
   8  -6 -12    3.40    1.20
  -8   6  12    2.00    0.70
  -8   6  12    3.30    0.80
   7  -6 -12   52.49    4.70
   7  -6 -12   45.70    4.70
  -7   6  12   50.89    3.60
  -7   6  12   50.29    3.20
   6  -6 -12   31.40    3.70
   6  -6 -12   24.10    4.10
  -6   6  12   26.70    2.30
  -6   6  12   29.90    2.80
  -6   6  12   26.30    2.80
   5  -6 -12  178.38   12.50
   5  -6 -12  180.68   13.70
  -5   6  12  173.18   10.60
  -5   6  12  197.68   11.00
  -5   6  12  172.08   10.30
   4  -6 -12   38.70    4.50
   4  -6 -12   45.10    5.90
  -4   6  12   33.80    3.30
  -4   6  12   41.40    3.00
  -4   6  12   49.30    5.90
  -4   6  12   39.20    3.60
  -3   6  12  346.17   18.30
  -3   6  12  255.17   22.00
  -3   6  12  309.77   18.50
  -3   6  12  359.76   18.50
  -3   6  12  338.17   18.60
  -3   6  12  333.87   18.10
  -2   6  12    8.00    1.30
  -2   6  12    7.60    1.40
  -2   6  12    5.50    1.30
  -2   6  12    5.30    3.20
  -2   6  12    1.60    4.20
  -2   6  12    8.30    1.30
  -2   6  12    7.60    1.40
  -1   6  12   21.50    2.40
  -1   6  12   23.90    2.40
  -1   6  12   24.40    2.40
  -1   6  12   12.30    4.30
  -1   6  12   18.40    2.00
  -1   6  12   21.20    2.20
   0   6  12   77.79    4.70
   0   6  12   71.39    4.60
   0   6  12   71.49    4.80
   0   6  12   68.59    4.70
   0   6  12   78.39    4.70
   0   6  12   56.69    6.90
   1   6  12    4.60    0.80
   1   6  12    4.20    1.60
   1   6  12    5.60    0.90
   1   6  12    6.40    1.00
   1   6  12    5.90    0.90
   1   6  12    6.00    1.00
   7  -7 -12    4.30    1.40
  -7   7  12    5.20    0.90
   6  -7 -12  105.19    7.50
   6  -7 -12   92.49    7.80
  -6   7  12   92.49    6.00
  -6   7  12  102.99    6.20
   5  -7 -12   73.49    6.00
   5  -7 -12   64.49    6.70
  -5   7  12   74.29    4.80
  -5   7  12   62.79    4.50
   4  -7 -12   21.40    3.20
   4  -7 -12   17.90    3.80
  -4   7  12   21.30    4.10
  -4   7  12   21.70    2.30
  -4   7  12   19.10    2.10
  -4   7  12   17.80    1.90
  -3   7  12   28.50    2.60
  -3   7  12   24.00    2.40
  -3   7  12   23.50    2.20
  -3   7  12   23.40    2.30
  -3   7  12   25.70    5.10
  -3   7  12   26.10    2.40
  -2   7  12  308.07   16.10
  -2   7  12  275.87   16.10
  -2   7  12  301.07   16.40
  -2   7  12  255.37   16.20
  -2   7  12  292.37   16.20
  -1   7  12  105.29    6.80
  -1   7  12  112.79    6.80
  -1   7  12  113.19    6.80
  -1   7  12  113.49    6.80
  -1   7  12  115.79    7.00
   0   7  12    2.70    0.70
   0   7  12    2.40    0.70
   0   7  12    3.60    0.90
   0   7  12    4.00    0.70
   0   7  12    2.60    0.70
   0   7  12    1.30    1.50
   6  -8 -12   34.50    3.60
   6  -8 -12   37.50    3.40
  -6   8  12   39.00    2.60
  -6   8  12   34.70    2.50
   5  -8 -12  140.99    8.90
   5  -8 -12  122.39    9.40
  -5   8  12  130.59    7.70
  -5   8  12  127.99    7.70
   4  -8 -12  305.57   17.80
   4  -8 -12  311.57   19.20
  -4   8  12  275.67   16.70
  -4   8  12  297.77   16.70
  -4   8  12  321.27   19.00
  -4   8  12  281.57   16.50
   3  -8 -12    1.90    1.40
  -3   8  12    2.10    1.70
  -3   8  12    1.60    0.70
  -3   8  12    2.30    0.70
  -3   8  12    1.90    0.70
  -3   8  12    2.40    0.70
  -3   8  12    2.20    0.60
   2  -8 -12  109.99    7.80
  -2   8  12   99.19    6.10
  -2   8  12  109.49    6.00
  -2   8  12   89.79    6.00
  -2   8  12   86.79    8.00
  -2   8  12   98.99    6.00
  -2   8  12  104.39    5.90
  -1   8  12   38.20    2.40
  -1   8  12   40.10    2.50
  -1   8  12   36.80    2.60
  -1   8  12   37.70    2.40
  -1   8  12   29.70    3.70
   1   9 -13   94.39    9.40
  -1  -9  13  123.39    6.40
  -1  -9  13  111.69    7.20
   0   9 -13    4.00    2.50
   0   9 -13    3.80    0.90
   0  -9  13    3.10    1.20
   0  -9  13    3.80    0.70
  -1   9 -13    9.00    3.10
  -1   9 -13    9.50    1.60
   1  -9  13    9.80    1.90
   1  -9  13   10.20    1.20
  -2   9 -13    3.50    0.80
  -2   9 -13    4.90    1.20
   2  -9  13    3.40    0.80
   2  -9  13    3.20    1.20
  -3   9 -13  243.28   14.60
  -3   9 -13  261.87   14.90
   3  -9  13  286.57   14.60
   3  -9  13  255.67   15.40
  -4   9 -13   46.00    3.10
   4  -9  13   49.70    3.10
   2   8 -13   36.30    6.10
   2   8 -13   38.40    6.10
  -2  -8  13   39.70    2.60
   1   8 -13   19.20    2.10
   1   8 -13   16.40    4.40
   1   8 -13   16.90    4.50
  -1  -8  13   19.80    2.70
  -1  -8  13   20.30    1.80
   0   8 -13   87.09    9.70
   0   8 -13   77.99    5.70
   0  -8  13   86.09    5.30
   0  -8  13   86.39    6.50
  -1   8 -13   87.09    6.20
  -1   8 -13   83.19    9.50
   1  -8  13   86.39    6.90
   1  -8  13  106.69    5.80
  -2   8 -13   21.50    2.40
  -2   8 -13   19.70    2.00
   2  -8  13   23.10    2.10
   2  -8  13   21.10    3.00
  -3   8 -13   23.50    2.20
  -3   8 -13   25.60    2.60
   3  -8  13   22.40    3.00
   3  -8  13   25.70    2.30
  -4   8 -13    0.50    0.70
  -4   8 -13    0.70    0.70
   4  -8  13   -0.40    0.80
   4  -8  13    0.10    0.60
  -5   8 -13    0.80    0.50
   5  -8  13    0.40    0.40
   4   7 -13   59.29    7.00
  -4  -7  13   83.09    4.40
   3   7 -13    0.90    1.60
   3   7 -13    2.80    2.70
   3   7 -13    1.70    1.90
  -3  -7  13    2.20    0.60
  -3  -7  13    2.30    0.70
   2   7 -13  155.48   14.00
   2   7 -13  180.68   11.70
   2   7 -13  129.59   14.30
  -2  -7  13  165.18    9.20
  -2  -7  13  150.48    9.10
   1   7 -13   62.49    8.40
   1   7 -13   64.69   10.60
   1   7 -13   74.19    4.90
  -1  -7  13   64.99    4.40
  -1  -7  13   62.69    4.40
   0   7 -13   17.30    4.60
   0   7 -13   12.20    1.90
   0  -7  13   13.80    1.70
   0  -7  13   14.00    1.80
   0  -7  13   14.80    2.70
  -1   7 -13   17.40    4.60
  -1   7 -13   17.40    1.90
  -1   7 -13   22.30    2.60
   1  -7  13   22.70    2.20
   1  -7  13   19.80    2.10
   1  -7  13   19.80    3.20
  -2   7 -13  237.08   13.90
  -2   7 -13  221.88   13.40
   2  -7  13  231.28   14.90
   2  -7  13  230.98   13.60
   2  -7  13  250.07   13.60
  -3   7 -13   97.99    6.40
  -3   7 -13   92.29    6.20
   3  -7  13  103.69    6.20
   3  -7  13   99.19    6.30
  -4   7 -13  108.59    6.90
  -4   7 -13  115.29    7.20
  -4   7 -13  129.99    7.20
   4  -7  13  124.39    7.20
   4  -7  13  114.09    7.00
  -5   7 -13   79.99    4.80
  -5   7 -13   74.29    4.60
   5  -7  13   70.39    4.70
   5  -7  13   78.59    4.60
   4   6 -13   11.60    3.00
   4   6 -13    9.90    4.40
   4   6 -13   11.10    2.10
   4   6 -13   13.40    3.60
  -4  -6  13   10.60    1.30
   3   6 -13   55.59    5.10
   3   6 -13   53.79    6.30
   3   6 -13   63.49    7.60
   3   6 -13   54.19    9.30
  -3  -6  13   54.99    3.90
   2   6 -13  149.39    9.90
   2   6 -13  193.88   12.20
   2   6 -13  157.98   15.90
   2   6 -13  162.98   14.50
  -2  -6  13  167.28    9.90
  -2  -6  13  165.38    9.80
   1   6 -13  292.57   22.20
   1   6 -13  249.28   15.10
   1   6 -13  240.58   19.60
  -1  -6  13  264.77   15.00
  -1  -6  13  257.77   14.90
   0   6 -13  150.68   13.10
   0   6 -13  159.08    9.50
   0  -6  13  141.09    8.90
   0  -6  13  144.89    9.10
  -1   6 -13   89.39    9.40
  -1   6 -13  105.19    6.70
  -1   6 -13   94.49    6.00
   1  -6  13   88.89    6.20
   1  -6  13   95.79    6.10
  -2   6 -13    5.60    1.20
  -2   6 -13    8.10    1.60
   2  -6  13    6.20    1.30
   2  -6  13    6.40    1.30
  -3   6 -13   12.70    1.70
  -3   6 -13   14.90    2.00
   3  -6  13   13.60    1.80
   3  -6  13   12.30    1.70
  -4   6 -13    0.80    0.70
  -4   6 -13    0.30    0.60
  -4   6 -13   -0.10    0.50
   4  -6  13    0.10    0.70
   4  -6  13   -0.40    0.70
  -5   6 -13  155.98    9.00
  -5   6 -13  148.49    8.80
   5  -6  13  156.98    9.00
   5  -6  13  160.88    9.10
  -6   6 -13  187.98   11.10
   6  -6  13  223.88   11.70
   6  -6  13  195.78   11.10
   5   5 -13  166.38    8.80
   5   5 -13  148.79   11.60
   5   5 -13  140.79   13.50
  -5  -5  13  155.28    9.00
   4   5 -13   12.50    3.60
   4   5 -13    9.70    3.20
   4   5 -13    7.60    3.80
   4   5 -13   11.00    1.30
  -4  -5  13   10.20    1.40
   3   5 -13   97.39   10.10
   3   5 -13  103.69    6.40
   3   5 -13  122.89   10.60
   3   5 -13   94.79   11.50
  -3  -5  13   96.69    6.50
   2   5 -13   78.89    5.70
   2   5 -13   96.09    9.50
   2   5 -13   78.59   10.20
  -2  -5  13   89.89    5.80
   1   5 -13    9.90    1.70
   1   5 -13   12.80    4.50
   1   5 -13   10.20    3.60
  -1  -5  13   10.20    1.60
  -1  -5  13   10.80    1.70
   0   5 -13  285.77   16.80
   0   5 -13  302.27   20.90
   0  -5  13  264.17   16.30
   0  -5  13  292.67   16.60
  -1   5 -13   82.69    8.50
  -1   5 -13   81.79    5.70
  -1   5 -13   80.69    5.10
   1  -5  13   74.09    5.40
   1  -5  13   70.29    5.20
  -2   5 -13  352.56   20.30
  -2   5 -13  379.26   20.80
   2  -5  13  356.56   20.40
   2  -5  13  352.56   20.50
  -3   5 -13   75.79    5.40
  -3   5 -13   84.79    5.20
   3  -5  13   69.09    5.20
   3  -5  13   71.69    5.20
  -4   5 -13   22.80    2.10
  -4   5 -13   29.40    3.10
  -4   5 -13   25.80    2.40
   4  -5  13   24.00    2.40
   4  -5  13   25.80    2.60
  -5   5 -13   12.40    1.30
  -5   5 -13   14.10    1.50
   5  -5  13   14.00    1.60
   5  -5  13   16.90    1.70
  -6   5 -13   10.20    1.00
  -6   5 -13    9.90    1.00
   6  -5  13    9.60    1.00
   6  -5  13   11.40    1.10
   6   4 -13  427.46   25.90
   6   4 -13  460.45   23.10
   6   4 -13  393.26   27.40
  -6  -4  13  406.26   23.20
   5   4 -13   -0.30    2.00
   5   4 -13   -0.30    1.90
   5   4 -13    0.30    0.50
  -5  -4  13   -0.50    0.60
  -5  -4  13    0.00    0.50
   4   4 -13   21.30    5.30
   4   4 -13   20.20    5.10
   4   4 -13   19.20    1.90
   4   4 -13   18.50    4.20
  -4  -4  13   20.40    2.20
  -4  -4  13   16.50    1.80
   3   4 -13  230.08   17.60
   3   4 -13  229.58   18.80
  -3  -4  13  237.08   13.50
  -3  -4  13  242.98   13.90
   2   4 -13   57.39    6.90
   2   4 -13   43.50    3.60
   2   4 -13   39.90    7.00
  -2  -4  13   47.40    3.80
  -2  -4  13   42.70    3.30
   1   4 -13   -0.20    0.80
   1   4 -13   -0.10    1.50
   1   4 -13   -0.40    1.90
  -1  -4  13    1.60    0.80
  -1  -4  13    0.50    0.80
  -1  -4  13    0.50    0.70
   0   4 -13    5.00    2.60
   0   4 -13    6.30    1.50
   0  -4  13    4.90    1.30
   0  -4  13    7.50    1.30
   0  -4  13    6.50    1.30
  -1   4 -13  108.09    7.40
  -1   4 -13  112.99   10.30
  -1   4 -13  103.89    6.80
   1  -4  13  114.99    7.00
   1  -4  13  115.69    7.10
   1  -4  13  112.19    7.30
  -2   4 -13   21.50    2.30
  -2   4 -13   19.30    2.50
   2  -4  13   25.20    2.60
   2  -4  13   24.20    2.70
   2  -4  13   24.90    2.40
  -3   4 -13   34.30    3.30
  -3   4 -13   42.40    3.00
   3  -4  13   36.80    3.50
   3  -4  13   30.80    3.00
   3  -4  13   34.10    2.50
   3  -4  13   36.60    2.90
  -4   4 -13   48.20    3.40
   4  -4  13   45.20    3.40
   4  -4  13   43.10    3.30
   4  -4  13   45.80    3.00
   4  -4  13   45.90    3.60
  -5   4 -13  128.09    7.00
   5  -4  13  115.49    6.80
   5  -4  13  120.49    7.10
   5  -4  13  114.99    6.70
   5  -4  13  100.49    6.80
  -6   4 -13    0.40    0.40
  -6   4 -13    0.40    0.40
   6  -4  13    1.00    0.40
   6  -4  13    0.00    0.40
   6  -4  13    0.70    0.40
   6  -4  13    0.50    0.40
   6   3 -13   79.89    8.20
   6   3 -13   82.59   11.00
   6   3 -13   80.39    8.90
   6   3 -13   85.39    4.90
  -6  -3  13   82.59    5.00
  -6  -3  13   77.09    5.10
   5   3 -13   29.40    5.90
   5   3 -13   26.30    5.30
   5   3 -13   26.20    2.10
  -5  -3  13   28.30    2.50
  -5  -3  13   25.00    2.50
   4   3 -13   84.69    8.80
   4   3 -13   82.99    5.10
   4   3 -13   84.49    9.60
   4   3 -13   76.69    8.10
  -4  -3  13   82.49    5.50
  -4  -3  13   74.09    5.20
   3   3 -13   47.90    3.40
   3   3 -13   45.80    6.20
   3   3 -13   48.20    6.80
  -3  -3  13   44.40    3.50
  -3  -3  13   47.00    3.70
   2   3 -13    5.30    2.60
   2   3 -13    4.80    1.30
   2   3 -13    6.00    2.90
  -2  -3  13    5.50    1.30
  -2  -3  13    4.90    1.20
   1   3 -13  137.59    8.80
   1   3 -13  143.39   12.70
   1   3 -13  144.09   12.20
  -1  -3  13  136.29    8.80
  -1  -3  13  147.59    8.60
  -1  -3  13  136.59    8.50
   0   3 -13    0.10    1.50
   0   3 -13    1.00    0.80
   0  -3  13    2.10    0.90
   0  -3  13    0.30    0.70
   0  -3  13    0.60    0.70
  -1   3 -13  468.25   26.80
  -1   3 -13  472.75   30.20
   1  -3  13  471.85   26.50
   1  -3  13  492.75   26.10
   1  -3  13  462.65   26.90
   1  -3  13  484.95   26.60
  -2   3 -13   43.30    3.40
   2  -3  13   40.50    3.20
   2  -3  13   36.70    2.60
   2  -3  13   35.10    2.70
   2  -3  13   39.30    3.70
   2  -3  13   43.20    3.60
  -3   3 -13    8.40    1.50
   3  -3  13    6.70    1.50
   3  -3  13   10.30    1.20
   3  -3  13    6.80    1.10
   3  -3  13    8.40    1.40
   3  -3  13    8.20    1.50
  -4   3 -13   52.89    3.80
   4  -3  13   49.10    3.70
   4  -3  13   58.09    3.60
   4  -3  13   59.19    4.20
   4  -3  13   51.79    3.50
   4  -3  13   53.29    3.80
   4  -3  13   57.99    3.50
  -5   3 -13    6.10    1.00
   5  -3  13    5.60    0.90
   5  -3  13    4.20    0.70
   5  -3  13    5.00    1.10
   5  -3  13    3.50    0.70
   5  -3  13    4.50    0.80
   5  -3  13    4.80    0.80
  -6   3 -13   29.60    2.00
   6  -3  13   30.70    2.00
   6  -3  13   32.30    2.00
   6  -3  13   26.10    2.10
   7   2 -13  149.49   11.80
   7   2 -13  159.68   11.80
   7   2 -13  182.48   15.20
  -7  -2  13  150.78    8.90
  -7  -2  13  147.49    8.80
   6   2 -13    6.10    7.70
   6   2 -13   14.70    3.80
   6   2 -13   11.30    3.60
  -6  -2  13   10.80    1.50
  -6  -2  13   10.10    1.30
   5   2 -13   27.80    5.40
   5   2 -13   21.50    4.70
  -5  -2  13   33.30    2.70
   4   2 -13  284.37   21.00
   4   2 -13  320.47   21.70
   4   2 -13  336.97   22.70
  -4  -2  13  335.87   18.30
  -4  -2  13  309.17   18.00
   3   2 -13  287.27   20.20
   3   2 -13  294.87   20.70
  -3  -2  13  283.17   16.70
  -3  -2  13  290.87   16.50
   2   2 -13  364.96   24.40
   2   2 -13  342.47   20.40
   2   2 -13  374.06   24.40
  -2  -2  13  362.26   20.40
  -2  -2  13  365.76   20.60
   1   2 -13  112.69   10.30
   1   2 -13  112.19    7.30
  -1  -2  13  113.99    7.40
  -1  -2  13  117.79    7.20
   0   2 -13  130.99   11.00
   0   2 -13  121.99    8.00
   0  -2  13  117.19    7.80
   0  -2  13  120.69    8.10
   0  -2  13  133.59    7.40
  -1   2 -13  399.56   22.70
  -1   2 -13  405.46   26.00
   1  -2  13  377.96   22.60
   1  -2  13  411.16   22.10
   1  -2  13  393.56   22.10
   1  -2  13  409.26   22.80
  -2   2 -13    0.50    0.80
   2  -2  13    0.60    0.50
   2  -2  13    0.50    0.50
   2  -2  13   -0.10    0.50
   2  -2  13    0.90    0.80
   2  -2  13   -1.50    0.60
  -3   2 -13  179.58   11.00
   3  -2  13  192.78   10.60
   3  -2  13  195.68   10.60
   3  -2  13  163.48   11.30
   3  -2  13  174.28   10.50
   3  -2  13  198.18   10.60
   3  -2  13  185.58   11.20
   3  -2  13  177.88   11.00
   4  -2  13   52.29    3.40
   4  -2  13   53.59    3.70
   4  -2  13   49.00    3.40
   4  -2  13   49.40    3.40
   4  -2  13   48.50    3.80
   4  -2  13   54.39    3.40
   4  -2  13   52.59    3.40
  -5   2 -13   32.60    2.40
   5  -2  13   36.10    2.30
   5  -2  13   32.80    2.50
   5  -2  13   33.20    2.60
   5  -2  13   33.10    2.20
   5  -2  13   31.20    2.30
   5  -2  13   32.80    2.40
   7   1 -13   29.80    4.80
   7   1 -13   32.00    5.00
   7   1 -13   27.00    7.00
  -7  -1  13   29.10    2.20
  -7  -1  13   25.80    2.20
   6   1 -13   35.80    5.40
   6   1 -13   30.50    5.30
  -6  -1  13   31.30    2.80
   5   1 -13   57.69    6.40
   5   1 -13   61.29    7.20
  -5  -1  13   59.89    3.90
  -5  -1  13   63.69    4.40
  -5  -1  13   53.79    4.20
   4   1 -13    9.30    3.00
   4   1 -13    7.40    2.70
   4   1 -13    8.90    3.10
  -4  -1  13    7.30    1.40
  -4  -1  13    8.40    1.60
   3   1 -13  189.08   14.30
   3   1 -13  177.98   14.30
  -3  -1  13  185.08   11.20
  -3  -1  13  173.78   10.50
  -3  -1  13  195.78   11.10
   2   1 -13   54.19    4.00
   2   1 -13   63.49    6.90
   2   1 -13   54.59    6.60
  -2  -1  13   49.40    4.10
  -2  -1  13   55.09    3.70
  -2  -1  13   56.79    4.10
   1   1 -13  620.44   37.70
  -1  -1  13  614.74   33.50
  -1  -1  13  606.24   34.10
  -1  -1  13  586.94   33.90
  -1  -1  13  635.24   33.70
   0   1 -13 1542.85   84.59
   0  -1  13 1533.05   80.19
   0  -1  13 1423.76   80.79
   0  -1  13 1529.55   80.39
   0  -1  13 1424.36   80.69
   0  -1  13 1477.55   80.29
  -1   1 -13   25.60    4.70
   1  -1  13   29.30    3.00
   1  -1  13   24.90    2.00
   1  -1  13   25.90    2.20
   1  -1  13   28.20    2.40
   1  -1  13   23.80    2.70
   1  -1  13   23.80    2.10
   2  -1  13   19.80    2.00
   2  -1  13   15.50    2.10
   2  -1  13   17.30    1.80
   2  -1  13   17.30    1.80
   2  -1  13   18.70    2.40
   2  -1  13   19.50    1.80
   2  -1  13   15.20    1.70
   2  -1  13   14.70    1.80
  -3   1 -13   94.39    5.90
   3  -1  13   95.09    5.60
   3  -1  13   83.79    5.50
   3  -1  13   85.79    6.00
   3  -1  13   77.19    5.40
   3  -1  13   93.19    5.60
   3  -1  13   87.49    5.50
   3  -1  13   96.19    6.00
   4  -1  13   59.29    3.90
   4  -1  13   54.69    3.80
   4  -1  13   55.29    4.10
   4  -1  13   58.69    3.80
   4  -1  13   69.29    3.90
   4  -1  13   58.59    3.80
   4  -1  13   58.49    4.10
  -5   1 -13   86.79    5.20
   5  -1  13   87.59    5.10
   5  -1  13   75.29    5.20
   5  -1  13   89.39    5.20
   5  -1  13   91.79    5.40
   5  -1  13   84.99    5.20
   5  -1  13   93.59    5.10
   8   0 -13   20.00    3.20
  -8   0  13   17.10    1.50
   7   0 -13   89.29    8.10
   7   0 -13  114.29   12.00
   7   0 -13   86.29    7.80
  -7   0  13   92.09    5.70
  -7   0  13   85.29    5.60
  -7   0  13   83.09    5.30
   6   0 -13   39.80    5.50
   6   0 -13   43.30    5.20
  -6   0  13   41.20    2.90
  -6   0  13   35.30    3.30
  -6   0  13   41.70    3.20
   5   0 -13   64.69    7.20
   5   0 -13   59.29    6.30
  -5   0  13   65.49    4.20
  -5   0  13   62.79    4.50
  -5   0  13   59.09    4.40
   4   0 -13  165.48   13.00
   4   0 -13  186.38   13.90
   4   0 -13  158.58   12.10
  -4   0  13  166.68   10.20
  -4   0  13  170.08    9.80
  -4   0  13  162.88   10.20
   3   0 -13  174.18   13.50
   3   0 -13  158.78   12.90
  -3   0  13  164.68   10.10
  -3   0  13  166.88   10.00
  -3   0  13  160.48    9.60
   2   0 -13    0.30    1.50
   2   0 -13    0.00    1.50
  -2   0  13    1.20    0.60
  -2   0  13    0.70    0.80
  -2   0  13    0.80    0.60
  -2   0  13    0.90    0.90
   1   0 -13  765.62   44.00
  -1   0  13  708.63   40.30
  -1   0  13  690.73   40.30
  -1   0  13  759.12   40.10
  -1   0  13  734.53   39.90
   0   0 -13  205.98   15.10
   0   0  13  195.48   12.00
   0   0  13  200.08   11.60
   0   0  13  205.48   11.70
   0   0  13  194.88   12.00
   0   0  13  209.18   11.50
   0   0  13  197.88   11.70
  -1   0 -13   15.40    3.60
   1   0  13   16.10    2.20
   1   0  13   13.40    1.90
   1   0  13   11.70    1.60
   1   0  13   13.70    1.50
   1   0  13   13.40    1.80
   1   0  13   13.90    1.60
   1   0  13   13.10    1.60
   1   0  13   14.60    1.70
   2   0  13  547.95   29.20
   2   0  13  523.65   28.90
   2   0  13  507.95   29.00
   2   0  13  538.35   29.10
   2   0  13  523.45   29.50
   2   0  13  529.35   29.10
   2   0  13  528.95   29.40
   2   0  13  519.25   29.00
   3   0  13   79.19    5.30
   3   0  13   77.49    5.20
   3   0  13   77.79    4.90
   3   0  13   78.69    5.00
   3   0  13   79.09    5.10
   3   0  13   76.89    5.00
   3   0  13   80.89    5.00
   4   0  13  150.28    8.50
   4   0  13  154.08    8.50
   4   0  13  151.88    8.80
   4   0  13  132.99    8.60
   4   0  13  143.99    8.50
   4   0  13  150.98    8.70
   4   0  13  147.49    8.60
  -5   0 -13   35.20    2.20
   5   0  13   36.20    2.40
   5   0  13   27.90    2.20
   5   0  13   35.00    2.20
   5   0  13   33.60    2.30
   5   0  13   32.00    2.20
   5   0  13   38.00    2.30
   8  -1 -13    0.80    1.30
   8  -1 -13    2.60    2.70
  -8   1  13    1.40    0.60
  -8   1  13    1.80    0.50
   7  -1 -13   37.00    4.40
   7  -1 -13   39.10    7.70
   7  -1 -13   28.70    4.30
  -7   1  13   33.70    2.50
  -7   1  13   34.90    2.70
   6  -1 -13   47.10    5.20
   6  -1 -13   44.50    5.70
  -6   1  13   46.50    3.50
  -6   1  13   44.80    3.20
   5  -1 -13    7.70    2.80
   5  -1 -13    6.40    2.30
  -5   1  13    8.00    1.50
  -5   1  13    6.90    1.20
   4  -1 -13  143.19   11.90
   4  -1 -13  130.59   10.20
   4  -1 -13  122.79   10.70
  -4   1  13  138.69    8.10
  -4   1  13  141.89    8.50
   3  -1 -13   15.10    3.60
   3  -1 -13   13.70    3.60
  -3   1  13   16.70    1.90
  -3   1  13   21.80    2.40
   2  -1 -13  585.44   33.70
  -2   1  13  510.35   29.30
  -2   1  13  545.15   29.40
  -2   1  13  501.35   29.40
  -2   1  13  527.25   29.70
  -1   1  13  299.17   17.40
  -1   1  13  312.27   20.10
  -1   1  13  310.37   17.20
  -1   1  13  303.27   17.10
  -1   1  13  295.37   17.20
  -1   1  13  299.07   16.90
   0   1  13   15.70    1.90
   0   1  13   14.70    1.90
   0   1  13   14.50    3.20
   0   1  13   15.10    1.80
   0   1  13   17.30    1.90
   0   1  13   12.60    1.50
   0   1  13   17.40    1.80
   0   1  13   14.90    2.00
   1   1  13    2.40    0.80
   1   1  13    2.50    0.80
   1   1  13    1.70    0.60
   1   1  13    1.20    0.70
   1   1  13   -0.20    0.50
   1   1  13    2.00    0.90
   1   1  13    0.80    0.50
   2   1  13   18.20    2.20
   2   1  13   19.10    2.10
   2   1  13   21.00    2.10
   2   1  13   22.20    2.20
   2   1  13   20.60    2.00
   2   1  13   22.30    2.30
   2   1  13   22.50    2.20
   3   1  13  233.48   12.60
   3   1  13  223.18   12.70
   3   1  13  216.88   12.50
   3   1  13  202.08   12.50
   3   1  13  243.08   12.70
   3   1  13  212.78   12.80
   3   1  13  223.18   12.60
   4   1  13  149.29    8.40
   4   1  13  144.59    8.30
   4   1  13  150.68    8.50
   4   1  13  137.99    8.20
   4   1  13  142.39    8.40
   4   1  13  146.89    8.30
   8  -2 -13   60.49    7.20
   8  -2 -13   45.90    4.70
  -8   2  13   52.79    3.30
  -8   2  13   50.89    3.40
   7  -2 -13   60.89    5.80
   7  -2 -13   59.09    6.00
  -7   2  13   61.29    4.00
  -7   2  13   66.29    4.30
   6  -2 -13    7.80    2.30
   6  -2 -13    8.70    2.80
  -6   2  13    9.00    1.30
  -6   2  13   10.80    1.60
   5  -2 -13  326.37   21.60
   5  -2 -13  366.46   23.40
  -5   2  13  347.87   19.60
  -5   2  13  333.87   19.30
   4  -2 -13  252.17   19.30
   4  -2 -13  258.97   18.40
   4  -2 -13  289.57   17.80
  -4   2  13  279.37   15.50
  -4   2  13  273.67   15.60
  -4   2  13  282.47   15.80
   3  -2 -13  126.99   10.80
  -3   2  13  121.09    7.50
  -3   2  13  112.09    7.50
  -3   2  13  116.79    7.30
   2  -2 -13  176.48   13.40
  -2   2  13  162.68    9.80
  -2   2  13  158.18    9.80
  -2   2  13  175.18   12.90
  -2   2  13  163.08   10.00
  -2   2  13  160.58   10.00
   1  -2 -13  111.99   10.10
  -1   2  13  118.39    7.40
  -1   2  13  114.79    7.50
  -1   2  13  123.59    7.10
  -1   2  13  116.59    7.30
  -1   2  13  116.69    7.40
  -1   2  13  121.09   10.10
  -1   2  13  122.39    7.30
   0   2  13   64.99    4.20
   0   2  13   66.89    4.40
   0   2  13   62.59    4.50
   0   2  13   65.69    4.50
   0   2  13   66.89    4.40
   0   2  13   62.89    4.20
   0   2  13   59.59    6.50
   0   2  13   58.59    4.40
   1   2  13  317.47   17.10
   1   2  13  295.47   17.00
   1   2  13  296.47   19.70
   1   2  13  311.27   17.20
   1   2  13  291.87   16.90
   1   2  13  295.97   17.00
   1   2  13  303.97   17.30
   1   2  13  297.37   17.20
   2   2  13  116.89    7.60
   2   2  13  126.19    7.50
   2   2  13  123.19    7.40
   2   2  13  125.59    7.50
   2   2  13  119.79    7.50
   2   2  13  124.39    7.60
   2   2  13  126.79    7.40
   3   2  13  109.69    6.60
   3   2  13  114.19    6.70
   3   2  13  117.39    6.70
   3   2  13  111.49    6.80
   3   2  13  101.59    6.50
   3   2  13  112.49    6.60
   3   2  13  108.59    6.60
   4   2  13  210.48   11.20
   4   2  13  196.48   11.10
   4   2  13  205.48   11.10
   4   2  13  190.38   11.10
   4   2  13  205.98   11.30
   4   2  13  196.28   11.10
   8  -3 -13  116.79    8.30
  -8   3  13  119.39    6.70
  -8   3  13  109.49    7.10
   7  -3 -13   84.79    7.00
   7  -3 -13   84.59    7.40
  -7   3  13   92.39    5.50
  -7   3  13   84.09    5.40
   6  -3 -13   31.40    4.40
   6  -3 -13   29.50    4.80
  -6   3  13   37.00    2.90
  -6   3  13   34.20    3.00
  -6   3  13   32.90    2.70
   5  -3 -13   65.39    7.20
   5  -3 -13   65.19    6.20
  -5   3  13   63.39    4.60
  -5   3  13   63.59    4.70
  -5   3  13   76.49    4.60
   4  -3 -13  103.69    8.20
   4  -3 -13   93.29    8.60
   4  -3 -13  105.39    9.60
  -4   3  13  108.79    6.50
  -4   3  13   96.69    6.40
  -4   3  13   94.49    6.40
   3  -3 -13  526.35   33.00
  -3   3  13  513.95   29.00
  -3   3  13  514.15   28.80
  -3   3  13  519.35   29.10
  -3   3  13  535.65   32.20
   2  -3 -13  309.77   20.50
  -2   3  13  291.67   19.90
  -2   3  13  298.97   16.80
  -2   3  13  273.97   16.40
  -2   3  13  275.27   16.60
  -2   3  13  287.87   16.50
  -2   3  13  291.67   16.50
   1  -3 -13  373.66   24.20
  -1   3  13  376.76   20.90
  -1   3  13  356.26   20.70
  -1   3  13  355.26   20.50
  -1   3  13  355.16   24.20
  -1   3  13  398.06   20.50
  -1   3  13  379.06   20.40
  -1   3  13  352.46   20.60
  -1   3  13  351.86   20.70
   0   3  13  114.69    7.30
   0   3  13  121.79    7.30
   0   3  13  118.79    7.20
   0   3  13  103.49    9.80
   0   3  13  114.19    7.10
   0   3  13  129.29    7.50
   0   3  13  112.49    7.00
   0   3  13  112.79    7.40
   1   3  13   20.10    2.60
   1   3  13   22.20    2.40
   1   3  13   22.20    4.00
   1   3  13   25.10    2.30
   1   3  13   20.80    2.40
   1   3  13   24.20    2.40
   1   3  13   21.20    2.10
   1   3  13   29.60    2.50
   2   3  13  241.18   13.20
   2   3  13  224.08   13.20
   2   3  13  227.88   13.30
   2   3  13  236.18   13.30
   2   3  13  225.88   13.10
   2   3  13  243.98   13.50
   3   3  13   56.39    3.50
   3   3  13   50.39    3.40
   3   3  13   54.69    3.60
   3   3  13   56.99    3.60
   3   3  13   52.49    3.40
   8  -4 -13  146.69    9.90
  -8   4  13  155.28    8.60
   7  -4 -13   53.79    4.90
   7  -4 -13   48.20    5.00
  -7   4  13   49.80    3.40
  -7   4  13   47.90    3.50
   6  -4 -13  287.57   18.40
   6  -4 -13  278.17   19.30
  -6   4  13  327.07   16.50
  -6   4  13  273.87   16.50
   5  -4 -13   43.50    4.70
   5  -4 -13   37.10    5.20
  -5   4  13   44.00    3.20
  -5   4  13   39.10    3.20
   4  -4 -13   27.70    5.00
   4  -4 -13   28.80    4.10
  -4   4  13   27.80    2.60
  -4   4  13   29.20    4.70
  -4   4  13   25.60    2.80
   3  -4 -13   57.29    6.80
  -3   4  13   59.69    6.60
  -3   4  13   56.99    4.10
  -3   4  13   57.79    4.10
  -3   4  13   62.39    4.10
  -3   4  13   52.39    4.30
   2  -4 -13   10.90    3.30
  -2   4  13   11.00    3.40
  -2   4  13   12.90    1.70
  -2   4  13   12.80    1.90
  -2   4  13   13.90    1.70
  -2   4  13   12.40    1.70
  -2   4  13   11.20    1.50
  -2   4  13   12.60    1.60
   1  -4 -13   59.99    6.60
  -1   4  13   55.49    4.00
  -1   4  13   57.89    4.20
  -1   4  13   57.29    4.00
  -1   4  13   58.09    4.00
  -1   4  13   58.89    4.40
  -1   4  13   60.89    7.10
  -1   4  13   63.89    4.30
   0   4  13   49.50    3.60
   0   4  13   53.19    6.20
   0   4  13   51.99    3.90
   0   4  13   52.19    3.70
   0   4  13   51.69    3.70
   0   4  13   59.49    4.10
   0   4  13   49.99    3.80
   1   4  13  259.77   14.00
   1   4  13  209.78   15.90
   1   4  13  247.48   13.90
   1   4  13  250.97   14.00
   1   4  13  248.58   14.20
   1   4  13  261.17   14.10
   1   4  13  257.27   14.20
   2   4  13   21.90    1.80
   2   4  13   25.40    2.10
   2   4  13   24.00    2.00
   2   4  13   22.10    2.10
   2   4  13   22.10    1.80
   2   4  13   20.00    1.90
   3   4  13  252.57   13.30
   3   4  13  248.78   13.30
   3   4  13  234.58   13.20
   3   4  13  229.78   13.30
   8  -5 -13   36.40    3.40
  -8   5  13   35.60    2.30
   7  -5 -13    5.40    1.60
   7  -5 -13    5.30    1.80
  -7   5  13    4.10    0.80
  -7   5  13    4.10    0.90
   6  -5 -13   43.20    4.50
   6  -5 -13   41.70    5.10
  -6   5  13   44.60    3.30
  -6   5  13   42.00    3.10
   5  -5 -13  308.27   21.10
   5  -5 -13  319.27   19.80
  -5   5  13  299.77   18.10
  -5   5  13  348.97   17.90
   4  -5 -13   70.69    6.20
   4  -5 -13   68.79    7.50
  -4   5  13   68.19    4.60
  -4   5  13   67.19    6.90
  -4   5  13   73.29    4.70
  -4   5  13   70.19    5.00
   3  -5 -13   55.29    6.60
  -3   5  13   51.39    6.40
  -3   5  13   50.79    4.00
  -3   5  13   55.89    4.20
  -3   5  13   52.39    3.80
  -3   5  13   64.59    4.10
   2  -5 -13   15.80    3.70
  -2   5  13   14.90    1.70
  -2   5  13   13.50    1.80
  -2   5  13   17.30    1.90
  -2   5  13   15.60    1.90
  -2   5  13   17.00    4.00
  -2   5  13   13.50    1.70
  -2   5  13   14.70    2.00
   1  -5 -13   48.20    5.50
  -1   5  13   45.30    3.40
  -1   5  13   44.00    3.20
  -1   5  13   43.00    3.20
  -1   5  13   42.80    3.40
  -1   5  13   42.90    3.20
  -1   5  13   41.40    5.70
  -1   5  13   46.00    3.40
   0   5  13   46.50    3.20
   0   5  13   45.20    3.20
   0   5  13   41.60    5.20
   0   5  13   41.20    3.30
   0   5  13   48.20    3.40
   0   5  13   41.90    3.00
   0   5  13   45.40    3.40
   1   5  13    6.70    1.00
   1   5  13    7.00    1.10
   1   5  13    7.90    1.10
   1   5  13    7.40    0.90
   1   5  13    7.30    2.00
   1   5  13    8.20    1.20
   1   5  13    7.30    1.10
   2   5  13    9.60    1.00
   2   5  13    7.40    0.90
   2   5  13   10.00    1.00
   2   5  13    9.50    1.40
   2   5  13    7.50    0.90
   7  -6 -13   77.59    5.70
   7  -6 -13   68.69    5.60
  -7   6  13   71.29    4.30
  -7   6  13   72.19    4.60
   6  -6 -13   10.50    2.50
   6  -6 -13   12.30    2.30
  -6   6  13   13.40    1.60
  -6   6  13   14.40    1.40
   5  -6 -13   30.60    3.60
   5  -6 -13   26.40    4.40
  -5   6  13   32.10    2.90
  -5   6  13   33.40    2.40
  -5   6  13   31.50    2.50
   4  -6 -13    1.10    1.50
   4  -6 -13    0.70    1.10
  -4   6  13    1.00    0.70
  -4   6  13    0.00    0.70
  -4   6  13   -0.10    0.80
  -4   6  13    0.10    1.10
   3  -6 -13   65.39    6.90
  -3   6  13   58.39    6.70
  -3   6  13   70.49    4.60
  -3   6  13   64.49    4.20
  -3   6  13   64.09    4.40
  -3   6  13   61.79    4.10
  -3   6  13   61.69    4.40
   2  -6 -13   69.89    7.00
  -2   6  13   72.89    4.80
  -2   6  13   81.29    8.20
  -2   6  13   69.19    4.60
  -2   6  13   71.49    4.80
  -2   6  13   71.69    4.60
  -2   6  13   67.69    4.80
   1  -6 -13    4.70    2.00
  -1   6  13    5.10    1.10
  -1   6  13    5.70    1.10
  -1   6  13    5.80    1.00
  -1   6  13    6.30    2.50
  -1   6  13    5.60    1.10
  -1   6  13    5.20    1.00
   0   6  13   81.39    7.70
   0   6  13  101.69    6.30
   0   6  13  106.49    6.20
   0   6  13  111.09    6.30
   0   6  13  106.89    6.20
   0   6  13  115.09    6.20
   1   6  13    2.30    0.50
   1   6  13    1.20    0.50
   1   6  13    2.00    0.60
   6  -7 -13  194.08   12.80
   6  -7 -13  210.78   12.30
  -6   7  13  181.98   11.10
  -6   7  13  196.48   11.30
   5  -7 -13   84.09    6.30
   5  -7 -13   84.49    7.20
  -5   7  13   80.29    5.20
  -5   7  13   86.79    5.40
   4  -7 -13  256.37   16.20
   4  -7 -13  280.07   17.80
  -4   7  13  257.87   15.10
  -4   7  13  276.67   17.40
  -4   7  13  264.27   15.20
   3  -7 -13    3.20    1.70
  -3   7  13    3.20    0.80
  -3   7  13    3.30    0.90
  -3   7  13    4.00    0.90
  -3   7  13    2.60    1.70
  -3   7  13    2.70    0.90
   2  -7 -13  165.08   11.10
  -2   7  13  146.69    8.70
  -2   7  13  154.18    9.00
  -2   7  13  147.09    8.80
  -2   7  13  151.58    8.90
  -2   7  13  149.09   11.40
  -2   7  13  155.38    9.00
  -1   7  13   25.00    1.80
  -1   7  13   26.30    1.90
  -1   7  13   17.20    3.20
  -1   7  13   23.50    2.00
  -1   7  13   26.70    2.00
  -1   7  13   25.20    1.90
   5  -8 -13   27.80    3.10
  -5   8  13   27.20    2.00
  -5   8  13   31.10    2.10
   4  -8 -13   52.29    4.80
  -4   8  13   51.69    3.40
  -4   8  13   54.69    3.40
   3  -8 -13   94.49    6.90
  -3   8  13   84.69    6.80
  -3   8  13   95.99    5.50
   0   9 -14    9.50    2.80
   0   9 -14   11.30    1.30
   0  -9  14   12.80    1.10
  -1   9 -14   36.10    2.80
   1  -9  14   35.70    3.80
   1  -9  14   36.30    2.40
  -2   9 -14   63.49    4.30
   2  -9  14   65.49    4.00
   2   8 -14   22.50    4.10
  -2  -8  14   25.60    1.80
   1   8 -14   40.50    6.30
   1   8 -14   40.70    3.10
  -1  -8  14   44.50    2.90
  -1  -8  14   44.30    3.60
   0   8 -14    5.40    2.80
   0   8 -14    8.30    1.30
   0  -8  14    7.40    1.10
   0  -8  14    6.60    1.60
  -1   8 -14   13.20    3.80
  -1   8 -14   23.50    2.40
   1  -8  14   25.60    2.10
   1  -8  14   22.70    2.80
  -2   8 -14    0.70    0.80
  -2   8 -14    2.00    0.80
   2  -8  14    1.10    0.70
  -3   8 -14   54.89    3.70
  -3   8 -14   56.99    3.90
   3  -8  14   55.09    3.60
  -4   8 -14  119.99    7.40
   4  -8  14  135.59    7.40
   3   7 -14    1.00    1.90
   3   7 -14   -0.80    1.20
  -3  -7  14    0.50    0.50
  -3  -7  14    1.10    0.50
   2   7 -14   97.09    9.80
  -2  -7  14  103.99    6.00
  -2  -7  14  101.29    6.80
  -2  -7  14   93.09    5.90
   1   7 -14   82.59    9.10
   1   7 -14   76.99    5.40
  -1  -7  14   84.99    5.20
  -1  -7  14   81.09    6.10
  -1  -7  14   83.89    5.20
   0   7 -14    1.30    0.90
   0   7 -14    0.10    1.80
   0  -7  14    2.40    0.80
   0  -7  14    1.40    0.80
  -1   7 -14   64.39    4.90
  -1   7 -14   64.39    7.70
   1  -7  14   68.89    4.60
   1  -7  14   78.99    4.70
  -2   7 -14   65.09    4.70
  -2   7 -14   65.89    4.30
   2  -7  14   67.69    4.50
   2  -7  14   66.09    4.50
  -3   7 -14   32.60    2.60
  -3   7 -14   32.10    2.80
   3  -7  14   33.90    2.60
   3  -7  14   33.50    2.60
  -4   7 -14    0.00    0.50
  -4   7 -14    0.40    0.60
   4  -7  14   -0.20    0.50
   4  -7  14    0.40    0.60
  -5   7 -14   44.00    2.80
   5  -7  14   40.10    2.70
   4   6 -14   44.40    7.40
   4   6 -14   54.39    6.00
   4   6 -14   60.79    5.10
  -4  -6  14   58.69    3.60
  -4  -6  14   55.29    3.50
   3   6 -14   25.80    6.00
   3   6 -14   25.00    4.90
  -3  -6  14   24.40    2.10
  -3  -6  14   24.20    2.10
   2   6 -14  114.69   12.70
   2   6 -14  154.38   12.50
  -2  -6  14  126.49    7.80
  -2  -6  14  126.39    7.90
   1   6 -14   12.10    1.70
   1   6 -14   14.90    4.00
  -1  -6  14   13.10    1.60
  -1  -6  14   14.00    1.80
   0   6 -14  106.69    7.20
   0   6 -14  114.69   10.70
   0  -6  14  112.09    6.90
   0  -6  14  109.79    7.00
  -1   6 -14  137.89    8.60
  -1   6 -14  139.49   12.30
  -1   6 -14  152.58    9.30
   1  -6  14  150.58    9.00
   1  -6  14  157.78    8.90
  -2   6 -14   76.09    5.00
  -2   6 -14   73.69    5.40
   2  -6  14   75.19    5.20
   2  -6  14   85.19    5.30
  -3   6 -14  147.49    8.90
  -3   6 -14  136.49    9.10
   3  -6  14  167.28    9.10
   3  -6  14  153.88    9.10
  -4   6 -14   11.90    1.20
  -4   6 -14   13.60    1.50
  -4   6 -14   12.70    1.60
   4  -6  14   12.80    1.50
   4  -6  14   13.80    1.50
  -5   6 -14   71.79    4.40
  -5   6 -14   68.79    4.20
   5  -6  14   69.19    4.30
   5  -6  14   78.59    4.40
   5   5 -14   82.79    9.70
   5   5 -14  111.79    8.40
  -5  -5  14  120.19    6.50
  -5  -5  14  116.49    6.40
   4   5 -14    6.20    3.20
   4   5 -14    4.40    2.30
   4   5 -14    6.40    2.50
  -4  -5  14    6.30    1.00
  -4  -5  14    6.30    1.10
   3   5 -14  179.78   14.20
   3   5 -14  163.28   15.40
  -3  -5  14  171.88   10.10
  -3  -5  14  172.68   10.20
   2   5 -14  461.75   28.20
   2   5 -14  392.66   23.50
  -2  -5  14  397.96   23.40
  -2  -5  14  437.66   23.70
   1   5 -14   34.80    6.00
   1   5 -14   32.40    3.20
  -1  -5  14   33.50    3.10
  -1  -5  14   32.60    2.90
   0   5 -14  188.28   11.50
   0   5 -14  191.08   15.00
   0  -5  14  187.28   11.30
   0  -5  14  182.48   11.00
  -1   5 -14    3.50    2.30
  -1   5 -14    2.60    0.90
  -1   5 -14    4.70    1.40
   1  -5  14    3.20    1.00
   1  -5  14    3.20    1.10
  -2   5 -14  130.79    8.00
  -2   5 -14  136.49    8.50
   2  -5  14  128.29    8.20
   2  -5  14  130.59    8.30
  -3   5 -14   30.30    2.90
  -3   5 -14   29.70    2.60
   3  -5  14   30.00    2.90
   3  -5  14   30.40    2.70
  -4   5 -14    0.10    0.50
  -4   5 -14   -0.20    0.60
   4  -5  14    0.30    0.60
   4  -5  14   -0.10    0.60
  -5   5 -14  106.69    6.30
  -5   5 -14  115.89    6.40
   5  -5  14  100.89    6.40
   5  -5  14  114.19    6.50
   6   4 -14   25.70    3.70
   6   4 -14   19.50    4.10
  -6  -4  14   24.70    1.80
   5   4 -14   31.80    6.20
   5   4 -14   37.50    5.50
  -5  -4  14   33.90    2.40
  -5  -4  14   34.60    2.70
   4   4 -14   55.69    8.00
   4   4 -14   70.89    7.60
   4   4 -14   82.19    9.30
  -4  -4  14   70.39    4.60
  -4  -4  14   76.99    4.90
   3   4 -14  133.39   11.80
   3   4 -14  124.49   12.60
  -3  -4  14  147.49    8.30
  -3  -4  14  148.49    8.70
  -3  -4  14  137.49    8.30
   2   4 -14    0.10    0.70
   2   4 -14   -0.10    1.60
   2   4 -14    0.00    2.00
  -2  -4  14   -0.30    0.60
  -2  -4  14    0.50    0.80
  -2  -4  14    0.50    0.60
   1   4 -14   84.89    6.00
   1   4 -14   83.89    9.00
  -1  -4  14   86.19    5.70
  -1  -4  14   93.09    6.10
  -1  -4  14   89.89    5.70
   0   4 -14  329.67   19.00
   0   4 -14  309.77   22.50
   0  -4  14  326.37   18.60
   0  -4  14  338.17   19.00
   0  -4  14  338.17   18.60
  -1   4 -14  137.39    8.90
  -1   4 -14  159.58    9.60
  -1   4 -14  159.48   12.60
   1  -4  14  147.59    9.20
   1  -4  14  149.99    9.10
   1  -4  14  150.68    9.50
  -2   4 -14   17.80    2.40
  -2   4 -14   18.90    2.10
   2  -4  14   21.20    2.30
   2  -4  14   22.30    2.30
   2  -4  14   18.90    2.40
  -3   4 -14   16.50    2.10
  -3   4 -14   19.40    2.00
   3  -4  14   14.10    1.90
   3  -4  14   16.60    1.80
   3  -4  14   17.60    2.20
   3  -4  14   14.90    1.50
  -4   4 -14   73.69    4.80
   4  -4  14   76.69    4.50
   4  -4  14   77.19    5.00
   4  -4  14   69.69    4.60
   4  -4  14   68.99    4.70
  -5   4 -14   25.20    1.90
  -5   4 -14   25.80    2.00
   5  -4  14   29.50    2.20
   5  -4  14   29.00    2.00
   5  -4  14   25.30    1.90
   6   3 -14   29.00    5.20
   6   3 -14   28.20    4.80
  -6  -3  14   30.20    2.10
  -6  -3  14   31.20    2.30
   5   3 -14   11.50    3.80
   5   3 -14   11.10    1.30
   5   3 -14   11.00    3.50
  -5  -3  14   10.60    1.30
  -5  -3  14   11.90    1.60
   4   3 -14   60.89    6.80
   4   3 -14   60.19    7.10
   4   3 -14   73.29    8.30
  -4  -3  14   55.39    4.30
  -4  -3  14   57.39    4.10
   3   3 -14  497.35   31.70
   3   3 -14  515.75   32.50
  -3  -3  14  483.15   27.80
  -3  -3  14  484.45   27.40
  -3  -3  14  505.15   27.60
   2   3 -14  151.88   12.30
   2   3 -14  130.89   11.90
   2   3 -14  131.99    8.40
  -2  -3  14  131.19    8.40
  -2  -3  14  130.29    8.20
  -2  -3  14  124.29    8.80
   1   3 -14   88.99    9.20
   1   3 -14   95.79    6.40
  -1  -3  14   98.59    6.20
  -1  -3  14  100.59    6.60
   0   3 -14  185.58   11.80
   0   3 -14  199.48   15.50
   0   3 -14  214.98   12.30
   0  -3  14  201.68   11.90
   0  -3  14  210.48   12.30
  -1   3 -14  189.98   14.60
  -1   3 -14  203.18   11.80
   1  -3  14  183.98   11.70
   1  -3  14  195.38   11.50
  -2   3 -14    5.30    1.30
   2  -3  14    3.90    1.20
   2  -3  14    5.20    1.10
  -3   3 -14   34.40    3.00
   3  -3  14   35.00    2.80
   3  -3  14   34.30    2.50
   3  -3  14   38.00    3.40
  -4   3 -14  230.48   12.00
   4  -3  14  201.58   12.00
   4  -3  14  196.48   11.70
   4  -3  14  211.38   12.20
  -5   3 -14    4.10    0.70
   5  -3  14    4.50    0.70
   5  -3  14    3.30    0.80
   5  -3  14    4.70    0.80
   5  -3  14    4.10    0.70
   7   2 -14   24.50    3.80
  -7  -2  14   23.30    1.80
  -7  -2  14   23.30    1.70
   6   2 -14    0.70    1.80
   6   2 -14    0.60    1.70
  -6  -2  14    1.60    0.70
  -6  -2  14    0.90    0.70
   5   2 -14  119.59   10.70
   5   2 -14   89.99    9.40
  -5  -2  14  112.19    7.10
  -5  -2  14  122.39    7.00
   4   2 -14   33.70    6.00
   4   2 -14   29.20    5.20
   4   2 -14   32.30    5.20
  -4  -2  14   32.30    3.10
  -4  -2  14   34.90    3.00
   3   2 -14    7.00    2.60
   3   2 -14    9.40    3.30
  -3  -2  14    7.50    1.50
  -3  -2  14    6.60    1.30
   2   2 -14  189.28   14.20
   2   2 -14  173.98   13.80
   2   2 -14  152.08   10.20
  -2  -2  14  180.78   10.60
  -2  -2  14  166.68   10.30
   1   2 -14  386.76   25.30
   1   2 -14  383.06   21.40
  -1  -2  14  372.96   21.30
  -1  -2  14  364.26   21.50
   0   2 -14  739.03   41.00
   0   2 -14  774.92   44.90
   0  -2  14  734.93   40.90
   0  -2  14  737.93   40.30
   0  -2  14  724.93   41.10
  -1   2 -14  175.68   13.20
  -1   2 -14  158.68   10.10
   1  -2  14  171.58    9.50
   1  -2  14  160.38    9.50
   1  -2  14  153.68   10.10
   1  -2  14  163.58   10.10
  -2   2 -14    2.00    0.90
   2  -2  14    1.10    0.50
   2  -2  14    2.00    0.90
   2  -2  14    1.30    0.90
   2  -2  14    2.00    0.60
   2  -2  14    1.70    0.70
  -3   2 -14   50.69    4.00
   3  -2  14   58.49    4.10
   3  -2  14   53.09    3.60
   3  -2  14   54.99    3.60
   3  -2  14   61.99    3.70
   3  -2  14   59.19    4.20
   3  -2  14   52.79    3.60
   4  -2  14   20.90    1.70
   4  -2  14   19.90    2.00
   4  -2  14   19.90    2.10
   4  -2  14   21.40    1.70
   4  -2  14   20.80    1.70
   4  -2  14   19.10    1.70
  -5   2 -14    0.50    0.40
   5  -2  14    0.50    0.40
   5  -2  14    0.10    0.40
   5  -2  14    0.40    0.40
   5  -2  14    0.40    0.30
   5  -2  14    0.30    0.40
   5  -2  14   -0.20    0.40
   7   1 -14   10.40    2.80
   7   1 -14   11.40    2.80
  -7  -1  14   12.50    1.30
  -7  -1  14   10.30    1.20
   6   1 -14   16.60    3.80
   6   1 -14   15.00    3.60
  -6  -1  14   19.00    2.00
  -6  -1  14   19.40    1.90
   5   1 -14    2.00    1.80
   5   1 -14    0.80    1.80
  -5  -1  14    1.00    0.80
  -5  -1  14    0.00    0.70
   4   1 -14  182.48   13.90
   4   1 -14  193.88   14.60
   4   1 -14  211.28   15.60
  -4  -1  14  206.78   11.80
  -4  -1  14  199.78   11.90
  -4  -1  14  196.88   11.30
   3   1 -14  231.18   17.60
   3   1 -14  248.08   17.90
  -3  -1  14  250.37   14.50
  -3  -1  14  245.08   13.90
  -3  -1  14  261.07   14.50
   2   1 -14   42.60    3.40
   2   1 -14   46.90    5.90
   2   1 -14   45.30    5.90
  -2  -1  14   40.70    3.50
  -2  -1  14   38.70    3.70
  -2  -1  14   43.70    3.10
   1   1 -14    1.60    0.90
   1   1 -14    1.30    1.60
  -1  -1  14    0.90    0.90
  -1  -1  14    0.40    0.80
  -1  -1  14    0.20    0.60
   0   1 -14   65.79    7.10
   0  -1  14   65.99    4.70
   0  -1  14   60.69    4.70
   0  -1  14   67.39    4.30
   0  -1  14   61.19    4.10
  -1   1 -14   95.59    8.50
   1  -1  14   87.39    6.10
   1  -1  14   88.09    5.50
   1  -1  14   82.29    6.00
   1  -1  14   93.19    5.90
   1  -1  14   90.09    5.70
   2  -1  14  144.59    8.20
   2  -1  14  140.49    8.20
   2  -1  14  126.19    8.50
   2  -1  14  141.99    8.10
   2  -1  14  138.99    8.10
   2  -1  14  136.59    8.00
   2  -1  14  125.49    8.50
  -3   1 -14  270.77   14.80
   3  -1  14  264.87   14.50
   3  -1  14  256.77   14.80
   3  -1  14  251.27   14.40
   3  -1  14  256.67   14.50
   3  -1  14  256.97   14.40
   3  -1  14  250.87   14.40
   3  -1  14  250.77   14.80
   4  -1  14   60.69    3.90
   4  -1  14   61.09    3.90
   4  -1  14   66.59    4.20
   4  -1  14   62.59    3.80
   4  -1  14   58.39    4.00
   4  -1  14   56.29    3.80
   4  -1  14   67.29    3.90
  -5   1 -14   49.99    3.40
   5  -1  14   55.49    3.20
   5  -1  14   44.60    3.20
   5  -1  14   50.89    3.10
   5  -1  14   55.69    3.20
   5  -1  14   53.59    3.10
   7   0 -14    0.00    1.40
   7   0 -14   -0.90    1.30
  -7   0  14    0.00    0.40
  -7   0  14   -0.30    0.50
   6   0 -14  126.59   10.80
   6   0 -14  139.89   10.40
  -6   0  14  142.09    8.20
  -6   0  14  140.29    8.20
  -6   0  14  123.79    7.70
   5   0 -14    0.40    1.50
   5   0 -14   -0.60    1.50
  -5   0  14    0.20    0.70
  -5   0  14    0.80    0.90
  -5   0  14   -0.30    0.50
   4   0 -14   14.70    3.30
   4   0 -14   15.70    3.70
   4   0 -14   14.50    3.50
  -4   0  14   16.90    2.10
  -4   0  14   16.60    2.20
  -4   0  14   18.90    1.80
   3   0 -14   16.60    3.80
   3   0 -14   16.80    4.00
  -3   0  14   19.40    2.20
  -3   0  14   17.20    2.20
  -3   0  14   15.90    1.70
   2   0 -14   16.90    3.90
   2   0 -14   11.70    3.20
  -2   0  14   13.90    2.00
  -2   0  14   17.30    2.20
  -2   0  14   15.90    1.70
   1   0 -14  305.77   21.30
  -1   0  14  318.87   18.10
  -1   0  14  310.27   18.10
  -1   0  14  314.27   17.70
  -1   0  14  322.27   17.70
   0   0 -14  362.56   22.80
   0   0  14  320.97   19.20
   0   0  14  359.66   18.80
   0   0  14  329.17   18.90
   0   0  14  318.07   18.90
   0   0  14  339.07   19.40
   0   0  14  331.07   18.90
  -1   0 -14   54.69    6.30
   1   0  14   57.09    3.90
   1   0  14   55.79    4.20
   1   0  14   52.89    4.10
   1   0  14   52.49    5.00
   1   0  14   56.69    3.90
   1   0  14   56.69    3.80
   1   0  14   56.49    4.00
   1   0  14   60.39    3.70
   2   0  14   26.10    2.30
   2   0  14   22.80    2.50
   2   0  14   26.40    2.30
   2   0  14   23.90    2.10
   2   0  14   28.40    2.50
   2   0  14   22.50    2.60
   2   0  14   22.70    2.10
   2   0  14   26.30    2.20
  -3   0 -14   19.10    2.00
   3   0  14   17.10    1.80
   3   0  14   20.10    1.80
   3   0  14   18.00    1.80
   3   0  14   19.10    1.90
   3   0  14   16.40    1.70
   3   0  14   19.10    2.00
   3   0  14   19.50    2.10
   4   0  14   66.89    4.00
   4   0  14   66.49    4.00
   4   0  14   66.19    3.90
   4   0  14   65.49    3.90
   4   0  14   58.59    3.80
   4   0  14   60.09    4.10
   7  -1 -14   20.50    3.60
   7  -1 -14   21.20    3.50
  -7   1  14   23.00    2.10
  -7   1  14   22.70    1.80
   6  -1 -14   10.10    2.80
   6  -1 -14    7.80    2.40
  -6   1  14    8.80    1.10
  -6   1  14    7.60    1.40
   5  -1 -14   61.19    6.10
   5  -1 -14   61.89    7.30
   5  -1 -14   64.49    7.10
  -5   1  14   66.69    4.30
  -5   1  14   66.59    4.60
   4  -1 -14  237.78   15.50
   4  -1 -14  253.47   17.40
   4  -1 -14  216.88   16.30
  -4   1  14  233.08   13.40
  -4   1  14  230.98   13.80
   3  -1 -14    1.00    1.50
   3  -1 -14    0.90    1.60
  -3   1  14    0.70    0.70
  -3   1  14   -0.80    0.60
   2  -1 -14   72.39    7.60
   2  -1 -14   76.99    7.80
  -2   1  14   71.49    5.10
  -2   1  14   64.49    4.70
  -2   1  14   73.79    4.70
  -2   1  14   68.19    4.70
   1  -1 -14  363.36   23.70
  -1   1  14  368.16   20.00
  -1   1  14  347.07   20.00
  -1   1  14  359.56   20.10
  -1   1  14  345.67   19.70
  -1   1  14  350.66   20.30
   0  -1 -14    5.30    2.40
   0   1  14    5.30    1.40
   0   1  14    4.70    0.90
   0   1  14    5.30    1.10
   0   1  14    6.40    1.20
   0   1  14    6.90    1.30
   0   1  14    7.20    1.00
  -1  -1 -14   58.39    6.20
   1   1  14   55.99    3.80
   1   1  14   62.79    4.10
   1   1  14   55.59    4.00
   1   1  14   53.39    4.00
   1   1  14   62.59    3.90
   1   1  14   56.09    3.80
   1   1  14   54.39    4.20
   2   1  14   11.10    1.50
   2   1  14   10.40    1.40
   2   1  14   13.50    1.50
   2   1  14   14.10    1.60
   2   1  14   11.60    1.40
   2   1  14   11.70    1.40
   2   1  14   12.20    1.70
   3   1  14  153.88    9.00
   3   1  14  146.79    8.80
   3   1  14  157.68    8.90
   3   1  14  144.19    9.00
   3   1  14  159.38    8.80
   3   1  14  158.38    8.80
   4   1  14   15.40    1.30
   4   1  14   13.00    1.30
   4   1  14   13.10    1.20
   4   1  14   14.80    1.30
   4   1  14   12.50    1.20
   4   1  14   13.50    1.10
   7  -2 -14   70.49    6.10
   7  -2 -14   71.59    6.40
  -7   2  14   73.69    4.50
  -7   2  14   71.59    4.60
   6  -2 -14    1.80    1.30
   6  -2 -14    2.00    1.50
  -6   2  14    1.00    0.80
  -6   2  14    1.30    0.70
   5  -2 -14  149.39   11.90
   5  -2 -14  125.89   10.60
   5  -2 -14  153.88   10.70
  -5   2  14  147.59    8.60
  -5   2  14  147.59    8.90
   4  -2 -14  259.77   17.00
   4  -2 -14  249.78   18.10
   4  -2 -14  248.28   17.40
  -4   2  14  259.17   14.40
  -4   2  14  253.57   14.70
  -4   2  14  236.48   14.30
   3  -2 -14    8.50    2.80
   3  -2 -14    7.90    2.80
  -3   2  14    8.20    1.40
  -3   2  14    6.30    1.20
  -3   2  14    8.50    1.50
   2  -2 -14  405.06   26.00
  -2   2  14  403.26   22.40
  -2   2  14  389.26   22.60
  -2   2  14  403.36   22.50
  -2   2  14  398.86   22.30
  -1   2  14  686.83   38.50
  -1   2  14  672.53   38.70
  -1   2  14  683.83   38.60
  -1   2  14  739.03   38.50
  -1   2  14  686.33   41.60
  -1   2  14  705.43   38.20
  -1   2  14  740.13   38.60
   0   2  14    5.40    1.10
   0   2  14    4.00    0.90
   0   2  14    3.30    1.00
   0   2  14    5.20    1.20
   0   2  14    3.10    0.90
   0   2  14    2.80    0.90
   0   2  14    3.40    0.90
  -1  -2 -14    7.50    2.50
   1   2  14    6.20    1.20
   1   2  14    4.90    0.90
   1   2  14    5.70    1.00
   1   2  14    5.90    1.20
   1   2  14    5.00    1.00
   1   2  14    5.00    1.10
   1   2  14    7.50    1.20
   2   2  14    1.60    0.70
   2   2  14    2.10    0.70
   2   2  14    1.50    0.70
   2   2  14    2.60    0.70
   2   2  14    2.90    0.70
   2   2  14    2.20    0.70
   2   2  14    2.50    0.70
   3   2  14   21.30    1.90
   3   2  14   18.80    1.70
   3   2  14   19.30    1.70
   3   2  14   23.00    1.70
   3   2  14   19.20    1.60
   3   2  14   19.10    1.70
   7  -3 -14  105.79    8.10
   7  -3 -14  113.19    8.50
  -7   3  14  113.09    6.60
  -7   3  14  112.29    6.60
   6  -3 -14   82.19    7.60
   6  -3 -14   80.39    6.80
  -6   3  14   91.69    5.40
  -6   3  14   83.99    5.30
  -6   3  14   90.39    5.50
   5  -3 -14  201.28   14.00
   5  -3 -14  198.58   14.30
   5  -3 -14  202.98   15.40
  -5   3  14  215.48   12.20
  -5   3  14  213.68   12.30
  -5   3  14  241.78   12.30
   4  -3 -14   46.30    5.40
   4  -3 -14   42.60    5.70
  -4   3  14   43.00    3.30
  -4   3  14   46.10    3.50
  -4   3  14   44.90    3.50
   3  -3 -14  332.97   22.70
  -3   3  14  309.87   19.20
  -3   3  14  356.36   19.10
  -3   3  14  328.07   19.30
  -3   3  14  373.66   19.20
   2  -3 -14    1.10    1.60
  -2   3  14    1.10    0.80
  -2   3  14    0.90    0.80
  -2   3  14    1.10    0.90
  -2   3  14    0.70    0.60
  -2   3  14   -0.10    1.10
  -2   3  14    0.20    0.60
  -1   3  14  236.78   13.30
  -1   3  14  223.18   16.20
  -1   3  14  243.58   13.10
  -1   3  14  244.48   13.10
  -1   3  14  217.68   13.30
  -1   3  14  218.08   13.40
  -1   3  14  225.38   13.40
  -1   3  14  233.38   13.30
   0   3  14  294.97   17.00
   0   3  14  277.17   19.50
   0   3  14  295.57   16.90
   0   3  14  324.77   17.30
   0   3  14  271.27   17.20
   0   3  14  287.97   17.00
   0   3  14  340.97   17.20
   0   3  14  314.17   16.80
   1   3  14    0.90    0.70
   1   3  14    0.60    0.60
   1   3  14    1.20    0.60
   1   3  14    1.60    0.60
   1   3  14    0.90    0.60
   1   3  14   -0.40    0.50
   2   3  14  476.45   25.50
   2   3  14  458.75   25.30
   2   3  14  453.15   25.40
   2   3  14  464.05   25.40
   2   3  14  463.45   25.40
   2   3  14  469.95   25.60
   3   3  14   49.80    3.10
   3   3  14   51.29    3.10
   3   3  14   48.70    3.00
   3   3  14   46.90    2.90
   3   3  14   47.30    3.00
   7  -4 -14   37.70    3.70
   7  -4 -14   36.80    4.00
  -7   4  14   33.90    2.50
  -7   4  14   36.50    2.60
   6  -4 -14   89.49    7.90
   6  -4 -14   98.79    7.30
  -6   4  14   88.89    5.70
  -6   4  14   89.99    5.70
   5  -4 -14  321.87   21.20
   5  -4 -14  327.57   20.80
   5  -4 -14  360.96   22.60
  -5   4  14  337.37   19.20
  -5   4  14  359.06   19.10
   4  -4 -14  124.09   10.10
   4  -4 -14  124.29   10.70
  -4   4  14  134.29    7.80
  -4   4  14  127.19    7.90
   3  -4 -14  115.49   10.10
  -3   4  14  105.69    7.40
  -3   4  14  113.99    9.70
  -3   4  14  110.79    7.20
  -3   4  14  123.19    7.20
  -3   4  14  128.69    7.20
   2  -4 -14  166.38   13.00
  -2   4  14  167.18    9.90
  -2   4  14  169.58   10.00
  -2   4  14  172.98   13.00
  -2   4  14  172.48    9.70
  -2   4  14  168.98   10.20
  -2   4  14  159.08    9.90
  -1   4  14   76.89    5.00
  -1   4  14   77.99    5.30
  -1   4  14   76.59    4.90
  -1   4  14   79.39    4.90
  -1   4  14   75.29    5.00
  -1   4  14   75.19    5.10
  -1   4  14   76.99    7.50
   0   4  14   59.19    3.90
   0   4  14   62.39    3.90
   0   4  14   60.19    4.10
   0   4  14   65.49    4.30
   0   4  14   63.99    4.10
   0   4  14   60.19    4.00
   0   4  14   51.39    5.70
   1   4  14   42.90    3.10
   1   4  14   50.39    3.20
   1   4  14   45.40    3.30
   1   4  14   48.30    3.30
   1   4  14   50.39    3.20
   1   4  14   46.20    3.30
   2   4  14    7.10    0.90
   2   4  14    6.10    0.80
   2   4  14    5.80    0.80
   2   4  14    5.40    0.70
   2   4  14    5.80    0.80
   2   4  14    6.80    0.90
   7  -5 -14   52.09    4.70
   7  -5 -14   57.39    4.60
  -7   5  14   54.99    3.50
  -7   5  14   54.89    3.40
   6  -5 -14  124.49    9.50
   6  -5 -14  128.19    8.80
  -6   5  14  122.59    7.30
  -6   5  14  125.99    7.60
   5  -5 -14   38.70    4.00
   5  -5 -14   42.30    5.10
   5  -5 -14   39.30    4.30
  -5   5  14   40.10    3.10
  -5   5  14   37.10    2.80
   4  -5 -14    0.50    1.40
  -4   5  14    0.30    0.80
  -4   5  14   -0.70    0.50
  -4   5  14    0.70    0.70
   3  -5 -14   90.69    8.40
  -3   5  14   89.99    5.80
  -3   5  14   91.09    8.40
  -3   5  14   92.39    5.80
  -3   5  14   88.59    5.70
  -3   5  14   99.69    6.10
   2  -5 -14   50.59    5.60
  -2   5  14   46.00    3.50
  -2   5  14   43.60    3.30
  -2   5  14   39.20    3.00
  -2   5  14   44.10    3.00
  -2   5  14   44.10    3.20
  -2   5  14   45.40    5.60
  -2   5  14   44.80    3.30
  -1   5  14   11.30    1.30
  -1   5  14   10.80    1.50
  -1   5  14   10.70    1.50
  -1   5  14    9.90    1.20
  -1   5  14    9.10    1.20
  -1   5  14   11.40    1.50
  -1   5  14    8.80    2.50
   0   5  14    1.80    1.20
   0   5  14    1.10    0.60
   0   5  14    0.10    0.50
   0   5  14    0.90    0.60
   0   5  14    1.90    0.70
   0   5  14    0.80    0.60
   0   5  14    0.60    0.50
   1   5  14  102.39    6.40
   1   5  14  105.19    6.40
   1   5  14  114.59    6.40
   1   5  14  110.09    6.30
   1   5  14  113.59    6.30
   6  -6 -14  145.49    9.20
   6  -6 -14  127.79    9.60
  -6   6  14  138.39    7.90
  -6   6  14  143.19    8.20
   5  -6 -14  288.07   16.80
   5  -6 -14  268.97   17.90
  -5   6  14  260.57   15.70
  -5   6  14  289.77   15.40
   4  -6 -14  152.28   10.80
  -4   6  14  130.89    7.90
  -4   6  14  131.69    8.30
  -4   6  14  129.69    8.00
   3  -6 -14   10.00    2.60
  -3   6  14   11.60    2.70
  -3   6  14   10.60    1.40
  -3   6  14   11.60    1.40
  -3   6  14   11.80    1.30
  -3   6  14   11.60    1.60
   2  -6 -14  158.48   10.90
  -2   6  14  153.58    8.80
  -2   6  14  136.99    8.50
  -2   6  14  151.58    8.70
  -2   6  14  159.18    8.90
  -2   6  14  140.69   11.00
  -2   6  14  142.09    8.50
  -1   6  14   33.10    2.20
  -1   6  14   34.60    2.40
  -1   6  14   27.10    2.30
  -1   6  14   32.30    2.40
  -1   6  14   30.00    2.20
  -1   6  14   25.20    3.50
   0   6  14    1.70    0.60
   0   6  14    1.90    0.50
   0   6  14    1.80    0.50
   0   6  14    2.20    0.50
   0   6  14    2.50    0.60
   5  -7 -14   72.09    5.90
  -5   7  14   72.49    4.50
  -5   7  14   66.89    4.50
   4  -7 -14  209.18   13.60
   4  -7 -14  228.18   14.40
  -4   7  14  221.48   12.50
  -4   7  14  219.98   12.30
   3  -7 -14   24.40    3.20
  -3   7  14   24.70    2.10
  -3   7  14   25.60    2.00
  -3   7  14   26.20    1.90
  -2   7  14   87.49    7.00
  -2   7  14   88.09    5.30
  -2   7  14   94.49    5.50
  -2   7  14   98.19    5.50
  -2   7  14   92.59    5.50
   1   8 -15   93.39    8.70
  -1  -8  15  109.69    6.00
   0   8 -15    3.90    2.10
   0   8 -15    3.70    0.90
   0  -8  15    3.90    0.80
  -1   8 -15    7.90    3.70
  -1   8 -15   21.20    2.00
   1  -8  15   20.70    1.70
  -2   8 -15   54.79    3.60
  -2   8 -15   49.50    3.20
   2  -8  15   52.39    3.40
  -3   8 -15    4.30    0.90
  -3   8 -15    5.10    0.80
   3  -8  15    5.10    0.80
   2   7 -15   14.20    3.60
   2   7 -15   15.00    3.70
  -2  -7  15   15.30    1.40
  -2  -7  15   15.00    1.40
   1   7 -15    9.00    1.40
   1   7 -15   12.40    3.60
  -1  -7  15   12.50    1.40
  -1  -7  15   12.80    1.40
   0   7 -15   28.60    5.10
   0   7 -15   33.10    2.80
   0  -7  15   38.20    2.60
   0  -7  15   32.00    2.50
  -1   7 -15   20.50    4.30
  -1   7 -15   32.40    2.70
   1  -7  15   38.30    2.60
   1  -7  15   32.50    2.50
  -2   7 -15   39.20    3.10
  -2   7 -15   36.70    2.70
   2  -7  15   39.30    2.80
   2  -7  15   42.10    2.90
  -3   7 -15   36.90    3.00
  -3   7 -15   38.70    2.80
   3  -7  15   41.30    2.80
   3  -7  15   44.70    2.80
  -4   7 -15   -0.20    0.40
   4  -7  15    0.00    0.40
   3   6 -15    6.10    2.50
   3   6 -15    4.20    2.90
  -3  -6  15    6.80    1.00
  -3  -6  15    7.60    1.00
   2   6 -15  167.28   14.10
   2   6 -15  166.58   15.10
  -2  -6  15  191.88   10.50
  -2  -6  15  198.48   10.70
   1   6 -15    4.20    2.50
   1   6 -15    1.90    0.80
  -1  -6  15    5.30    1.00
  -1  -6  15    3.60    0.90
   0   6 -15   46.30    3.60
   0   6 -15   42.80    6.00
   0  -6  15   50.69    3.60
   0  -6  15   47.40    3.40
  -1   6 -15  113.79   10.60
  -1   6 -15  132.69    8.10
  -1   6 -15  118.69    7.50
   1  -6  15  141.99    7.90
   1  -6  15  136.09    7.80
  -2   6 -15   12.70    1.40
  -2   6 -15   14.00    1.80
   2  -6  15   14.10    1.70
   2  -6  15   15.10    1.70
  -3   6 -15   38.20    2.90
  -3   6 -15   36.20    2.70
   3  -6  15   38.30    2.80
   3  -6  15   35.90    2.70
  -4   6 -15   38.30    2.70
   4  -6  15   46.80    2.80
   4  -6  15   35.90    2.70
   4   5 -15    1.50    1.60
   4   5 -15    2.20    2.40
  -4  -5  15    2.20    0.60
  -4  -5  15    1.80    0.60
   3   5 -15   59.59    8.60
   3   5 -15   84.39    8.30
  -3  -5  15   89.89    5.40
  -3  -5  15   92.79    5.20
   2   5 -15   76.09    9.80
   2   5 -15  102.09    9.50
   2   5 -15   93.59    6.10
  -2  -5  15   99.59    6.00
  -2  -5  15  110.79    6.40
   1   5 -15   21.60    2.40
   1   5 -15   23.40    4.60
  -1  -5  15   25.50    2.50
  -1  -5  15   28.60    2.40
   0   5 -15  184.68   14.30
   0   5 -15  180.38   11.00
   0  -5  15  189.88   11.00
   0  -5  15  170.68   10.60
  -1   5 -15  233.58   13.40
  -1   5 -15  220.28   16.00
  -1   5 -15  220.98   12.70
   1  -5  15  223.28   13.00
   1  -5  15  223.78   13.20
  -2   5 -15  190.78   10.90
  -2   5 -15  171.58   10.40
   2  -5  15  173.18   10.50
   2  -5  15  181.58   10.70
  -3   5 -15   10.10    1.30
  -3   5 -15   11.00    1.50
   3  -5  15   12.80    1.50
   3  -5  15   11.00    1.60
  -4   5 -15   12.10    1.40
  -4   5 -15   14.30    1.20
   4  -5  15   18.90    1.70
   4  -5  15   13.50    1.40
   5   4 -15   33.70    5.60
   5   4 -15   35.10    4.50
  -5  -4  15   31.00    2.40
  -5  -4  15   32.80    2.20
   4   4 -15   59.49    7.80
   4   4 -15   65.69    6.80
  -4  -4  15   71.49    4.50
  -4  -4  15   70.79    4.30
  -4  -4  15   63.49    4.20
   3   4 -15  173.38   13.20
   3   4 -15  178.08   14.70
  -3  -4  15  163.98   10.10
  -3  -4  15  155.08    9.80
  -3  -4  15  178.38    9.90
   2   4 -15  119.49   10.50
   2   4 -15  105.29    6.80
   2   4 -15   84.69   10.10
  -2  -4  15  108.99    6.70
  -2  -4  15  110.59    7.00
  -2  -4  15  122.49    6.80
   1   4 -15  270.97   19.00
   1   4 -15  245.68   15.20
  -1  -4  15  280.07   15.00
  -1  -4  15  251.87   15.20
  -1  -4  15  256.27   14.90
   0   4 -15   41.40    5.70
   0   4 -15   37.20    3.60
   0  -4  15   38.60    3.60
   0  -4  15   45.10    3.20
   0  -4  15   38.30    3.10
  -1   4 -15  107.59    6.70
  -1   4 -15  121.79    7.40
  -1   4 -15  103.49    9.60
   1  -4  15  102.69    6.90
   1  -4  15  109.39    6.90
   1  -4  15  118.79    7.30
  -2   4 -15   48.40    3.80
  -2   4 -15   48.60    3.50
   2  -4  15   47.60    3.50
   2  -4  15   50.99    3.90
   2  -4  15   48.30    3.50
  -3   4 -15   26.90    2.50
  -3   4 -15   24.90    2.30
   3  -4  15   24.50    2.20
   3  -4  15   25.40    2.30
   3  -4  15   27.80    2.60
  -4   4 -15   47.90    3.20
  -4   4 -15   54.49    3.40
   4  -4  15   50.79    3.50
   6   3 -15    5.60    2.40
   6   3 -15    4.90    1.80
  -6  -3  15    4.20    0.70
  -6  -3  15    4.60    0.80
   5   3 -15   10.60    3.60
   5   3 -15    7.90    3.00
  -5  -3  15   10.20    1.20
  -5  -3  15   12.70    1.40
   4   3 -15   71.89    8.20
   4   3 -15   69.19    7.10
  -4  -3  15   73.19    4.80
  -4  -3  15   79.59    5.00
   3   3 -15  122.39   10.30
   3   3 -15   96.29   10.20
  -3  -3  15  116.39    7.10
  -3  -3  15  120.29    7.30
   2   3 -15    5.40    2.70
   2   3 -15    4.40    1.10
   2   3 -15    5.20    2.60
  -2  -3  15    8.00    1.30
  -2  -3  15    4.90    1.30
   1   3 -15  390.96   25.80
   1   3 -15  384.06   22.00
  -1  -3  15  381.36   22.10
  -1  -3  15  393.86   21.80
   0   3 -15  120.39   10.70
   0   3 -15  122.29    8.00
   0  -3  15  132.69    7.90
   0  -3  15  123.79    8.10
  -1   3 -15  144.19    8.40
  -1   3 -15  121.29    7.80
  -1   3 -15  137.79   11.10
   1  -3  15  126.49    8.30
   1  -3  15  127.89    8.10
  -2   3 -15  185.98   10.70
  -2   3 -15  172.18   11.00
   2  -3  15  177.28   10.80
   2  -3  15  201.48   11.20
  -3   3 -15    1.10    0.60
  -3   3 -15   -0.40    0.60
   3  -3  15    0.20    0.60
   3  -3  15    0.70    0.70
   3  -3  15    0.60    0.40
  -4   3 -15  181.88   10.20
   4  -3  15  185.58   10.20
   4  -3  15  179.48   10.00
   4  -3  15  165.88   10.30
   6   2 -15    2.90    2.00
   6   2 -15    4.20    2.20
  -6  -2  15    4.30    0.80
  -6  -2  15    4.30    0.80
   5   2 -15   75.69    7.60
   5   2 -15   74.29    8.10
  -5  -2  15   87.09    5.30
  -5  -2  15   89.59    5.40
   4   2 -15   30.50    5.40
   4   2 -15   32.60    4.50
  -4  -2  15   33.90    2.80
  -4  -2  15   27.70    2.70
   3   2 -15  186.68   14.40
   3   2 -15  176.78   14.00
  -3  -2  15  178.98   10.70
  -3  -2  15  182.08   10.90
   2   2 -15  219.48   13.50
   2   2 -15  251.97   17.50
   2   2 -15  234.98   17.10
  -2  -2  15  233.38   13.80
  -2  -2  15  225.98   13.50
   1   2 -15   25.90    4.90
   1   2 -15   25.40    2.70
  -1  -2  15   27.40    2.90
  -1  -2  15   29.60    2.80
   0   2 -15 1158.78   65.69
   0   2 -15 1206.38   61.99
   0  -2  15 1153.18   61.19
   0  -2  15 1101.89   61.99
   0  -2  15 1054.29   61.79
  -1   2 -15    4.70    1.20
  -1   2 -15    4.80    2.30
   1  -2  15    4.90    0.90
   1  -2  15    3.50    0.70
   1  -2  15    2.80    1.00
   1  -2  15    4.40    1.30
  -2   2 -15    1.00    0.80
   2  -2  15    2.00    0.60
   2  -2  15    0.60    0.50
   2  -2  15    1.70    0.70
   2  -2  15    1.80    1.00
   2  -2  15    1.40    0.90
  -3   2 -15  195.38   11.30
   3  -2  15  193.18   10.90
   3  -2  15  185.48   11.40
   3  -2  15  196.28   10.90
   3  -2  15  198.38   11.30
  -4   2 -15  112.29    6.70
   4  -2  15  100.39    6.70
   4  -2  15  111.79    6.50
   4  -2  15  124.49    6.50
   4  -2  15  113.89    6.50
   4  -2  15  120.69    6.80
   6   1 -15   38.40    5.10
   6   1 -15   38.70    4.80
  -6  -1  15   42.90    3.00
  -6  -1  15   43.50    3.00
   5   1 -15    4.70    1.90
   5   1 -15    4.90    2.40
   5   1 -15    7.10    2.60
  -5  -1  15    6.90    1.20
  -5  -1  15    3.80    1.00
   4   1 -15   29.70    4.90
   4   1 -15   28.50    5.10
  -4  -1  15   31.30    2.90
  -4  -1  15   30.30    2.20
  -4  -1  15   31.50    2.90
   3   1 -15   18.20    4.00
   3   1 -15   17.90    4.00
  -3  -1  15   18.00    2.20
  -3  -1  15   23.90    2.50
  -3  -1  15   18.60    1.80
   2   1 -15  255.87   15.60
   2   1 -15  290.87   19.50
   2   1 -15  292.57   19.20
  -2  -1  15  265.67   15.80
  -2  -1  15  271.57   15.30
  -2  -1  15  259.97   15.90
   1   1 -15   37.50    3.20
   1   1 -15   30.80    5.40
  -1  -1  15   39.00    3.60
  -1  -1  15   44.40    3.70
  -1  -1  15   42.90    2.90
   0   1 -15   96.19    6.40
   0   1 -15   94.49    9.00
   0  -1  15  103.99    5.90
   0  -1  15   91.69    6.50
   0  -1  15  105.69    6.10
   0  -1  15   89.89    6.40
  -1   1 -15  564.84   32.60
  -1   1 -15  584.74   35.50
   1  -1  15  572.44   32.00
   1  -1  15  589.04   32.70
   1  -1  15  616.44   32.20
   1  -1  15  598.44   32.60
  -2   1 -15   31.70    2.80
   2  -1  15   35.00    2.50
   2  -1  15   30.60    3.00
   2  -1  15   32.70    2.30
   2  -1  15   33.40    2.40
   2  -1  15   32.70    3.00
  -3   1 -15  126.59    7.60
   3  -1  15  118.29    7.30
   3  -1  15  123.29    7.20
   3  -1  15  119.29    7.30
   3  -1  15  135.89    7.30
   3  -1  15  129.79    7.70
   3  -1  15  133.19    7.30
   3  -1  15  122.79    7.60
  -4   1 -15    0.50    0.40
   4  -1  15    1.10    0.40
   4  -1  15    1.00    0.40
   4  -1  15    1.10    0.40
   4  -1  15    0.80    0.50
   4  -1  15    0.10    0.40
   4  -1  15    0.70    0.50
   7   0 -15    2.50    1.50
   7   0 -15    1.20    1.50
  -7   0  15    2.70    0.70
   6   0 -15   46.70    5.20
   6   0 -15   52.09    5.80
  -6   0  15   61.89    3.80
  -6   0  15   52.69    3.30
   5   0 -15   19.30    3.60
   5   0 -15   18.60    4.00
   5   0 -15   17.80    3.40
  -5   0  15   19.50    1.80
  -5   0  15   20.80    2.20
   4   0 -15  114.99   10.00
   4   0 -15  112.79    9.60
  -4   0  15  109.19    7.10
  -4   0  15  107.79    6.60
   3   0 -15   35.50    5.10
   3   0 -15   32.10    5.30
  -3   0  15   36.10    2.70
  -3   0  15   38.30    3.50
   2   0 -15  171.38   12.90
   2   0 -15  147.19    9.60
   2   0 -15  183.08   13.40
  -2   0  15  152.88    9.90
  -2   0  15  156.58    9.50
   1   0 -15  842.92   48.70
  -1   0  15  802.52   44.50
  -1   0  15  810.32   45.00
   0   0 -15  136.79   11.10
   0   0  15  126.79    8.00
   0   0  15  125.49    8.40
   0   0  15  143.29    7.90
   0   0  15  132.69    8.10
  -1   0 -15    6.40    2.40
   1   0  15    7.30    1.20
   1   0  15    6.10    1.00
   1   0  15    8.30    1.10
   1   0  15    7.80    1.20
   1   0  15    7.90    1.50
   1   0  15    6.70    1.10
  -2   0 -15   74.79    5.00
   2   0  15   74.09    4.60
   2   0  15   73.79    5.00
   2   0  15   75.09    4.70
   2   0  15   72.29    4.70
   2   0  15   72.29    4.80
   2   0  15   85.59    4.80
  -3   0 -15   25.60    2.10
   3   0  15   28.20    2.00
   3   0  15   26.80    2.10
   3   0  15   26.10    2.40
   3   0  15   24.20    1.90
   3   0  15   29.80    2.00
   3   0  15   30.00    2.00
  -4   0 -15   89.29    5.50
   4   0  15  100.59    5.50
   4   0  15   99.79    5.50
   4   0  15   99.19    5.50
   4   0  15   86.79    5.60
   4   0  15  100.29    5.50
   7  -1 -15   31.60    3.80
   7  -1 -15   34.80    4.00
  -7   1  15   40.10    2.40
  -7   1  15   38.10    2.60
   6  -1 -15    2.30    1.50
   6  -1 -15    2.40    1.60
  -6   1  15    1.60    0.80
  -6   1  15    2.70    0.70
   5  -1 -15   14.00    3.50
   5  -1 -15   14.00    2.90
   5  -1 -15   12.10    2.80
  -5   1  15   12.40    1.50
  -5   1  15   13.10    1.80
   4  -1 -15  211.68   15.30
   4  -1 -15  216.18   15.00
  -4   1  15  207.38   12.20
  -4   1  15  187.68   11.70
   3  -1 -15   41.00    5.50
   3  -1 -15   37.10    5.20
  -3   1  15   45.10    3.80
  -3   1  15   41.70    3.00
   2  -1 -15   18.10    3.90
   2  -1 -15   19.10    4.10
  -2   1  15   21.50    2.10
  -2   1  15   17.50    1.90
  -2   1  15   19.10    2.40
   1  -1 -15    2.60    1.80
  -1   1  15    2.10    0.80
  -1   1  15    2.50    0.80
  -1   1  15    2.00    0.70
  -1   1  15    2.50    0.80
  -1   1  15    3.70    1.20
   0  -1 -15   53.99    6.00
   0   1  15   53.69    3.70
   0   1  15   58.49    3.90
   0   1  15   47.70    3.70
   0   1  15   51.79    3.50
   0   1  15   54.29    4.00
  -1  -1 -15    3.60    1.80
   1   1  15    2.90    1.00
   1   1  15    2.10    0.80
   1   1  15    3.30    0.80
   1   1  15    3.60    0.80
   1   1  15    2.80    0.70
   1   1  15    3.20    0.80
   1   1  15    3.20    0.70
   2   1  15   10.20    1.30
   2   1  15   10.00    1.30
   2   1  15   10.00    1.20
   2   1  15    9.50    1.10
   2   1  15   10.00    1.20
   2   1  15    8.30    1.30
  -3  -1 -15    2.00    0.60
   3   1  15    1.90    0.60
   3   1  15    2.30    0.50
   3   1  15    1.90    0.50
   3   1  15    1.60    0.60
   3   1  15    1.80    0.50
   3   1  15    2.00    0.50
   7  -2 -15   11.50    2.40
   7  -2 -15   13.50    2.40
  -7   2  15   14.90    1.30
  -7   2  15   15.20    1.40
   6  -2 -15   46.10    4.80
   6  -2 -15   58.79    5.80
  -6   2  15   60.49    3.70
  -6   2  15   55.59    3.80
   5  -2 -15   51.69    5.30
   5  -2 -15   45.30    4.80
   5  -2 -15   55.49    6.10
  -5   2  15   47.00    3.50
  -5   2  15   55.59    3.80
   4  -2 -15  113.39    9.90
   4  -2 -15  107.99    9.30
  -4   2  15  118.19    7.30
  -4   2  15  116.79    7.00
   3  -2 -15   14.90    3.40
   3  -2 -15   14.40    3.50
  -3   2  15   14.30    1.90
  -3   2  15   14.00    1.70
  -3   2  15   12.40    1.60
   2  -2 -15  381.06   24.30
   2  -2 -15  381.16   24.30
  -2   2  15  358.66   21.10
  -2   2  15  384.16   20.80
  -2   2  15  372.96   20.90
  -2   2  15  355.26   20.90
   1  -2 -15   29.30    4.90
  -1   2  15   31.30    3.00
  -1   2  15   32.00    2.60
  -1   2  15   31.90    2.80
  -1   2  15   32.40    2.90
  -1   2  15   37.30    2.50
   0  -2 -15   70.99    6.90
   0   2  15   63.49    4.40
   0   2  15   63.59    4.50
   0   2  15   64.59    4.20
   0   2  15   64.89    4.60
   0   2  15   63.79    4.50
   0   2  15   64.79    4.30
   0   2  15   72.89    4.30
  -1  -2 -15    2.10    1.50
   1   2  15    1.40    0.50
   1   2  15    2.50    0.80
   1   2  15    2.00    0.70
   1   2  15    0.60    0.60
   1   2  15    1.90    0.70
   1   2  15    1.40    0.70
   1   2  15    1.60    0.60
   2   2  15    4.20    0.70
   2   2  15    4.90    0.90
   2   2  15    4.90    0.90
   2   2  15    4.80    0.90
   2   2  15    4.20    0.80
   2   2  15    3.30    0.70
   2   2  15    4.10    0.80
   3   2  15   62.99    3.70
   3   2  15   58.39    3.60
   3   2  15   61.59    3.60
   3   2  15   57.19    3.60
   3   2  15   63.29    3.60
   7  -3 -15   19.60    2.80
   7  -3 -15   20.80    2.80
  -7   3  15   24.90    1.70
   6  -3 -15   16.10    2.70
   6  -3 -15   19.10    3.40
  -6   3  15   19.40    1.80
  -6   3  15   19.40    1.90
   5  -3 -15  319.87   19.70
   5  -3 -15  318.97   21.20
   5  -3 -15  322.47   20.30
  -5   3  15  304.27   18.10
  -5   3  15  358.66   18.20
  -5   3  15  327.37   18.30
   4  -3 -15   36.20    4.90
   4  -3 -15   30.80    4.30
  -4   3  15   29.30    2.80
  -4   3  15   35.20    2.80
  -4   3  15   34.70    2.90
   3  -3 -15  310.07   21.60
   3  -3 -15  331.77   22.10
  -3   3  15  334.27   18.90
  -3   3  15  335.57   18.90
  -3   3  15  360.96   19.00
  -3   3  15  338.57   18.90
   2  -3 -15  316.07   19.80
   2  -3 -15  308.47   19.80
  -2   3  15  278.27   16.60
  -2   3  15  281.67   16.50
  -2   3  15  272.77   16.60
  -2   3  15  299.47   16.60
  -1   3  15   86.99    5.40
  -1   3  15   88.59    5.40
  -1   3  15   83.39    5.40
  -1   3  15   73.59    6.30
  -1   3  15   93.19    5.70
  -1   3  15   81.39    5.20
   0  -3 -15  207.78   14.60
   0   3  15  217.58   12.20
   0   3  15  206.68   11.80
   0   3  15  208.28   11.90
   0   3  15  210.68   12.00
   0   3  15  219.48   12.00
   0   3  15  203.88   12.10
   1   3  15  123.49    7.20
   1   3  15  111.59    7.00
   1   3  15  118.29    7.00
   1   3  15  119.29    7.00
   1   3  15  126.19    6.90
   1   3  15  117.39    7.00
   2   3  15  128.59    7.50
   2   3  15  131.99    7.50
   2   3  15  126.89    7.40
   2   3  15  137.59    7.60
   2   3  15  134.39    7.50
   7  -4 -15   96.99    6.80
   7  -4 -15   97.79    7.20
  -7   4  15   97.59    5.70
   6  -4 -15   18.40    3.10
   6  -4 -15   18.70    2.70
  -6   4  15   16.40    1.70
  -6   4  15   21.60    1.80
   5  -4 -15  213.28   13.90
   5  -4 -15  221.08   14.40
   5  -4 -15  217.48   15.40
  -5   4  15  226.88   12.60
  -5   4  15  232.58   12.70
   4  -4 -15   34.00    4.30
   4  -4 -15   36.60    4.80
  -4   4  15   39.20    2.80
  -4   4  15   29.20    2.80
   3  -4 -15    2.30    1.50
   3  -4 -15    2.50    1.70
  -3   4  15    2.50    0.70
  -3   4  15    1.30    0.80
  -3   4  15    2.00    0.80
   2  -4 -15  212.58   15.20
  -2   4  15  214.18   12.70
  -2   4  15  213.28   12.60
  -2   4  15  244.48   13.00
  -2   4  15  230.88   12.70
  -1   4  15  261.47   13.20
  -1   4  15  213.48   12.80
  -1   4  15  221.88   13.00
  -1   4  15  227.18   13.20
  -1   4  15  220.88   12.80
  -1   4  15  234.98   13.00
   0  -4 -15    7.10    2.00
   0   4  15    7.10    1.10
   0   4  15    7.80    1.10
   0   4  15    8.40    1.10
   0   4  15    7.20    1.00
   0   4  15    9.60    1.20
   0   4  15    8.30    1.30
   1   4  15   60.39    3.80
   1   4  15   67.19    3.90
   1   4  15   54.89    3.90
   1   4  15   66.79    3.90
   1   4  15   64.39    4.00
   1   4  15   68.29    4.00
   6  -5 -15   81.99    5.90
   6  -5 -15   83.79    6.60
  -6   5  15   83.49    5.00
  -6   5  15   78.89    4.90
   5  -5 -15   69.19    6.20
   5  -5 -15   58.19    5.20
  -5   5  15   64.79    4.20
  -5   5  15   61.39    4.00
   4  -5 -15  160.48   11.60
   4  -5 -15  172.78   12.30
  -4   5  15  168.38    9.60
  -4   5  15  169.78    9.90
   3  -5 -15  172.68   12.10
   3  -5 -15  170.18   11.90
  -3   5  15  168.48    9.60
  -3   5  15  159.58    9.80
  -3   5  15  169.58    9.50
  -3   5  15  157.08    9.50
   2  -5 -15    4.20    1.70
  -2   5  15    3.60    0.80
  -2   5  15    3.80    1.00
  -2   5  15    4.90    0.90
  -2   5  15    4.10    0.90
  -1   5  15   23.00    1.70
  -1   5  15   23.40    1.90
  -1   5  15   23.90    1.90
  -1   5  15   22.80    1.90
  -1   5  15   23.70    2.20
  -1   5  15   23.80    1.80
   0  -5 -15   23.80    2.80
   0   5  15   23.70    1.90
   0   5  15   26.00    1.80
   0   5  15   24.20    1.80
   0   5  15   29.20    1.90
   0   5  15   26.30    2.00
   5  -6 -15    1.80    1.20
  -5   6  15    1.40    0.60
  -5   6  15   -0.10    0.50
   4  -6 -15   25.40    3.10
   4  -6 -15   29.60    3.60
  -4   6  15   27.10    2.00
  -4   6  15   29.70    2.00
  -4   6  15   24.80    2.30
   3  -6 -15   92.39    7.20
   3  -6 -15   98.99    7.30
  -3   6  15   85.79    5.40
  -3   6  15   89.09    5.80
  -3   6  15   93.49    5.70
   2  -6 -15   86.59    6.60
   2  -6 -15   85.09    7.40
  -2   6  15   87.99    5.00
  -2   6  15   77.99    5.10
  -2   6  15   81.79    5.00
   1   7 -16    7.00    2.50
   1   7 -16    8.40    1.10
  -1  -7  16    8.10    1.00
  -1  -7  16    8.00    1.00
   0   7 -16   25.10    4.50
   0   7 -16   34.20    2.60
   0  -7  16   40.20    2.50
  -1   7 -16   65.29    4.40
   1  -7  16   69.19    4.20
   1  -7  16   65.79    4.20
  -2   7 -16   11.90    1.20
  -2   7 -16   11.10    1.40
   2  -7  16   12.10    1.20
   2  -7  16   14.80    1.30
   3   6 -16    5.20    2.10
   3   6 -16    5.30    2.60
  -3  -6  16    9.70    1.00
  -3  -6  16    6.60    0.80
   2   6 -16   58.29    6.50
  -2  -6  16   62.69    4.00
  -2  -6  16   62.39    3.90
   1   6 -16   14.50    3.40
   1   6 -16   10.60    1.50
  -1  -6  16   16.60    1.50
  -1  -6  16   14.10    1.60
   0   6 -16    1.90    0.80
   0   6 -16    0.80    1.60
   0  -6  16    4.50    0.90
   0  -6  16    1.60    0.70
  -1   6 -16   72.79    8.00
  -1   6 -16   85.49    5.90
   1  -6  16  106.79    5.80
   1  -6  16  109.49    6.00
  -2   6 -16   25.70    2.00
  -2   6 -16   28.50    2.40
   2  -6  16   31.90    2.30
   2  -6  16   27.80    2.10
  -3   6 -16    3.70    0.80
  -3   6 -16    4.00    0.70
   3  -6  16    4.90    0.80
   3  -6  16    4.50    0.80
   4   5 -16   11.30    3.40
   4   5 -16   14.10    2.90
  -4  -5  16   14.70    1.40
   3   5 -16   83.29    9.20
   3   5 -16  103.09    8.80
  -3  -5  16  105.49    6.10
  -3  -5  16  101.09    5.80
   2   5 -16    2.10    2.20
   2   5 -16    1.60    1.80
  -2  -5  16    1.50    0.70
  -2  -5  16    2.80    0.80
   1   5 -16   53.49    6.20
   1   5 -16   54.89    3.90
  -1  -5  16   55.19    3.70
  -1  -5  16   55.69    3.90
   0   5 -16  174.08   11.20
   0   5 -16  183.48   13.90
   0  -5  16  212.88   11.40
   0  -5  16  195.58   11.00
  -1   5 -16   11.90    1.70
  -1   5 -16   12.50    3.00
  -1   5 -16   13.80    1.40
   1  -5  16   13.10    1.70
   1  -5  16   14.30    1.60
  -2   5 -16   22.00    2.20
  -2   5 -16   21.70    1.90
   2  -5  16   23.20    2.10
   2  -5  16   21.90    2.20
  -3   5 -16   19.70    1.80
  -3   5 -16   21.10    2.00
   3  -5  16   23.30    1.90
   3  -5  16   22.90    1.80
   4   4 -16    4.00    2.40
   4   4 -16    4.90    1.90
  -4  -4  16    4.20    0.70
  -4  -4  16    5.40    0.90
   3   4 -16   51.99    5.80
   3   4 -16   50.99    6.80
  -3  -4  16   51.59    3.70
  -3  -4  16   49.60    3.40
   2   4 -16   74.59    8.70
   2   4 -16   88.89    5.70
   2   4 -16  102.19    8.90
  -2  -4  16   95.49    5.70
  -2  -4  16   90.39    5.90
   1   4 -16   36.60    3.10
   1   4 -16   32.70    5.30
  -1  -4  16   43.40    3.00
  -1  -4  16   40.50    3.20
   0   4 -16   67.69    7.20
   0   4 -16   73.19    5.00
   0  -4  16   67.09    5.00
   0  -4  16   76.79    4.80
  -1   4 -16  219.18   12.70
  -1   4 -16  195.48   14.70
  -1   4 -16  214.28   12.10
   1  -4  16  226.18   12.20
   1  -4  16  209.58   12.60
  -2   4 -16   66.59    4.50
  -2   4 -16   69.09    4.90
   2  -4  16   85.59    5.00
   2  -4  16   70.29    4.60
  -3   4 -16   76.49    5.00
  -3   4 -16   81.79    5.20
   3  -4  16   86.99    5.00
   3  -4  16   83.99    5.30
  -4   4 -16   36.50    2.40
   4  -4  16   35.20    2.50
   5   3 -16    5.60    2.60
  -5  -3  16    6.00    0.90
  -5  -3  16    7.70    1.00
   4   3 -16  134.59   10.60
   4   3 -16  146.39   12.00
  -4  -3  16  145.09    8.50
  -4  -3  16  146.19    8.40
   3   3 -16    1.70    1.90
   3   3 -16    3.50    1.90
  -3  -3  16    1.90    0.90
  -3  -3  16    0.80    0.70
   2   3 -16   44.50    3.50
   2   3 -16   60.89    6.60
   2   3 -16   37.70    5.70
  -2  -3  16   48.40    3.50
  -2  -3  16   52.59    3.80
   1   3 -16  172.28   13.50
   1   3 -16  167.58   10.30
  -1  -3  16  166.68   10.10
  -1  -3  16  177.98   10.40
   0   3 -16  209.18   15.40
   0   3 -16  211.98   12.50
   0  -3  16  217.48   12.60
   0  -3  16  206.38   12.30
  -1   3 -16  169.08   12.50
  -1   3 -16  162.08    9.70
  -1   3 -16  183.88   10.30
   1  -3  16  166.28   10.20
   1  -3  16  161.28    9.90
  -2   3 -16   12.30    1.40
  -2   3 -16   12.30    1.70
   2  -3  16   12.40    1.50
   2  -3  16   16.00    1.90
  -3   3 -16   15.70    1.70
  -3   3 -16   11.70    1.40
   3  -3  16   14.60    1.70
   3  -3  16   17.10    1.60
  -4   3 -16  302.17   16.60
   4  -3  16  312.67   16.60
   4  -3  16  292.57   16.70
   6   2 -16    0.50    1.40
  -6  -2  16    0.30    0.40
   5   2 -16   62.79    6.80
  -5  -2  16   69.29    4.30
  -5  -2  16   63.39    4.20
   4   2 -16   14.80    3.10
   4   2 -16   13.50    3.50
  -4  -2  16   17.80    1.80
  -4  -2  16   18.70    2.00
   3   2 -16   69.49    7.40
   3   2 -16   67.79    7.20
  -3  -2  16   65.69    4.80
  -3  -2  16   70.79    4.70
   2   2 -16  281.37   19.60
   2   2 -16  327.37   20.30
   2   2 -16  269.87   16.30
  -2  -2  16  278.97   16.40
  -2  -2  16  280.87   16.60
   1   2 -16    7.40    2.70
   1   2 -16    8.70    1.50
  -1  -2  16   10.60    1.80
  -1  -2  16    8.30    1.50
   0   2 -16  317.17   22.10
   0   2 -16  341.47   19.30
   0   2 -16  332.77   18.80
   0  -2  16  358.66   19.30
   0  -2  16  348.07   19.40
  -1   2 -16    7.50    2.40
  -1   2 -16    5.90    1.30
   1  -2  16    5.70    1.00
   1  -2  16    6.30    1.30
   1  -2  16    6.40    1.30
  -2   2 -16  313.07   16.60
   2  -2  16  283.07   16.10
   2  -2  16  293.77   16.50
   2  -2  16  276.37   16.60
  -3   2 -16  125.39    7.40
  -3   2 -16  115.79    7.20
   3  -2  16  122.39    7.00
   3  -2  16  114.69    7.30
   3  -2  16  134.39    7.00
   3  -2  16  129.29    7.30
   6   1 -16   26.90    3.90
   6   1 -16   25.00    3.80
  -6  -1  16   31.50    2.20
  -6  -1  16   30.00    2.70
   5   1 -16   69.09    7.00
   5   1 -16   67.49    6.20
  -5  -1  16   81.09    4.70
  -5  -1  16   71.59    4.70
   4   1 -16   52.89    6.20
   4   1 -16   50.59    5.80
  -4  -1  16   60.49    4.00
  -4  -1  16   52.89    3.90
   3   1 -16   20.70    4.10
   3   1 -16   23.80    4.40
  -3  -1  16   25.10    2.50
  -3  -1  16   24.00    2.50
  -3  -1  16   24.50    2.00
   2   1 -16    3.80    1.00
   2   1 -16    3.50    2.00
   2   1 -16    3.60    2.20
  -2  -1  16    3.80    1.20
  -2  -1  16    5.70    1.00
  -2  -1  16    3.50    1.10
   1   1 -16  373.36   24.30
   1   1 -16  357.76   20.80
  -1  -1  16  349.17   20.90
  -1  -1  16  374.96   20.40
  -1  -1  16  390.86   21.00
   0   1 -16  393.46   25.70
   0   1 -16  414.96   22.80
   0  -1  16  409.36   22.10
   0  -1  16  427.46   22.90
   0  -1  16  401.26   22.30
   0  -1  16  380.56   22.80
  -1   1 -16   11.70    3.70
  -1   1 -16   11.00    1.60
   1  -1  16   10.50    1.30
   1  -1  16    9.80    1.20
   1  -1  16    7.50    1.40
   1  -1  16   10.00    1.50
  -2   1 -16    1.20    0.70
   2  -1  16    0.40    0.40
   2  -1  16    1.10    0.40
   2  -1  16    1.80    0.80
   2  -1  16    1.30    0.80
   2  -1  16    0.20    0.50
  -3   1 -16  293.17   16.90
   3  -1  16  271.07   16.80
   3  -1  16  317.97   16.90
   3  -1  16  323.87   16.60
   3  -1  16  316.07   16.60
   6   0 -16    7.60    2.20
   6   0 -16    6.20    2.00
  -6   0  16    7.10    0.80
  -6   0  16    9.10    1.10
   5   0 -16   15.30    3.30
   5   0 -16   13.80    2.70
  -5   0  16   13.10    1.70
  -5   0  16   13.00    1.30
   4   0 -16   33.50    4.50
   4   0 -16   37.90    5.00
  -4   0  16   35.40    3.10
  -4   0  16   34.00    2.50
   3   0 -16  465.15   29.10
   3   0 -16  438.96   29.00
  -3   0  16  463.85   25.60
  -3   0  16  498.45   26.10
   2   0 -16   10.30    3.10
   2   0 -16   13.60    1.70
   2   0 -16   13.70    3.20
  -2   0  16   14.10    1.90
  -2   0  16   11.60    1.40
   1   0 -16  263.57   18.00
   1   0 -16  264.67   15.00
  -1   0  16  255.97   14.60
  -1   0  16  250.47   15.10
   0   0 -16   75.89    5.00
   0   0 -16   72.79    7.20
   0   0  16   70.39    5.00
   0   0  16   75.59    4.50
   0   0  16   69.79    4.70
  -1   0 -16  301.07   16.60
   1   0  16  287.07   16.20
   1   0  16  275.47   16.20
   1   0  16  307.57   16.10
   1   0  16  280.57   16.60
  -2   0 -16   74.59    4.80
   2   0  16   75.89    4.50
   2   0  16   77.69    4.40
   2   0  16   71.59    4.60
   2   0  16   70.09    4.80
   2   0  16   75.19    4.50
  -3   0 -16    4.20    1.00
   3   0  16    4.10    0.60
   3   0  16    3.70    0.60
   3   0  16    5.10    0.60
   3   0  16    4.50    0.70
   3   0  16    4.70    0.60
   6  -1 -16   16.30    3.10
   6  -1 -16   13.40    2.70
  -6   1  16   20.90    1.80
  -6   1  16   20.00    1.50
   5  -1 -16   77.49    6.60
   5  -1 -16   76.49    7.30
  -5   1  16   77.59    4.80
  -5   1  16   83.39    5.20
   4  -1 -16   64.79    6.70
   4  -1 -16   67.39    6.60
  -4   1  16   72.29    4.70
  -4   1  16   68.19    4.40
   3  -1 -16    2.70    1.90
   3  -1 -16    1.80    1.60
  -3   1  16    1.00    0.70
  -3   1  16    2.80    0.90
   2  -1 -16  185.18   10.80
   2  -1 -16  184.68   13.40
   2  -1 -16  188.58   14.00
  -2   1  16  175.38   10.60
  -2   1  16  182.28   11.00
   1  -1 -16  347.17   21.70
  -1   1  16  321.47   18.20
  -1   1  16  329.87   18.20
  -1   1  16  302.47   18.50
   0  -1 -16   10.00    2.70
   0   1  16   10.60    1.40
   0   1  16   12.20    1.50
   0   1  16   10.20    1.60
   0   1  16   10.90    1.40
   0   1  16   11.90    1.30
   1   1  16   11.20    1.40
   1   1  16   10.90    1.20
   1   1  16   12.00    1.30
   1   1  16   11.60    1.50
   1   1  16   11.20    1.20
   1   1  16   12.30    1.40
  -2  -1 -16    7.10    1.10
   2   1  16    6.80    1.00
   2   1  16    7.70    0.90
   2   1  16    7.70    1.00
   2   1  16    7.20    0.90
   2   1  16    8.80    1.00
   2   1  16    7.70    1.00
   6  -2 -16   38.50    4.30
   6  -2 -16   36.60    3.80
  -6   2  16   39.80    2.80
  -6   2  16   45.20    2.70
   5  -2 -16   24.60    3.90
   5  -2 -16   20.60    3.20
  -5   2  16   24.10    2.20
  -5   2  16   21.50    1.90
   4  -2 -16  187.68   13.50
   4  -2 -16  196.08   14.00
  -4   2  16  193.48   11.40
  -4   2  16  198.18   11.10
   3  -2 -16   47.40    5.40
   3  -2 -16   45.60    5.40
  -3   2  16   44.70    3.50
  -3   2  16   43.60    3.20
  -3   2  16   42.20    3.20
   2  -2 -16  312.07   20.40
   2  -2 -16  324.67   21.10
  -2   2  16  305.27   17.70
  -2   2  16  312.57   17.70
  -2   2  16  311.87   18.00
  -2   2  16  337.77   17.80
   1  -2 -16    1.10    1.40
  -1   2  16    1.30    0.60
  -1   2  16    0.10    0.60
  -1   2  16    0.80    0.40
  -1   2  16    2.50    0.90
  -1   2  16    0.60    0.60
   0  -2 -16  188.68   12.70
   0   2  16  183.18   10.00
   0   2  16  189.68   10.20
   0   2  16  168.78   10.10
   0   2  16  161.78   10.00
   0   2  16  156.48    9.90
   0   2  16  191.78   10.20
   0   2  16  168.38   10.20
   1   2  16   14.40    1.60
   1   2  16   15.00    1.40
   1   2  16   14.80    1.40
   1   2  16   15.80    1.60
   1   2  16   14.90    1.40
   1   2  16   17.30    1.70
  -2  -2 -16   30.20    2.10
   2   2  16   30.40    2.00
   2   2  16   30.70    1.90
   2   2  16   28.20    2.00
   2   2  16   30.60    2.10
   2   2  16   28.60    2.00
   6  -3 -16    6.20    1.60
   6  -3 -16    7.40    2.00
  -6   3  16    9.20    1.00
   5  -3 -16   87.29    7.60
   5  -3 -16   85.59    6.90
  -5   3  16   99.99    5.50
   4  -3 -16   16.70    3.10
   4  -3 -16   13.10    3.00
  -4   3  16   14.50    1.60
  -4   3  16   16.10    2.40
  -4   3  16   13.70    1.60
   3  -3 -16   49.99    5.50
   3  -3 -16   49.80    5.50
  -3   3  16   51.49    3.60
  -3   3  16   55.59    3.60
   2  -3 -16  234.78   15.90
   2  -3 -16  235.58   15.60
  -2   3  16  234.08   13.00
  -2   3  16  219.78   13.10
  -2   3  16  226.28   13.20
   1  -3 -16  222.18   14.80
  -1   3  16  207.08   12.20
  -1   3  16  211.78   12.00
  -1   3  16  215.18   12.30
  -1   3  16  223.68   12.20
  -1   3  16  205.78   12.00
   0  -3 -16  151.08   10.70
   0   3  16  140.39    8.70
   0   3  16  160.68    8.70
   0   3  16  149.39    8.80
   0   3  16  150.38    8.80
   0   3  16  152.48    8.60
   0   3  16  165.18    8.90
   1   3  16   84.49    5.10
   1   3  16   81.89    5.10
   1   3  16   87.89    5.00
   1   3  16   87.99    5.20
   1   3  16   90.59    5.10
   6  -4 -16   24.10    2.90
  -6   4  16   23.20    1.80
   5  -4 -16   19.20    3.20
   5  -4 -16   20.10    2.60
  -5   4  16   18.30    1.70
  -5   4  16   20.70    1.80
   4  -4 -16   29.60    3.90
   4  -4 -16   29.50    3.70
  -4   4  16   32.10    2.30
  -4   4  16   28.70    2.30
   3  -4 -16  108.59    8.40
   3  -4 -16   96.69    8.10
  -3   4  16  103.59    6.20
  -3   4  16   96.39    6.10
   2  -4 -16   93.29    7.50
   2  -4 -16  102.39    8.00
  -2   4  16   99.59    6.00
  -2   4  16   95.49    5.80
  -2   4  16   92.69    5.80
   1  -4 -16   44.70    4.50
  -1   4  16   40.40    2.80
  -1   4  16   40.20    2.70
  -1   4  16   42.90    2.90
  -1   4  16   45.10    3.00
  -1   4  16   37.80    2.80
   0  -4 -16   21.80    2.70
   0   4  16   20.70    1.70
   0   4  16   21.20    1.60
   0   4  16   19.70    1.60
   0   4  16   21.60    1.50
   0   4  16   21.80    1.50
   0   4  16   19.60    1.60
   5  -5 -16   88.99    6.90
  -5   5  16   93.59    5.40
  -5   5  16   87.89    5.30
   4  -5 -16    6.90    2.00
   4  -5 -16    7.30    1.80
  -4   5  16    7.00    0.90
  -4   5  16    6.90    1.00
   3  -5 -16   34.60    3.70
   3  -5 -16   29.20    3.50
  -3   5  16   32.00    2.40
  -3   5  16   31.30    2.20
   2  -5 -16   53.39    5.00
  -2   5  16   54.59    3.50
  -2   5  16   61.99    3.60
  -2   5  16   57.59    3.70
  -2   5  16   55.59    3.50
   1   6 -17    6.40    2.20
   1   6 -17    5.50    0.90
  -1  -6  17    8.80    1.00
  -1  -6  17    8.30    0.90
   0   6 -17    3.30    1.80
   0   6 -17    4.10    0.90
   0  -6  17    5.50    0.90
   0  -6  17    4.10    0.80
  -1   6 -17   40.70    3.10
   1  -6  17   50.79    3.10
   1  -6  17   44.40    2.90
  -2   6 -17   49.90    3.50
   2  -6  17   59.19    3.50
   3   5 -17   30.00    7.50
   3   5 -17   33.80    4.10
   2   5 -17    7.40    2.30
  -2  -5  17    8.20    1.10
   1   5 -17    9.60    1.30
   1   5 -17   10.40    2.70
  -1  -5  17   13.40    1.40
  -1  -5  17   14.50    1.50
   0   5 -17   18.50    3.50
   0   5 -17   24.00    2.20
   0  -5  17   29.30    2.20
   0  -5  17   25.10    2.10
  -1   5 -17    2.00    0.70
   1  -5  17    3.30    0.80
  -2   5 -17    4.50    0.70
  -2   5 -17    4.70    0.90
   2  -5  17    4.10    0.80
   4   4 -17    8.80    2.20
   4   4 -17    7.80    2.60
  -4  -4  17    8.00    1.00
   3   4 -17    1.20    1.40
   3   4 -17    0.00    1.60
  -3  -4  17    1.50    0.60
  -3  -4  17    0.70    0.50
   2   4 -17    7.40    2.30
   2   4 -17    6.30    1.50
  -2  -4  17    7.00    1.00
  -2  -4  17    8.00    1.20
   1   4 -17   13.30    1.60
   1   4 -17   16.40    3.40
  -1  -4  17   17.20    1.70
  -1  -4  17   17.30    1.90
   0   4 -17  132.79   10.80
   0   4 -17  146.39    8.80
   0  -4  17  142.89    8.50
   0  -4  17  164.98    8.90
  -1   4 -17   80.29    5.40
  -1   4 -17   77.39    4.90
   1  -4  17   88.49    5.10
   1  -4  17   80.79    5.30
  -2   4 -17   33.50    2.60
  -2   4 -17   30.80    2.30
   2  -4  17   35.70    2.40
   2  -4  17   36.40    2.60
  -3   4 -17   45.70    2.90
   3  -4  17   44.70    3.00
   4   3 -17  104.29    8.60
  -4  -3  17  120.09    6.90
  -4  -3  17  120.89    6.70
   3   3 -17    3.30    1.70
   3   3 -17    3.10    2.00
  -3  -3  17    4.20    0.90
  -3  -3  17    4.20    1.00
   2   3 -17   96.09    8.80
   2   3 -17  102.89    6.30
  -2  -3  17  104.39    6.50
  -2  -3  17  110.59    6.40
   1   3 -17    2.10    1.70
   1   3 -17    2.60    0.90
  -1  -3  17    4.10    1.10
   0   3 -17   37.90    3.00
   0   3 -17   37.60    4.80
   0  -3  17   38.40    3.10
   0  -3  17   39.60    2.90
  -1   3 -17  197.68   11.60
  -1   3 -17  185.98   11.10
   1  -3  17  208.48   11.40
   1  -3  17  200.98   11.50
  -2   3 -17   11.70    1.30
  -2   3 -17   15.00    1.60
   2  -3  17   16.00    1.50
   2  -3  17   13.20    1.50
  -3   3 -17  164.18    9.50
   3  -3  17  156.88    9.60
   3  -3  17  187.58    9.50
   5   2 -17   79.59    7.80
  -5  -2  17  100.99    5.70
  -5  -2  17  106.99    5.80
   4   2 -17   20.60    4.10
   4   2 -17   30.40    3.80
  -4  -2  17   32.30    2.30
  -4  -2  17   27.40    2.20
   3   2 -17    1.70    1.70
   3   2 -17    3.90    1.80
  -3  -2  17    2.50    0.90
  -3  -2  17    3.80    1.00
   2   2 -17   74.89    4.80
   2   2 -17   62.99    7.00
  -2  -2  17   79.99    5.10
  -2  -2  17   76.49    4.90
   1   2 -17   90.09    6.00
   1   2 -17   96.29    8.50
  -1  -2  17   97.59    6.00
  -1  -2  17   89.49    6.00
   0   2 -17   74.99    4.90
   0   2 -17   67.39    6.70
   0  -2  17   68.99    4.90
   0  -2  17   78.19    4.90
  -1   2 -17  110.59    7.10
  -1   2 -17  113.29    6.70
   1  -2  17  111.99    7.00
   1  -2  17  120.19    7.00
  -2   2 -17  178.58   10.00
  -2   2 -17  167.48    9.70
   2  -2  17  163.48    9.90
   2  -2  17  176.88    9.90
  -3   2 -17   47.90    3.10
   3  -2  17   50.69    3.10
   5   1 -17   22.60    3.90
  -5  -1  17   28.60    2.10
   4   1 -17   36.00    4.30
   4   1 -17   35.10    4.60
  -4  -1  17   37.60    2.80
  -4  -1  17   37.20    2.80
   3   1 -17  209.98   14.70
   3   1 -17  190.18   14.40
  -3  -1  17  213.98   12.10
  -3  -1  17  219.18   12.10
   2   1 -17    7.30    1.20
   2   1 -17    9.90    2.80
  -2  -1  17    7.80    1.40
  -2  -1  17   11.90    1.60
  -2  -1  17    6.50    1.00
   1   1 -17  213.48   15.10
   1   1 -17  206.98   12.30
  -1  -1  17  232.78   12.50
  -1  -1  17  207.58   12.40
  -1  -1  17  206.98   12.00
   0   1 -17  193.68   11.10
   0   1 -17  191.28   13.50
   0  -1  17  179.88   11.10
   0  -1  17  181.48   10.70
   0  -1  17  205.38   11.20
  -1   1 -17  101.29    6.50
   1  -1  17  111.59    6.20
   1  -1  17  109.09    6.60
   1  -1  17  100.09    6.40
  -2   1 -17  208.58   12.10
  -2   1 -17  229.68   12.40
   2  -1  17  211.48   12.00
   2  -1  17  221.38   12.30
   5   0 -17   65.39    6.10
   5   0 -17   61.89    5.30
  -5   0  17   65.09    4.20
  -5   0  17   64.59    3.80
   4   0 -17    2.90    1.70
   4   0 -17    1.30    1.40
  -4   0  17    2.40    0.70
  -4   0  17    2.90    0.80
   3   0 -17  157.98   11.70
   3   0 -17  152.28   11.80
  -3   0  17  159.28    9.50
  -3   0  17  161.88    9.10
   2   0 -17   54.59    3.70
   2   0 -17   51.69    5.90
  -2   0  17   53.69    3.50
  -2   0  17   54.59    4.00
   1   0 -17  204.18   12.10
   1   0 -17  214.18   14.80
  -1   0  17  209.58   12.30
  -1   0  17  212.88   11.90
   0   0 -17  126.69    7.80
   0   0 -17  128.39    9.90
   0   0  17  120.29    7.80
   0   0  17  135.09    7.40
   0   0  17  131.89    7.50
  -1   0 -17  238.68   13.30
   1   0  17  233.58   13.00
   1   0  17  218.18   13.20
   1   0  17  237.98   12.90
  -2   0 -17   48.60    3.30
   2   0  17   50.49    3.30
   2   0  17   56.69    3.40
   2   0  17   50.49    3.10
   6  -1 -17   12.20    2.40
   5  -1 -17   78.29    6.30
   5  -1 -17   78.99    6.90
  -5   1  17   84.69    4.90
  -5   1  17   87.99    5.20
   4  -1 -17   88.59    7.90
   4  -1 -17   97.19    7.90
  -4   1  17  103.29    6.10
  -4   1  17  101.79    5.80
   3  -1 -17    1.20    1.40
   3  -1 -17    1.90    1.50
  -3   1  17    1.60    0.80
  -3   1  17    1.10    0.60
   2  -1 -17  296.37   16.70
   2  -1 -17  300.97   19.70
  -2   1  17  282.47   16.90
  -2   1  17  313.57   16.70
   1  -1 -17  116.19    7.20
   1  -1 -17  124.59    9.60
  -1   1  17  125.99    7.10
  -1   1  17  109.09    7.20
   0  -1 -17   11.70    1.40
   0  -1 -17   10.90    2.50
   0   1  17   10.10    1.20
   0   1  17    9.80    1.40
   0   1  17   11.40    1.10
   0   1  17    8.40    1.10
  -1  -1 -17   75.99    4.80
   1   1  17   71.79    4.50
   1   1  17   77.59    4.60
   1   1  17   81.49    4.50
   1   1  17   70.99    4.70
   5  -2 -17    6.50    1.90
   5  -2 -17    7.90    1.80
  -5   2  17    9.10    1.20
  -5   2  17    9.10    1.00
   4  -2 -17   46.20    4.90
   4  -2 -17   47.40    4.80
  -4   2  17   49.30    3.40
  -4   2  17   49.90    3.20
   3  -2 -17   32.00    4.00
   3  -2 -17   35.40    4.30
  -3   2  17   33.10    2.80
  -3   2  17   31.60    2.40
   2  -2 -17  338.47   21.00
   2  -2 -17  345.17   18.50
  -2   2  17  338.77   18.60
  -2   2  17  322.47   18.40
  -2   2  17  314.97   18.40
   1  -2 -17   79.49    6.80
  -1   2  17   78.29    4.80
  -1   2  17   75.99    5.00
  -1   2  17   79.39    4.90
   0  -2 -17  162.28    9.20
   0  -2 -17  155.48   10.70
   0   2  17  148.89    9.00
   0   2  17  155.48    8.80
   0   2  17  167.78    9.00
   0   2  17  159.78    9.00
  -1  -2 -17  160.18    9.10
   1   2  17  170.38    8.90
   1   2  17  158.38    8.90
   1   2  17  146.69    8.90
   5  -3 -17    7.90    1.90
  -5   3  17    8.90    1.00
   4  -3 -17   13.90    2.60
   4  -3 -17   14.10    2.60
  -4   3  17   13.70    1.40
   3  -3 -17   13.00    2.60
   3  -3 -17   12.60    2.50
  -3   3  17   15.70    1.50
  -3   3  17   15.30    1.50
   2  -3 -17   29.20    3.70
   2  -3 -17   27.90    2.20
  -2   3  17   30.20    2.20
  -2   3  17   30.70    2.20
   1  -3 -17  289.97   17.50
  -1   3  17  265.97   15.50
  -1   3  17  280.67   15.50
   0  -3 -17   17.00    1.50
   0   3  17   17.30    1.50
   0   3  17   15.90    1.40
   0   3  17   17.40    1.40
   4  -4 -17   30.00    3.30
   4  -4 -17   31.50    3.40
  -4   4  17   29.90    2.10
  -4   4  17   30.10    2.10
   3  -4 -17  110.19    8.00
   3  -4 -17  112.19    8.20
  -3   4  17  114.89    6.60
  -3   4  17  119.29    6.60
   2  -4 -17   13.40    2.40
  -2   4  17   13.10    1.30
  -2   4  17   13.60    1.30
   1   5 -18    4.30    1.60
  -1  -5  18    5.00    0.80
   0   5 -18    0.10    0.50
   0  -5  18    0.60    0.50
   2   4 -18    8.30    2.20
  -2  -4  18   12.80    1.10
  -2  -4  18   10.10    1.20
   1   4 -18   26.10    2.10
   1   4 -18   24.70    3.50
  -1  -4  18   36.20    2.10
  -1  -4  18   32.00    2.30
   0   4 -18   13.10    1.40
   0   4 -18   11.60    2.40
   0  -4  18   12.30    1.40
   0  -4  18   13.60    1.30
  -1   4 -18    0.20    0.50
   1  -4  18    0.30    0.50
   1  -4  18    0.10    0.50
   3   3 -18    0.30    1.40
   3   3 -18    1.20    1.10
  -3  -3  18   -1.50    0.40
  -3  -3  18    1.40    0.50
   2   3 -18   49.60    5.20
  -2  -3  18   48.60    3.50
  -2  -3  18   55.69    3.40
   1   3 -18   18.30    3.20
   1   3 -18   17.00    1.80
  -1  -3  18   20.10    1.90
  -1  -3  18   20.90    1.80
   0   3 -18   19.60    1.90
   0   3 -18   17.30    3.00
   0  -3  18   21.90    1.80
   0  -3  18   19.60    1.90
  -1   3 -18   91.29    6.10
  -1   3 -18  106.69    6.20
   1  -3  18  110.79    6.00
   1  -3  18  100.29    6.10
   4   2 -18   10.10    2.10
   4   2 -18    7.20    2.30
  -4  -2  18   13.60    1.20
   3   2 -18   16.20    3.30
   3   2 -18   24.50    3.30
  -3  -2  18   24.60    2.00
  -3  -2  18   26.50    2.00
   2   2 -18    8.70    1.10
   2   2 -18    6.90    2.10
  -2  -2  18    8.00    1.20
  -2  -2  18    7.70    1.20
   1   2 -18   76.99    6.80
   1   2 -18   69.79    4.80
  -1  -2  18   84.69    4.90
  -1  -2  18   76.29    4.90
   0   2 -18   81.39    4.90
   0   2 -18   70.19    6.30
   0  -2  18   75.69    4.80
   0  -2  18   79.19    4.80
  -1   2 -18    7.70    1.10
  -1   2 -18    8.90    0.90
   1  -2  18   10.90    1.20
   1  -2  18    8.90    1.20
   4   1 -18    6.10    1.70
   4   1 -18    4.40    1.80
  -4  -1  18    8.80    1.10
   3   1 -18  144.19   10.80
  -3  -1  18  163.38    9.00
   2   1 -18   79.49    7.20
   2   1 -18   82.69    5.20
  -2  -1  18   92.09    5.40
   1   1 -18    2.60    1.50
   1   1 -18    2.60    0.80
  -1  -1  18    3.10    0.60
  -1  -1  18    2.80    0.80
   0   1 -18   70.89    4.60
   0   1 -18   69.39    6.10
   0  -1  18   78.59    4.70
   0  -1  18   71.59    4.30
  -1   1 -18   31.90    2.40
  -1   1 -18   30.30    2.10
   1  -1  18   33.00    2.10
   1  -1  18   33.70    2.40
   4   0 -18   32.80    4.00
   4   0 -18   37.70    3.90
  -4   0  18   43.10    2.80
  -4   0  18   40.30    2.40
   3   0 -18   41.70    4.50
   3   0 -18   36.80    4.30
  -3   0  18   43.50    3.00
  -3   0  18   43.50    2.70
   2   0 -18  154.78    9.00
   2   0 -18  162.28   11.30
  -2   0  18  152.78    8.80
  -2   0  18  152.28    9.20
   1   0 -18  248.08   16.30
   1   0 -18  248.18   14.20
  -1   0  18  251.37   14.30
  -1   0  18  262.27   14.00
   0   0 -18   22.30    1.90
   0   0 -18   20.20    2.80
   0   0  18   21.40    1.60
   0   0  18   23.00    2.00
  -1   0 -18    1.00    0.50
   1   0  18    0.50    0.50
   1   0  18    0.40    0.40
   4  -1 -18   42.80    4.50
   4  -1 -18   51.69    4.60
  -4   1  18   49.80    3.30
  -4   1  18   49.30    3.00
   3  -1 -18   53.29    5.00
   3  -1 -18   46.20    4.60
  -3   1  18   49.99    3.50
  -3   1  18   53.39    3.20
   2  -1 -18  107.49    6.30
   2  -1 -18  101.79    8.20
  -2   1  18  112.09    6.20
  -2   1  18  103.69    6.40
   1  -1 -18   98.99    5.80
   1  -1 -18   94.09    7.40
  -1   1  18   95.39    5.80
  -1   1  18   93.89    5.60
   0  -1 -18  162.98    9.30
   0   1  18  170.08    9.10
   0   1  18  154.28    9.20
   4  -2 -18    4.80    1.50
   4  -2 -18    4.90    1.50
  -4   2  18    5.10    0.80
   3  -2 -18   43.40    4.20
   3  -2 -18   49.99    4.60
  -3   2  18   47.40    3.10
  -3   2  18   48.70    3.10
   2  -2 -18   64.69    5.40
   2  -2 -18   59.59    3.70
  -2   2  18   52.99    3.70
  -2   2  18   60.49    3.70
   1  -2 -18   56.49    3.60
   1  -2 -18   57.49    4.90
  -1   2  18   55.79    3.50
   2   2 -19    8.40    1.90
  -2  -2  19    8.80    1.00
   1   2 -19   30.10    2.10
   1   2 -19   28.60    3.30
  -1  -2  19   34.50    2.20
   2   1 -19   51.89    4.80
  -2  -1  19   56.39    3.50
   1   1 -19    9.00    1.90
   1   1 -19    8.90    1.00
  -1  -1  19   10.70    1.20
   2   0 -19   44.10    4.10
  -2   0  19   42.60    2.90
   0   0   0    0.00    0.00

_computing_structure_solution     'SHELXT 2014/5 (Sheldrick, 2014)'
;
_shelx_hkl_checksum              91940
_shelx_fab_file
;
-10 3 3 0.0618 0.0166
-10 3 4 -0.0784 0.0272
-10 4 1 -0.1042 -0.0641
-10 4 2 0.1137 0.0403
-10 4 3 -0.0682 -0.0026
-10 4 4 0.0187 -0.0046
-10 4 5 0.0126 -0.0267
-10 5 1 0.0397 0.0382
-10 5 2 -0.0550 -0.0208
-10 5 3 0.0242 0.0114
-10 5 4 0.0637 -0.0267
-10 5 5 -0.1188 0.0496
-10 6 2 0.1282 -0.0080
-10 6 3 -0.0812 -0.0237
-9 -1 3 0.1722 -0.0205
-9 -1 4 -0.0745 0.0184
-9 -1 5 -0.0431 -0.0224
-9 -1 6 0.1278 0.0305
-9 0 1 -0.0330 -0.0899
-9 0 2 0.0750 0.0271
-9 0 3 -0.1176 0.0188
-9 0 4 0.1458 -0.0100
-9 0 5 -0.1033 -0.0102
-9 0 6 -0.0570 0.0019
-9 0 7 0.2862 0.0110
-9 0 8 -0.4346 0.0093
-9 0 9 0.3821 -0.0459
-9 1 1 -0.0415 0.1383
-9 1 2 0.0461 -0.0410
-9 1 3 0.0152 -0.0354
-9 1 4 -0.0658 0.0272
-9 1 5 0.0132 0.0177
-9 1 6 0.0935 -0.0275
-9 1 7 -0.1096 0.0023
-9 1 8 0.0071 0.0144
-9 1 9 0.0836 -0.0115
-9 1 10 -0.0733 0.0105
-9 2 1 -0.0104 -0.1393
-9 2 2 0.0611 0.0708
-9 2 3 -0.0739 0.0162
-9 2 4 0.0685 -0.0430
-9 2 5 -0.0464 0.0159
-9 2 6 0.0318 0.0044
-9 2 7 -0.0638 0.0043
-9 2 8 0.1078 -0.0104
-9 2 9 -0.0686 -0.0060
-9 2 10 -0.0539 0.0232
-9 2 11 0.1263 -0.0217
-9 3 1 0.0573 0.1582
-9 3 2 -0.1306 -0.0610
-9 3 3 0.1510 -0.0360
-9 3 4 -0.0934 0.0394
-9 3 5 0.0113 0.0180
-9 3 6 0.0571 -0.0392
-9 3 7 -0.1252 0.0019
-9 3 8 0.1969 0.0269
-9 3 9 -0.2428 -0.0011
-9 3 10 0.2422 -0.0454
-9 3 11 -0.1994 0.0612
-9 4 1 0.1029 -0.1476
-9 4 2 0.0236 0.0363
-9 4 3 -0.1387 0.0537
-9 4 4 0.1163 -0.0405
-9 4 5 -0.0219 -0.0206
-9 4 6 -0.0229 0.0370
-9 4 7 0.0171 -0.0032
-9 4 8 -0.0271 -0.0223
-9 4 9 0.0618 0.0121
-9 4 10 -0.0902 0.0132
-9 4 11 0.1080 -0.0340
-9 5 1 -0.0041 0.1557
-9 5 2 0.0075 -0.0536
-9 5 3 -0.0366 -0.0252
-9 5 4 0.0723 0.0162
-9 5 5 -0.0717 0.0220
-9 5 6 0.0352 -0.0193
-9 5 7 -0.0159 -0.0074
-9 5 8 0.0384 0.0122
-9 5 9 -0.0530 -0.0048
-9 5 10 0.0144 0.0172
-9 6 1 -0.0435 -0.1608
-9 6 2 0.0064 0.0746
-9 6 3 0.0442 0.0189
-9 6 4 -0.0056 -0.0338
-9 6 5 -0.0943 -0.0015
-9 6 6 0.1226 0.0082
-9 6 7 -0.0156 0.0178
-9 6 8 -0.1334 -0.0194
-9 6 9 0.1787 -0.0117
-9 7 1 -0.0294 0.1142
-9 7 2 -0.0441 -0.0559
-9 7 3 0.0503 -0.0172
-9 7 4 -0.0261 0.0309
-9 7 5 0.0666 0.0074
-9 7 6 -0.1734 -0.0262
-9 7 7 0.2261 -0.0040
-9 7 8 -0.1405 0.0365
-9 8 1 0.0527 -0.1305
-9 8 2 0.0202 0.0644
-9 8 3 -0.0849 0.0072
-9 8 4 0.1026 -0.0264
-9 8 5 -0.1183 -0.0020
-9 8 6 0.1406 0.0360
-9 9 1 0.0428 0.1000
-9 9 2 -0.0683 -0.0653
-9 9 3 0.0123 0.0269
-8 -3 1 -0.1157 0.0812
-8 -3 2 0.1173 -0.0492
-8 -3 3 -0.0341 0.0146
-8 -3 4 -0.1120 0.0017
-8 -3 5 0.1905 0.0016
-8 -3 6 -0.1495 -0.0069
-8 -3 7 0.1007 -0.0025
-8 -3 8 -0.1230 0.0226
-8 -2 1 -0.1354 -0.0780
-8 -2 2 0.1969 0.0254
-8 -2 3 -0.1499 0.0179
-8 -2 4 0.0452 -0.0204
-8 -2 5 0.0073 0.0038
-8 -2 6 0.0154 0.0015
-8 -2 7 -0.0410 0.0052
-8 -2 8 0.0232 -0.0111
-8 -2 9 0.0016 0.0170
-8 -2 10 0.0082 -0.0286
-8 -1 1 0.1827 0.1509
-8 -1 2 -0.2181 -0.0513
-8 -1 3 0.1568 -0.0277
-8 -1 4 -0.1007 0.0185
-8 -1 5 0.1368 0.0150
-8 -1 6 -0.1811 -0.0058
-8 -1 7 0.0795 -0.0163
-8 -1 8 0.1376 0.0007
-8 -1 9 -0.2456 0.0305
-8 -1 10 0.1232 -0.0246
-8 -1 11 0.0717 -0.0144
-8 -1 12 -0.1164 0.0407
-8 0 1 0.1055 -0.2008
-8 0 2 -0.1312 0.0621
-8 0 3 0.0273 0.0476
-8 0 4 0.0952 -0.0360
-8 0 5 -0.1125 -0.0230
-8 0 6 0.0374 0.0280
-8 0 7 0.0197 0.0105
-8 0 8 -0.0118 -0.0257
-8 0 9 -0.0095 0.0109
-8 0 10 0.0069 -0.0052
-8 0 11 -0.0057 0.0105
-8 0 12 0.0200 0.0027
-8 0 13 -0.0219 -0.0299
-8 1 1 -0.1408 0.1997
-8 1 2 0.1188 -0.0766
-8 1 3 -0.0326 -0.0379
-8 1 4 -0.0174 0.0452
-8 1 5 -0.0087 0.0108
-8 1 6 0.0410 -0.0335
-8 1 7 -0.0124 0.0064
-8 1 8 -0.0368 0.0156
-8 1 9 0.0233 -0.0074
-8 1 10 0.0443 -0.0037
-8 1 11 -0.0723 0.0036
-8 1 12 0.0212 -0.0150
-8 1 13 0.0435 0.0445
-8 2 1 0.0757 -0.1706
-8 2 2 -0.0100 0.0531
-8 2 3 -0.0351 0.0463
-8 2 4 -0.0317 -0.0363
-8 2 5 0.1111 -0.0245
-8 2 6 -0.0960 0.0345
-8 2 7 0.0494 0.0097
-8 2 8 -0.0797 -0.0350
-8 2 9 0.1561 0.0116
-8 2 10 -0.1672 0.0186
-8 2 11 0.0853 -0.0232
-8 2 12 0.0216 0.0232
-8 2 13 -0.0900 -0.0422
-8 3 1 -0.0321 0.1796
-8 3 2 -0.0871 -0.0506
-8 3 3 0.1420 -0.0561
-8 3 4 -0.0609 0.0444
-8 3 5 -0.0503 0.0170
-8 3 6 0.0631 -0.0278
-8 3 7 -0.0155 -0.0065
-8 3 8 0.0212 0.0219
-8 3 9 -0.0789 -0.0051
-8 3 10 0.1021 -0.0104
-8 3 11 -0.0796 0.0161
-8 3 12 0.0802 -0.0336
-8 3 13 -0.1213 0.0607
-8 4 1 -0.0279 -0.2220
-8 4 2 -0.0938 0.0830
-8 4 3 0.1674 0.0389
-8 4 4 -0.1343 -0.0418
-8 4 5 0.0324 -0.0133
-8 4 6 0.0523 0.0269
-8 4 7 -0.0645 0.0004
-8 4 8 0.0211 -0.0109
-8 4 9 0.0008 0.0007
-8 4 10 0.0513 -0.0075
-8 4 11 -0.1195 0.0249
-8 4 12 0.0935 -0.0061
-8 4 13 0.0267 -0.0503
-8 5 1 0.0139 0.1825
-8 5 2 0.0545 -0.0814
-8 5 3 -0.0243 -0.0310
-8 5 4 -0.1414 0.0466
-8 5 5 0.2925 0.0085
-8 5 6 -0.2569 -0.0336
-8 5 7 0.0525 0.0036
-8 5 8 0.1281 0.0165
-8 5 9 -0.1236 0.0070
-8 5 10 -0.0335 -0.0276
-8 5 11 0.1634 0.0097
-8 5 12 -0.1447 0.0062
-8 5 13 0.0457 0.0252
-8 6 1 -0.2230 -0.1321
-8 6 2 0.2251 0.0523
-8 6 3 -0.1857 0.0354
-8 6 4 0.1105 -0.0463
-8 6 5 -0.0649 -0.0050
-8 6 6 0.0868 0.0340
-8 6 7 -0.1260 -0.0031
-8 6 8 0.1146 -0.0357
-8 6 9 -0.0506 0.0259
-8 6 10 -0.0186 0.0117
-8 6 11 0.0518 -0.0172
-8 6 12 -0.0338 -0.0165
-8 7 1 0.1879 0.1417
-8 7 2 -0.2015 -0.0476
-8 7 3 0.1951 -0.0359
-8 7 4 -0.1942 0.0452
-8 7 5 0.2158 -0.0041
-8 7 6 -0.2289 -0.0277
-8 7 7 0.1940 0.0227
-8 7 8 -0.1277 -0.0033
-8 7 9 0.0838 0.0044
-8 7 10 -0.0741 -0.0288
-8 7 11 0.0567 0.0475
-8 8 1 -0.3953 -0.1204
-8 8 2 0.2945 0.0519
-8 8 3 -0.0983 0.0071
-8 8 4 0.0080 -0.0089
-8 8 5 -0.0231 -0.0148
-8 8 6 0.0397 0.0149
-8 8 7 -0.0170 0.0075
-8 8 8 -0.0451 -0.0131
-8 8 9 0.1335 -0.0139
-8 9 1 0.0135 0.1323
-8 9 2 0.1025 -0.0498
-8 9 3 -0.0706 -0.0283
-8 9 4 -0.0447 0.0254
-8 9 5 0.0486 0.0242
-8 9 6 0.0481 -0.0300
-8 9 7 -0.0598 -0.0253
-8 9 8 -0.0309 0.0677
-8 10 1 -0.0149 -0.1145
-8 10 2 -0.0741 0.0357
-8 10 3 0.0264 0.0255
-8 10 4 0.0463 -0.0077
-8 10 5 -0.0487 -0.0464
-7 -5 4 0.0564 0.0105
-7 -5 5 0.0306 -0.0137
-7 -5 6 0.0034 0.0395
-7 -4 1 -0.0849 -0.0919
-7 -4 2 0.0599 0.0200
-7 -4 3 -0.0794 0.0266
-7 -4 4 0.1702 -0.0151
-7 -4 5 -0.2024 -0.0100
-7 -4 6 0.0962 0.0032
-7 -4 7 0.0239 0.0215
-7 -4 8 -0.0209 -0.0268
-7 -4 9 -0.0401 0.0129
-7 -4 10 0.0205 -0.0087
-7 -3 1 -0.0391 0.1528
-7 -3 2 -0.0519 -0.0531
-7 -3 3 0.0978 -0.0320
-7 -3 4 -0.0459 0.0312
-7 -3 5 0.0153 0.0121
-7 -3 6 -0.0629 -0.0279
-7 -3 7 0.0804 0.0114
-7 -3 8 -0.0007 0.0045
-7 -3 9 -0.0761 -0.0090
-7 -3 10 0.0748 0.0117
-7 -3 11 -0.0922 -0.0139
-7 -3 12 0.2097 0.0147
-7 -2 1 -0.1921 -0.1957
-7 -2 2 0.2276 0.0678
-7 -2 3 -0.0848 0.0409
-7 -2 4 -0.1150 -0.0365
-7 -2 5 0.1077 -0.0159
-7 -2 6 0.1180 0.0230
-7 -2 7 -0.2533 0.0054
-7 -2 8 0.1137 -0.0098
-7 -2 9 0.0874 -0.0119
-7 -2 10 -0.0851 0.0173
-7 -2 11 -0.0354 0.0066
-7 -2 12 0.0202 -0.0364
-7 -2 13 0.1271 0.0524
-7 -2 14 -0.1740 -0.0497
-7 -1 1 -0.0242 0.2088
-7 -1 2 0.1038 -0.0728
-7 -1 3 -0.1164 -0.0462
-7 -1 4 0.1055 0.0482
-7 -1 5 -0.0991 0.0105
-7 -1 6 0.0633 -0.0270
-7 -1 7 -0.0046 -0.0055
-7 -1 8 0.0063 0.0213
-7 -1 9 -0.0964 0.0011
-7 -1 10 0.1750 -0.0205
-7 -1 11 -0.1590 0.0101
-7 -1 12 0.1142 0.0088
-7 -1 13 -0.1330 -0.0147
-7 -1 14 0.1658 0.0167
-7 0 1 0.1719 -0.2087
-7 0 2 -0.1496 0.0828
-7 0 3 0.0097 0.0345
-7 0 4 0.0538 -0.0507
-7 0 5 0.0312 -0.0025
-7 0 6 -0.1340 0.0340
-7 0 7 0.1394 -0.0129
-7 0 8 -0.0983 -0.0130
-7 0 9 0.1028 0.0062
-7 0 10 -0.1328 0.0097
-7 0 11 0.1216 -0.0028
-7 0 12 -0.0904 -0.0097
-7 0 13 0.1029 -0.0049
-7 0 14 -0.1342 0.0345
-7 0 15 0.1047 -0.0391
-7 1 1 -0.2006 0.1762
-7 1 2 0.0503 -0.0626
-7 1 3 0.0895 -0.0353
-7 1 4 -0.0403 0.0381
-7 1 5 -0.1041 0.0111
-7 1 6 0.1474 -0.0278
-7 1 7 -0.0788 -0.0011
-7 1 8 0.0321 0.0212
-7 1 9 -0.0571 -0.0049
-7 1 10 0.0844 -0.0110
-7 1 11 -0.0636 -0.0081
-7 1 12 0.0143 0.0325
-7 1 13 0.0347 -0.0111
-7 1 14 -0.0733 -0.0456
-7 1 15 0.0872 0.0730
-7 2 1 0.0297 -0.2035
-7 2 2 0.0380 0.0821
-7 2 3 0.0057 0.0288
-7 2 4 -0.1363 -0.0346
-7 2 5 0.2344 -0.0142
-7 2 6 -0.1972 0.0253
-7 2 7 0.0690 0.0062
-7 2 8 0.0148 -0.0198
-7 2 9 -0.0033 -0.0039
-7 2 10 -0.0323 0.0202
-7 2 11 0.0328 0.0021
-7 2 12 -0.0321 -0.0291
-7 2 13 0.0725 0.0125
-7 2 14 -0.1116 0.0390
-7 2 15 0.0770 -0.0712
-7 3 1 0.0247 0.1878
-7 3 2 0.1714 -0.0715
-7 3 3 -0.3462 -0.0360
-7 3 4 0.3586 0.0435
-7 3 5 -0.2047 0.0070
-7 3 6 -0.0211 -0.0225
-7 3 7 0.2038 -0.0084
-7 3 8 -0.2539 0.0224
-7 3 9 0.1794 0.0048
-7 3 10 -0.0942 -0.0223
-7 3 11 0.0733 -0.0048
-7 3 12 -0.0529 0.0307
-7 3 13 -0.0351 0.0004
-7 3 14 0.1175 -0.0608
-7 3 15 -0.0899 0.0742
-7 4 1 0.2277 -0.1379
-7 4 2 -0.3050 0.0525
-7 4 3 0.2059 0.0396
-7 4 4 0.0297 -0.0487
-7 4 5 -0.2358 -0.0077
-7 4 6 0.2746 0.0362
-7 4 7 -0.1569 -0.0024
-7 4 8 0.0064 -0.0275
-7 4 9 0.0591 0.0010
-7 4 10 -0.0212 0.0348
-7 4 11 -0.0321 -0.0164
-7 4 12 0.0099 -0.0243
-7 4 13 0.0645 0.0090
-7 4 14 -0.0855 0.0550
-7 4 15 0.0198 -0.0797
-7 5 1 -0.0783 0.1720
-7 5 2 0.0364 -0.0715
-7 5 3 0.0931 -0.0286
-7 5 4 -0.1300 0.0424
-7 5 5 0.0271 0.0100
-7 5 6 0.0966 -0.0390
-7 5 7 -0.1215 0.0057
-7 5 8 0.0516 0.0333
-7 5 9 0.0151 -0.0174
-7 5 10 -0.0037 -0.0234
-7 5 11 -0.0522 0.0164
-7 5 12 0.0568 0.0380
-7 5 13 0.0068 -0.0669
-7 5 14 -0.0391 0.0387
-7 6 1 0.1097 -0.1822
-7 6 2 -0.0617 0.0695
-7 6 3 -0.0517 0.0286
-7 6 4 0.1118 -0.0371
-7 6 5 -0.0174 -0.0099
-7 6 6 -0.1534 0.0320
-7 6 7 0.2158 -0.0018
-7 6 8 -0.1104 -0.0332
-7 6 9 -0.0313 0.0236
-7 6 10 0.0749 0.0141
-7 6 11 -0.0375 -0.0267
-7 6 12 0.0094 0.0073
-7 6 13 -0.0120 -0.0035
-7 7 1 0.2750 0.1474
-7 7 2 -0.1594 -0.0581
-7 7 3 0.0392 -0.0305
-7 7 4 0.0548 0.0400
-7 7 5 -0.2098 0.0049
-7 7 6 0.3479 -0.0254
-7 7 7 -0.2836 -0.0006
-7 7 8 0.0899 0.0195
-7 7 9 -0.0504 0.0073
-7 7 10 0.1970 -0.0415
-7 7 11 -0.2510 0.0248
-7 7 12 0.0932 0.0333
-7 8 1 0.2992 -0.1780
-7 8 2 -0.3151 0.0714
-7 8 3 0.0839 0.0430
-7 8 4 0.0892 -0.0556
-7 8 5 0.0276 -0.0080
-7 8 6 -0.2543 0.0365
-7 8 7 0.2570 0.0045
-7 8 8 -0.0319 -0.0387
-7 8 9 -0.1233 0.0083
-7 8 10 0.0720 0.0451
-7 8 11 0.0161 -0.0580
-7 9 1 -0.3784 0.1852
-7 9 2 0.3182 -0.0723
-7 9 3 -0.1622 -0.0367
-7 9 4 0.1239 0.0438
-7 9 5 -0.1062 0.0163
-7 9 6 -0.0007 -0.0445
-7 9 7 0.0934 0.0200
-7 9 8 -0.0846 -0.0095
-7 9 9 0.0638 0.0446
-7 10 1 0.3312 -0.1566
-7 10 2 -0.1442 0.0718
-7 10 3 0.0000 0.0187
-7 10 4 -0.0252 -0.0414
-7 10 5 0.0294 0.0021
-7 10 6 0.0694 0.0428
-7 10 7 -0.0986 -0.0552
-7 11 1 0.2185 0.1169
-7 11 2 -0.1546 -0.0754
-7 11 3 0.1612 0.0252
-6 -6 2 -0.1516 0.0386
-6 -6 3 0.1881 0.0243
-6 -6 4 -0.0757 -0.0160
-6 -6 5 -0.0659 -0.0060
-6 -6 6 0.0357 -0.0024
-6 -6 7 0.1281 0.0129
-6 -6 8 -0.2183 0.0113
-6 -6 9 0.1717 -0.0471
-6 -5 1 -0.0827 0.1900
-6 -5 2 0.2031 -0.0564
-6 -5 3 -0.1643 -0.0457
-6 -5 4 0.0025 0.0303
-6 -5 5 0.1043 0.0250
-6 -5 6 -0.0523 -0.0233
-6 -5 7 -0.0643 -0.0133
-6 -5 8 0.0957 0.0098
-6 -5 9 -0.0318 0.0288
-6 -5 10 -0.0177 -0.0335
-6 -5 11 -0.0094 -0.0127
-6 -5 12 0.0691 0.0516
-6 -4 1 0.5187 -0.2124
-6 -4 2 -0.5968 0.0733
-6 -4 3 0.3085 0.0471
-6 -4 4 -0.0233 -0.0429
-6 -4 5 -0.1135 -0.0193
-6 -4 6 0.1377 0.0316
-6 -4 7 -0.0473 0.0074
-6 -4 8 -0.1032 -0.0277
-6 -4 9 0.1283 0.0048
-6 -4 10 0.0106 0.0230
-6 -4 11 -0.0563 -0.0213
-6 -4 12 -0.1675 -0.0048
-6 -4 13 0.4292 0.0296
-6 -4 14 -0.4039 -0.0339
-6 -3 1 -0.2449 0.2200
-6 -3 2 0.2409 -0.0757
-6 -3 3 -0.1464 -0.0520
-6 -3 4 0.1294 0.0494
-6 -3 5 -0.1191 0.0201
-6 -3 6 0.0227 -0.0371
-6 -3 7 0.0429 -0.0090
-6 -3 8 0.0252 0.0395
-6 -3 9 -0.0712 -0.0174
-6 -3 10 -0.0751 -0.0143
-6 -3 11 0.2679 0.0127
-6 -3 12 -0.2380 0.0060
-6 -3 13 0.0127 -0.0018
-6 -3 14 0.1333 -0.0289
-6 -3 15 -0.0904 0.0504
-6 -2 1 -0.0646 -0.2060
-6 -2 2 -0.0570 0.0858
-6 -2 3 0.1289 0.0359
-6 -2 4 -0.1513 -0.0499
-6 -2 5 0.1817 -0.0126
-6 -2 6 -0.1985 0.0419
-6 -2 7 0.1648 -0.0043
-6 -2 8 -0.1331 -0.0302
-6 -2 9 0.1509 0.0103
-6 -2 10 -0.1349 0.0233
-6 -2 11 -0.0035 -0.0165
-6 -2 12 0.1640 -0.0112
-6 -2 13 -0.1642 0.0116
-6 -2 14 0.0125 0.0034
-6 -2 15 0.1034 0.0144
-6 -2 16 -0.0907 -0.0597
-6 -1 1 0.0284 0.1739
-6 -1 2 0.0057 -0.0788
-6 -1 3 0.0446 -0.0224
-6 -1 4 -0.1024 0.0436
-6 -1 5 0.0561 0.0030
-6 -1 6 0.0746 -0.0324
-6 -1 7 -0.1860 0.0047
-6 -1 8 0.2334 0.0287
-6 -1 9 -0.2380 -0.0147
-6 -1 10 0.1942 -0.0183
-6 -1 11 -0.0774 0.0154
-6 -1 12 -0.0651 0.0117
-6 -1 13 0.1311 -0.0130
-6 -1 14 -0.0951 -0.0060
-6 -1 15 0.0378 -0.0041
-6 -1 16 -0.0216 0.0417
-6 0 1 0.0954 -0.1718
-6 0 2 0.0990 0.0680
-6 0 3 -0.2005 0.0351
-6 0 4 0.1387 -0.0477
-6 0 5 0.0278 -0.0035
-6 0 6 -0.2032 0.0294
-6 0 7 0.3206 -0.0023
-6 0 8 -0.3323 -0.0223
-6 0 9 0.2391 0.0026
-6 0 10 -0.1316 0.0266
-6 0 11 0.1007 -0.0159
-6 0 12 -0.1086 -0.0161
-6 0 13 0.0491 0.0168
-6 0 14 0.0750 0.0087
-6 0 15 -0.1476 -0.0053
-6 0 16 0.1048 -0.0359
-6 1 1 -0.1707 0.2271
-6 1 2 0.1557 -0.0931
-6 1 3 -0.2016 -0.0418
-6 1 4 0.2102 0.0560
-6 1 5 -0.1812 0.0113
-6 1 6 0.1844 -0.0417
-6 1 7 -0.2180 0.0032
-6 1 9 -0.0794 -0.0098
-6 1 10 -0.0546 -0.0279
-6 1 11 0.0999 0.0237
-6 1 12 -0.0457 0.0109
-6 1 13 -0.0265 -0.0243
-6 1 14 0.0445 0.0101
-6 1 15 -0.0073 -0.0047
-6 1 16 -0.0421 0.0155
-6 1 17 0.0653 -0.0087
-6 2 1 -0.0313 -0.1672
-6 2 2 -0.1304 0.0624
-6 2 3 0.3568 0.0409
-6 2 4 -0.4445 -0.0464
-6 2 5 0.3088 -0.0161
-6 2 6 -0.0398 0.0422
-6 2 7 -0.2022 -0.0014
-6 2 8 0.3035 -0.0343
-6 2 9 -0.2682 0.0124
-6 2 10 0.1921 0.0242
-6 2 11 -0.1403 -0.0185
-6 2 12 0.0926 -0.0100
-6 2 13 -0.0394 0.0122
-6 2 14 0.0346 -0.0002
-6 2 15 -0.0901 0.0209
-6 2 16 0.1228 -0.0625
-6 3 1 -0.0202 0.1597
-6 3 2 0.1608 -0.0642
-6 3 3 -0.3118 -0.0351
-6 3 4 0.3465 0.0454
-6 3 5 -0.2115 0.0135
-6 3 6 0.0265 -0.0423
-6 3 7 0.0466 0.0024
-6 3 8 -0.0067 0.0384
-6 3 9 -0.0068 -0.0214
-6 3 10 -0.0645 -0.0153
-6 3 11 0.1123 0.0120
-6 3 12 -0.0477 0.0130
-6 3 13 -0.0432 -0.0079
-6 3 14 0.0296 -0.0121
-6 3 15 0.0628 -0.0078
-6 3 16 -0.1050 0.0573
-6 4 1 0.2045 -0.2377
-6 4 2 -0.0564 0.0972
-6 4 3 -0.0957 0.0360
-6 4 4 0.1284 -0.0544
-6 4 5 -0.0290 -0.0059
-6 4 6 -0.1508 0.0369
-6 4 7 0.3162 -0.0055
-6 4 8 -0.3429 -0.0243
-6 4 9 0.2020 0.0052
-6 4 10 -0.0352 0.0248
-6 4 11 -0.0160 -0.0147
-6 4 12 -0.0033 -0.0151
-6 4 13 -0.0237 0.0155
-6 4 14 0.0673 0.0023
-6 4 15 -0.0195 0.0112
-6 4 16 -0.0830 -0.0509
-6 5 1 -0.4259 0.2336
-6 5 2 0.2477 -0.0888
-6 5 3 -0.0019 -0.0426
-6 5 4 -0.1831 0.0521
-6 5 5 0.1264 0.0122
-6 5 6 0.1821 -0.0384
-6 5 7 -0.4980 0.0010
-6 5 8 0.5654 0.0316
-6 5 9 -0.3870 -0.0143
-6 5 10 0.1621 -0.0156
-6 5 11 -0.0284 0.0117
-6 5 12 -0.0249 0.0041
-6 5 13 0.0435 0.0159
-6 5 14 -0.0388 -0.0568
-6 5 15 0.0223 0.0568
-6 6 1 -0.0226 -0.2154
-6 6 2 -0.0786 0.0927
-6 6 3 0.1437 0.0397
-6 6 6 -0.2299 0.0379
-6 6 7 0.2397 -0.0053
-6 6 8 -0.1365 -0.0237
-6 6 9 0.0796 0.0020
-6 6 10 -0.1351 0.0248
-6 6 11 0.1571 -0.0021
-6 6 12 -0.0594 -0.0453
-6 6 13 -0.0397 0.0576
-6 6 14 0.0433 -0.0325
-6 7 1 -0.3301 0.2091
-6 7 2 0.2169 -0.0873
-6 7 3 -0.2617 -0.0466
-6 7 4 0.4208 0.0586
-6 7 5 -0.4578 0.0162
-6 7 6 0.2937 -0.0455
-6 7 7 -0.0909 -0.0035
-6 7 8 -0.0003 0.0419
-6 7 9 0.0072 -0.0153
-6 7 10 -0.0177 -0.0243
-6 7 11 0.0411 0.0238
-6 7 12 -0.0416 -0.0131
-6 7 13 0.0165 0.0354
-6 8 1 0.0978 -0.2004
-6 8 2 0.2359 0.0821
-6 8 3 0.1989 0.0407
-6 8 4 -0.9736 -0.0515
-6 8 5 1.0506 -0.0104
-6 8 6 -0.3146 0.0326
-6 8 7 -0.3126 0.0045
-6 8 8 0.2730 -0.0248
-6 8 9 0.0057 -0.0044
-6 8 10 -0.0245 0.0226
-6 8 11 -0.0816 0.0159
-6 8 12 0.0428 -0.0627
-6 9 1 -0.0137 0.1922
-6 9 2 -0.2887 -0.0851
-6 9 3 0.1847 -0.0321
-6 9 4 0.0896 0.0592
-6 9 5 -0.0160 -0.0066
-6 9 6 -0.3481 -0.0399
-6 9 7 0.4603 0.0272
-6 9 8 -0.1725 0.0209
-6 9 9 -0.0871 -0.0555
-6 9 10 0.0536 0.0627
-6 10 1 0.0136 -0.1604
-6 10 2 -0.2959 0.0735
-6 10 3 0.2822 0.0127
-6 10 4 -0.0069 -0.0170
-6 10 5 -0.1772 -0.0306
-6 10 6 0.0758 0.0398
-6 10 7 0.1206 0.0159
-6 10 8 -0.1324 -0.0709
-6 11 1 0.2465 0.1330
-6 11 2 -0.2094 -0.0518
-6 11 3 0.0816 -0.0326
-6 11 4 0.0690 0.0224
-6 11 5 -0.1924 0.0531
-5 -7 2 -0.1115 -0.0622
-5 -7 3 0.1172 -0.0335
-5 -7 4 -0.1414 0.0379
-5 -7 5 0.1925 0.0065
-5 -7 6 -0.1706 -0.0218
-5 -7 7 0.0600 0.0022
-5 -7 8 0.0366 0.0124
-5 -7 9 -0.0545 -0.0166
-5 -7 10 0.0245 0.0336
-5 -6 1 -0.1980 -0.2038
-5 -6 2 0.0890 0.0710
-5 -6 3 -0.0490 0.0520
-5 -6 4 0.0214 -0.0483
-5 -6 5 0.0039 -0.0182
-5 -6 6 -0.0081 0.0334
-5 -6 7 0.0137 0.0024
-5 -6 8 -0.0403 -0.0167
-5 -6 9 0.0425 0.0003
-5 -6 10 0.0264 -0.0070
-5 -6 11 -0.1292 0.0469
-5 -6 12 0.1883 -0.0665
-5 -5 1 -0.0600 0.1938
-5 -5 2 0.3705 -0.0690
-5 -5 3 -0.1768 -0.0441
-5 -5 4 -0.0720 0.0449
-5 -5 5 0.1739 0.0130
-5 -5 6 -0.1836 -0.0304
-5 -5 7 0.0915 -0.0014
-5 -5 8 0.0905 0.0221
-5 -5 9 -0.1603 -0.0045
-5 -5 10 0.0027 -0.0201
-5 -5 11 0.1568 0.0158
-5 -5 12 -0.0825 0.0193
-5 -5 13 -0.0803 -0.0602
-5 -5 14 0.0551 0.0784
-5 -4 1 0.1860 -0.1962
-5 -4 2 -0.1771 0.0722
-5 -4 3 -0.0299 0.0415
-5 -4 4 0.1353 -0.0475
-5 -4 5 -0.0708 -0.0113
-5 -4 6 -0.0169 0.0347
-5 -4 7 0.0531 -0.0027
-5 -4 8 -0.0757 -0.0218
-5 -4 9 0.0697 0.0024
-5 -4 10 0.0200 0.0228
-5 -4 11 -0.1328 -0.0119
-5 -4 12 0.1403 -0.0149
-5 -4 13 -0.0496 0.0104
-5 -4 14 -0.0029 0.0241
-5 -4 15 -0.0293 -0.0424
-5 -3 1 0.1078 0.1924
-5 -3 2 -0.1625 -0.0880
-5 -3 3 0.0922 -0.0274
-5 -3 4 0.0392 0.0501
-5 -3 5 -0.2209 0.0037
-5 -3 6 0.3467 -0.0349
-5 -3 7 -0.2578 0.0057
-5 -3 8 0.0054 0.0222
-5 -3 9 0.1540 -0.0014
-5 -3 10 -0.1043 -0.0254
-5 -3 11 0.0021 0.0086
-5 -3 12 0.0121 0.0207
-5 -3 13 -0.0060 -0.0105
-5 -3 14 0.0605 -0.0169
-5 -3 15 -0.1000 0.0070
-5 -3 16 0.0505 0.0259
-5 -2 1 -0.0175 -0.1523
-5 -2 2 -0.0056 0.0644
-5 -2 3 0.0807 0.0276
-5 -2 4 -0.0914 -0.0389
-5 -2 5 0.0288 -0.0073
-5 -2 6 0.0443 0.0260
-5 -2 7 -0.1130 0.0057
-5 -2 8 0.1865 -0.0293
-5 -2 9 -0.2185 0.0076
-5 -2 10 0.1606 0.0190
-5 -2 11 -0.0657 -0.0083
-5 -2 12 0.0373 -0.0149
-5 -2 13 -0.0879 0.0118
-5 -2 14 0.1350 0.0019
-5 -2 15 -0.1277 0.0013
-5 -2 16 0.0903 0.0032
-5 -2 17 -0.0504 -0.0450
-5 -1 1 0.0758 0.2090
-5 -1 2 -0.1749 -0.0854
-5 -1 3 0.0170 -0.0376
-5 -1 4 0.1964 0.0476
-5 -1 5 -0.2545 0.0116
-5 -1 6 0.2029 -0.0333
-5 -1 7 -0.1692 -0.0002
-5 -1 8 0.1123 0.0233
-5 -1 9 0.0546 -0.0052
-5 -1 10 -0.2228 -0.0144
-5 -1 11 0.2062 0.0045
-5 -1 12 -0.0429 0.0100
-5 -1 13 -0.0470 -0.0016
-5 -1 14 -0.0204 -0.0115
-5 -1 15 0.1190 0.0063
-5 -1 16 -0.1417 -0.0038
-5 -1 17 0.1129 0.0308
-5 0 1 0.0619 -0.2725
-5 0 2 -0.1322 0.1064
-5 0 3 0.2638 0.0585
-5 0 4 -0.2866 -0.0738
-5 0 5 0.1669 -0.0087
-5 0 6 -0.0544 0.0474
-5 0 7 0.0397 -0.0078
-5 0 8 -0.0203 -0.0306
-5 0 9 -0.1224 0.0183
-5 0 10 0.3161 0.0081
-5 0 11 -0.3712 -0.0075
-5 0 12 0.2268 -0.0057
-5 0 13 -0.0219 0.0046
-5 0 14 -0.0843 0.0052
-5 0 15 0.0759 -0.0136
-5 0 16 -0.0308 0.0352
-5 0 17 -0.0057 -0.0742
-5 1 1 0.2134 0.2175
-5 1 2 -0.2315 -0.0868
-5 1 3 0.1363 -0.0446
-5 1 4 0.0225 0.0588
-5 1 5 -0.0763 0.0085
-5 1 6 -0.0544 -0.0422
-5 1 7 0.2524 0.0110
-5 1 8 -0.3333 0.0179
-5 1 9 0.2570 -0.0044
-5 1 10 -0.1360 -0.0140
-5 1 11 0.0544 0.0042
-5 1 12 -0.0005 0.0088
-5 1 13 -0.0187 -0.0004
-5 1 14 -0.0377 -0.0092
-5 1 15 0.1064 0.0045
-5 1 16 -0.0495 -0.0129
-5 1 17 -0.1116 0.0508
-5 2 1 -0.3598 -0.2481
-5 2 2 0.3659 0.1032
-5 2 3 -0.2413 0.0375
-5 2 4 0.0872 -0.0548
-5 2 5 -0.0676 -0.0099
-5 2 6 0.1517 0.0389
-5 2 7 -0.1675 -0.0042
-5 2 8 0.0880 -0.0235
-5 2 9 -0.0627 0.0060
-5 2 10 0.1406 0.0134
-5 2 11 -0.1733 -0.0007
-5 2 12 0.0729 -0.0139
-5 2 13 0.0189 0.0028
-5 2 14 0.0500 0.0085
-5 2 15 -0.1926 0.0002
-5 2 16 0.2091 0.0043
-5 2 17 -0.0775 -0.0460
-5 3 1 0.0638 0.2812
-5 3 2 -0.3490 -0.1064
-5 3 3 0.4921 -0.0503
-5 3 4 -0.4905 0.0611
-5 3 5 0.4113 0.0085
-5 3 6 -0.2456 -0.0316
-5 3 7 0.0172 -0.0044
-5 3 8 0.1137 0.0218
-5 3 9 -0.0498 0.0047
-5 3 10 -0.0631 -0.0220
-5 3 11 0.0466 0.0024
-5 3 12 0.0345 0.0135
-5 3 13 -0.0064 0.0020
-5 3 14 -0.1168 -0.0126
-5 3 15 0.1767 -0.0106
-5 3 16 -0.1324 0.0289
-5 3 17 0.0782 0.0012
-5 4 1 0.2500 -0.2515
-5 4 2 0.0321 0.0870
-5 4 3 -0.2284 0.0581
-5 4 4 0.3493 -0.0598
-5 4 5 -0.3201 -0.0139
-5 4 6 0.0925 0.0368
-5 4 7 0.1938 0.0023
-5 4 8 -0.3320 -0.0239
-5 4 9 0.2844 -0.0008
-5 4 10 -0.1693 0.0207
-5 4 11 0.0703 -0.0036
-5 4 12 0.0119 -0.0145
-5 4 13 -0.0731 0.0010
-5 4 14 0.1007 0.0147
-5 4 15 -0.1195 0.0042
-5 4 16 0.1465 -0.0328
-5 5 1 0.1994 0.2568
-5 5 2 0.0037 -0.1015
-5 5 3 -0.1615 -0.0478
-5 5 4 0.1064 0.0582
-5 5 5 0.0203 0.0151
-5 5 6 -0.0382 -0.0414
-5 5 7 -0.0119 -0.0004
-5 5 8 -0.0012 0.0287
-5 5 9 0.0867 -0.0057
-5 5 10 -0.1711 -0.0176
-5 5 11 0.2120 0.0016
-5 5 12 -0.1852 0.0226
-5 5 13 0.0845 -0.0200
-5 5 14 0.0093 0.0140
-5 5 15 0.0098 -0.0379
-5 5 16 -0.1042 0.0685
-5 6 1 -0.4896 -0.2435
-5 6 2 0.3794 0.0851
-5 6 3 0.2123 0.0587
-5 6 4 -0.7887 -0.0515
-5 6 5 0.7744 -0.0344
-5 6 6 -0.2799 0.0524
-5 6 7 -0.0926 0.0072
-5 6 8 0.0929 -0.0395
-5 6 9 -0.0215 0.0058
-5 6 10 0.1182 0.0242
-5 6 11 -0.2214 -0.0061
-5 6 12 0.1423 -0.0096
-5 6 13 0.0109 -0.0229
-5 6 14 -0.0599 0.0616
-5 6 15 0.0325 -0.0467
-5 7 1 1.2888 0.2431
-5 7 3 0.4773 -0.0460
-5 7 4 1.2142 0.0500
-5 7 5 -1.7407 0.0189
-5 7 6 0.8685 -0.0330
-5 7 7 0.1027 -0.0160
-5 7 8 -0.2658 0.0349
-5 7 9 0.0328 0.0089
-5 7 10 -0.0431 -0.0416
-5 7 11 0.1982 0.0082
-5 7 12 -0.1696 0.0420
-5 7 13 0.0643 -0.0383
-5 7 14 -0.1017 -0.0055
-5 8 2 1.2378 0.0842
-5 8 5 0.0854 0.0055
-5 8 6 0.2189 0.0347
-5 8 7 -0.3997 -0.0167
-5 8 8 0.2379 -0.0188
-5 8 9 -0.0065 0.0237
-5 8 10 -0.0408 -0.0046
-5 8 11 -0.0055 -0.0080
-5 8 12 -0.0129 0.0121
-5 8 13 0.0456 -0.0233
-5 9 1 -0.5893 0.1861
-5 9 2 1.5313 -0.0700
-5 9 5 0.2247 0.0002
-5 9 6 -0.3581 -0.0267
-5 9 7 0.1194 -0.0042
-5 9 8 -0.0075 0.0295
-5 9 9 0.0662 -0.0004
-5 9 10 -0.1311 -0.0497
-5 9 11 0.1725 0.0653
-5 10 1 -0.6729 -0.2143
-5 10 3 -0.6334 0.0387
-5 10 4 0.4125 -0.0505
-5 10 5 -0.0798 -0.0155
-5 10 6 -0.1264 0.0431
-5 10 7 0.0103 -0.0082
-5 10 8 0.1969 -0.0053
-5 10 9 -0.1167 -0.0457
-5 11 1 0.2213 0.1219
-5 11 2 -0.2046 -0.0620
-5 11 3 0.0928 -0.0092
-5 11 4 0.0317 0.0273
-5 11 5 -0.0418 -0.0131
-5 11 6 -0.0865 0.0248
-5 12 1 0.0055 -0.1373
-4 -8 1 -0.1843 -0.1486
-4 -8 2 0.2681 0.0641
-4 -8 3 -0.2257 0.0195
-4 -8 4 0.1851 -0.0307
-4 -8 5 -0.2066 -0.0058
-4 -8 6 0.2017 0.0242
-4 -8 7 -0.1004 -0.0104
-4 -8 8 -0.0307 -0.0047
-4 -8 9 0.0876 0.0110
-4 -8 10 -0.0607 -0.0243
-4 -7 1 0.0673 0.1712
-4 -7 2 -0.1225 -0.0708
-4 -7 3 0.1513 -0.0277
-4 -7 4 -0.0366 0.0342
-4 -7 5 -0.0940 0.0089
-4 -7 6 0.0921 -0.0186
-4 -7 7 -0.0310 -0.0057
-4 -7 8 0.0512 0.0123
-4 -7 9 -0.1130 0.0032
-4 -7 10 0.0836 -0.0030
-4 -7 11 0.0279 -0.0141
-4 -7 12 -0.0965 0.0091
-4 -7 13 0.0767 0.0256
-4 -6 1 -0.1883 -0.1574
-4 -6 2 -0.1245 0.0641
-4 -6 3 0.0201 0.0226
-4 -6 4 0.0935 -0.0309
-4 -6 5 -0.0808 -0.0060
-4 -6 6 0.0667 0.0214
-4 -6 7 -0.0616 -0.0025
-4 -6 8 -0.0063 -0.0174
-4 -6 9 0.0477 0.0143
-4 -6 10 0.0608 0.0072
-4 -6 11 -0.2128 -0.0279
-4 -6 12 0.2168 0.0256
-4 -6 13 -0.1076 0.0101
-4 -6 14 0.0627 -0.0591
-4 -5 1 -0.1138 0.1716
-4 -5 2 0.1054 -0.0675
-4 -5 3 0.1062 -0.0287
-4 -5 4 -0.2532 0.0400
-4 -5 5 0.1673 0.0044
-4 -5 6 0.0300 -0.0273
-4 -5 7 -0.1213 0.0061
-4 -5 8 0.0758 0.0160
-4 -5 9 -0.0202 -0.0079
-4 -5 10 0.0034 -0.0084
-4 -5 11 0.0406 0.0045
-4 -5 12 -0.1157 0.0072
-4 -5 13 0.1257 -0.0026
-4 -5 14 -0.0471 -0.0076
-4 -5 15 -0.0122 -0.0037
-4 -5 16 -0.0153 0.0299
-4 -4 1 -0.0416 -0.1804
-4 -4 2 0.2974 0.0713
-4 -4 3 -0.3304 0.0385
-4 -4 4 0.1794 -0.0503
-4 -4 5 0.1778 -0.0065
-4 -4 6 -0.5619 0.0322
-4 -4 7 0.5933 0.0007
-4 -4 8 -0.1972 -0.0278
-4 -4 9 -0.2067 0.0101
-4 -4 10 0.2427 0.0101
-4 -4 11 -0.0264 0.0035
-4 -4 12 -0.1308 -0.0176
-4 -4 13 0.1676 -0.0007
-4 -4 14 -0.1729 0.0187
-4 -4 15 0.1098 -0.0036
-4 -4 16 0.0667 -0.0073
-4 -4 17 -0.2014 -0.0268
-4 -3 1 -0.0587 0.1912
-4 -3 2 -0.1395 -0.0555
-4 -3 3 0.2552 -0.0574
-4 -3 4 -0.3050 0.0473
-4 -3 5 0.2883 0.0213
-4 -3 6 -0.1953 -0.0368
-4 -3 7 0.1124 -0.0033
-4 -3 8 -0.1421 0.0214
-4 -3 9 0.2308 0.0040
-4 -3 10 -0.2225 -0.0204
-4 -3 11 0.0904 0.0031
-4 -3 12 0.0271 0.0110
-4 -3 13 -0.0369 -0.0018
-4 -3 14 0.0006 -0.0027
-4 -3 15 0.0020 -0.0030
-4 -3 16 0.0148 -0.0219
-4 -3 17 -0.0206 0.0798
-4 -2 1 -0.2113 -0.2933
-4 -2 2 0.3779 0.1076
-4 -2 3 -0.3595 0.0549
-4 -2 4 0.2747 -0.0563
-4 -2 5 -0.2942 -0.0231
-4 -2 6 0.3282 0.0436
-4 -2 7 -0.2035 0.0003
-4 -2 8 0.0010 -0.0222
-4 -2 9 0.0380 -0.0021
-4 -2 10 0.1219 0.0195
-4 -2 11 -0.2715 -0.0043
-4 -2 12 0.2618 -0.0111
-4 -2 13 -0.1469 0.0045
-4 -2 14 0.0331 0.0038
-4 -2 15 0.0265 0.0026
-4 -2 16 0.0058 -0.0109
-4 -2 17 -0.1196 0.0131
-4 -2 18 0.1937 -0.0220
-4 -1 1 0.3376 0.3093
-4 -1 2 -0.1240 -0.1184
-4 -1 3 -0.0297 -0.0566
-4 -1 4 0.0194 0.0659
-4 -1 5 0.1626 0.0188
-4 -1 6 -0.3609 -0.0467
-4 -1 7 0.3919 -0.0025
-4 -1 8 -0.2397 0.0352
-4 -1 9 0.0801 -0.0084
-4 -1 10 -0.0850 -0.0241
-4 -1 11 0.2225 0.0147
-4 -1 12 -0.2972 0.0133
-4 -1 13 0.1887 -0.0186
-4 -1 14 0.0130 0.0017
-4 -1 15 -0.1297 0.0112
-4 -1 16 0.0931 -0.0042
-4 -1 17 0.0179 -0.0228
-4 -1 18 -0.0891 0.0574
-4 0 1 -0.5378 -0.2724
-4 0 2 0.3580 0.1166
-4 0 3 -0.1874 0.0368
-4 0 4 -0.0395 -0.0575
-4 0 5 0.1711 -0.0076
-4 0 6 -0.0366 0.0316
-4 0 7 -0.2425 0.0105
-4 0 8 0.3276 -0.0363
-4 0 9 -0.0882 0.0044
-4 0 10 -0.2249 0.0295
-4 0 11 0.3173 -0.0146
-4 0 12 -0.1921 -0.0193
-4 0 13 0.0436 0.0224
-4 0 14 0.0188 0.0011
-4 0 15 0.0088 -0.0146
-4 0 16 -0.1293 0.0024
-4 0 17 0.2887 0.0294
-4 0 18 -0.3310 -0.0684
-4 1 1 0.1611 0.3015
-4 1 2 -0.2037 -0.1134
-4 1 3 0.3712 -0.0611
-4 1 4 -0.5441 0.0731
-4 1 5 0.6224 0.0141
-4 1 6 -0.5259 -0.0465
-4 1 7 0.2644 -0.0063
-4 1 8 0.0097 0.0432
-4 1 9 -0.1311 -0.0070
-4 1 10 0.0969 -0.0385
-4 1 11 -0.0317 0.0250
-4 1 12 0.0093 0.0187
-4 1 13 0.0003 -0.0269
-4 1 14 -0.0314 -0.0032
-4 1 15 0.0578 0.0255
-4 1 16 -0.0356 -0.0175
-4 1 17 -0.0393 -0.0104
-4 1 18 0.1161 0.0451
-4 2 1 0.0496 -0.2773
-4 2 2 0.2513 0.0942
-4 2 3 -0.5427 0.0675
-4 2 4 0.7611 -0.0646
-4 2 5 -0.7784 -0.0271
-4 2 6 0.5076 0.0546
-4 2 7 -0.1099 0.0037
-4 2 8 -0.1168 -0.0452
-4 2 9 0.1070 0.0145
-4 2 10 -0.0692 0.0288
-4 2 11 0.1220 -0.0190
-4 2 12 -0.1440 -0.0186
-4 2 13 0.0601 0.0214
-4 2 14 -0.0016 0.0122
-4 2 15 0.0554 -0.0325
-4 2 16 -0.1045 0.0180
-4 2 17 0.0576 0.0073
-4 2 18 -0.0094 -0.0246
-4 3 1 0.0244 0.2549
-4 3 2 -0.3679 -0.0947
-4 3 3 0.5034 -0.0513
-4 3 4 -0.4708 0.0577
-4 3 5 0.2980 0.0189
-4 3 6 -0.0834 -0.0505
-4 3 7 -0.0170 0.0083
-4 3 8 0.0056 0.0313
-4 3 9 -0.0591 -0.0154
-4 3 10 0.2265 -0.0197
-4 3 11 -0.3132 0.0178
-4 3 12 0.1967 0.0149
-4 3 13 -0.0454 -0.0304
-4 3 14 0.0588 0.0114
-4 3 15 -0.1705 0.0147
-4 3 16 0.1945 -0.0263
-4 3 17 -0.1180 0.0306
-4 4 1 -0.4875 -0.2577
-4 4 2 0.1700 0.1000
-4 4 3 -0.0204 0.0468
-4 4 4 0.0840 -0.0610
-4 4 5 -0.1096 -0.0086
-4 4 6 -0.0113 0.0411
-4 4 7 0.1099 -0.0057
-4 4 8 -0.0538 -0.0297
-4 4 9 -0.0714 0.0167
-4 4 10 0.1509 0.0153
-4 4 11 -0.1832 -0.0226
-4 4 12 0.1668 0.0094
-4 4 13 -0.0500 -0.0034
-4 4 14 -0.1245 0.0067
-4 4 15 0.1999 -0.0038
-4 4 16 -0.1152 -0.0010
-4 4 17 -0.0034 -0.0099
-4 5 1 0.2900 0.2614
-4 5 2 0.0595 -0.0901
-4 5 3 -0.3932 -0.0630
-4 5 4 0.5117 0.0653
-4 5 5 -0.2840 0.0164
-4 5 6 -0.0743 -0.0441
-4 5 7 0.2101 -0.0002
-4 5 8 -0.1000 0.0287
-4 5 9 0.0221 -0.0026
-4 5 10 -0.0904 -0.0229
-4 5 11 0.1330 0.0043
-4 5 12 -0.0444 0.0222
-4 5 13 -0.0592 -0.0113
-4 5 14 0.0903 -0.0172
-4 5 15 -0.1177 0.0169
-4 5 16 0.1713 0.0069
-4 6 1 -0.3250 -0.2628
-4 6 2 0.6389 0.1016
-4 6 3 -0.3465 0.0494
-4 6 4 -0.2854 -0.0593
-4 6 5 0.4924 -0.0151
-4 6 8 0.3362 -0.0371
-4 6 9 -0.1657 0.0041
-4 6 10 0.1159 0.0341
-4 6 11 -0.1353 -0.0159
-4 6 12 0.0963 -0.0290
-4 6 13 -0.0739 0.0346
-4 6 14 0.1209 0.0000
-4 6 15 -0.1144 -0.0201
-4 7 1 0.1916 0.1965
-4 7 2 -0.0358 -0.0875
-4 7 3 0.2121 -0.0285
-4 7 4 -0.5818 0.0448
-4 7 6 -0.5054 -0.0474
-4 7 7 0.3049 0.0137
-4 7 8 -0.2718 0.0260
-4 7 9 0.2338 -0.0168
-4 7 10 -0.0574 -0.0156
-4 7 11 -0.1195 0.0178
-4 7 12 0.1310 0.0097
-4 7 13 -0.0259 -0.0257
-4 7 14 -0.0431 0.0170
-4 8 1 2.6199 -0.2026
-4 8 2 -4.0237 0.0900
-4 8 3 3.4684 0.0332
-4 8 4 -1.5060 -0.0524
-4 8 5 -0.0381 -0.0098
-4 8 6 0.3426 0.0438
-4 8 7 -0.0920 -0.0072
-4 8 8 -0.0226 -0.0362
-4 8 9 0.1096 0.0255
-4 8 10 -0.3155 0.0177
-4 8 11 0.3407 -0.0390
-4 8 12 -0.0593 0.0275
-4 8 13 -0.1497 -0.0088
-4 9 1 -0.6467 0.2145
-4 9 2 0.6400 -0.0827
-4 9 3 -0.2737 -0.0478
-4 9 4 -0.0426 0.0572
-4 9 5 -0.0818 0.0147
-4 9 6 0.4165 -0.0462
-4 9 7 -0.5019 0.0047
-4 9 8 0.4006 0.0323
-4 9 9 -0.5222 -0.0081
-4 9 10 0.8335 -0.0421
-4 9 11 -0.8470 0.0644
-4 10 2 -0.1079 0.0507
-4 10 3 -0.0706 0.0444
-4 10 4 0.0815 -0.0384
-4 10 5 0.0559 -0.0095
-4 10 6 -0.1816 0.0052
-4 10 7 0.2196 0.0374
-4 10 8 -0.2255 -0.0335
-4 10 9 0.2597 -0.0301
-4 11 1 0.0249 0.2027
-4 11 2 0.0215 -0.0654
-4 11 3 0.0036 -0.0504
-4 11 4 -0.0104 0.0469
-4 11 5 -0.0134 0.0034
-4 11 6 0.0201 0.0037
-4 12 1 -0.0369 -0.1274
-4 12 2 -0.0265 0.0047
-3 -9 1 0.5639 0.1362
-3 -9 2 -0.3170 -0.0542
-3 -9 3 0.0076 -0.0140
-3 -9 4 0.1072 0.0179
-3 -9 5 -0.0020 0.0093
-3 -9 6 -0.1056 -0.0100
-3 -9 7 0.0496 -0.0111
-3 -9 8 0.0911 0.0069
-3 -9 9 -0.1364 0.0258
-3 -8 1 0.1012 -0.1267
-3 -8 2 -0.0623 0.0368
-3 -8 3 0.0625 0.0350
-3 -8 4 -0.1549 -0.0244
-3 -8 5 0.2081 -0.0138
-3 -8 6 -0.1260 0.0092
-3 -8 7 0.0336 0.0172
-3 -8 8 -0.0836 -0.0059
-3 -8 9 0.2105 -0.0330
-3 -8 10 -0.2395 0.0361
-3 -8 11 0.1425 0.0101
-3 -8 12 -0.0367 -0.0497
-3 -7 1 0.1079 0.1462
-3 -7 2 0.0950 -0.0479
-3 -7 3 -0.1125 -0.0365
-3 -7 4 0.1421 0.0349
-3 -7 5 -0.2284 0.0096
-3 -7 6 0.2377 -0.0232
-3 -7 7 -0.1287 -0.0009
-3 -7 8 0.0160 0.0194
-3 -7 9 0.0249 -0.0107
-3 -7 10 -0.0382 -0.0077
-3 -7 11 0.0673 0.0131
-3 -7 12 -0.0861 0.0018
-3 -7 13 0.0669 -0.0328
-3 -7 14 -0.0278 0.0636
-3 -6 1 0.0080 -0.2062
-3 -6 2 -0.0615 0.0790
-3 -6 3 0.0173 0.0370
-3 -6 4 0.0573 -0.0478
-3 -6 5 0.0219 -0.0083
-3 -6 6 -0.2159 0.0334
-3 -6 7 0.2724 -0.0031
-3 -6 8 -0.1331 -0.0225
-3 -6 9 0.0299 0.0049
-3 -6 10 -0.0776 0.0194
-3 -6 11 0.0828 -0.0089
-3 -6 12 0.0807 -0.0165
-3 -6 13 -0.2090 0.0161
-3 -6 14 0.1046 0.0022
-3 -6 15 0.0761 -0.0015
-3 -6 16 -0.0733 -0.0196
-3 -5 1 0.3406 0.2265
-3 -5 2 -0.3786 -0.0891
-3 -5 3 0.2392 -0.0444
-3 -5 4 -0.0938 0.0530
-3 -5 5 -0.1579 0.0182
-3 -5 6 0.4938 -0.0440
-3 -5 7 -0.5830 -0.0010
-3 -5 8 0.2695 0.0319
-3 -5 9 0.1079 -0.0042
-3 -5 10 -0.1691 -0.0258
-3 -5 11 -0.0079 0.0112
-3 -5 12 0.1134 0.0122
-3 -5 13 -0.0746 -0.0049
-3 -5 14 0.0044 -0.0049
-3 -5 15 0.1020 -0.0115
-3 -5 16 -0.2941 0.0158
-3 -5 17 0.4339 0.0278
-3 -4 1 -0.2319 -0.2755
-3 -4 2 0.2451 0.0985
-3 -4 3 -0.1453 0.0558
-3 -4 4 0.0642 -0.0544
-3 -4 5 -0.0463 -0.0255
-3 -4 6 0.0457 0.0429
-3 -4 7 -0.0544 0.0076
-3 -4 8 0.1175 -0.0314
-3 -4 9 -0.1990 0.0004
-3 -4 10 0.1641 0.0237
-3 -4 11 0.0243 -0.0081
-3 -4 12 -0.2010 -0.0100
-3 -4 13 0.1965 0.0057
-3 -4 14 -0.0577 -0.0010
-3 -4 15 -0.0468 0.0006
-3 -4 16 0.0633 0.0278
-3 -4 17 -0.0636 -0.0796
-3 -3 1 0.1087 0.3228
-3 -3 2 -0.0540 -0.1231
-3 -3 3 -0.1117 -0.0613
-3 -3 4 0.2545 0.0742
-3 -3 5 -0.2082 0.0121
-3 -3 6 0.0400 -0.0426
-3 -3 7 0.0488 -0.0063
-3 -3 8 -0.0241 0.0416
-3 -3 9 0.0257 -0.0174
-3 -3 10 -0.1002 -0.0170
-3 -3 11 0.1333 0.0135
-3 -3 12 -0.0591 0.0106
-3 -3 13 -0.0483 -0.0156
-3 -3 14 0.1126 -0.0031
-3 -3 15 -0.1214 0.0186
-3 -3 16 0.0491 -0.0069
-3 -3 17 0.1160 -0.0312
-3 -3 18 -0.2598 0.0684
-3 -2 1 -0.3894 -0.2554
-3 -2 2 -0.1918 0.0958
-3 -2 3 0.6979 0.0581
-3 -2 4 -0.8914 -0.0686
-3 -2 5 0.7327 -0.0164
-3 -2 6 -0.3868 0.0549
-3 -2 7 0.0890 -0.0065
-3 -2 8 0.0237 -0.0400
-3 -2 9 -0.0009 0.0173
-3 -2 10 -0.0068 0.0303
-3 -2 11 -0.0546 -0.0292
-3 -2 12 0.0790 -0.0132
-3 -2 13 0.0227 0.0299
-3 -2 14 -0.1603 0.0044
-3 -2 15 0.1681 -0.0397
-3 -2 16 -0.0225 0.0190
-3 -2 17 -0.1370 0.0479
-3 -2 18 0.1784 -0.0942
-3 -1 1 0.7784 0.2646
-3 -1 2 -0.1202 -0.1173
-3 -1 3 -0.7022 -0.0422
-3 -1 4 1.3295 0.0697
-3 -1 5 -1.4596 0.0107
-3 -1 6 1.0723 -0.0588
-3 -1 7 -0.4879 0.0144
-3 -1 8 0.1350 0.0401
-3 -1 9 -0.1720 -0.0239
-3 -1 10 0.3745 -0.0241
-3 -1 11 -0.4440 0.0242
-3 -1 12 0.3356 0.0158
-3 -1 13 -0.1971 -0.0252
-3 -1 14 0.1089 -0.0119
-3 -1 15 -0.0474 0.0375
-3 -1 16 0.0214 -0.0103
-3 -1 17 -0.0641 -0.0419
-3 -1 18 0.1238 0.0666
-3 0 1 0.4616 -0.3239
-3 0 2 -0.3330 0.1324
-3 0 3 0.2006 0.0673
-3 0 4 0.0336 -0.0943
-3 0 5 -0.2518 -0.0128
-3 0 6 0.1794 0.0762
-3 0 7 0.2105 -0.0235
-3 0 8 -0.5951 -0.0436
-3 0 9 0.6942 0.0259
-3 0 10 -0.5636 0.0307
-3 0 11 0.4053 -0.0288
-3 0 12 -0.2833 -0.0228
-3 0 13 0.1561 0.0356
-3 0 14 -0.0252 0.0093
-3 0 15 -0.0876 -0.0362
-3 0 16 0.1921 -0.0026
-3 0 17 -0.2577 0.0602
-3 0 18 0.2064 -0.0738
-3 1 1 -1.1827 0.2954
-3 1 2 0.5075 -0.1236
-3 1 3 0.0363 -0.0577
-3 1 4 -0.4252 0.0843
-3 1 5 0.5240 0.0075
-3 1 6 -0.1894 -0.0626
-3 1 7 -0.3831 0.0179
-3 1 8 0.7547 0.0412
-3 1 9 -0.7404 -0.0272
-3 1 10 0.5419 -0.0252
-3 1 11 -0.3609 0.0278
-3 1 12 0.1792 0.0193
-3 1 13 0.0136 -0.0338
-3 1 14 -0.0938 -0.0130
-3 1 15 0.0384 0.0476
-3 1 16 -0.0198 -0.0073
-3 1 17 0.1200 -0.0657
-3 1 18 -0.1827 0.0901
-3 2 1 0.6292 -0.2682
-3 2 2 0.0327 0.1231
-3 2 3 -0.2565 0.0303
-3 2 4 0.1151 -0.0668
-3 2 5 0.1504 0.0069
-3 2 6 -0.2918 0.0390
-3 2 7 0.2385 -0.0151
-3 2 8 -0.1671 -0.0290
-3 2 9 0.2628 0.0255
-3 2 10 -0.4365 0.0157
-3 2 11 0.4431 -0.0280
-3 2 12 -0.2491 -0.0089
-3 2 13 0.0769 0.0381
-3 2 14 -0.0748 -0.0112
-3 2 15 0.1483 -0.0354
-3 2 16 -0.1622 0.0285
-3 2 17 0.1207 0.0389
-3 2 18 -0.0822 -0.0985
-3 3 1 1.1551 0.2503
-3 3 2 -0.4840 -0.1104
-3 3 3 -0.1603 -0.0298
-3 3 4 0.5630 0.0576
-3 3 5 -0.7405 -0.0029
-3 3 6 0.7184 -0.0324
-3 3 7 -0.5249 0.0090
-3 3 8 0.2941 0.0251
-3 3 9 -0.1572 -0.0203
-3 3 10 0.0848 -0.0113
-3 3 11 0.0097 0.0250
-3 3 12 -0.0861 -0.0071
-3 3 13 0.0512 -0.0119
-3 3 14 0.0481 0.0030
-3 3 15 -0.0702 0.0212
-3 3 16 -0.0163 -0.0223
-3 3 17 0.1061 -0.0130
-3 4 1 -0.2769 -0.2937
-3 4 2 -0.1303 0.1283
-3 4 3 0.6061 0.0362
-3 4 4 -0.9514 -0.0623
-3 4 5 0.9638 -0.0019
-3 4 6 -0.6955 0.0332
-3 4 7 0.4052 -0.0042
-3 4 8 -0.2329 -0.0200
-3 4 9 0.1181 0.0041
-3 4 10 -0.0251 0.0168
-3 4 11 0.0077 -0.0080
-3 4 12 -0.0350 -0.0155
-3 4 13 -0.0013 0.0233
-3 4 14 0.0752 -0.0147
-3 4 15 -0.0519 0.0068
-3 4 16 -0.0583 -0.0023
-3 4 17 0.0980 -0.0095
-3 5 1 -0.1700 0.2588
-3 5 2 -0.0722 -0.1023
-3 5 3 0.2408 -0.0511
-3 5 4 -0.1931 0.0631
-3 5 5 0.1096 0.0127
-3 5 6 -0.1262 -0.0430
-3 5 7 0.1349 0.0023
-3 5 8 -0.0334 0.0297
-3 5 9 -0.0931 -0.0109
-3 5 10 0.1473 -0.0153
-3 5 11 -0.1571 0.0098
-3 5 12 0.1438 0.0037
-3 5 13 -0.0614 0.0070
-3 5 14 -0.0548 -0.0246
-3 5 15 0.0791 0.0146
-3 5 16 -0.0030 0.0160
-3 6 1 -0.5709 -0.2107
-3 6 2 0.7836 0.0779
-3 6 3 -1.3483 0.0553
-3 6 4 1.7527 -0.0599
-3 6 5 -1.3824 -0.0141
-3 6 6 0.5072 0.0378
-3 6 7 0.0340 0.0068
-3 6 8 0.0317 -0.0306
-3 6 9 -0.2015 -0.0039
-3 6 10 0.0646 0.0334
-3 6 11 0.2013 -0.0093
-3 6 12 -0.2753 -0.0271
-3 6 13 0.1594 0.0187
-3 6 14 -0.0370 0.0196
-3 6 15 -0.0141 -0.0325
-3 7 1 -1.0148 0.2741
-3 7 2 1.7292 -0.1174
-3 7 3 -1.2648 -0.0506
-3 7 4 0.1493 0.0753
-3 7 5 0.4123 0.0035
-3 7 6 -0.1902 -0.0435
-3 7 7 -0.0537 0.0037
-3 7 8 -0.0567 0.0349
-3 7 9 0.1082 -0.0177
-3 7 10 0.1364 -0.0141
-3 7 11 -0.2985 0.0092
-3 7 12 0.1152 0.0168
-3 7 13 0.1161 -0.0219
-3 7 14 -0.0927 0.0003
-3 8 1 0.1023 -0.2672
-3 8 2 0.0381 0.1153
-3 8 3 -0.2214 0.0435
-3 8 4 0.1905 -0.0683
-3 8 5 0.1498 -0.0030
-3 8 6 -0.5408 0.0424
-3 8 7 0.6586 -0.0089
-3 8 8 -0.5113 -0.0314
-3 8 9 0.3715 0.0223
-3 8 10 -0.3651 0.0192
-3 8 11 0.3408 -0.0511
-3 8 12 -0.1707 0.0584
-3 8 13 -0.0318 -0.0453
-3 9 1 -0.2614 0.2476
-3 9 2 0.0481 -0.1023
-3 9 3 0.0910 -0.0356
-3 9 4 -0.0174 0.0461
-3 9 5 -0.2107 0.0140
-3 9 6 0.5276 -0.0336
-3 9 7 -0.8218 0.0084
-3 9 8 0.8477 -0.0088
-3 9 9 -0.4973 0.0478
-3 9 10 0.0669 -0.0675
-3 9 11 0.0590 0.0424
-3 10 1 0.0128 -0.2556
-3 10 2 0.0718 0.0994
-3 10 3 -0.0311 0.0426
-3 10 4 -0.1006 -0.0487
-3 10 5 0.1918 -0.0065
-3 10 6 -0.2394 0.0072
-3 10 7 0.2874 0.0265
-3 10 8 -0.2657 -0.0053
-3 10 9 0.1129 -0.0639
-3 11 1 0.2072 0.2081
-3 11 2 -0.1320 -0.0772
-3 11 3 0.0531 -0.0501
-3 11 4 -0.0651 0.0631
-3 11 5 0.1252 -0.0139
-3 11 6 -0.0822 0.0094
-3 12 1 -0.2047 -0.1481
-2 -10 1 -0.3260 -0.1323
-2 -10 2 0.1504 0.0439
-2 -10 3 0.0783 0.0239
-2 -10 4 -0.1695 -0.0224
-2 -10 5 0.0577 -0.0055
-2 -10 6 0.1026 -0.0009
-2 -10 7 -0.1188 0.0331
-2 -10 8 -0.0052 -0.0383
-2 -9 1 -0.3554 0.1695
-2 -9 2 0.2319 -0.0490
-2 -9 3 -0.1043 -0.0435
-2 -9 4 0.0860 0.0291
-2 -9 5 -0.1061 0.0220
-2 -9 6 0.0699 -0.0231
-2 -9 7 -0.0406 -0.0078
-2 -9 8 0.1180 0.0101
-2 -9 9 -0.2465 0.0084
-2 -9 10 0.2866 0.0045
-2 -9 11 -0.2026 -0.0487
-2 -9 12 0.0701 0.0712
-2 -8 1 0.0785 -0.2270
-2 -8 2 -0.1322 0.0841
-2 -8 3 0.1138 0.0424
-2 -8 4 -0.0981 -0.0474
-2 -8 5 0.1507 -0.0113
-2 -8 6 -0.2109 0.0331
-2 -8 7 0.1854 -0.0086
-2 -8 8 -0.0909 -0.0095
-2 -8 9 0.0307 0.0035
-2 -8 10 -0.0522 0.0014
-2 -8 11 0.0926 0.0050
-2 -8 12 -0.0751 -0.0097
-2 -8 13 0.0100 0.0110
-2 -8 14 0.0349 -0.0183
-2 -7 1 -0.2121 0.2508
-2 -7 2 0.1329 -0.0976
-2 -7 3 -0.0178 -0.0402
-2 -7 4 -0.0696 0.0520
-2 -7 5 -0.0159 0.0102
-2 -7 6 0.2230 -0.0316
-2 -7 7 -0.2924 -0.0062
-2 -7 8 0.1465 0.0286
-2 -7 9 -0.0179 -0.0018
-2 -7 10 0.0510 -0.0227
-2 -7 11 -0.0689 0.0038
-2 -7 12 -0.0782 0.0215
-2 -7 13 0.2139 -0.0038
-2 -7 14 -0.1269 -0.0392
-2 -7 15 -0.0721 0.0525
-2 -6 1 -0.0785 -0.2348
-2 -6 2 0.0590 0.0911
-2 -6 3 -0.0448 0.0484
-2 -6 4 0.1009 -0.0572
-2 -6 5 -0.1208 -0.0135
-2 -6 6 0.0229 0.0364
-2 -6 7 0.0838 0.0068
-2 -6 8 -0.0627 -0.0302
-2 -6 9 -0.0507 -0.0003
-2 -6 10 0.1353 0.0247
-2 -6 11 -0.1593 -0.0057
-2 -6 12 0.1611 -0.0126
-2 -6 13 -0.1530 -0.0035
-2 -6 14 0.1441 0.0137
-2 -6 15 -0.1691 0.0193
-2 -6 16 0.2120 -0.0565
-2 -5 1 0.0343 0.2778
-2 -5 2 0.0364 -0.1083
-2 -5 3 -0.1661 -0.0484
-2 -5 4 0.2521 0.0561
-2 -5 5 -0.1432 0.0157
-2 -5 6 -0.1067 -0.0345
-2 -5 7 0.2543 -0.0062
-2 -5 8 -0.2018 0.0239
-2 -5 9 0.1109 0.0011
-2 -5 10 -0.1122 -0.0148
-2 -5 11 0.1231 -0.0024
-2 -5 12 -0.0595 0.0126
-2 -5 13 0.0130 -0.0008
-2 -5 14 -0.0680 -0.0033
-2 -5 15 0.1253 -0.0082
-2 -5 16 -0.0673 0.0013
-2 -5 17 -0.0419 0.0350
-2 -4 1 0.1988 -0.2667
-2 -4 2 -0.2917 0.1121
-2 -4 3 0.4412 0.0441
-2 -4 4 -0.6258 -0.0650
-2 -4 5 0.6473 -0.0037
-2 -4 6 -0.4284 0.0381
-2 -4 7 0.1329 -0.0082
-2 -4 8 0.0707 -0.0209
-2 -4 9 -0.1839 0.0087
-2 -4 10 0.2493 0.0148
-2 -4 11 -0.2305 -0.0119
-2 -4 12 0.1197 -0.0091
-2 -4 13 -0.0149 0.0157
-2 -4 14 -0.0155 0.0033
-2 -4 15 0.0234 -0.0249
-2 -4 16 -0.0533 0.0182
-2 -4 17 0.0538 0.0194
-2 -4 18 0.0012 -0.0541
-2 -3 1 0.0564 0.2118
-2 -3 2 0.2821 -0.0913
-2 -3 3 -0.5438 -0.0350
-2 -3 4 0.6677 0.0578
-2 -3 5 -0.6727 -0.0004
-2 -3 6 0.5887 -0.0362
-2 -3 7 -0.4371 0.0117
-2 -3 8 0.2550 0.0194
-2 -3 9 -0.0760 -0.0060
-2 -3 10 -0.0906 -0.0243
-2 -3 11 0.2107 0.0172
-2 -3 12 -0.2088 0.0208
-2 -3 13 0.0777 -0.0324
-2 -3 14 0.0575 -0.0023
-2 -3 15 -0.0794 0.0339
-2 -3 16 0.0272 -0.0111
-2 -3 17 -0.0120 -0.0488
-2 -3 18 0.0498 0.0811
-2 -2 1 -0.1830 -0.2749
-2 -2 2 0.0651 0.1217
-2 -2 3 0.3026 0.0410
-2 -2 4 -0.6275 -0.0771
-2 -2 5 0.6875 0.0098
-2 -2 6 -0.5141 0.0385
-2 -2 7 0.3146 -0.0135
-2 -2 8 -0.2542 -0.0232
-2 -2 9 0.3099 0.0110
-2 -2 10 -0.3304 0.0194
-2 -2 11 0.2383 -0.0125
-2 -2 12 -0.1194 -0.0167
-2 -2 13 0.0793 0.0151
-2 -2 14 -0.0918 0.0141
-2 -2 15 0.0746 -0.0198
-2 -2 16 -0.0373 -0.0076
-2 -2 17 0.0406 0.0193
-2 -2 18 -0.0653 0.0119
-2 -2 19 0.0494 -0.0496
-2 -1 1 -2.0749 0.3439
-2 -1 2 1.1327 -0.1530
-2 -1 3 -0.2572 -0.0425
-2 -1 4 -0.4307 0.0771
-2 -1 5 0.7980 0.0017
-2 -1 6 -0.6646 -0.0438
-2 -1 7 0.1054 0.0036
-2 -1 8 0.4759 0.0356
-2 -1 9 -0.7413 -0.0137
-2 -1 10 0.7259 -0.0226
-2 -1 11 -0.6400 0.0120
-2 -1 12 0.5528 0.0205
-2 -1 13 -0.4162 -0.0141
-2 -1 14 0.2394 -0.0187
-2 -1 15 -0.0666 0.0144
-2 -1 16 -0.1103 0.0246
-2 -1 17 0.2808 -0.0196
-2 -1 18 -0.3507 -0.0576
-2 -1 19 0.2653 0.1252
-2 0 1 3.4218 -0.3365
-2 0 2 -1.9779 0.1482
-2 0 3 0.5824 0.0334
-2 0 4 0.2671 -0.0630
-2 0 5 -0.4839 -0.0021
-2 0 6 0.2451 0.0330
-2 0 7 0.1724 -0.0009
-2 0 8 -0.5004 -0.0270
-2 0 9 0.5997 0.0086
-2 0 10 -0.5003 0.0215
-2 0 11 0.2980 -0.0165
-2 0 12 -0.0644 -0.0119
-2 0 13 -0.1230 0.0162
-2 0 14 0.1771 0.0079
-2 0 15 -0.1107 -0.0138
-2 0 16 0.0628 -0.0162
-2 0 17 -0.1304 0.0291
-2 0 18 0.2359 0.0206
-2 0 19 -0.2384 -0.0896
-2 1 1 -1.7792 0.2716
-2 1 2 0.9902 -0.0999
-2 1 3 -0.3353 -0.0414
-2 1 4 0.2382 0.0495
-2 1 5 -0.4970 0.0075
-2 1 6 0.5687 -0.0273
-2 1 7 -0.3095 0.0006
-2 1 8 0.0690 0.0192
-2 1 9 -0.0667 -0.0060
-2 1 10 0.0922 -0.0176
-2 1 11 0.0566 0.0202
-2 1 12 -0.2242 0.0002
-2 1 13 0.1964 -0.0146
-2 1 14 -0.0508 -0.0017
-2 1 15 -0.0316 0.0279
-2 1 16 0.0643 -0.0128
-2 1 17 -0.1299 -0.0537
-2 1 18 0.1575 0.1102
-2 2 1 -2.7870 -0.2323
-2 2 2 0.8527 0.0581
-2 2 3 0.4963 0.0699
-2 2 4 -1.1474 -0.0484
-2 2 5 1.3036 -0.0289
-2 2 6 -1.0685 0.0429
-2 2 7 0.5956 -0.0012
-2 2 8 -0.1752 -0.0219
-2 2 9 -0.0548 0.0056
-2 2 10 0.2260 0.0131
-2 2 11 -0.4288 -0.0083
-2 2 12 0.5234 -0.0120
-2 2 13 -0.3918 0.0245
-2 2 14 0.1607 -0.0106
-2 2 15 -0.0213 -0.0216
-2 2 16 -0.0073 0.0290
-2 2 17 0.0057 0.0206
-2 2 18 0.0089 -0.0918
-2 3 1 0.1695 0.3251
-2 3 2 0.2914 -0.0991
-2 3 3 -0.7073 -0.0765
-2 3 4 1.0437 0.0650
-2 3 5 -1.1664 0.0240
-2 3 6 0.9588 -0.0426
-2 3 7 -0.5109 -0.0028
-2 3 8 0.0416 0.0245
-2 3 9 0.2800 -0.0044
-2 3 10 -0.3896 -0.0123
-2 3 11 0.3410 0.0066
-2 3 12 -0.2923 0.0046
-2 3 13 0.3399 -0.0124
-2 3 14 -0.3697 0.0138
-2 3 15 0.2263 0.0065
-2 3 16 0.0119 -0.0501
-2 3 17 -0.1227 0.0828
-2 4 1 0.9830 -0.3036
-2 4 2 -0.6991 0.0819
-2 4 3 0.4361 0.0851
-2 4 4 -0.2351 -0.0610
-2 4 5 -0.0179 -0.0365
-2 4 6 0.3258 0.0512
-2 4 7 -0.4777 0.0038
-2 4 8 0.3237 -0.0280
-2 4 9 0.0025 0.0061
-2 4 10 -0.2476 0.0052
-2 4 11 0.3012 0.0046
-2 4 12 -0.2049 -0.0004
-2 4 13 0.0360 -0.0141
-2 4 14 0.1129 0.0045
-2 4 15 -0.1502 0.0169
-2 4 16 0.0843 -0.0008
-2 4 17 -0.0257 -0.0537
-2 5 1 -0.3732 0.3201
-2 5 2 0.0098 -0.0891
-2 5 3 0.4828 -0.0860
-2 5 4 -0.7877 0.0566
-2 5 5 0.6322 0.0458
-2 5 6 -0.2437 -0.0450
-2 5 7 0.0330 -0.0308
-2 5 8 -0.0086 0.0444
-2 5 9 -0.1136 0.0150
-2 5 10 0.3701 -0.0397
-2 5 11 -0.5141 -0.0031
-2 5 12 0.4370 0.0305
-2 5 13 -0.2745 0.0027
-2 5 14 0.1330 -0.0352
-2 5 15 -0.0057 0.0093
-2 5 16 -0.0778 0.0429
-2 6 1 0.3182 -0.3472
-2 6 2 -0.2859 0.1073
-2 6 3 0.1017 0.0842
-2 6 4 0.0227 -0.0672
-2 6 5 0.0905 -0.0423
-2 6 6 -0.2171 0.0627
-2 6 7 0.0675 0.0058
-2 6 9 -0.1257 -0.0042
-2 6 10 -0.2174 0.0349
-2 6 11 0.4178 -0.0030
-2 6 12 -0.2839 -0.0384
-2 6 13 0.0694 0.0298
-2 6 14 -0.0127 0.0101
-2 6 15 0.0484 -0.0298
-2 7 1 -0.2330 0.2730
-2 7 2 0.2538 -0.0832
-2 7 3 -0.4614 -0.0636
-2 7 4 0.6756 0.0519
-2 7 5 -0.6234 0.0297
-2 7 6 0.3108 -0.0479
-2 7 7 -0.0031 -0.0050
-2 7 8 -0.1137 0.0430
-2 7 9 0.0705 -0.0225
-2 7 10 0.0316 -0.0167
-2 7 11 -0.1182 0.0214
-2 7 12 0.1171 0.0137
-2 7 13 -0.0071 -0.0572
-2 7 14 -0.1101 0.0789
-2 8 1 0.3985 -0.2575
-2 8 2 -0.5193 0.0780
-2 8 3 0.6595 0.0600
-2 8 4 -0.6431 -0.0472
-2 8 5 0.4284 -0.0285
-2 8 6 -0.2986 0.0411
-2 8 7 0.4143 0.0101
-2 8 8 -0.4586 -0.0432
-2 8 9 0.1238 0.0284
-2 8 10 0.3081 -0.0101
-2 8 11 -0.3361 0.0186
-2 8 12 0.0038 -0.0302
-2 9 1 -0.2749 0.2253
-2 9 2 0.1819 -0.0655
-2 9 3 -0.3542 -0.0566
-2 9 4 0.5573 0.0383
-2 9 5 -0.5072 0.0309
-2 9 6 0.2742 -0.0309
-2 9 7 -0.0940 -0.0218
-2 9 8 0.0120 0.0386
-2 9 9 0.0514 -0.0131
-2 9 10 -0.0668 0.0180
-2 10 1 -0.0699 -0.1873
-2 10 2 0.2173 0.0596
-2 10 3 -0.1159 0.0476
-2 10 4 -0.0167 -0.0379
-2 10 5 -0.0278 -0.0270
-2 10 6 0.1350 0.0338
-2 10 7 -0.0890 0.0320
-2 10 8 -0.0836 -0.0906
-2 11 1 -0.0432 0.1736
-2 11 2 -0.0346 -0.0753
-2 11 3 0.0947 -0.0242
-2 11 4 -0.1194 0.0303
-2 11 5 0.1456 0.0401
-1 -10 1 0.1275 -0.1761
-1 -10 2 0.0325 0.0484
-1 -10 3 -0.1695 0.0378
-1 -10 4 0.0653 -0.0170
-1 -10 5 0.2158 -0.0291
-1 -10 6 -0.4088 0.0212
-1 -10 7 0.3574 0.0164
-1 -10 8 -0.1290 -0.0326
-1 -10 9 -0.1106 0.0366
-1 -10 10 0.2312 -0.0544
-1 -9 1 0.2711 0.2509
-1 -9 2 -0.1338 -0.0884
-1 -9 3 0.0990 -0.0443
-1 -9 4 -0.1953 0.0460
-1 -9 5 0.2309 0.0101
-1 -9 6 -0.1007 -0.0239
-1 -9 7 -0.0508 -0.0016
-1 -9 8 0.0401 0.0131
-1 -9 9 0.1082 -0.0031
-1 -9 10 -0.2226 -0.0052
-1 -9 11 0.2120 0.0145
-1 -9 12 -0.1291 -0.0360
-1 -9 13 0.0560 0.0494
-1 -8 1 0.0206 -0.2022
-1 -8 2 0.0655 0.0616
-1 -8 3 -0.2106 0.0448
-1 -8 4 0.3291 -0.0353
-1 -8 5 -0.2848 -0.0224
-1 -8 6 0.1012 0.0309
-1 -8 7 0.0138 0.0069
-1 -8 8 0.0431 -0.0230
-1 -8 9 -0.1372 -0.0012
-1 -8 10 0.1443 0.0186
-1 -8 11 -0.1307 -0.0011
-1 -8 12 0.1702 -0.0191
-1 -8 13 -0.1852 0.0041
-1 -8 14 0.1097 0.0366
-1 -8 15 -0.0309 -0.0644
-1 -7 1 -0.0418 0.1900
-1 -7 2 -0.0467 -0.0556
-1 -7 3 0.1386 -0.0523
-1 -7 4 -0.1911 0.0419
-1 -7 5 0.2681 0.0207
-1 -7 6 -0.3690 -0.0330
-1 -7 7 0.3791 -0.0037
-1 -7 8 -0.2514 0.0200
-1 -7 9 0.1300 0.0004
-1 -7 10 -0.1694 -0.0110
-1 -7 11 0.2914 -0.0063
-1 -7 12 -0.2823 0.0151
-1 -7 13 0.1156 0.0050
-1 -7 14 0.0019 -0.0212
-1 -7 15 0.0541 0.0026
-1 -7 16 -0.1472 0.0317
-1 -6 1 -0.0376 -0.2458
-1 -6 2 0.1118 0.0697
-1 -6 3 -0.0539 0.0619
-1 -6 4 -0.1283 -0.0473
-1 -6 5 0.1261 -0.0215
-1 -6 6 0.1470 0.0303
-1 -6 7 -0.3430 0.0077
-1 -6 8 0.2072 -0.0197
-1 -6 9 0.0123 -0.0010
-1 -6 10 0.0303 0.0097
-1 -6 11 -0.2361 0.0030
-1 -6 12 0.2599 -0.0086
-1 -6 13 -0.0598 0.0003
-1 -6 14 -0.0971 0.0008
-1 -6 15 0.0720 0.0094
-1 -6 16 0.0167 -0.0107
-1 -6 17 -0.0542 -0.0056
-1 -5 1 0.2907 0.2336
-1 -5 2 -0.2450 -0.0722
-1 -5 3 0.1399 -0.0510
-1 -5 4 0.0902 0.0430
-1 -5 5 -0.2728 0.0206
-1 -5 6 0.2158 -0.0369
-1 -5 7 0.0283 0.0037
-1 -5 8 -0.2458 0.0192
-1 -5 9 0.3237 -0.0061
-1 -5 10 -0.3064 -0.0170
-1 -5 11 0.2502 0.0199
-1 -5 12 -0.1555 -0.0014
-1 -5 13 0.0315 -0.0158
-1 -5 14 0.0711 0.0103
-1 -5 15 -0.1082 0.0119
-1 -5 16 0.0749 -0.0201
-1 -5 17 -0.0017 -0.0026
-1 -5 18 -0.0526 0.0320
-1 -4 1 -0.4296 -0.2403
-1 -4 2 0.3085 0.0790
-1 -4 3 -0.2577 0.0355
-1 -4 4 0.1712 -0.0278
-1 -4 5 0.0223 -0.0265
-1 -4 6 -0.1983 0.0325
-1 -4 7 0.1936 0.0108
-1 -4 8 -0.0479 -0.0390
-1 -4 9 -0.0669 0.0187
-1 -4 10 0.1063 0.0158
-1 -4 11 -0.1644 -0.0177
-1 -4 12 0.2491 -0.0095
-1 -4 13 -0.2450 0.0208
-1 -4 14 0.1213 0.0049
-1 -4 15 0.0043 -0.0321
-1 -4 16 -0.0480 0.0127
-1 -4 17 0.0542 0.0510
-1 -4 18 -0.0717 -0.1052
-1 -3 1 0.0900 0.2896
-1 -3 2 -0.3841 -0.0833
-1 -3 3 0.6135 -0.0651
-1 -3 4 -0.6688 0.0502
-1 -3 5 0.5524 0.0301
-1 -3 6 -0.3988 -0.0455
-1 -3 7 0.3042 -0.0059
-1 -3 8 -0.2059 0.0372
-1 -3 9 0.0211 -0.0112
-1 -3 10 0.1625 -0.0218
-1 -3 11 -0.1702 0.0129
-1 -3 12 -0.0048 0.0157
-1 -3 13 0.1727 -0.0153
-1 -3 14 -0.1891 -0.0116
-1 -3 15 0.0963 0.0187
-1 -3 16 -0.0038 0.0125
-1 -3 17 -0.0479 -0.0494
-1 -3 18 0.0620 0.0576
-1 -2 1 2.3027 -0.2953
-1 -2 2 -1.2238 0.0731
-1 -2 3 -0.1260 0.0798
-1 -2 4 1.0865 -0.0477
-1 -2 5 -1.3023 -0.0418
-1 -2 6 0.9474 0.0444
-1 -2 7 -0.4841 0.0181
-1 -2 8 0.2099 -0.0407
-1 -2 9 -0.0550 0.0012
-1 -2 10 -0.1808 0.0311
-1 -2 11 0.4805 -0.0128
-1 -2 12 -0.6241 -0.0174
-1 -2 13 0.5120 0.0081
-1 -2 14 -0.2939 0.0248
-1 -2 15 0.1311 -0.0252
-1 -2 16 -0.0067 -0.0123
-1 -2 17 -0.1388 0.0272
-1 -2 18 0.2440 0.0175
-1 -2 19 -0.2231 -0.0751
-1 -1 1 -2.9086 0.3407
-1 -1 2 1.6735 -0.0802
-1 -1 3 -0.0735 -0.0932
-1 -1 4 -0.8696 0.0616
-1 -1 5 0.9525 0.0345
-1 -1 6 -0.7303 -0.0480
-1 -1 7 0.6691 -0.0024
-1 -1 8 -0.6905 0.0268
-1 -1 9 0.5201 -0.0053
-1 -1 10 -0.1641 -0.0168
-1 -1 11 -0.1113 0.0107
-1 -1 12 0.1261 0.0088
-1 -1 13 0.0345 -0.0149
-1 -1 14 -0.1603 0.0030
-1 -1 15 0.1485 0.0063
-1 -1 16 -0.0752 0.0023
-1 -1 17 0.0690 -0.0084
-1 -1 18 -0.1480 -0.0190
-1 -1 19 0.2051 0.0663
-1 0 1 -1.1089 -0.3304
-1 0 2 1.0641 0.0893
-1 0 3 -1.1804 0.0827
-1 0 4 0.8251 -0.0656
-1 0 5 -0.1345 -0.0216
-1 0 6 -0.1256 0.0416
-1 0 7 -0.2926 -0.0022
-1 0 8 0.7928 -0.0213
-1 0 9 -0.8332 0.0092
-1 0 10 0.5626 0.0084
-1 0 11 -0.3702 -0.0105
-1 0 12 0.3051 -0.0021
-1 0 13 -0.2300 0.0146
-1 0 14 0.1678 -0.0054
-1 0 15 -0.1810 -0.0226
-1 0 16 0.1639 0.0245
-1 0 17 -0.0322 0.0302
-1 0 18 -0.0787 -0.0944
-1 1 1 8.5036 0.3203
-1 1 2 -4.4866 -0.1150
-1 1 3 1.6125 -0.0624
-1 1 4 -0.1302 0.0641
-1 1 5 -0.5219 0.0182
-1 1 6 0.6458 -0.0412
-1 1 7 -0.2993 -0.0001
-1 1 8 -0.2522 0.0261
-1 1 9 0.6199 -0.0098
-1 1 10 -0.6874 -0.0122
-1 1 11 0.6256 0.0109
-1 1 12 -0.5712 0.0092
-1 1 13 0.4858 -0.0248
-1 1 14 -0.3091 0.0124
-1 1 15 0.0937 0.0198
-1 1 16 0.0513 -0.0197
-1 1 17 -0.0789 -0.0452
-1 1 18 0.0318 0.1201
-1 2 1 -2.0913 -0.3519
-1 2 2 1.0109 0.1440
-1 2 3 -0.7193 0.0440
-1 2 4 0.7214 -0.0649
-1 2 5 -0.3858 -0.0054
-1 2 6 -0.1916 0.0325
-1 2 7 0.3782 -0.0010
-1 2 8 0.1057 -0.0235
-1 2 9 -0.7719 0.0139
-1 2 10 0.9556 0.0071
-1 2 11 -0.6235 -0.0202
-1 2 12 0.3141 0.0192
-1 2 13 -0.3384 -0.0039
-1 2 14 0.4168 -0.0084
-1 2 15 -0.2215 -0.0044
-1 2 16 -0.0974 0.0251
-1 2 17 0.1972 -0.0096
-1 2 18 -0.0745 -0.0417
-1 3 1 -0.2627 0.3104
-1 3 2 -0.0806 -0.1323
-1 3 3 0.6037 -0.0328
-1 3 4 -1.1067 0.0557
-1 3 5 1.3197 0.0027
-1 3 6 -1.1937 -0.0272
-1 3 7 0.9250 0.0047
-1 3 8 -0.7060 0.0097
-1 3 9 0.5288 -0.0020
-1 3 10 -0.2854 -0.0035
-1 3 11 0.0052 0.0048
-1 3 12 0.1251 -0.0105
-1 3 13 -0.0121 0.0009
-1 3 14 -0.1775 0.0323
-1 3 15 0.2024 -0.0402
-1 3 16 -0.0431 -0.0195
-1 3 17 -0.1061 0.0995
-1 4 1 0.5610 -0.3631
-1 4 2 -0.3217 0.1626
-1 4 3 -0.1818 0.0330
-1 4 4 0.7339 -0.0639
-1 4 5 -0.9545 -0.0057
-1 4 6 0.7834 0.0299
-1 4 7 -0.4618 0.0096
-1 4 8 0.1485 -0.0266
-1 4 9 0.1554 -0.0022
-1 4 10 -0.3857 0.0154
-1 4 11 0.4189 0.0069
-1 4 12 -0.2793 -0.0130
-1 4 13 0.1133 -0.0124
-1 4 14 0.0117 0.0126
-1 4 15 -0.1058 0.0386
-1 4 16 0.1340 -0.0826
-1 5 1 0.0863 0.3085
-1 5 2 -0.2644 -0.1374
-1 5 3 0.4512 -0.0371
-1 5 4 -0.4361 0.0724
-1 5 5 0.1675 -0.0061
-1 5 6 0.0808 -0.0357
-1 5 7 -0.0366 0.0102
-1 5 8 -0.1836 0.0203
-1 5 9 0.2528 -0.0083
-1 5 10 -0.1173 -0.0149
-1 5 11 0.0226 0.0091
-1 5 12 -0.0812 0.0044
-1 5 13 0.1222 0.0097
-1 5 14 -0.0197 -0.0263
-1 5 15 -0.1033 -0.0060
-1 6 1 0.1002 -0.2125
-1 6 2 -0.3418 0.1007
-1 6 3 0.5187 0.0174
-1 6 4 -0.4957 -0.0577
-1 6 5 0.2546 0.0247
-1 6 6 0.0508 0.0183
-1 6 7 -0.2409 -0.0212
-1 6 8 0.2650 -0.0041
-1 6 9 -0.1638 0.0088
-1 6 10 -0.0012 0.0178
-1 6 11 0.1140 -0.0285
-1 6 12 -0.0529 -0.0066
-1 6 13 -0.1273 0.0478
-1 6 14 0.2104 -0.0453
-1 7 1 0.2269 0.2229
-1 7 2 0.0696 -0.0997
-1 7 3 -0.1811 -0.0295
-1 7 4 0.0428 0.0676
-1 7 5 0.1145 -0.0222
-1 7 6 -0.0273 -0.0271
-1 7 7 -0.2082 0.0247
-1 7 8 0.2215 0.0087
-1 7 9 0.0865 -0.0189
-1 7 10 -0.3626 -0.0046
-1 7 11 0.3120 0.0222
-1 7 12 -0.0980 -0.0106
-1 7 13 0.0206 -0.0041
-1 8 1 -0.1450 -0.2103
-1 8 2 0.1786 0.1023
-1 8 3 -0.0352 0.0207
-1 8 4 -0.1710 -0.0583
-1 8 5 0.2738 0.0158
-1 8 6 -0.2154 0.0298
-1 8 7 0.0261 -0.0340
-1 8 8 0.2053 0.0171
-1 8 9 -0.3311 -0.0026
-1 8 10 0.2558 -0.0237
-1 8 11 -0.0717 0.0693
-1 8 12 -0.0353 -0.0938
-1 9 1 0.2480 0.2025
-1 9 2 -0.4185 -0.1003
-1 9 3 0.2675 -0.0209
-1 9 4 0.0215 0.0562
-1 9 5 -0.1128 -0.0026
-1 9 6 -0.0625 -0.0522
-1 9 7 0.2584 0.0358
-1 9 8 -0.2441 0.0308
-1 9 9 0.0636 -0.0719
-1 9 10 0.0674 0.0553
-1 10 1 0.1258 -0.1954
-1 10 2 0.1476 0.0986
-1 10 3 -0.3568 0.0226
-1 10 4 0.3097 -0.0700
-1 10 5 -0.1355 0.0176
-1 10 6 0.0694 0.0631
-1 10 7 -0.1111 -0.0820
-1 11 1 -0.9431 0.1264
-1 11 2 0.9006 -0.0900
-1 11 3 -0.2815 -0.0093
-1 11 4 -0.2171 0.0874
0 -11 1 -0.0376 0.1504
0 -11 2 -0.0324 -0.0424
0 -11 3 0.0467 -0.0249
0 -11 4 0.1211 0.0108
0 -11 5 -0.4337 0.0180
0 -11 6 0.6644 -0.0048
0 -11 7 -0.6094 -0.0299
0 -11 8 0.2983 0.0470
0 -10 1 -0.3194 -0.1922
0 -10 2 0.1077 0.0707
0 -10 3 0.0686 0.0314
0 -10 4 0.0522 -0.0392
0 -10 5 -0.2694 0.0033
0 -10 6 0.2692 0.0063
0 -10 7 -0.0721 0.0098
0 -10 8 -0.0719 -0.0142
0 -10 9 0.0608 -0.0028
0 -10 10 -0.0020 0.0261
0 -10 11 -0.0084 -0.0462
0 -9 1 0.2047 0.1444
0 -9 2 -0.1505 -0.0647
0 -9 3 0.1830 -0.0128
0 -9 4 -0.2932 0.0305
0 -9 5 0.3531 -0.0065
0 -9 6 -0.2831 -0.0109
0 -9 7 0.1606 0.0045
0 -9 8 -0.0738 0.0062
0 -9 9 0.0055 -0.0019
0 -9 10 0.0643 -0.0102
0 -9 11 -0.0860 0.0078
0 -9 12 0.0505 0.0158
0 -9 13 -0.0334 -0.0388
0 -9 14 0.0612 0.0353
0 -8 1 -0.2189 -0.1850
0 -8 2 0.2431 0.0985
0 -8 3 -0.1921 0.0020
0 -8 4 0.0588 -0.0377
0 -8 5 -0.0498 0.0135
0 -8 6 0.2416 0.0155
0 -8 7 -0.4027 -0.0159
0 -8 8 0.3178 -0.0008
0 -8 9 -0.1220 0.0086
0 -8 10 0.0873 -0.0009
0 -8 11 -0.1935 -0.0072
0 -8 12 0.1833 0.0040
0 -8 13 0.0041 0.0035
0 -8 14 -0.1453 -0.0024
0 -8 15 0.1041 -0.0041
0 -7 1 0.2140 0.2330
0 -7 2 -0.2420 -0.1038
0 -7 3 0.0412 -0.0167
0 -7 4 0.3312 0.0417
0 -7 5 -0.5233 -0.0052
0 -7 6 0.3672 -0.0196
0 -7 7 -0.1235 0.0098
0 -7 8 0.0657 0.0096
0 -7 9 -0.0794 -0.0144
0 -7 10 -0.0708 0.0034
0 -7 11 0.2931 0.0095
0 -7 12 -0.3007 -0.0119
0 -7 13 0.0684 0.0053
0 -7 14 0.1428 -0.0018
0 -7 15 -0.1646 0.0044
0 -7 16 0.0752 -0.0031
0 -6 1 -0.5695 -0.2232
0 -6 2 0.3756 0.0966
0 -6 3 -0.1420 0.0221
0 -6 4 -0.0601 -0.0529
0 -6 5 0.2335 0.0171
0 -6 6 -0.3550 0.0203
0 -6 7 0.3390 -0.0214
0 -6 8 -0.1470 -0.0036
0 -6 9 -0.1134 0.0185
0 -6 10 0.2682 -0.0055
0 -6 11 -0.2467 -0.0124
0 -6 12 0.1168 0.0051
0 -6 13 0.0244 0.0180
0 -6 14 -0.1230 -0.0216
0 -6 15 0.1438 0.0004
0 -6 16 -0.0728 0.0138
0 -6 17 -0.0308 -0.0047
0 -5 1 0.5303 0.2541
0 -5 2 -0.3577 -0.1040
0 -5 3 0.2191 -0.0285
0 -5 4 -0.1529 0.0614
0 -5 5 0.0318 -0.0195
0 -5 6 0.1734 -0.0227
0 -5 7 -0.3109 0.0188
0 -5 8 0.2835 0.0129
0 -5 9 -0.1894 -0.0219
0 -5 10 0.1356 -0.0048
0 -5 11 -0.0811 0.0253
0 -5 12 -0.0168 -0.0079
0 -5 13 0.0662 -0.0183
0 -5 14 0.0058 0.0087
0 -5 15 -0.0956 0.0253
0 -5 16 0.0731 -0.0335
0 -5 17 0.0166 0.0007
0 -5 18 -0.0427 0.0354
0 -4 1 -0.4496 -0.2772
0 -4 2 0.6035 0.1206
0 -4 3 -0.8099 0.0342
0 -4 4 0.9347 -0.0714
0 -4 5 -0.8531 0.0143
0 -4 6 0.6302 0.0374
0 -4 7 -0.4204 -0.0277
0 -4 8 0.2396 -0.0104
0 -4 9 0.0082 0.0165
0 -4 10 -0.2875 0.0126
0 -4 11 0.3922 -0.0247
0 -4 12 -0.2189 -0.0044
0 -4 13 -0.0576 0.0318
0 -4 14 0.1865 -0.0134
0 -4 15 -0.1264 -0.0256
0 -4 16 0.0196 0.0251
0 -4 17 0.0356 0.0247
0 -4 18 -0.0571 -0.0724
0 -3 1 -1.2037 0.2498
0 -3 2 0.6801 -0.1183
0 -3 3 0.3071 -0.0211
0 -3 4 -1.1812 0.0550
0 -3 5 1.3788 -0.0104
0 -3 6 -0.9524 -0.0230
0 -3 7 0.4660 0.0102
0 -3 8 -0.3240 0.0124
0 -3 9 0.3762 -0.0050
0 -3 10 -0.2444 -0.0197
0 -3 11 -0.1272 0.0175
0 -3 12 0.4307 0.0180
0 -3 13 -0.4424 -0.0357
0 -3 14 0.2780 0.0016
0 -3 15 -0.1475 0.0374
0 -3 16 0.0762 -0.0123
0 -3 17 0.0038 -0.0625
0 -3 18 -0.0614 0.1017
0 -2 1 1.4678 -0.2879
0 -2 2 -0.9816 0.1276
0 -2 3 0.0523 0.0287
0 -2 4 0.7574 -0.0628
0 -2 5 -1.1012 0.0091
0 -2 6 1.0755 0.0319
0 -2 7 -0.9395 -0.0176
0 -2 8 0.7983 -0.0169
0 -2 9 -0.6033 0.0221
0 -2 10 0.3265 0.0050
0 -2 11 -0.0462 -0.0210
0 -2 12 -0.1130 -0.0020
0 -2 13 0.1025 0.0286
0 -2 14 -0.0118 -0.0090
0 -2 15 -0.0205 -0.0345
0 -2 16 -0.0357 0.0266
0 -2 17 0.0856 0.0456
0 -2 18 -0.0602 -0.1010
0 -1 1 3.5729 0.2449
0 -1 2 -2.9007 -0.1508
0 -1 3 1.7652 0.0001
0 -1 4 -0.6701 0.0631
0 -1 5 0.0644 -0.0210
0 -1 6 -0.0975 -0.0325
0 -1 7 0.4795 0.0257
0 -1 8 -0.7427 0.0177
0 -1 9 0.6848 -0.0318
0 -1 10 -0.4484 0.0005
0 -1 11 0.2185 0.0257
0 -1 12 -0.0476 -0.0049
0 -1 13 -0.0352 -0.0299
0 -1 14 -0.0172 0.0148
0 -1 15 0.1371 0.0402
0 -1 16 -0.1569 -0.0475
0 -1 17 0.0347 -0.0319
0 -1 18 0.0827 0.1164
0 0 2 7.7728 0.1643
0 0 3 -3.1624 -0.0317
0 0 4 0.2269 -0.0635
0 0 5 0.8631 0.0385
0 0 6 -0.8857 0.0276
0 0 7 0.5232 -0.0321
0 0 8 -0.0844 -0.0149
0 0 9 -0.2250 0.0315
0 0 10 0.2520 0.0063
0 0 11 -0.0926 -0.0357
0 0 12 0.0121 0.0089
0 0 13 -0.0872 0.0291
0 0 14 0.1323 -0.0087
0 0 15 -0.0344 -0.0474
0 0 16 -0.0626 0.0429
0 0 17 0.0194 0.0461
0 0 18 0.0617 -0.1173
0 1 0 -3.4248 0.1734
0 1 2 -1.4156 -0.0852
0 1 3 0.7549 0.0391
0 1 4 -0.5173 0.0397
0 1 5 0.1333 -0.0383
0 1 6 0.6055 -0.0204
0 1 7 -1.0984 0.0391
0 1 8 0.7510 0.0035
0 1 9 0.0760 -0.0353
0 1 10 -0.4610 0.0102
0 1 11 0.1361 0.0264
0 1 12 0.2705 -0.0159
0 1 13 -0.2392 -0.0208
0 1 14 0.0104 0.0198
0 1 15 -0.0062 0.0170
0 1 16 0.1372 -0.0140
0 1 17 -0.0793 -0.0627
0 1 18 -0.1226 0.1385
0 2 0 -1.2698 -0.2884
0 2 1 0.6222 0.1250
0 2 2 0.1352 0.0294
0 2 3 -0.8286 -0.0423
0 2 4 1.2908 -0.0265
0 2 5 -1.2610 0.0437
0 2 6 0.7099 0.0064
0 2 7 -0.0802 -0.0354
0 2 8 -0.1142 0.0062
0 2 9 -0.1078 0.0245
0 2 10 0.2478 -0.0096
0 2 11 -0.0027 -0.0214
0 2 12 -0.3669 0.0167
0 2 13 0.4463 0.0222
0 2 14 -0.2345 -0.0418
0 2 15 0.0871 -0.0014
0 2 16 -0.1851 0.0860
0 2 17 0.3191 -0.1368
0 3 0 1.1969 0.2303
0 3 1 -0.9212 -0.0757
0 3 2 0.4859 -0.0437
0 3 3 0.1613 0.0254
0 3 4 -0.8562 0.0428
0 3 5 1.1846 -0.0361
0 3 6 -0.9232 -0.0262
0 3 7 0.2984 0.0429
0 3 8 0.2800 -0.0017
0 3 9 -0.5948 -0.0236
0 3 10 0.6815 0.0058
0 3 11 -0.6606 0.0108
0 3 12 0.5894 -0.0026
0 3 13 -0.4313 -0.0070
0 3 14 0.1673 0.0057
0 3 15 0.0732 -0.0029
0 3 16 -0.1103 -0.0113
0 3 17 -0.0254 0.0490
0 4 0 0.3449 -0.2820
0 4 1 -0.2679 0.1249
0 4 2 0.3026 0.0316
0 4 3 -0.4865 -0.0478
0 4 4 0.6329 -0.0241
0 4 5 -0.5139 0.0411
0 4 6 0.1999 0.0159
0 4 7 -0.0083 -0.0406
0 4 8 0.0915 -0.0068
0 4 9 -0.2751 0.0420
0 4 10 0.3454 -0.0112
0 4 11 -0.2913 -0.0263
0 4 12 0.1834 0.0158
0 4 13 -0.0274 0.0057
0 4 14 -0.1380 -0.0037
0 4 15 0.1798 0.0213
0 4 16 -0.0557 -0.0821
0 5 0 -0.5329 0.2810
0 5 1 0.2805 -0.1396
0 5 2 0.0385 -0.0365
0 5 3 -0.1655 0.0800
0 5 4 0.0702 -0.0005
0 5 5 0.0413 -0.0464
0 5 6 -0.0199 -0.0037
0 5 7 -0.0444 0.0460
0 5 8 0.0091 -0.0024
0 5 9 0.0742 -0.0476
0 5 10 -0.0672 0.0173
0 5 11 0.0065 0.0323
0 5 12 -0.0313 -0.0092
0 5 13 0.1023 -0.0387
0 5 14 -0.0560 0.0081
0 5 15 -0.0771 0.0712
0 6 0 0.5997 -0.2320
0 6 1 -0.4438 0.1004
0 6 2 0.2639 0.0413
0 6 3 -0.2413 -0.0629
0 6 4 0.3196 -0.0034
0 6 5 -0.2389 0.0288
0 6 6 -0.0908 0.0163
0 6 7 0.3865 -0.0383
0 6 8 -0.3328 -0.0077
0 6 9 0.0225 0.0415
0 6 10 0.1764 0.0018
0 6 11 -0.1389 -0.0568
0 6 12 0.0846 0.0318
0 6 13 -0.1536 0.0464
0 6 14 0.1995 -0.0780
0 7 0 -0.1732 0.2363
0 7 1 0.2334 -0.0996
0 7 2 -0.3061 -0.0391
0 7 3 0.3076 0.0591
0 7 4 -0.2508 0.0034
0 7 5 0.1540 -0.0352
0 7 6 -0.0279 0.0073
0 7 7 -0.0609 0.0177
0 7 8 0.0438 -0.0056
0 7 9 0.0388 -0.0099
0 7 10 -0.0826 0.0063
0 7 11 0.0608 -0.0106
0 7 12 -0.0340 0.0370
0 8 0 0.2954 -0.1685
0 8 1 -0.4874 0.0598
0 8 2 0.5743 0.0329
0 8 3 -0.4064 -0.0337
0 8 4 0.1434 -0.0139
0 8 5 -0.0654 0.0236
0 8 6 0.2068 0.0064
0 8 7 -0.3194 -0.0072
0 8 8 0.2160 -0.0353
0 8 9 -0.0095 0.0475
0 8 10 -0.0803 0.0135
0 8 11 0.0380 -0.0791
0 9 0 -0.3010 0.1431
0 9 1 0.4464 -0.0547
0 9 2 -0.5937 -0.0313
0 9 3 0.5796 0.0358
0 9 4 -0.3608 0.0141
0 9 5 0.1687 -0.0338
0 9 6 -0.2073 0.0038
0 9 7 0.3241 0.0140
0 9 8 -0.2315 0.0150
0 10 0 0.2052 -0.1979
0 10 1 0.1320 0.0728
0 10 2 -0.2573 0.0435
0 10 3 0.0423 -0.0364
0 10 4 0.1846 -0.0435
0 10 5 -0.1541 0.0754
0 10 6 -0.0111 -0.0387
0 11 0 0.0539 0.1808
0 11 1 -0.0075 -0.1017
0 11 2 -0.0608 0.0183
1 -11 0 0.3615 0.0908
1 -11 1 0.1769 -0.0386
1 -11 2 -0.1859 0.0100
1 -11 3 -0.0895 0.0020
1 -11 4 0.1570 -0.0145
1 -11 5 0.0549 0.0245
1 -11 6 -0.2503 -0.0228
1 -11 7 0.2444 0.0153
1 -11 8 -0.1178 -0.0173
1 -11 9 0.0074 0.0323
1 -10 0 -0.2076 -0.1897
1 -10 1 0.1056 0.0941
1 -10 2 -0.0184 0.0053
1 -10 3 0.0442 -0.0364
1 -10 4 -0.1080 0.0078
1 -10 5 0.1176 0.0179
1 -10 6 -0.0697 -0.0082
1 -10 7 0.0206 -0.0106
1 -10 8 -0.0211 0.0081
1 -10 9 0.0630 0.0052
1 -10 10 -0.0775 -0.0088
1 -10 11 0.0239 0.0141
1 -10 12 0.0363 -0.0399
1 -9 0 0.0293 0.1870
1 -9 1 -0.1007 -0.0705
1 -9 2 -0.0076 -0.0322
1 -9 3 0.0139 0.0389
1 -9 4 0.1383 0.0134
1 -9 5 -0.1781 -0.0348
1 -9 6 -0.0324 0.0039
1 -9 7 0.2317 0.0214
1 -9 8 -0.1558 -0.0056
1 -9 9 -0.0400 -0.0151
1 -9 10 0.0346 0.0034
1 -9 11 0.1498 0.0150
1 -9 12 -0.2104 0.0020
1 -9 13 0.0543 -0.0388
1 -9 14 0.0956 0.0452
1 -8 0 0.0398 -0.1993
1 -8 1 -0.0328 0.0835
1 -8 2 0.0660 0.0215
1 -8 3 0.0639 -0.0350
1 -8 4 -0.3305 -0.0063
1 -8 5 0.4493 0.0205
1 -8 6 -0.2949 0.0049
1 -8 7 0.0887 -0.0170
1 -8 8 -0.0495 -0.0051
1 -8 9 0.0939 0.0193
1 -8 10 -0.0470 0.0031
1 -8 11 -0.0525 -0.0287
1 -8 12 0.0562 0.0182
1 -8 13 0.0296 0.0092
1 -8 14 -0.0794 -0.0104
1 -8 15 0.0578 -0.0126
1 -7 0 -0.4513 0.2241
1 -7 1 0.3992 -0.0983
1 -7 2 -0.1011 -0.0316
1 -7 3 -0.1838 0.0541
1 -7 4 0.2349 0.0039
1 -7 5 -0.1348 -0.0333
1 -7 6 0.1305 -0.0005
1 -7 7 -0.2496 0.0289
1 -7 8 0.2709 -0.0049
1 -7 9 -0.1056 -0.0282
1 -7 10 -0.0434 0.0188
1 -7 11 -0.0034 0.0109
1 -7 12 0.1423 -0.0142
1 -7 13 -0.1733 -0.0024
1 -7 14 0.0774 0.0037
1 -7 15 0.0256 0.0078
1 -7 16 -0.0671 -0.0048
1 -6 0 0.0662 -0.2098
1 -6 1 -0.0590 0.0841
1 -6 2 -0.1061 0.0426
1 -6 3 0.2493 -0.0546
1 -6 4 -0.2010 -0.0142
1 -6 5 0.0446 0.0413
1 -6 6 -0.0253 0.0059
1 -6 7 0.2041 -0.0410
1 -6 8 -0.3775 0.0108
1 -6 9 0.3718 0.0268
1 -6 10 -0.2435 -0.0105
1 -6 11 0.1482 -0.0257
1 -6 12 -0.1521 0.0194
1 -6 13 0.2166 0.0180
1 -6 14 -0.2555 -0.0320
1 -6 15 0.1864 0.0133
1 -6 16 -0.0144 0.0056
1 -6 17 -0.1356 -0.0139
1 -5 0 0.0089 0.2980
1 -5 1 -0.0678 -0.1124
1 -5 2 0.0801 -0.0563
1 -5 3 0.0224 0.0644
1 -5 4 -0.2278 0.0210
1 -5 5 0.4092 -0.0454
1 -5 6 -0.4319 -0.0136
1 -5 7 0.2568 0.0449
1 -5 8 0.0447 0.0038
1 -5 9 -0.3358 -0.0501
1 -5 10 0.4845 0.0195
1 -5 11 -0.4402 0.0370
1 -5 12 0.2721 -0.0326
1 -5 13 -0.1145 -0.0186
1 -5 14 0.0478 0.0330
1 -5 15 -0.0404 0.0119
1 -5 16 0.0239 -0.0570
1 -5 17 0.0059 0.0576
1 -4 0 -0.7087 -0.3551
1 -4 1 0.9192 0.1425
1 -4 2 -0.9749 0.0549
1 -4 3 0.5877 -0.0738
1 -4 4 0.1036 -0.0165
1 -4 5 -0.5959 0.0507
1 -4 6 0.5709 0.0042
1 -4 7 -0.2080 -0.0423
1 -4 8 -0.0845 0.0042
1 -4 9 0.1267 0.0407
1 -4 10 -0.0643 -0.0207
1 -4 11 0.0766 -0.0241
1 -4 12 -0.1444 0.0178
1 -4 13 0.1551 0.0230
1 -4 14 -0.0986 -0.0237
1 -4 15 0.0399 -0.0194
1 -4 16 0.0112 0.0334
1 -4 17 -0.0734 0.0099
1 -4 18 0.1014 -0.0518
1 -3 0 0.4967 0.3109
1 -3 1 -0.8040 -0.1279
1 -3 2 1.1507 -0.0442
1 -3 3 -1.2363 0.0580
1 -3 4 0.8544 0.0210
1 -3 5 -0.2368 -0.0441
1 -3 6 -0.1165 -0.0099
1 -3 7 -0.0177 0.0402
1 -3 8 0.3417 -0.0002
1 -3 9 -0.4243 -0.0383
1 -3 10 0.2068 0.0124
1 -3 11 0.0254 0.0326
1 -3 12 -0.0833 -0.0247
1 -3 13 0.0605 -0.0154
1 -3 14 -0.0826 0.0137
1 -3 15 0.1057 0.0289
1 -3 16 -0.0550 -0.0336
1 -3 17 -0.0137 -0.0293
1 -3 18 0.0168 0.0894
1 -2 1 -3.7671 0.1393
1 -2 2 2.5176 0.0558
1 -2 3 -0.4835 -0.0629
1 -2 4 -0.9419 -0.0298
1 -2 5 1.2018 0.0485
1 -2 6 -0.8782 0.0176
1 -2 7 0.6975 -0.0473
1 -2 8 -0.6887 -0.0010
1 -2 9 0.4767 0.0395
1 -2 10 -0.0275 -0.0068
1 -2 11 -0.2875 -0.0388
1 -2 12 0.2608 0.0218
1 -2 13 -0.1073 0.0301
1 -2 14 0.0834 -0.0364
1 -2 15 -0.1328 -0.0059
1 -2 16 0.0726 0.0172
1 -2 17 0.0683 0.0405
1 -2 18 -0.1111 -0.1028
1 -1 0 -11.7593 0.3137
1 -1 1 11.8526 -0.0907
1 -1 2 -8.3014 -0.0949
1 -1 3 3.3051 0.0691
1 -1 4 0.3086 0.0517
1 -1 5 -1.5552 -0.0680
1 -1 6 1.4231 -0.0191
1 -1 7 -1.1096 0.0579
1 -1 8 0.8919 -0.0006
1 -1 9 -0.5837 -0.0451
1 -1 10 0.2431 0.0076
1 -1 11 -0.0621 0.0432
1 -1 12 0.0057 -0.0238
1 -1 13 0.0587 -0.0301
1 -1 14 -0.0901 0.0303
1 -1 15 0.0024 0.0196
1 -1 16 0.1011 -0.0318
1 -1 17 -0.0693 -0.0287
1 -1 18 -0.0396 0.0901
1 0 0 1.5946 -0.3749
1 0 1 -1.8804 0.1603
1 0 2 1.3280 0.0711
1 0 3 -0.2554 -0.0916
1 0 4 -0.5348 -0.0281
1 0 5 0.8106 0.0701
1 0 6 -0.9346 0.0075
1 0 7 1.0578 -0.0603
1 0 8 -0.9246 0.0138
1 0 9 0.4885 0.0408
1 0 10 -0.1476 -0.0203
1 0 11 0.1756 -0.0242
1 0 12 -0.3340 0.0120
1 0 13 0.2905 0.0335
1 0 14 -0.1058 -0.0335
1 0 15 0.0354 -0.0157
1 0 16 -0.0825 0.0375
1 0 17 0.0489 0.0113
1 0 18 0.0952 -0.0805
1 1 0 2.9342 0.3974
1 1 1 -1.9422 -0.1669
1 1 2 0.8336 -0.0931
1 1 3 -0.2317 0.1234
1 1 4 0.0902 0.0116
1 1 5 -0.1265 -0.0746
1 1 6 0.2380 0.0072
1 1 7 -0.3921 0.0463
1 1 8 0.4245 -0.0054
1 1 9 -0.2115 -0.0445
1 1 10 -0.0658 0.0219
1 1 11 0.0840 0.0292
1 1 12 0.1785 -0.0314
1 1 13 -0.3817 -0.0108
1 1 14 0.2993 0.0333
1 1 15 -0.1397 0.0028
1 1 16 0.2001 -0.0761
1 1 17 -0.3788 0.1247
1 2 0 -2.6412 -0.3280
1 2 1 2.2601 0.1159
1 2 2 -1.5322 0.0991
1 2 3 0.8286 -0.1013
1 2 4 -0.3261 -0.0253
1 2 5 0.0606 0.0651
1 2 6 -0.0358 0.0091
1 2 7 0.2239 -0.0511
1 2 8 -0.5055 0.0034
1 2 9 0.7012 0.0390
1 2 10 -0.7239 -0.0131
1 2 11 0.6522 -0.0246
1 2 12 -0.5734 0.0193
1 2 13 0.4201 0.0024
1 2 14 -0.1186 -0.0059
1 2 15 -0.1569 -0.0008
1 2 16 0.1361 0.0167
1 2 17 0.1207 -0.0571
1 3 0 0.1794 0.3291
1 3 1 -0.3939 -0.1399
1 3 2 0.5346 -0.0759
1 3 3 -0.5917 0.1044
1 3 4 0.6000 0.0111
1 3 5 -0.5997 -0.0673
1 3 6 0.5590 0.0046
1 3 7 -0.4129 0.0453
1 3 8 0.1899 -0.0045
1 3 9 -0.0117 -0.0374
1 3 10 -0.0565 0.0037
1 3 11 0.0644 0.0385
1 3 12 -0.0598 -0.0141
1 3 13 0.0274 -0.0263
1 3 14 0.0116 0.0178
1 3 15 0.0246 -0.0109
1 3 16 -0.1272 0.0667
1 4 0 0.5518 -0.2722
1 4 1 -0.4906 0.1161
1 4 2 0.1803 0.0666
1 4 3 0.2420 -0.0876
1 4 4 -0.5930 -0.0230
1 4 5 0.8071 0.0763
1 4 6 -0.8998 -0.0058
1 4 7 0.8509 -0.0565
1 4 8 -0.6357 0.0137
1 4 9 0.3374 0.0457
1 4 10 -0.0949 -0.0176
1 4 11 -0.0487 -0.0363
1 4 12 0.1225 0.0123
1 4 13 -0.0946 0.0360
1 4 14 -0.0642 0.0148
1 4 15 0.2172 -0.1297
1 5 0 -0.4035 0.2516
1 5 1 0.4933 -0.0932
1 5 2 -0.3464 -0.0655
1 5 3 -0.0460 0.0665
1 5 4 0.4494 0.0319
1 5 5 -0.6750 -0.0642
1 5 6 0.7260 -0.0013
1 5 7 -0.6431 0.0459
1 5 8 0.4132 -0.0036
1 5 9 -0.1070 -0.0442
1 5 10 -0.0856 0.0131
1 5 11 0.0792 0.0460
1 5 12 -0.0093 -0.0287
1 5 13 0.0147 -0.0624
1 5 14 -0.0401 0.1228
1 6 0 0.0576 -0.2675
1 6 1 -0.1676 0.1032
1 6 2 0.1247 0.0627
1 6 3 0.1012 -0.0723
1 6 4 -0.2221 -0.0197
1 6 5 0.0724 0.0609
1 6 6 0.1221 -0.0140
1 6 7 -0.0771 -0.0325
1 6 8 -0.1404 0.0184
1 6 9 0.2359 0.0187
1 6 10 -0.1159 -0.0232
1 6 11 -0.0243 -0.0026
1 6 12 0.0233 0.0246
1 6 13 0.0455 -0.0318
1 7 0 -0.0045 0.1992
1 7 1 0.1928 -0.0701
1 7 2 -0.3311 -0.0526
1 7 3 0.2619 0.0534
1 7 4 -0.0919 0.0188
1 7 5 0.0427 -0.0435
1 7 6 -0.1149 -0.0019
1 7 7 0.0964 0.0352
1 7 8 0.0746 -0.0135
1 7 9 -0.1839 -0.0003
1 7 10 0.0820 -0.0545
1 7 11 0.0660 0.1266
1 8 0 -0.0320 -0.2250
1 8 1 -0.0476 0.0976
1 8 2 0.1510 0.0466
1 8 3 -0.1050 -0.0723
1 8 4 -0.1192 -0.0004
1 8 5 0.2739 0.0460
1 8 6 -0.1565 -0.0059
1 8 7 -0.0691 -0.0533
1 8 8 0.1036 0.0546
1 8 9 0.0537 -0.0176
1 9 0 -0.2832 0.2600
1 9 1 0.0665 -0.0947
1 9 2 0.2155 -0.0627
1 9 3 -0.3483 0.0642
1 9 4 0.2944 0.0252
1 9 5 -0.1561 -0.0500
1 9 6 0.0340 -0.0164
1 9 7 0.0170 0.0706
1 10 0 -0.1161 -0.1927
1 10 1 0.0171 0.0748
1 10 2 -0.0274 0.0278
1 10 3 0.1583 -0.0029
1 10 4 -0.2506 -0.0729
2 -12 0 -0.0827 -0.0692
2 -12 1 -0.2919 0.0337
2 -12 2 0.2995 -0.0047
2 -12 3 -0.0656 -0.0142
2 -12 4 -0.0544 0.0329
2 -12 5 -0.0409 -0.0464
2 -11 0 0.0415 0.1682
2 -11 1 0.0479 -0.0651
2 -11 2 -0.0804 -0.0339
2 -11 3 -0.0484 0.0500
2 -11 4 0.2387 -0.0054
2 -11 5 -0.3066 -0.0262
2 -11 6 0.2152 0.0143
2 -11 7 -0.0977 0.0090
2 -11 8 0.0689 -0.0077
2 -11 9 -0.0947 -0.0146
2 -11 10 0.0739 0.0340
2 -10 0 -0.1813 -0.1893
2 -10 1 0.2408 0.0612
2 -10 2 -0.1377 0.0530
2 -10 3 0.1602 -0.0497
2 -10 4 -0.3410 -0.0157
2 -10 5 0.3737 0.0346
2 -10 6 -0.1298 0.0042
2 -10 7 -0.0972 -0.0290
2 -10 8 0.0459 0.0088
2 -10 9 0.1088 0.0169
2 -10 10 -0.0599 -0.0182
2 -10 11 -0.1449 0.0171
2 -10 12 0.2145 -0.0345
2 -9 0 0.4353 0.2381
2 -9 1 -0.3454 -0.0865
2 -9 2 0.0916 -0.0547
2 -9 3 -0.0283 0.0553
2 -9 4 0.2076 0.0193
2 -9 5 -0.3145 -0.0401
2 -9 6 0.1711 -0.0018
2 -9 7 0.0317 0.0259
2 -9 8 -0.0763 -0.0081
2 -9 9 0.0066 -0.0035
2 -9 10 0.0315 -0.0074
2 -9 11 -0.0174 0.0014
2 -9 12 0.0022 0.0349
2 -9 13 0.0121 -0.0588
2 -9 14 -0.0337 0.0411
2 -8 0 -0.2957 -0.2784
2 -8 1 0.1763 0.1104
2 -8 2 -0.1475 0.0598
2 -8 3 0.2442 -0.0725
2 -8 4 -0.2897 -0.0158
2 -8 5 0.1812 0.0523
2 -8 6 -0.0788 -0.0063
2 -8 7 0.1245 -0.0304
2 -8 8 -0.2071 0.0104
2 -8 9 0.1874 0.0172
2 -8 10 -0.1252 -0.0114
2 -8 11 0.1035 -0.0045
2 -8 12 -0.0378 0.0066
2 -8 13 -0.1478 -0.0124
2 -8 14 0.3254 0.0319
2 -8 15 -0.3245 -0.0365
2 -7 0 0.2924 0.2956
2 -7 1 -0.2852 -0.1163
2 -7 2 0.2436 -0.0687
2 -7 3 -0.2377 0.0842
2 -7 4 0.2119 0.0157
2 -7 5 -0.1112 -0.0614
2 -7 6 0.0253 0.0092
2 -7 7 -0.0604 0.0403
2 -7 8 0.1642 -0.0219
2 -7 9 -0.2006 -0.0155
2 -7 10 0.1317 0.0152
2 -7 11 -0.0346 0.0035
2 -7 12 -0.0170 -0.0017
2 -7 13 0.0230 -0.0119
2 -7 14 -0.0344 0.0128
2 -7 15 0.0890 -0.0095
2 -7 16 -0.1559 0.0176
2 -6 0 -0.2863 -0.3700
2 -6 1 0.3232 0.1479
2 -6 2 -0.3208 0.0728
2 -6 3 0.1327 -0.0926
2 -6 4 0.1475 -0.0160
2 -6 5 -0.3161 0.0624
2 -6 6 0.3160 -0.0057
2 -6 7 -0.2116 -0.0384
2 -6 8 0.0491 0.0046
2 -6 9 0.1191 0.0384
2 -6 10 -0.1885 -0.0187
2 -6 11 0.1198 -0.0283
2 -6 12 -0.0241 0.0293
2 -6 13 0.0212 0.0117
2 -6 14 -0.0749 -0.0286
2 -6 15 0.0679 -0.0080
2 -6 16 0.0085 0.0601
2 -6 17 -0.0493 -0.0813
2 -5 0 0.6491 0.3426
2 -5 1 -0.9359 -0.1289
2 -5 2 1.0162 -0.0782
2 -5 3 -0.6230 0.0876
2 -5 4 -0.1064 0.0228
2 -5 5 0.7269 -0.0651
2 -5 6 -0.9490 0.0025
2 -5 7 0.8149 0.0484
2 -5 8 -0.5122 -0.0177
2 -5 9 0.2071 -0.0311
2 -5 10 -0.0178 0.0210
2 -5 11 -0.0159 0.0239
2 -5 12 -0.0310 -0.0314
2 -5 13 0.0426 -0.0064
2 -5 14 0.0020 0.0315
2 -5 15 -0.0132 -0.0101
2 -5 16 -0.0692 -0.0288
2 -5 17 0.1668 0.0460
2 -4 0 -1.1342 -0.3290
2 -4 1 1.1348 0.1246
2 -4 2 -1.0942 0.0787
2 -4 3 1.0040 -0.0919
2 -4 4 -0.7162 -0.0150
2 -4 5 0.2195 0.0614
2 -4 6 0.2406 -0.0086
2 -4 7 -0.4199 -0.0381
2 -4 8 0.3470 0.0156
2 -4 9 -0.2341 0.0220
2 -4 10 0.1978 -0.0131
2 -4 11 -0.1822 -0.0197
2 -4 12 0.1219 0.0204
2 -4 13 -0.0517 0.0113
2 -4 14 0.0332 -0.0272
2 -4 15 -0.0642 0.0035
2 -4 16 0.1043 0.0328
2 -4 17 -0.1265 -0.0475
2 -3 0 -0.5382 0.3496
2 -3 1 0.4921 -0.1379
2 -3 2 0.0775 -0.0750
2 -3 3 -0.7524 0.0939
2 -3 4 1.0055 0.0118
2 -3 5 -0.8443 -0.0589
2 -3 6 0.7026 0.0081
2 -3 7 -0.7418 0.0361
2 -3 8 0.6392 -0.0130
2 -3 9 -0.1549 -0.0237
2 -3 10 -0.4307 0.0153
2 -3 11 0.6561 0.0166
2 -3 12 -0.4568 -0.0183
2 -3 13 0.1723 -0.0137
2 -3 14 -0.0667 0.0323
2 -3 15 0.0751 -0.0046
2 -3 16 -0.0343 -0.0497
2 -3 17 -0.0461 0.0824
2 -2 0 4.3931 -0.2519
2 -2 1 -4.4954 0.0870
2 -2 2 2.9147 0.0729
2 -2 3 -0.7839 -0.0729
2 -2 4 -0.6342 -0.0203
2 -2 5 1.1090 0.0516
2 -2 6 -1.1836 0.0018
2 -2 7 1.1753 -0.0378
2 -2 8 -0.9262 0.0053
2 -2 9 0.3796 0.0358
2 -2 10 0.1348 -0.0242
2 -2 11 -0.3002 -0.0159
2 -2 12 0.1725 0.0237
2 -2 13 0.0010 0.0102
2 -2 14 -0.1039 -0.0361
2 -2 15 0.1559 0.0084
2 -2 16 -0.1592 0.0603
2 -2 17 0.0962 -0.1100
2 -1 0 2.1993 0.2876
2 -1 1 -2.1925 -0.1189
2 -1 2 1.9898 -0.0531
2 -1 3 -1.7019 0.0689
2 -1 4 1.2939 0.0178
2 -1 5 -0.8219 -0.0529
2 -1 6 0.4525 0.0030
2 -1 7 -0.2628 0.0372
2 -1 8 0.1742 -0.0137
2 -1 9 -0.1026 -0.0220
2 -1 10 0.0656 0.0145
2 -1 11 -0.1080 0.0165
2 -1 12 0.1939 -0.0221
2 -1 13 -0.2301 -0.0040
2 -1 14 0.1798 0.0232
2 -1 15 -0.1121 0.0025
2 -1 16 0.1130 -0.0703
2 -1 17 -0.1667 0.1289
2 0 0 -4.1914 -0.3244
2 0 1 3.9010 0.1124
2 0 2 -2.8679 0.0741
2 0 3 1.7794 -0.0717
2 0 4 -1.0250 -0.0312
2 0 5 0.5069 0.0585
2 0 6 -0.0576 0.0066
2 0 7 -0.2424 -0.0469
2 0 8 0.2777 0.0130
2 0 9 -0.1748 0.0272
2 0 10 0.1239 -0.0168
2 0 11 -0.0763 -0.0187
2 0 12 -0.1063 0.0319
2 0 13 0.2995 -0.0101
2 0 14 -0.2431 -0.0290
2 0 15 -0.0025 0.0490
2 0 16 0.0852 -0.0142
2 0 17 0.0946 -0.0584
2 1 0 2.7383 0.3273
2 1 1 -2.7030 -0.1196
2 1 2 1.9562 -0.0583
2 1 3 -1.0049 0.0580
2 1 4 0.3782 0.0340
2 1 5 -0.1511 -0.0555
2 1 6 0.0591 -0.0053
2 1 7 0.0709 0.0395
2 1 8 -0.1811 -0.0057
2 1 9 0.1872 -0.0283
2 1 10 -0.1093 0.0151
2 1 11 -0.0074 0.0116
2 1 12 0.1256 -0.0159
2 1 13 -0.1464 0.0061
2 1 14 -0.0136 0.0130
2 1 15 0.2283 -0.0525
2 1 16 -0.2432 0.0858
2 2 0 -0.0174 -0.2660
2 2 1 0.3100 0.1032
2 2 2 -0.4356 0.0497
2 2 3 0.3752 -0.0632
2 2 4 -0.2967 -0.0158
2 2 5 0.2803 0.0497
2 2 6 -0.2151 -0.0017
2 2 7 -0.0024 -0.0369
2 2 8 0.2690 0.0085
2 2 9 -0.3787 0.0268
2 2 10 0.2963 -0.0087
2 2 11 -0.2028 -0.0192
2 2 12 0.2386 0.0008
2 2 13 -0.3317 0.0245
2 2 14 0.3521 -0.0032
2 2 15 -0.3074 -0.0158
2 2 16 0.2629 -0.0376
2 3 0 -0.3337 0.2011
2 3 1 0.4352 -0.0680
2 3 2 -0.3530 -0.0503
2 3 3 0.1627 0.0500
2 3 4 0.0597 0.0220
2 3 5 -0.2824 -0.0445
2 3 6 0.4757 -0.0089
2 3 7 -0.5615 0.0471
2 3 8 0.4663 -0.0123
2 3 9 -0.2267 -0.0309
2 3 10 -0.0326 0.0100
2 3 11 0.2326 0.0295
2 3 12 -0.3647 -0.0064
2 3 13 0.3904 -0.0394
2 3 14 -0.2606 -0.0009
2 3 15 0.0555 0.1123
2 4 0 -0.0437 -0.2503
2 4 1 -0.1314 0.0812
2 4 2 0.1072 0.0578
2 4 3 0.1702 -0.0532
2 4 4 -0.4552 -0.0212
2 4 5 0.5150 0.0395
2 4 6 -0.3976 0.0081
2 4 7 0.2635 -0.0366
2 4 8 -0.1260 0.0054
2 4 9 -0.0648 0.0322
2 4 10 0.2148 -0.0164
2 4 11 -0.1876 -0.0299
2 4 12 0.0505 0.0309
2 4 13 -0.0013 0.0373
2 4 14 0.0705 -0.1085
2 5 0 -0.0420 0.2711
2 5 1 -0.0724 -0.0967
2 5 2 0.3684 -0.0537
2 5 3 -0.6665 0.0567
2 5 4 0.6188 0.0154
2 5 5 -0.1530 -0.0348
2 5 6 -0.3365 -0.0118
2 5 7 0.4210 0.0434
2 5 8 -0.1473 -0.0146
2 5 9 -0.0827 -0.0348
2 5 10 0.0708 0.0425
2 5 11 -0.0073 0.0054
2 5 12 0.0811 -0.0685
2 5 13 -0.1826 0.0984
2 6 0 0.0025 -0.2280
2 6 1 0.0865 0.0840
2 6 2 -0.0333 0.0402
2 6 3 -0.1380 -0.0429
2 6 4 0.2649 -0.0181
2 6 5 -0.2766 0.0319
2 6 6 0.2192 0.0133
2 6 7 -0.1180 -0.0332
2 6 8 -0.0151 -0.0130
2 6 9 0.0972 0.0526
2 6 10 -0.0669 -0.0026
2 6 11 0.0067 -0.0999
2 7 0 0.2665 0.2621
2 7 1 -0.2123 -0.1176
2 7 2 -0.0058 -0.0358
2 7 3 0.1986 0.0641
2 7 4 -0.1275 0.0091
2 7 5 -0.1227 -0.0573
2 7 6 0.2319 0.0206
2 7 7 -0.0947 0.0313
2 7 8 -0.0696 -0.0111
2 7 9 0.0722 -0.0629
2 8 0 -0.0133 -0.2245
2 8 1 0.0528 0.0729
2 8 2 -0.1711 0.0597
2 8 3 0.2040 -0.0543
2 8 4 -0.0654 -0.0193
2 8 5 -0.1433 0.0323
2 8 6 0.2637 0.0169
2 8 7 -0.2389 -0.0296
2 9 0 0.3447 0.1739
2 9 1 -0.2552 -0.0546
2 9 2 0.2083 -0.0461
2 9 3 -0.1837 0.0378
2 9 4 0.0943 0.0048
2 10 0 0.3367 -0.1533
3 -12 0 0.2468 -0.1077
3 -12 1 -0.1712 0.0179
3 -12 2 0.0483 0.0303
3 -12 3 0.0415 -0.0133
3 -12 4 -0.0330 -0.0224
3 -12 5 -0.0607 0.0375
3 -12 6 0.1397 -0.0334
3 -11 0 -0.2175 0.2008
3 -11 1 0.1685 -0.0729
3 -11 2 -0.0360 -0.0291
3 -11 3 -0.1823 0.0289
3 -11 4 0.3379 0.0089
3 -11 5 -0.2560 -0.0094
3 -11 7 0.1387 0.0055
3 -11 8 -0.0649 0.0195
3 -11 9 -0.0618 -0.0319
3 -11 10 0.0722 0.0339
3 -10 0 -0.0374 -0.2453
3 -10 1 -0.1220 0.0790
3 -10 2 0.2881 0.0554
3 -10 3 -0.2225 -0.0477
3 -10 4 -0.0198 -0.0189
3 -10 5 0.1794 0.0305
3 -10 6 -0.1410 0.0023
3 -10 7 0.0041 -0.0123
3 -10 8 0.1156 -0.0007
3 -10 9 -0.1696 -0.0012
3 -10 10 0.1225 0.0060
3 -10 11 0.0125 0.0208
3 -10 12 -0.1214 -0.0593
3 -9 0 0.2683 0.2373
3 -9 1 -0.0247 -0.0830
3 -9 2 -0.1983 -0.0438
3 -9 3 0.2149 0.0412
3 -9 4 -0.1437 0.0166
3 -9 5 0.1274 -0.0227
3 -9 6 -0.1123 -0.0128
3 -9 7 0.0329 0.0187
3 -9 8 0.0327 0.0095
3 -9 9 -0.0273 -0.0189
3 -9 10 0.0181 -0.0037
3 -9 11 -0.0252 0.0241
3 -9 12 -0.0467 -0.0310
3 -9 13 0.2011 0.0471
3 -8 0 -0.1085 -0.2504
3 -8 1 0.0652 0.0877
3 -8 2 -0.0286 0.0457
3 -8 3 -0.0308 -0.0450
3 -8 4 0.1178 -0.0199
3 -8 5 -0.1852 0.0356
3 -8 6 0.2152 0.0037
3 -8 7 -0.2270 -0.0264
3 -8 8 0.2035 0.0055
3 -8 9 -0.1113 0.0190
3 -8 10 -0.0010 -0.0164
3 -8 11 0.0270 0.0008
3 -8 12 0.0501 0.0111
3 -8 13 -0.1284 -0.0266
3 -8 14 0.1280 0.0470
3 -8 15 -0.0781 -0.0494
3 -7 0 0.0090 0.2525
3 -7 1 0.2994 -0.0855
3 -7 2 -0.0681 -0.0469
3 -7 3 0.0074 0.0463
3 -7 4 -0.2176 0.0148
3 -7 5 0.2888 -0.0299
3 -7 6 -0.1294 -0.0046
3 -7 7 0.0366 0.0238
3 -7 8 -0.1288 -0.0056
3 -7 9 0.2292 -0.0118
3 -7 10 -0.2340 0.0027
3 -7 11 0.2115 0.0100
3 -7 12 -0.1762 0.0001
3 -7 13 0.0656 -0.0187
3 -7 14 0.0769 0.0139
3 -7 15 -0.1247 0.0141
3 -6 0 0.4526 -0.1943
3 -6 1 -0.0539 0.0560
3 -6 2 -0.3684 0.0467
3 -6 3 0.3268 -0.0341
3 -6 4 0.1174 -0.0223
3 -6 5 -0.4758 0.0292
3 -6 6 0.5225 0.0088
3 -6 7 -0.4308 -0.0282
3 -6 8 0.3542 0.0087
3 -6 9 -0.2692 0.0132
3 -6 10 0.1911 -0.0089
3 -6 11 -0.2117 -0.0073
3 -6 12 0.2940 0.0102
3 -6 13 -0.2733 0.0006
3 -6 14 0.1139 -0.0102
3 -6 15 0.0164 0.0163
3 -6 16 0.0089 -0.0266
3 -5 0 0.1555 0.2463
3 -5 1 0.1426 -0.0822
3 -5 2 -0.3740 -0.0532
3 -5 3 0.2770 0.0504
3 -5 4 0.0075 0.0185
3 -5 5 -0.1578 -0.0370
3 -5 6 0.0424 -0.0017
3 -5 7 0.2082 0.0251
3 -5 8 -0.3905 -0.0051
3 -5 9 0.4129 -0.0182
3 -5 10 -0.3360 0.0134
3 -5 11 0.2728 0.0017
3 -5 12 -0.2508 -0.0006
3 -5 13 0.1992 -0.0125
3 -5 14 -0.0830 0.0202
3 -5 15 -0.0148 -0.0227
3 -5 16 0.0025 0.0293
3 -4 0 0.5457 -0.2827
3 -4 1 -0.6509 0.1056
3 -4 2 0.6051 0.0507
3 -4 3 -0.5035 -0.0581
3 -4 4 0.3966 -0.0187
3 -4 5 -0.1737 0.0479
3 -4 6 -0.2442 -0.0060
3 -4 7 0.6558 -0.0307
3 -4 8 -0.7333 0.0158
3 -4 9 0.4153 0.0163
3 -4 10 0.0254 -0.0192
3 -4 11 -0.3050 -0.0036
3 -4 12 0.3692 0.0181
3 -4 13 -0.3131 -0.0114
3 -4 14 0.2163 0.0032
3 -4 15 -0.1149 -0.0146
3 -4 16 0.0422 0.0412
3 -4 17 -0.0178 -0.0599
3 -3 0 -1.4348 0.2498
3 -3 1 1.1694 -0.1104
3 -3 2 -0.7232 -0.0265
3 -3 3 0.5180 0.0505
3 -3 4 -0.4642 0.0037
3 -3 5 0.1493 -0.0335
3 -3 6 0.4843 0.0054
3 -3 7 -0.9860 0.0278
3 -3 8 0.9673 -0.0193
3 -3 9 -0.5445 -0.0125
3 -3 10 0.1100 0.0215
3 -3 11 0.1116 0.0024
3 -3 12 -0.1416 -0.0247
3 -3 13 0.0618 0.0124
3 -3 14 0.0586 0.0221
3 -3 15 -0.1273 -0.0316
3 -3 16 0.0825 -0.0099
3 -3 17 0.0219 0.0699
3 -2 0 -1.4745 -0.2617
3 -2 1 1.9525 0.1105
3 -2 2 -1.6502 0.0347
3 -2 3 0.7508 -0.0595
3 -2 4 0.1106 0.0019
3 -2 5 -0.4911 0.0317
3 -2 6 0.4721 -0.0108
3 -2 7 -0.3466 -0.0132
3 -2 8 0.2285 0.0052
3 -2 9 -0.0920 0.0123
3 -2 10 -0.0201 -0.0099
3 -2 11 0.0331 -0.0076
3 -2 12 0.0094 0.0186
3 -2 13 -0.0020 -0.0114
3 -2 14 -0.0665 -0.0092
3 -2 15 0.1341 0.0213
3 -2 16 -0.1872 -0.0004
3 -2 17 0.2394 -0.0483
3 -1 0 1.7996 0.2760
3 -1 1 -1.9644 -0.0905
3 -1 2 1.4968 -0.0626
3 -1 3 -0.6796 0.0604
3 -1 4 -0.0567 0.0178
3 -1 5 0.5330 -0.0380
3 -1 6 -0.7793 -0.0069
3 -1 7 0.7903 0.0312
3 -1 8 -0.5521 -0.0060
3 -1 9 0.2126 -0.0187
3 -1 10 0.0141 0.0122
3 -1 11 -0.0984 0.0006
3 -1 12 0.1601 -0.0005
3 -1 13 -0.2036 -0.0005
3 -1 14 0.1052 0.0011
3 -1 15 0.1113 -0.0188
3 -1 16 -0.2222 0.0469
3 0 0 -0.5909 -0.3120
3 0 1 0.5268 0.1180
3 0 2 -0.1590 0.0566
3 0 3 -0.3230 -0.0734
3 0 4 0.6073 -0.0062
3 0 5 -0.5767 0.0427
3 0 6 0.3803 -0.0048
3 0 7 -0.2420 -0.0284
3 0 8 0.2522 0.0105
3 0 9 -0.3293 0.0151
3 0 10 0.3373 -0.0081
3 0 11 -0.2274 -0.0059
3 0 12 0.0774 -0.0019
3 0 13 -0.0075 0.0082
3 0 14 0.0623 0.0059
3 0 15 -0.1677 -0.0022
3 0 16 0.2046 -0.0482
3 1 0 -1.0729 0.2507
3 1 1 1.0449 -0.0929
3 1 2 -0.8739 -0.0521
3 1 3 0.6999 0.0663
3 1 4 -0.5485 0.0093
3 1 5 0.4027 -0.0482
3 1 6 -0.2953 0.0062
3 1 7 0.2800 0.0371
3 1 8 -0.3249 -0.0152
3 1 9 0.3127 -0.0253
3 1 10 -0.2017 0.0147
3 1 11 0.1145 0.0183
3 1 12 -0.1680 -0.0091
3 1 13 0.2800 -0.0129
3 1 14 -0.2806 -0.0257
3 1 15 0.1697 0.0919
3 2 0 0.7794 -0.2535
3 2 1 -0.8673 0.0966
3 2 2 0.7294 0.0494
3 2 3 -0.5234 -0.0619
3 2 4 0.3695 -0.0117
3 2 5 -0.2927 0.0459
3 2 6 0.2436 -0.0055
3 2 7 -0.1803 -0.0315
3 2 8 0.1208 0.0070
3 2 9 -0.1004 0.0308
3 2 10 0.1174 -0.0137
3 2 11 -0.1565 -0.0293
3 2 12 0.2125 0.0205
3 2 13 -0.2476 0.0262
3 2 14 0.1950 -0.0148
3 2 15 -0.0660 -0.0713
3 3 0 -0.1267 0.3248
3 3 1 0.2041 -0.1321
3 3 2 -0.2628 -0.0478
3 3 3 0.1904 0.0688
3 3 4 -0.0629 0.0070
3 3 5 0.0554 -0.0440
3 3 6 -0.1823 0.0117
3 3 7 0.2919 0.0219
3 3 8 -0.3036 -0.0109
3 3 9 0.2875 -0.0175
3 3 10 -0.2891 0.0181
3 3 11 0.2435 0.0094
3 3 12 -0.1272 -0.0219
3 3 13 0.0434 -0.0081
3 3 14 -0.0635 0.0502
3 4 0 0.0441 -0.2817
3 4 1 0.2312 0.1137
3 4 5 0.1690 0.0418
3 4 6 0.1808 -0.0049
3 4 7 -0.3776 -0.0295
3 4 8 0.3103 0.0157
3 4 9 -0.1293 0.0157
3 4 10 0.0484 -0.0171
3 4 11 -0.0610 -0.0145
3 4 12 0.0088 0.0465
3 4 13 0.1231 -0.0573
3 5 0 0.0673 0.2225
3 5 6 0.0417 -0.0060
3 5 7 -0.0031 0.0283
3 5 8 -0.0575 0.0088
3 5 9 -0.0320 -0.0386
3 5 10 0.1901 -0.0159
3 5 11 -0.2361 0.1117
3 6 0 0.0292 -0.2154
3 6 1 -0.0053 0.0933
3 6 8 0.0155 0.0242
3 6 9 -0.0534 0.0405
3 7 0 -0.4683 0.1463
3 7 1 0.6301 -0.0480
3 8 0 -0.0708 -0.1286
3 8 1 0.0182 0.0476
3 9 0 -0.5568 0.1590
4 -12 0 0.1542 -0.1489
4 -12 1 -0.1727 0.0653
4 -12 2 0.0342 0.0132
4 -12 3 0.1372 -0.0264
4 -12 4 -0.1654 0.0184
4 -12 5 0.0319 -0.0306
4 -11 0 -0.1859 0.2047
4 -11 2 -0.3496 -0.0420
4 -11 3 0.1776 0.0378
4 -11 4 0.0146 0.0189
4 -11 5 -0.1101 -0.0307
4 -11 6 0.1233 0.0014
4 -11 7 -0.0886 0.0158
4 -11 8 -0.0040 -0.0204
4 -11 9 0.1140 0.0397
4 -10 1 -0.1708 0.0575
4 -10 2 0.3946 0.0353
4 -10 3 -0.4281 -0.0364
4 -10 4 0.3516 -0.0049
4 -10 5 -0.2488 0.0121
4 -10 6 0.1224 0.0093
4 -10 7 -0.0034 -0.0082
4 -10 8 -0.0303 -0.0155
4 -10 9 -0.0226 0.0142
4 -10 10 0.0731 0.0259
4 -10 11 -0.0752 -0.0627
4 -9 0 0.4106 0.2085
4 -9 1 -0.2392 -0.0779
4 -9 2 0.1303 -0.0380
4 -9 3 0.0654 0.0469
4 -9 4 -0.2708 0.0068
4 -9 5 0.3106 -0.0302
4 -9 6 -0.2250 0.0036
4 -9 7 0.1649 0.0197
4 -9 8 -0.1181 -0.0047
4 -9 9 -0.0027 -0.0206
4 -9 10 0.1216 0.0174
4 -9 11 -0.0963 0.0082
4 -9 12 -0.0282 -0.0232
4 -9 13 0.0833 0.0188
4 -8 0 -0.7122 -0.1880
4 -8 1 -0.1740 0.0681
4 -8 2 0.1335 0.0340
4 -8 4 0.3081 -0.0019
4 -8 5 -0.3341 0.0265
4 -8 6 0.1018 -0.0109
4 -8 7 0.0274 -0.0097
4 -8 8 0.0769 0.0103
4 -8 9 -0.1906 -0.0040
4 -8 10 0.1847 0.0072
4 -8 11 -0.1429 -0.0077
4 -8 12 0.0996 -0.0114
4 -8 13 -0.0058 0.0353
4 -8 14 -0.0924 -0.0325
4 -7 0 -0.2947 0.1853
4 -7 1 0.0682 -0.0713
4 -7 2 0.1966 -0.0272
4 -7 3 -0.1038 0.0364
4 -7 4 -0.2299 0.0051
4 -7 5 0.3776 -0.0234
4 -7 6 -0.2267 0.0054
4 -7 7 0.0478 0.0099
4 -7 8 -0.0345 -0.0014
4 -7 9 0.0980 -0.0109
4 -7 10 -0.1081 0.0079
4 -7 11 0.0775 0.0023
4 -7 12 -0.0614 -0.0092
4 -7 13 0.0512 0.0230
4 -7 14 -0.0283 -0.0493
4 -7 15 0.0143 0.0635
4 -6 0 -0.0507 -0.2624
4 -6 1 0.0140 0.1055
4 -6 2 0.2156 0.0373
4 -6 3 -0.2104 -0.0491
4 -6 4 -0.0146 -0.0112
4 -6 5 0.1442 0.0283
4 -6 6 -0.0543 0.0082
4 -6 7 -0.1254 -0.0250
4 -6 8 0.2664 -0.0027
4 -6 9 -0.3275 0.0227
4 -6 10 0.2836 -0.0032
4 -6 11 -0.1380 -0.0185
4 -6 12 -0.0317 0.0075
4 -6 13 0.1346 0.0069
4 -6 14 -0.1493 0.0155
4 -6 15 0.1090 -0.0514
4 -5 0 -0.5789 0.2650
4 -5 1 0.7241 -0.0998
4 -5 2 -0.6162 -0.0516
4 -5 3 0.3292 0.0591
4 -5 4 -0.1096 0.0143
4 -5 5 0.0567 -0.0376
4 -5 6 -0.0095 -0.0060
4 -5 7 -0.1628 0.0323
4 -5 8 0.3439 -0.0028
4 -5 9 -0.3501 -0.0278
4 -5 10 0.1856 0.0126
4 -5 11 -0.0101 0.0168
4 -5 12 -0.0610 -0.0114
4 -5 13 0.0383 -0.0116
4 -5 14 0.0092 -0.0010
4 -5 15 -0.0301 0.0489
4 -4 0 0.6156 -0.2620
4 -4 1 -0.3707 0.1089
4 -4 2 -0.0116 0.0407
4 -4 3 0.2244 -0.0607
4 -4 4 -0.2598 -0.0060
4 -4 5 0.2892 0.0387
4 -4 6 -0.3539 -0.0037
4 -4 7 0.3591 -0.0314
4 -4 8 -0.2750 0.0169
4 -4 9 0.1724 0.0154
4 -4 10 -0.0965 -0.0151
4 -4 11 0.0378 -0.0115
4 -4 12 -0.0118 0.0199
4 -4 13 0.0511 0.0051
4 -4 14 -0.1149 -0.0341
4 -4 15 0.1049 0.0382
4 -4 16 0.0024 -0.0236
4 -3 0 0.4602 0.2537
4 -3 1 -0.8028 -0.0888
4 -3 2 0.7455 -0.0616
4 -3 3 -0.3757 0.0650
4 -3 4 0.0158 0.0154
4 -3 5 0.1713 -0.0432
4 -3 6 -0.2801 -0.0009
4 -3 7 0.3944 0.0302
4 -3 8 -0.4353 -0.0048
4 -3 9 0.3272 -0.0230
4 -3 10 -0.1497 0.0103
4 -3 11 0.0343 0.0138
4 -3 12 -0.0049 -0.0101
4 -3 13 -0.0038 -0.0111
4 -3 14 0.0335 0.0212
4 -3 15 -0.0714 -0.0218
4 -3 16 0.0934 0.0294
4 -2 0 -0.2788 -0.2770
4 -2 1 0.3427 0.0922
4 -2 2 -0.2415 0.0696
4 -2 3 0.0558 -0.0628
4 -2 4 0.1556 -0.0305
4 -2 5 -0.3483 0.0537
4 -2 6 0.4417 0.0031
4 -2 7 -0.3915 -0.0325
4 -2 8 0.2711 -0.0014
4 -2 9 -0.1753 0.0262
4 -2 10 0.0844 -0.0017
4 -2 11 0.0673 -0.0196
4 -2 12 -0.2269 0.0004
4 -2 13 0.2557 0.0116
4 -2 14 -0.1250 0.0287
4 -2 15 -0.0328 -0.0759
4 -1 0 -0.3139 0.3049
4 -1 1 0.5657 -0.1195
4 -1 2 -0.7192 -0.0601
4 -1 3 0.6980 0.0797
4 -1 4 -0.5854 0.0081
4 -1 5 0.4359 -0.0511
4 -1 6 -0.2197 0.0078
4 -1 7 -0.0039 0.0306
4 -1 8 0.0624 -0.0061
4 -1 9 0.0793 -0.0239
4 -1 10 -0.2167 0.0018
4 -1 11 0.1752 0.0293
4 -1 12 -0.0402 -0.0094
4 -1 13 -0.0071 -0.0220
4 -1 14 -0.0468 -0.0094
4 -1 15 0.0858 0.0772
4 0 0 0.8347 -0.2663
4 0 1 -1.1542 0.1028
4 0 2 1.2550 0.0496
4 0 3 -1.0346 -0.0612
4 0 4 0.6524 -0.0183
4 0 5 -0.3349 0.0503
4 0 6 0.1468 0.0025
4 0 7 -0.0225 -0.0452
4 0 8 -0.0669 0.0107
4 0 9 0.0859 0.0383
4 0 10 -0.0319 -0.0199
4 0 11 -0.0467 -0.0280
4 0 12 0.1091 0.0170
4 0 13 -0.1304 0.0301
4 0 14 0.0896 -0.0094
4 0 15 -0.0094 -0.0826
4 1 0 -0.5456 0.3093
4 1 1 0.7134 -0.1191
4 1 2 -0.7446 -0.0562
4 1 3 0.5470 0.0687
4 1 4 -0.2170 0.0151
4 1 5 0.0053 -0.0472
4 1 6 -0.0269 -0.0007
4 1 7 0.1303 0.0366
4 1 8 -0.1337 -0.0058
4 1 9 0.0586 -0.0363
4 1 10 -0.0248 0.0224
4 1 11 0.0348 0.0241
4 1 12 -0.0021 -0.0310
4 1 13 -0.0794 -0.0078
4 1 14 0.1268 0.0258
4 2 0 0.0694 -0.2954
4 2 1 -0.2137 0.1112
4 2 2 0.5201 0.0563
4 2 3 -0.5952 -0.0662
4 2 4 0.3252 -0.0110
4 2 5 -0.0422 0.0387
4 2 6 0.0483 0.0023
4 2 7 -0.2119 -0.0358
4 2 8 0.2240 0.0217
4 2 9 -0.0724 0.0093
4 2 10 0.0023 -0.0206
4 2 11 -0.0921 0.0106
4 2 12 0.1563 0.0023
4 2 13 -0.0765 -0.0047
4 3 0 0.2149 0.1969
4 3 1 -0.0980 -0.0662
4 3 2 -0.2921 -0.0544
4 3 4 -0.4875 0.0133
4 3 5 0.1519 -0.0426
4 3 6 0.0047 0.0103
4 3 7 0.0837 0.0192
4 3 8 -0.1124 -0.0090
4 3 9 -0.0488 -0.0094
4 3 10 0.1493 0.0060
4 3 11 -0.0042 0.0005
4 3 12 -0.1849 0.0129
4 4 0 -0.3838 -0.1749
4 4 7 -0.0164 -0.0142
4 4 8 0.0112 -0.0003
4 4 9 0.1454 0.0083
4 4 10 -0.3707 0.0400
4 4 11 0.3810 -0.0982
4 5 0 -0.1304 0.1779
4 6 0 0.9368 -0.1566
5 -12 0 0.0368 -0.1082
5 -12 1 -0.0326 0.0205
5 -12 2 -0.0055 0.0268
5 -12 3 0.0319 0.0061
5 -12 4 -0.0111 -0.0545
5 -11 0 -0.1792 0.1037
5 -11 1 0.1578 -0.0290
5 -11 2 -0.1703 -0.0212
5 -11 3 0.1671 0.0102
5 -11 4 -0.1273 0.0200
5 -11 5 0.0915 -0.0199
5 -11 6 -0.0918 0.0016
5 -11 7 0.0950 -0.0107
5 -11 8 -0.0543 0.0502
5 -10 0 0.3903 -0.2090
5 -10 1 0.0119 0.0837
5 -10 2 -0.2208 0.0314
5 -10 3 0.1433 -0.0455
5 -10 4 -0.0246 -0.0052
5 -10 5 0.0334 0.0285
5 -10 6 -0.0504 0.0034
5 -10 7 -0.0094 -0.0344
5 -10 8 0.0064 0.0127
5 -10 9 0.1233 0.0391
5 -10 10 -0.1870 -0.0613
5 -9 0 -0.3105 0.1884
5 -9 1 0.4325 -0.0785
5 -9 2 -0.0821 -0.0308
5 -9 3 -0.1239 0.0500
5 -9 4 0.1094 -0.0023
5 -9 5 -0.1089 -0.0302
5 -9 6 0.1190 0.0131
5 -9 7 -0.0167 0.0167
5 -9 8 -0.1115 -0.0181
5 -9 9 0.1299 -0.0014
5 -9 10 -0.1136 0.0120
5 -9 11 0.1704 -0.0117
5 -9 12 -0.2076 0.0209
5 -8 0 0.7508 -0.1988
5 -8 1 -0.2236 0.0754
5 -8 2 0.0263 0.0403
5 -8 3 -0.0704 -0.0524
5 -8 4 0.0872 -0.0036
5 -8 5 0.0293 0.0321
5 -8 6 -0.1761 -0.0063
5 -8 7 0.2218 -0.0198
5 -8 8 -0.1524 0.0054
5 -8 9 0.0539 0.0246
5 -8 10 -0.0053 -0.0307
5 -8 11 0.0087 0.0138
5 -8 12 -0.0145 0.0017
5 -8 13 -0.0075 -0.0100
5 -7 0 -0.2287 0.2343
5 -7 1 -0.2897 -0.0755
5 -7 2 0.1238 -0.0572
5 -7 3 0.0834 0.0496
5 -7 4 -0.0316 0.0253
5 -7 5 -0.0850 -0.0405
5 -7 6 0.1350 -0.0081
5 -7 7 -0.1690 0.0311
5 -7 8 0.1646 0.0001
5 -7 9 -0.0688 -0.0196
5 -7 10 -0.0083 -0.0134
5 -7 11 -0.0701 0.0472
5 -7 12 0.2231 -0.0217
5 -7 13 -0.2573 -0.0372
5 -7 14 0.1430 0.0582
5 -6 0 0.2567 -0.2346
5 -6 1 -0.0751 0.0716
5 -6 2 0.0427 0.0618
5 -6 3 -0.0321 -0.0539
5 -6 4 0.0172 -0.0193
5 -6 5 -0.0351 0.0370
5 -6 6 0.0029 0.0038
5 -6 7 0.1643 -0.0236
5 -6 8 -0.3510 -0.0013
5 -6 9 0.3661 0.0167
5 -6 10 -0.2137 0.0089
5 -6 11 0.0774 -0.0304
5 -6 12 -0.0704 -0.0033
5 -6 13 0.1318 0.0678
5 -6 14 -0.1553 -0.0926
5 -5 0 -0.1754 0.2473
5 -5 1 -0.0677 -0.0840
5 -5 2 0.2809 -0.0580
5 -5 3 -0.3303 0.0619
5 -5 4 0.2920 0.0121
5 -5 5 -0.2365 -0.0447
5 -5 6 0.1449 0.0140
5 -5 7 -0.0438 0.0139
5 -5 8 0.0252 -0.0011
5 -5 9 -0.0898 -0.0202
5 -5 10 0.1205 0.0102
5 -5 11 -0.0596 0.0201
5 -5 12 -0.0040 -0.0270
5 -5 13 -0.0228 -0.0107
5 -5 14 0.0988 0.0668
5 -4 0 -0.5758 -0.2514
5 -4 1 0.7632 0.0844
5 -4 2 -0.6741 0.0626
5 -4 3 0.3870 -0.0576
5 -4 4 -0.0828 -0.0255
5 -4 5 -0.1495 0.0453
5 -4 6 0.3042 0.0094
5 -4 7 -0.3531 -0.0408
5 -4 8 0.2662 0.0083
5 -4 9 -0.0959 0.0269
5 -4 10 -0.0458 -0.0134
5 -4 11 0.0870 -0.0175
5 -4 12 -0.0388 0.0115
5 -4 13 -0.0342 0.0346
5 -4 14 0.0692 -0.0818
5 -3 0 0.1920 0.2863
5 -3 1 -0.2620 -0.1148
5 -3 2 0.1703 -0.0461
5 -3 3 -0.0203 0.0548
5 -3 4 -0.1219 0.0239
5 -3 5 0.1765 -0.0451
5 -3 6 -0.0632 -0.0103
5 -3 7 -0.1359 0.0438
5 -3 8 0.2024 -0.0105
5 -3 9 -0.0763 -0.0248
5 -3 10 -0.0402 0.0081
5 -3 11 -0.0151 0.0203
5 -3 12 0.1329 -0.0027
5 -3 13 -0.1350 -0.0422
5 -3 14 0.0487 0.0559
5 -2 0 0.3131 -0.2484
5 -2 1 -0.3252 0.1054
5 -2 2 0.3596 0.0342
5 -2 3 -0.3472 -0.0545
5 -2 4 0.2921 -0.0085
5 -2 5 -0.1981 0.0393
5 -2 6 0.0299 -0.0011
5 -2 7 0.1680 -0.0346
5 -2 8 -0.2463 0.0111
5 -2 9 0.1453 0.0279
5 -2 10 -0.0013 -0.0156
5 -2 11 -0.0432 -0.0259
5 -2 12 0.0222 0.0212
5 -2 13 -0.0358 0.0362
5 -2 14 0.0673 -0.0740
5 -1 0 -0.2097 0.2122
5 -1 1 0.3479 -0.0822
5 -1 2 -0.5500 -0.0356
5 -1 3 0.5982 0.0463
5 -1 4 -0.4113 0.0101
5 -1 5 0.1337 -0.0352
5 -1 6 0.0845 0.0023
5 -1 7 -0.2459 0.0279
5 -1 8 0.3688 -0.0100
5 -1 9 -0.3578 -0.0198
5 -1 10 0.1516 0.0084
5 -1 11 0.1129 0.0218
5 -1 12 -0.2347 -0.0050
5 -1 13 0.1849 -0.0572
5 -1 14 -0.0913 0.0887
5 0 0 -0.0823 -0.2606
5 0 1 0.0394 0.0892
5 0 2 0.1148 0.0558
5 0 3 -0.1900 -0.0598
5 0 4 0.0390 -0.0101
5 0 5 0.2004 0.0380
5 0 6 -0.3125 -0.0081
5 0 7 0.3037 -0.0176
5 0 8 -0.3003 0.0087
5 0 9 0.2796 0.0080
5 0 10 -0.1434 -0.0041
5 0 11 -0.0258 -0.0135
5 0 12 0.0408 0.0216
5 0 13 0.0827 -0.0119
5 1 0 0.1540 0.1948
5 1 1 -0.2188 -0.0609
5 1 2 0.0799 -0.0446
5 1 3 -0.0009 0.0384
5 1 4 0.1320 0.0162
5 1 5 -0.2727 -0.0294
5 1 6 0.1930 0.0025
5 1 7 -0.0099 0.0126
5 1 8 0.0092 -0.0032
5 1 9 -0.1860 -0.0050
5 1 10 0.2517 0.0002
5 1 11 -0.0971 0.0091
5 1 12 -0.0487 -0.0186
5 2 0 -0.0621 -0.1432
5 2 1 0.1196 0.0492
5 2 2 -0.0437 0.0306
5 2 3 -0.0565 -0.0314
5 2 4 0.0096 -0.0105
5 2 5 0.1163 0.0219
5 2 6 -0.0967 0.0066
5 2 7 -0.0705 -0.0216
5 2 8 0.1246 -0.0038
5 2 9 0.0474 0.0314
5 2 10 -0.2133 -0.0237
5 2 11 0.1492 0.0016
5 3 0 0.1110 0.1836
5 3 1 -0.3042 -0.0779
5 3 2 0.2003 -0.0171
5 3 3 0.1534 0.0295
5 3 4 -0.3784 0.0061
5 3 5 0.2423 -0.0115
5 3 6 0.0530 -0.0253
5 3 7 -0.1809 0.0414
5 3 8 0.1123 -0.0001
5 3 9 -0.0618 -0.0483
5 3 10 0.1268 0.0416
5 4 0 0.1130 -0.1993
5 4 1 -0.4078 0.0800
5 5 0 -0.7513 0.1877
6 -11 0 -0.1480 0.1184
6 -11 1 0.0136 -0.0336
6 -11 2 0.0117 -0.0278
6 -11 3 0.0361 0.0222
6 -11 4 -0.0024 0.0113
6 -11 5 -0.1105 -0.0167
6 -11 6 0.1512 -0.0142
6 -11 7 -0.0984 0.0453
6 -10 0 0.2422 -0.1527
6 -10 1 -0.2260 0.0593
6 -10 2 0.0235 0.0232
6 -10 3 0.1572 -0.0289
6 -10 4 -0.2240 -0.0126
6 -10 5 0.1710 0.0337
6 -10 6 -0.0180 -0.0125
6 -10 7 -0.1357 -0.0201
6 -10 8 0.1592 0.0341
6 -10 9 -0.0687 -0.0304
6 -9 0 0.3160 0.1826
6 -9 1 -0.2533 -0.0687
6 -9 2 0.0376 -0.0319
6 -9 3 -0.0360 0.0374
6 -9 4 0.2084 0.0123
6 -9 5 -0.2751 -0.0282
6 -9 6 0.1746 -0.0085
6 -9 7 -0.0615 0.0397
6 -9 8 0.0149 -0.0230
6 -9 9 0.0088 -0.0177
6 -9 10 -0.0316 0.0365
6 -8 0 -0.5100 -0.1824
6 -8 1 0.3892 0.0524
6 -8 2 -0.0457 0.0454
6 -8 3 0.0077 -0.0338
6 -8 4 -0.1964 -0.0215
6 -8 5 0.2592 0.0281
6 -8 6 -0.1963 0.0092
6 -8 7 0.2029 -0.0213
6 -8 8 -0.2453 -0.0105
6 -8 9 0.1837 0.0332
6 -8 10 -0.0715 -0.0077
6 -8 11 0.0336 -0.0340
6 -7 0 0.3785 0.1871
6 -7 1 -0.2099 -0.0598
6 -7 2 -0.0300 -0.0319
6 -7 3 0.1107 0.0270
6 -7 4 -0.0097 0.0132
6 -7 5 -0.1281 -0.0185
6 -7 6 0.2060 -0.0071
6 -7 7 -0.2240 0.0224
6 -7 8 0.1926 -0.0118
6 -7 9 -0.1194 -0.0089
6 -7 10 0.0427 0.0224
6 -7 11 0.0019 -0.0261
6 -7 12 -0.0209 0.0263
6 -6 0 0.0236 -0.2012
6 -6 1 0.0223 0.0744
6 -6 2 0.0379 0.0309
6 -6 3 -0.1486 -0.0378
6 -6 4 0.1113 -0.0084
6 -6 5 0.0665 0.0279
6 -6 6 -0.1631 -0.0031
6 -6 7 0.0920 -0.0259
6 -6 8 -0.0128 0.0219
6 -6 9 0.0468 0.0126
6 -6 10 -0.0971 -0.0404
6 -6 11 0.0345 0.0246
6 -6 12 0.0920 0.0302
6 -6 13 -0.1343 -0.0742
6 -5 0 0.5156 0.2408
6 -5 1 -0.5225 -0.1026
6 -5 2 0.4458 -0.0347
6 -5 3 -0.2951 0.0524
6 -5 4 0.0858 0.0103
6 -5 5 0.1537 -0.0395
6 -5 6 -0.3445 0.0045
6 -5 7 0.3849 0.0285
6 -5 8 -0.2552 -0.0123
6 -5 9 0.0620 -0.0195
6 -5 10 0.0522 0.0141
6 -5 11 -0.0273 0.0281
6 -5 12 -0.0835 -0.0647
6 -5 13 0.1689 0.0679
6 -4 0 -0.2114 -0.2456
6 -4 1 0.0972 0.1112
6 -4 2 -0.0017 0.0326
6 -4 3 -0.0199 -0.0653
6 -4 4 0.0265 0.0070
6 -4 5 -0.0278 0.0336
6 -4 6 -0.0360 -0.0089
6 -4 7 0.1326 -0.0244
6 -4 8 -0.1298 0.0091
6 -4 9 -0.0028 0.0265
6 -4 10 0.1361 -0.0222
6 -4 11 -0.1762 -0.0209
6 -4 12 0.1741 0.0509
6 -4 13 -0.1827 -0.0450
6 -3 0 -0.0684 0.1581
6 -3 1 0.1426 -0.0658
6 -3 2 -0.2023 -0.0279
6 -3 3 0.1913 0.0479
6 -3 4 -0.1037 -0.0038
6 -3 5 0.0256 -0.0313
6 -3 6 -0.0246 0.0127
6 -3 7 0.0562 0.0214
6 -3 8 -0.0366 -0.0104
6 -3 9 -0.0294 -0.0336
6 -3 10 0.0559 0.0414
6 -3 11 0.0048 0.0078
6 -3 12 -0.1022 -0.0554
6 -3 13 0.1488 0.0523
6 -2 0 0.0405 -0.1668
6 -2 1 -0.0248 0.0688
6 -2 2 0.0969 0.0268
6 -2 3 -0.1560 -0.0460
6 -2 4 0.0715 0.0066
6 -2 5 0.0705 0.0245
6 -2 6 -0.1096 -0.0142
6 -2 7 0.0842 -0.0109
6 -2 8 -0.1279 0.0126
6 -2 9 0.1831 0.0061
6 -2 10 -0.0803 -0.0148
6 -2 11 -0.1429 0.0085
6 -2 12 0.2565 -0.0129
6 -1 0 0.2790 0.2175
6 -1 1 -0.3535 -0.0796
6 -1 2 0.2758 -0.0393
6 -1 3 -0.1240 0.0466
6 -1 4 0.0693 0.0071
6 -1 5 -0.1392 -0.0293
6 -1 6 0.2198 0.0028
6 -1 7 -0.2471 0.0270
6 -1 8 0.2399 -0.0285
6 -1 9 -0.1751 0.0056
6 -1 10 0.0126 0.0269
6 -1 11 0.1600 -0.0535
6 -1 12 -0.1908 0.0570
6 0 0 -0.2350 -0.1698
6 0 1 0.2506 0.0684
6 0 2 -0.2030 0.0252
6 0 3 0.1815 -0.0355
6 0 4 -0.1988 -0.0057
6 0 5 0.1955 0.0266
6 0 6 -0.1318 -0.0098
6 0 7 0.0544 -0.0090
6 0 8 -0.0389 0.0075
6 0 9 0.0673 0.0013
6 0 10 -0.0389 -0.0031
6 0 11 -0.0643 0.0037
6 1 0 -0.0531 0.1717
6 1 1 -0.0668 -0.0749
6 1 2 0.2861 -0.0244
6 1 3 -0.4043 0.0430
6 1 4 0.3106 0.0063
6 1 5 -0.1003 -0.0392
6 1 6 -0.0634 0.0114
6 1 7 0.1117 0.0304
6 1 8 -0.0722 -0.0272
6 1 9 -0.0018 -0.0045
6 1 10 0.0589 0.0080
6 2 0 0.0974 -0.2007
6 2 1 0.0533 0.0795
6 2 2 -0.2459 0.0316
6 2 3 0.2489 -0.0424
6 2 4 -0.0678 -0.0097
6 2 5 -0.0357 0.0308
6 2 6 -0.0933 0.0030
6 2 7 0.2705 -0.0291
6 2 8 -0.2272 0.0009
6 2 9 -0.0102 0.0455
6 3 0 0.0297 0.2180
6 3 1 0.1992 -0.0711
6 3 2 -0.1775 -0.0596
6 3 3 0.0005 0.0647
6 3 4 0.0513 0.0027
6 3 5 0.0138 -0.0416
6 3 6 0.0475 0.0368
6 3 7 -0.2416 -0.0324
6 4 0 0.0368 -0.2080
6 4 1 -0.6121 0.0635
7 -11 0 -0.3231 0.0969
7 -11 1 0.3261 -0.0285
7 -11 2 -0.1765 -0.0197
7 -11 3 0.0023 0.0091
7 -11 4 0.0490 0.0264
7 -10 0 -0.2608 -0.1511
7 -10 1 -0.0123 0.0594
7 -10 2 0.1230 0.0241
7 -10 3 0.0252 -0.0272
7 -10 4 -0.1401 -0.0169
7 -10 5 0.0501 0.0261
7 -10 6 0.0638 0.0168
7 -10 7 -0.0371 -0.0519
7 -9 0 0.1212 0.1845
7 -9 1 0.2103 -0.0747
7 -9 2 -0.1806 -0.0312
7 -9 3 -0.1617 0.0511
7 -9 4 0.3397 -0.0117
7 -9 5 -0.1772 -0.0147
7 -9 6 0.0055 0.0088
7 -9 7 -0.0794 -0.0084
7 -9 8 0.2250 0.0341
7 -8 0 -0.0600 -0.1693
7 -8 1 -0.1277 0.0673
7 -8 2 0.0990 0.0216
7 -8 3 0.0615 -0.0362
7 -8 4 -0.1819 0.0026
7 -8 5 0.1815 0.0245
7 -8 6 -0.0894 -0.0229
7 -8 7 -0.0235 0.0075
7 -8 8 0.0955 -0.0048
7 -8 9 -0.0970 0.0254
7 -8 10 0.0448 -0.0538
7 -7 0 -0.2445 0.1442
7 -7 1 0.1077 -0.0542
7 -7 2 -0.0572 -0.0274
7 -7 3 0.1078 0.0323
7 -7 4 -0.0886 0.0096
7 -7 5 -0.0273 -0.0239
7 -7 6 0.0691 -0.0112
7 -7 7 0.0221 0.0475
7 -7 8 -0.0899 -0.0347
7 -7 9 0.0272 -0.0201
7 -7 10 0.0683 0.0645
7 -6 0 -0.1046 -0.1933
7 -6 1 0.1390 0.0837
7 -6 2 -0.2339 0.0346
7 -6 3 0.2843 -0.0522
7 -6 4 -0.1704 -0.0065
7 -6 5 -0.0904 0.0357
7 -6 6 0.3278 -0.0032
7 -6 7 -0.3794 -0.0214
7 -6 8 0.2547 -0.0072
7 -6 9 -0.1023 0.0372
7 -6 10 0.0324 -0.0089
7 -6 11 -0.0250 -0.0476
7 -5 0 -0.0412 0.1716
7 -5 1 0.1751 -0.0681
7 -5 2 -0.1593 -0.0366
7 -5 3 0.0382 0.0515
7 -5 4 0.0243 0.0023
7 -5 5 0.0121 -0.0330
7 -5 6 -0.0454 0.0076
7 -5 7 0.0238 0.0157
7 -5 8 -0.0173 0.0061
7 -5 9 0.0832 -0.0274
7 -5 10 -0.1689 -0.0063
7 -5 11 0.1896 0.0615
7 -4 0 -0.0578 -0.1290
7 -4 1 -0.1161 0.0405
7 -4 2 0.2393 0.0354
7 -4 3 -0.2606 -0.0345
7 -4 4 0.1798 -0.0150
7 -4 5 -0.1037 0.0372
7 -4 6 0.1312 -0.0051
7 -4 7 -0.1977 -0.0316
7 -4 8 0.1618 0.0263
7 -4 9 -0.0311 -0.0055
7 -4 10 -0.0444 0.0223
7 -4 11 0.0041 -0.0664
7 -3 0 -0.1010 0.1900
7 -3 1 0.0765 -0.0775
7 -3 2 -0.0505 -0.0297
7 -3 3 0.0244 0.0421
7 -3 4 0.0537 0.0057
7 -3 5 -0.1308 -0.0288
7 -3 6 0.1171 0.0086
7 -3 7 -0.0635 0.0091
7 -3 8 0.0841 -0.0026
7 -3 9 -0.1405 0.0043
7 -3 10 0.1029 -0.0357
7 -3 11 0.0054 0.0621
7 -2 0 -0.1687 -0.1973
7 -2 1 0.3300 0.0681
7 -2 2 -0.4492 0.0381
7 -2 3 0.4625 -0.0291
7 -2 4 -0.3716 -0.0281
7 -2 5 0.2503 0.0307
7 -2 6 -0.1619 0.0130
7 -2 7 0.1063 -0.0242
7 -2 8 -0.0533 -0.0154
7 -2 9 -0.0093 0.0514
7 -2 10 0.0653 -0.0501
7 -1 0 0.1709 0.1850
7 -1 1 -0.0419 -0.0778
7 -1 2 0.0199 -0.0310
7 -1 3 -0.1289 0.0461
7 -1 4 0.2258 -0.0005
7 -1 5 -0.2317 -0.0162
7 -1 6 0.1777 -0.0106
7 -1 7 -0.0859 0.0185
7 -1 8 -0.0410 0.0207
7 -1 9 0.1503 -0.0588
7 -1 10 -0.1781 0.0487
7 0 0 -0.0514 -0.2171
7 0 1 -0.0219 0.0934
7 0 2 -0.0641 0.0421
7 0 3 0.1650 -0.0697
7 0 4 -0.1025 0.0032
7 0 5 -0.0629 0.0433
7 0 6 0.1330 -0.0078
7 0 7 -0.0657 -0.0508
7 0 8 -0.0017 0.0521
7 0 9 -0.0112 -0.0071
7 1 0 -0.0612 0.2128
7 1 1 0.0350 -0.0791
7 1 2 0.0873 -0.0485
7 1 3 -0.1363 0.0598
7 1 4 0.0242 0.0053
7 1 5 0.1008 -0.0446
7 1 6 -0.0566 0.0309
7 1 7 -0.0935 -0.0137
7 1 8 0.1267 0.0222
7 2 0 0.0836 -0.1940
7 2 1 0.0065 0.0673
7 2 2 -0.0879 0.0342
7 2 3 0.1415 -0.0261
7 2 4 -0.1128 -0.0215
7 2 5 0.0418 0.0261
7 2 6 -0.0284 -0.0100
7 3 0 0.0071 0.1557
7 3 1 0.1685 -0.0624
7 3 2 -0.3156 -0.0180
7 3 3 0.2944 0.0236
7 4 0 0.0641 -0.1120
8 -10 0 0.1805 -0.1226
8 -10 1 -0.2189 0.0511
8 -10 2 0.0639 0.0287
8 -10 3 0.0875 -0.0533
8 -9 0 -0.1117 0.1298
8 -9 1 0.0816 -0.0493
8 -9 2 -0.0177 -0.0248
8 -9 3 0.0219 0.0338
8 -9 4 -0.0556 0.0051
8 -9 5 0.0547 -0.0389
8 -9 6 -0.0368 0.0388
8 -8 0 0.2584 -0.1170
8 -8 1 -0.0516 0.0350
8 -8 2 0.0266 0.0377
8 -8 3 -0.1488 -0.0293
8 -8 4 0.1906 -0.0242
8 -8 5 -0.0989 0.0362
8 -8 6 0.0149 0.0117
8 -8 7 0.0042 -0.0545
8 -7 0 -0.1567 0.1477
8 -7 1 0.1170 -0.0518
8 -7 2 -0.0696 -0.0438
8 -7 3 0.0364 0.0473
8 -7 4 -0.0594 0.0066
8 -7 5 0.1298 -0.0222
8 -7 6 -0.1572 -0.0095
8 -7 7 0.0720 0.0120
8 -7 8 0.0616 0.0380
8 -6 0 0.2094 -0.1210
8 -6 1 -0.1852 0.0386
8 -6 2 0.1401 0.0217
8 -6 3 -0.0934 -0.0121
8 -6 4 0.0606 -0.0195
8 -6 5 -0.0156 0.0129
8 -6 6 -0.0636 0.0137
8 -6 7 0.1380 -0.0004
8 -6 8 -0.1447 -0.0489
8 -5 0 -0.0649 0.1625
8 -5 1 0.0951 -0.0513
8 -5 2 -0.1741 -0.0279
8 -5 3 0.2656 0.0174
8 -5 4 -0.2535 0.0233
8 -5 5 0.1370 -0.0217
8 -5 6 -0.0460 -0.0133
8 -5 7 0.0452 0.0281
8 -5 8 -0.0655 -0.0146
8 -5 9 0.0538 0.0126
8 -4 0 0.1097 -0.2228
8 -4 1 -0.1400 0.0847
8 -4 2 0.1667 0.0380
8 -4 3 -0.1888 -0.0440
8 -4 4 0.1479 -0.0061
8 -4 5 -0.0335 0.0156
8 -4 6 -0.0848 0.0103
8 -4 7 0.1418 -0.0128
8 -4 8 -0.1313 -0.0054
8 -4 9 0.0751 -0.0067
8 -3 0 0.1033 0.1766
8 -3 1 -0.1425 -0.0460
8 -3 2 0.2025 -0.0522
8 -3 3 -0.2316 0.0291
8 -3 4 0.1641 0.0284
8 -3 5 -0.0608 -0.0178
8 -3 6 0.0211 -0.0258
8 -3 7 -0.0269 0.0128
8 -3 8 0.0017 0.0478
8 -2 0 -0.0308 -0.1701
8 -2 1 -0.0681 0.0532
8 -2 2 0.0715 0.0435
8 -2 3 0.0224 -0.0334
8 -2 4 -0.0917 -0.0202
8 -2 5 0.0893 0.0208
8 -2 6 -0.0566 0.0199
8 -2 7 0.0035 -0.0209
8 -2 8 0.0755 -0.0333
8 -1 0 0.0767 0.1968
8 -1 1 -0.0114 -0.0691
8 -1 2 0.0083 -0.0436
8 -1 3 -0.0157 0.0364
8 -1 4 -0.0456 0.0415
8 -1 5 0.1464 -0.0678
8 -1 6 -0.1810 0.0060
8 -1 7 0.1207 0.0672
8 0 0 0.0196 -0.2084
8 0 1 -0.1254 0.0721
8 0 2 0.1448 0.0578
8 0 3 -0.1150 -0.0665
8 0 4 0.1021 -0.0023
8 0 5 -0.1105 0.0458
8 0 6 0.0949 -0.0392
8 1 0 -0.0765 0.1471
8 1 1 -0.0010 -0.0432
8 1 2 0.0050 -0.0291
8 1 3 0.0235 -0.0017
8 1 4 -0.0282 0.0620
8 2 0 0.0526 -0.0865
8 2 1 -0.0628 0.0480
8 2 2 0.1505 -0.0146
9 -9 0 0.0429 0.0790
9 -9 1 -0.0541 -0.0050
9 -8 0 -0.0351 -0.1203
9 -8 1 -0.0735 0.0340
9 -8 2 0.1514 0.0517
9 -8 3 -0.1200 -0.0738
9 -7 0 0.1046 0.1005
9 -7 1 -0.1112 -0.0429
9 -7 2 0.0535 0.0004
9 -7 3 0.0047 0.0179
9 -7 4 -0.0054 -0.0401
9 -7 5 -0.0445 0.0650
9 -6 0 -0.0027 -0.1496
9 -6 1 0.0564 0.0648
9 -6 2 -0.0177 0.0040
9 -6 3 -0.0669 -0.0247
9 -6 4 0.0703 0.0337
9 -6 5 0.0093 -0.0506
9 -5 0 0.0044 0.1645
9 -5 1 0.0118 -0.0719
9 -5 2 -0.0339 -0.0180
9 -5 3 0.0335 0.0391
9 -5 4 0.0035 -0.0292
9 -5 5 -0.0585 0.0375
9 -4 0 -0.0922 -0.1563
9 -4 1 -0.0070 0.0621
9 -4 2 0.0402 0.0214
9 -4 3 0.0199 -0.0311
9 -4 4 -0.0771 0.0180
9 -4 5 0.0860 -0.0361
9 -3 0 -0.0140 0.1512
9 -3 1 0.0235 -0.0568
9 -3 2 -0.0290 -0.0199
9 -3 3 -0.0084 0.0256
9 -3 4 0.0639 -0.0058
9 -3 5 -0.0995 0.0146
9 -2 0 -0.0842 -0.1177
9 -2 1 0.1704 0.0333
9 -2 2 -0.1877 0.0206
9 -2 3 0.1357 0.0021
9 -2 4 -0.0561 -0.0536
9 -1 0 0.0004 0.1470
9 -1 1 0.0171 -0.0527
9 -1 2 0.0046 -0.0472
9 -1 3 -0.0462 0.0691
9 0 0 -0.0100 -0.0871
9 0 1 0.0338 0.0082
0 0 0 0.0 0.0
;
_shelx_fab_checksum              74573
_olex2_submission_special_instructions 'No special instructions were received'
loop_
_space_group_symop_operation_xyz
'x, y, z'
'-x, -y, -z'
loop_
_atom_site_label
_atom_site_type_symbol
_atom_site_fract_x
_atom_site_fract_y
_atom_site_fract_z
_atom_site_U_iso_or_equiv
_atom_site_adp_type
_atom_site_occupancy
_atom_site_site_symmetry_order
_atom_site_calc_flag
_atom_site_refinement_flags_posn
_atom_site_refinement_flags_adp
_atom_site_refinement_flags_occupancy
_atom_site_disorder_assembly
_atom_site_disorder_group
Zn1 Zn 1.000000 0.500000 1.000000 0.02661(11) Uani 1 2 d S . P . .
O1 O 0.72574(15) 0.41885(12) 0.92281(7) 0.0305(3) Uani 1 1 d . . . . .
O2 O 0.61308(15) 0.21277(13) 0.97360(7) 0.0308(3) Uani 1 1 d . . . . .
O3 O 0.56465(17) 0.34816(13) 0.16117(8) 0.0384(3) Uani 1 1 d . . . . .
O4 O 0.42491(17) 0.12107(13) 0.08705(7) 0.0331(3) Uani 1 1 d . . . . .
N1 N 1.0110(2) 0.29444(16) 0.97430(10) 0.0331(3) Uani 1 1 d . . . . .
N2 N 0.9179(2) 0.46845(17) 1.11794(9) 0.0331(3) Uani 1 1 d . . . . .
C1 C 0.9975(3) 0.3880(2) 1.17276(12) 0.0425(5) Uani 1 1 d . . . . .
H1A H 0.941719 0.372065 1.224171 0.051 Uiso 1 1 calc R U . . .
H1B H 1.125790 0.446923 1.194611 0.051 Uiso 1 1 calc R U . . .
C2 C 0.9744(2) 0.2422(2) 1.12292(13) 0.0438(5) Uani 1 1 d . . . . .
H2A H 1.006130 0.185667 1.165918 0.053 Uiso 1 1 calc R U . . .
H2B H 0.847158 0.189465 1.095209 0.053 Uiso 1 1 calc R U . . .
C3 C 1.0821(2) 0.2462(2) 1.05220(13) 0.0410(4) Uani 1 1 d . . . . .
H3A H 1.207099 0.312721 1.076225 0.049 Uiso 1 1 calc R U . . .
H3B H 1.080267 0.148578 1.034844 0.049 Uiso 1 1 calc R U . . .
C4 C 0.9464(3) 0.6135(2) 1.16232(11) 0.0409(4) Uani 1 1 d . . . . .
H4A H 1.073689 0.666966 1.189803 0.049 Uiso 1 1 calc R U . . .
H4B H 0.877310 0.604746 1.208965 0.049 Uiso 1 1 calc R U . . .
C5 C 1.1122(2) 0.3049(2) 0.90404(12) 0.0413(4) Uani 1 1 d . . . . .
H5A H 1.091369 0.206792 0.874811 0.050 Uiso 1 1 calc R U . . .
H5B H 1.240765 0.355954 0.929420 0.050 Uiso 1 1 calc R U . . .
C6 C 0.6116(2) 0.29356(18) 0.91746(10) 0.0273(3) Uani 1 1 d . . . . .
C7 C 0.4693(2) 0.23258(18) 0.83428(10) 0.0267(3) Uani 1 1 d . . . . .
C8 C 0.3656(2) 0.08559(18) 0.81313(10) 0.0290(3) Uani 1 1 d . . . . .
H8 H 0.378565 0.023553 0.853085 0.035 Uiso 1 1 calc R U . . .
C9 C 0.2430(2) 0.02845(18) 0.73406(10) 0.0302(3) Uani 1 1 d . . . . .
H9 H 0.173407 -0.072410 0.720267 0.036 Uiso 1 1 calc R U . . .
C10 C 0.2213(2) 0.11782(18) 0.67473(10) 0.0288(3) Uani 1 1 d . . . . .
C11 C 0.3236(2) 0.26591(19) 0.69723(10) 0.0306(3) Uani 1 1 d . . . . .
H11 H 0.308858 0.328486 0.658016 0.037 Uiso 1 1 calc R U . . .
C12 C 0.4468(2) 0.32306(18) 0.77610(10) 0.0290(3) Uani 1 1 d . . . . .
H12 H 0.515656 0.424018 0.790380 0.035 Uiso 1 1 calc R U . . .
C13 C 0.1010(2) 0.05725(18) 0.58668(10) 0.0298(3) Uani 1 1 d . . . . .
C14 C 0.1714(2) 0.09698(19) 0.51366(10) 0.0309(3) Uani 1 1 d . . . . .
H14 H 0.290578 0.164794 0.523094 0.037 Uiso 1 1 calc R U . . .
C15 C 0.0760(2) 0.04231(18) 0.42743(10) 0.0307(3) Uani 1 1 d . . . . .
C16 C 0.1703(2) 0.08742(19) 0.35548(10) 0.0295(3) Uani 1 1 d . . . . .
C17 C 0.1703(2) -0.01473(19) 0.28823(10) 0.0315(4) Uani 1 1 d . . . . .
H17 H 0.105104 -0.114586 0.287044 0.038 Uiso 1 1 calc R U . . .
C18 C 0.2641(2) 0.02795(19) 0.22348(10) 0.0314(4) Uani 1 1 d . . . . .
H18 H 0.261704 -0.042689 0.177984 0.038 Uiso 1 1 calc R U . . .
C19 C 0.3616(2) 0.17329(18) 0.22450(10) 0.0293(3) Uani 1 1 d . . . . .
C20 C 0.3641(2) 0.27590(19) 0.29206(11) 0.0318(4) Uani 1 1 d . . . . .
H20 H 0.431606 0.375529 0.293822 0.038 Uiso 1 1 calc R U . . .
C21 C 0.2693(2) 0.23335(19) 0.35620(10) 0.0323(4) Uani 1 1 d . . . . .
H21 H 0.271334 0.304256 0.401443 0.039 Uiso 1 1 calc R U . . .
C22 C 0.4620(2) 0.22433(19) 0.15523(10) 0.0302(3) Uani 1 1 d . . . . .
H2 H 0.811(3) 0.422(2) 1.1085(14) 0.033(5) Uiso 1 1 d . . . . .
H1 H 0.904(3) 0.241(3) 0.9565(15) 0.043(6) Uiso 1 1 d . . . . .
H4 H 0.489(3) 0.157(3) 0.0489(17) 0.054(7) Uiso 1 1 d . . . . .
loop_
_atom_site_aniso_label
_atom_site_aniso_U_11
_atom_site_aniso_U_22
_atom_site_aniso_U_33
_atom_site_aniso_U_23
_atom_site_aniso_U_13
_atom_site_aniso_U_12
Zn1 0.03045(18) 0.02512(18) 0.01828(16) -0.00300(11) -0.00059(11) 0.00806(14)
O1 0.0288(6) 0.0276(6) 0.0248(5) -0.0023(4) -0.0040(4) 0.0050(5)
O2 0.0317(6) 0.0333(6) 0.0199(5) 0.0011(5) -0.0006(4) 0.0076(5)
O3 0.0416(7) 0.0300(7) 0.0363(6) -0.0007(5) 0.0124(5) 0.0054(6)
O4 0.0403(7) 0.0300(6) 0.0237(6) 0.0003(5) 0.0061(5) 0.0091(5)
N1 0.0281(7) 0.0269(8) 0.0355(8) -0.0045(6) -0.0030(6) 0.0070(7)
N2 0.0282(8) 0.0383(9) 0.0217(6) -0.0023(6) 0.0004(5) 0.0042(7)
C1 0.0355(9) 0.0558(13) 0.0260(8) 0.0113(8) -0.0003(7) 0.0079(9)
C2 0.0336(9) 0.0397(11) 0.0466(11) 0.0169(9) -0.0046(8) 0.0044(8)
C3 0.0345(9) 0.0297(9) 0.0503(11) 0.0041(8) -0.0061(8) 0.0096(8)
C4 0.0365(9) 0.0477(11) 0.0263(8) -0.0130(8) 0.0025(7) 0.0092(9)
C5 0.0354(9) 0.0385(10) 0.0410(10) -0.0152(8) 0.0014(8) 0.0125(8)
C6 0.0276(8) 0.0304(9) 0.0198(7) -0.0035(6) 0.0020(6) 0.0100(7)
C7 0.0263(7) 0.0292(8) 0.0191(7) -0.0030(6) 0.0016(6) 0.0078(7)
C8 0.0321(8) 0.0281(8) 0.0218(7) 0.0006(6) 0.0010(6) 0.0089(7)
C9 0.0319(8) 0.0252(8) 0.0239(7) -0.0026(6) 0.0006(6) 0.0040(7)
C10 0.0284(8) 0.0298(9) 0.0197(7) -0.0036(6) 0.0004(6) 0.0057(7)
C11 0.0337(8) 0.0300(9) 0.0211(7) 0.0006(6) -0.0001(6) 0.0079(7)
C12 0.0305(8) 0.0250(8) 0.0235(7) -0.0027(6) 0.0007(6) 0.0054(7)
C13 0.0324(8) 0.0270(8) 0.0208(7) -0.0026(6) -0.0011(6) 0.0057(7)
C14 0.0291(8) 0.0292(9) 0.0236(8) -0.0020(6) -0.0002(6) 0.0029(7)
C15 0.0338(8) 0.0289(9) 0.0213(7) -0.0016(6) -0.0002(6) 0.0067(7)
C16 0.0285(8) 0.0302(9) 0.0202(7) -0.0017(6) -0.0032(6) 0.0055(7)
C17 0.0344(8) 0.0262(8) 0.0239(7) -0.0016(6) -0.0001(6) 0.0043(7)
C18 0.0346(8) 0.0298(9) 0.0227(7) -0.0029(6) 0.0001(6) 0.0085(7)
C19 0.0293(8) 0.0312(9) 0.0225(7) 0.0003(6) -0.0006(6) 0.0097(7)
C20 0.0337(8) 0.0254(8) 0.0274(8) -0.0010(6) 0.0005(6) 0.0050(7)
C21 0.0368(9) 0.0293(9) 0.0227(7) -0.0041(6) 0.0007(6) 0.0080(7)
C22 0.0306(8) 0.0309(9) 0.0260(8) 0.0017(6) 0.0011(6) 0.0113(7)
loop_
_atom_type_symbol
_atom_type_description
_atom_type_scat_dispersion_real
_atom_type_scat_dispersion_imag
_atom_type_scat_source
C C 0.0181 0.0091 'International Tables Vol C Tables 4.2.6.8 and 6.1.1.4'
H H 0.0000 0.0000 'International Tables Vol C Tables 4.2.6.8 and 6.1.1.4'
N N 0.0311 0.0180 'International Tables Vol C Tables 4.2.6.8 and 6.1.1.4'
O O 0.0492 0.0322 'International Tables Vol C Tables 4.2.6.8 and 6.1.1.4'
Zn Zn -1.5491 0.6778 'International Tables Vol C Tables 4.2.6.8 and 6.1.1.4'
loop_
_geom_angle_atom_site_label_1
_geom_angle_atom_site_label_2
_geom_angle_atom_site_label_3
_geom_angle
_geom_angle_site_symmetry_1
_geom_angle_site_symmetry_3
_geom_angle_publ_flag
O1 Zn1 O1 180.00(4) 2_767 . ?
N1 Zn1 O1 88.45(5) . 2_767 ?
N1 Zn1 O1 88.45(5) 2_767 . ?
N1 Zn1 O1 91.55(5) 2_767 2_767 ?
N1 Zn1 O1 91.55(5) . . ?
N1 Zn1 N1 180.0 2_767 . ?
N2 Zn1 O1 86.83(5) 2_767 . ?
N2 Zn1 O1 93.17(5) 2_767 2_767 ?
N2 Zn1 O1 93.17(5) . . ?
N2 Zn1 O1 86.83(5) . 2_767 ?
N2 Zn1 N1 85.39(6) 2_767 . ?
N2 Zn1 N1 85.39(6) . 2_767 ?
N2 Zn1 N1 94.62(6) 2_767 2_767 ?
N2 Zn1 N1 94.61(6) . . ?
N2 Zn1 N2 180.0 . 2_767 ?
C6 O1 Zn1 124.72(10) . . ?
C22 O4 H4 108.8(17) . . ?
Zn1 N1 H1 102.0(16) . . ?
C3 N1 Zn1 114.39(11) . . ?
C3 N1 C5 114.56(15) . . ?
C3 N1 H1 108.4(16) . . ?
C5 N1 Zn1 104.50(11) . . ?
C5 N1 H1 112.3(15) . . ?
Zn1 N2 H2 110.1(15) . . ?
C1 N2 Zn1 116.03(12) . . ?
C1 N2 H2 104.8(15) . . ?
C4 N2 Zn1 105.30(11) . . ?
C4 N2 C1 114.17(14) . . ?
C4 N2 H2 106.0(15) . . ?
N2 C1 H1A 109.1 . . ?
N2 C1 H1B 109.1 . . ?
N2 C1 C2 112.56(14) . . ?
H1A C1 H1B 107.8 . . ?
C2 C1 H1A 109.1 . . ?
C2 C1 H1B 109.1 . . ?
C1 C2 H2A 108.2 . . ?
C1 C2 H2B 108.2 . . ?
H2A C2 H2B 107.3 . . ?
C3 C2 C1 116.52(16) . . ?
C3 C2 H2A 108.2 . . ?
C3 C2 H2B 108.2 . . ?
N1 C3 C2 111.63(15) . . ?
N1 C3 H3A 109.3 . . ?
N1 C3 H3B 109.3 . . ?
C2 C3 H3A 109.3 . . ?
C2 C3 H3B 109.3 . . ?
H3A C3 H3B 108.0 . . ?
N2 C4 H4A 109.8 . . ?
N2 C4 H4B 109.8 . . ?
N2 C4 C5 109.39(14) . 2_767 ?
H4A C4 H4B 108.2 . . ?
C5 C4 H4A 109.8 2_767 . ?
C5 C4 H4B 109.8 2_767 . ?
N1 C5 C4 109.57(15) . 2_767 ?
N1 C5 H5A 109.8 . . ?
N1 C5 H5B 109.8 . . ?
C4 C5 H5A 109.8 2_767 . ?
C4 C5 H5B 109.8 2_767 . ?
H5A C5 H5B 108.2 . . ?
O1 C6 O2 124.93(14) . . ?
O1 C6 C7 116.94(14) . . ?
O2 C6 C7 118.00(14) . . ?
C8 C7 C6 120.65(14) . . ?
C8 C7 C12 119.28(14) . . ?
C12 C7 C6 120.01(15) . . ?
C7 C8 H8 119.7 . . ?
C7 C8 C9 120.57(15) . . ?
C9 C8 H8 119.7 . . ?
C8 C9 H9 119.7 . . ?
C8 C9 C10 120.60(15) . . ?
C10 C9 H9 119.7 . . ?
C9 C10 C11 118.47(14) . . ?
C9 C10 C13 121.38(15) . . ?
C11 C10 C13 120.04(15) . . ?
C10 C11 H11 119.5 . . ?
C12 C11 C10 120.97(15) . . ?
C12 C11 H11 119.5 . . ?
C7 C12 H12 120.0 . . ?
C11 C12 C7 120.09(15) . . ?
C11 C12 H12 120.0 . . ?
C14 C13 C10 117.66(15) . . ?
C14 C13 C15 118.17(15) . 2_556 ?
C15 C13 C10 124.10(15) 2_556 . ?
C13 C14 H14 118.3 . . ?
C13 C14 C15 123.45(16) . . ?
C15 C14 H14 118.3 . . ?
C13 C15 C16 123.60(14) 2_556 . ?
C14 C15 C13 118.37(15) . 2_556 ?
C14 C15 C16 117.95(15) . . ?
C17 C16 C15 121.21(15) . . ?
C21 C16 C15 120.38(15) . . ?
C21 C16 C17 118.32(15) . . ?
C16 C17 H17 119.6 . . ?
C18 C17 C16 120.82(16) . . ?
C18 C17 H17 119.6 . . ?
C17 C18 H18 119.8 . . ?
C17 C18 C19 120.49(15) . . ?
C19 C18 H18 119.8 . . ?
C18 C19 C20 119.06(15) . . ?
C18 C19 C22 122.31(15) . . ?
C20 C19 C22 118.63(15) . . ?
C19 C20 H20 119.8 . . ?
C21 C20 C19 120.42(16) . . ?
C21 C20 H20 119.8 . . ?
C16 C21 H21 119.6 . . ?
C20 C21 C16 120.88(15) . . ?
C20 C21 H21 119.6 . . ?
O3 C22 O4 124.29(15) . . ?
O3 C22 C19 122.63(15) . . ?
O4 C22 C19 113.07(14) . . ?
loop_
_geom_bond_atom_site_label_1
_geom_bond_atom_site_label_2
_geom_bond_distance
_geom_bond_site_symmetry_2
_geom_bond_publ_flag
Zn1 O1 2.2039(11) . ?
Zn1 O1 2.2039(11) 2_767 ?
Zn1 N1 2.1117(15) . ?
Zn1 N1 2.1117(15) 2_767 ?
Zn1 N2 2.0853(14) . ?
Zn1 N2 2.0854(14) 2_767 ?
O1 C6 1.256(2) . ?
O2 C6 1.260(2) . ?
O3 C22 1.211(2) . ?
O4 C22 1.328(2) . ?
O4 H4 0.88(3) . ?
N1 C3 1.475(2) . ?
N1 C5 1.477(2) . ?
N1 H1 0.84(2) . ?
N2 C1 1.478(2) . ?
N2 C4 1.475(2) . ?
N2 H2 0.81(2) . ?
C1 H1A 0.9900 . ?
C1 H1B 0.9900 . ?
C1 C2 1.526(3) . ?
C2 H2A 0.9900 . ?
C2 H2B 0.9900 . ?
C2 C3 1.525(3) . ?
C3 H3A 0.9900 . ?
C3 H3B 0.9900 . ?
C4 H4A 0.9900 . ?
C4 H4B 0.9900 . ?
C4 C5 1.516(3) 2_767 ?
C5 H5A 0.9900 . ?
C5 H5B 0.9900 . ?
C6 C7 1.513(2) . ?
C7 C8 1.388(2) . ?
C7 C12 1.392(2) . ?
C8 H8 0.9500 . ?
C8 C9 1.389(2) . ?
C9 H9 0.9500 . ?
C9 C10 1.395(2) . ?
C10 C11 1.396(2) . ?
C10 C13 1.490(2) . ?
C11 H11 0.9500 . ?
C11 C12 1.389(2) . ?
C12 H12 0.9500 . ?
C13 C14 1.395(2) . ?
C13 C15 1.407(2) 2_556 ?
C14 H14 0.9500 . ?
C14 C15 1.397(2) . ?
C15 C16 1.488(2) . ?
C16 C17 1.400(2) . ?
C16 C21 1.397(2) . ?
C17 H17 0.9500 . ?
C17 C18 1.384(2) . ?
C18 H18 0.9500 . ?
C18 C19 1.389(2) . ?
C19 C20 1.398(2) . ?
C19 C22 1.491(2) . ?
C20 H20 0.9500 . ?
C20 C21 1.380(2) . ?
C21 H21 0.9500 . ?
loop_
_geom_hbond_atom_site_label_D
_geom_hbond_atom_site_label_H
_geom_hbond_atom_site_label_A
_geom_hbond_distance_DH
_geom_hbond_distance_HA
_geom_hbond_distance_DA
_geom_hbond_angle_DHA
_geom_hbond_site_symmetry_A
_geom_hbond_publ_flag
C1 H1B O1 0.99 2.60 3.116(2) 112.7 2_767 yes
C2 H2B O2 0.99 2.59 3.391(2) 138.3 . yes
C3 H3A O1 0.99 2.56 3.117(2) 115.7 2_767 yes
N2 H2 O3 0.81(2) 2.23(2) 2.947(2) 148(2) 1_556 yes
N1 H1 O2 0.84(2) 2.38(2) 3.0870(19) 143(2) . yes
O4 H4 O2 0.88(3) 1.69(3) 2.5708(16) 175(2) 1_554 yes
loop_
_geom_torsion_atom_site_label_1
_geom_torsion_atom_site_label_2
_geom_torsion_atom_site_label_3
_geom_torsion_atom_site_label_4
_geom_torsion
_geom_torsion_site_symmetry_1
_geom_torsion_site_symmetry_2
_geom_torsion_site_symmetry_3
_geom_torsion_site_symmetry_4
_geom_torsion_publ_flag
Zn1 O1 C6 O2 23.9(2) . . . . ?
Zn1 O1 C6 C7 -151.82(10) . . . . ?
Zn1 N1 C3 C2 57.70(18) . . . . ?
Zn1 N1 C5 C4 -41.28(16) . . . 2_767 ?
Zn1 N2 C1 C2 -53.92(18) . . . . ?
Zn1 N2 C4 C5 41.86(16) . . . 2_767 ?
O1 C6 C7 C8 164.14(15) . . . . ?
O1 C6 C7 C12 -13.0(2) . . . . ?
O2 C6 C7 C8 -11.9(2) . . . . ?
O2 C6 C7 C12 171.03(15) . . . . ?
N2 C1 C2 C3 70.3(2) . . . . ?
C1 N2 C4 C5 170.28(15) . . . 2_767 ?
C1 C2 C3 N1 -72.9(2) . . . . ?
C3 N1 C5 C4 -167.23(15) . . . 2_767 ?
C4 N2 C1 C2 -176.67(15) . . . . ?
C5 N1 C3 C2 178.33(15) . . . . ?
C6 C7 C8 C9 -175.79(15) . . . . ?
C6 C7 C12 C11 176.09(15) . . . . ?
C7 C8 C9 C10 -0.4(3) . . . . ?
C8 C7 C12 C11 -1.1(2) . . . . ?
C8 C9 C10 C11 -0.9(2) . . . . ?
C8 C9 C10 C13 175.11(15) . . . . ?
C9 C10 C11 C12 1.1(2) . . . . ?
C9 C10 C13 C14 -126.74(18) . . . . ?
C9 C10 C13 C15 50.2(2) . . . 2_556 ?
C10 C11 C12 C7 -0.2(3) . . . . ?
C10 C13 C14 C15 176.59(16) . . . . ?
C11 C10 C13 C14 49.2(2) . . . . ?
C11 C10 C13 C15 -133.92(18) . . . 2_556 ?
C12 C7 C8 C9 1.3(2) . . . . ?
C13 C10 C11 C12 -174.88(15) . . . . ?
C13 C14 C15 C13 0.5(3) . . . 2_556 ?
C13 C14 C15 C16 -176.60(16) . . . . ?
C13 C15 C16 C17 -49.7(2) 2_556 . . . ?
C13 C15 C16 C21 133.76(18) 2_556 . . . ?
C14 C15 C16 C17 127.24(18) . . . . ?
C14 C15 C16 C21 -49.3(2) . . . . ?
C15 C13 C14 C15 -0.5(3) 2_556 . . . ?
C15 C16 C17 C18 -177.45(15) . . . . ?
C15 C16 C21 C20 176.89(16) . . . . ?
C16 C17 C18 C19 0.6(3) . . . . ?
C17 C16 C21 C20 0.3(2) . . . . ?
C17 C18 C19 C20 0.2(2) . . . . ?
C17 C18 C19 C22 -178.90(15) . . . . ?
C18 C19 C20 C21 -0.8(2) . . . . ?
C18 C19 C22 O3 -170.57(16) . . . . ?
C18 C19 C22 O4 10.3(2) . . . . ?
C19 C20 C21 C16 0.6(3) . . . . ?
C20 C19 C22 O3 10.3(2) . . . . ?
C20 C19 C22 O4 -168.79(14) . . . . ?
C21 C16 C17 C18 -0.9(2) . . . . ?
C22 C19 C20 C21 178.35(15) . . . . ?
loop_
_smtbx_masks_void_nr
_smtbx_masks_void_average_x
_smtbx_masks_void_average_y
_smtbx_masks_void_average_z
_smtbx_masks_void_volume
_smtbx_masks_void_count_electrons
_smtbx_masks_void_content
1 -0.889 -0.630 0.500 331.1 19.6 '0.5 C3H7NO'
