#------------------------------------------------------------------------------
#$Date: 2021-07-05 20:38:50 +0300 (Mon, 05 Jul 2021) $
#$Revision: 267178 $
#$URL: file:///home/coder/svn-repositories/cod/cif/7/70/73/7707389.cif $
#------------------------------------------------------------------------------
#
# This file is available in the Crystallography Open Database (COD),
# http://www.crystallography.net/
#
# All data on this site have been placed in the public domain by the
# contributors.
#
data_7707389
loop_
_publ_author_name
'Dissem, Nour'
'Essalhi, Mohamed'
'Ferhi, Najmeddine'
'Abidi, Adela'
'Maris, Thierry'
'Duong, Adam'
_publ_section_title
;
 Flexible and porous 2D layered structures based on mixed-linker
 metal-organic frameworks for gas sorption studies.
;
_journal_issue                   25
_journal_name_full
'Dalton transactions (Cambridge, England : 2003)'
_journal_page_first              8727
_journal_page_last               8735
_journal_paper_doi               10.1039/d1dt00426c
_journal_volume                  50
_journal_year                    2021
_chemical_formula_moiety         'C44 H44 Cu N4 O8, 2(C3 H7 N O)'
_chemical_formula_sum            'C50 H58 Cu N6 O10'
_chemical_formula_weight         966.56
_space_group_crystal_system      triclinic
_space_group_IT_number           2
_space_group_name_Hall           '-P 1'
_space_group_name_H-M_alt        'P -1'
_atom_sites_solution_hydrogens   mixed
_atom_sites_solution_primary     dual
_audit_creation_date             2019-06-28
_audit_creation_method
;
Olex2 1.2
(compiled 2018.05.29 svn.r3508 for OlexSys, GUI svn.r5506)
;
_audit_update_record
;
2020-11-22 deposited with the CCDC.	2021-05-13 downloaded from the CCDC.
;
_cell_angle_alpha                95.110(1)
_cell_angle_beta                 98.690(1)
_cell_angle_gamma                109.430(1)
_cell_formula_units_Z            1
_cell_length_a                   8.0072(3)
_cell_length_b                   10.2227(3)
_cell_length_c                   15.6669(5)
_cell_measurement_reflns_used    9987
_cell_measurement_temperature    100
_cell_measurement_theta_max      70.108
_cell_measurement_theta_min      4.639
_cell_volume                     1182.07(7)
_computing_cell_refinement
'SAINT (2013) V8.38A; Integration Software for Single Crystal Data. Bruker AXS Inc., Madison, WI 53719-1173.'
_computing_data_collection
;
APEX 2 (2013) Bruker AXS Inc., Madison, WI 53719-1173.
;
_computing_data_reduction
'SAINT (2013) V8.38A; Integration Software for Single Crystal Data. Bruker AXS Inc., Madison, WI 53719-1173.'
_computing_molecular_graphics    'Olex2 (Dolomanov et al., 2009)'
_computing_publication_material  'Olex2 (Dolomanov et al., 2009)'
_computing_structure_refinement  'XL (Sheldrick, 2008)'
_computing_structure_solution    'XT (Sheldrick, 2015)'
_diffrn_ambient_temperature      100
_diffrn_detector                 'CCD area detector'
_diffrn_detector_area_resol_mean 8.3
_diffrn_detector_type            'Bruker APEX2 CCD'
_diffrn_measured_fraction_theta_full 0.966
_diffrn_measured_fraction_theta_max 0.965
_diffrn_measurement_device       'three-circle diffractometer'
_diffrn_measurement_device_type  'Bruker Smart APEX'
_diffrn_measurement_method       '\w scans'
_diffrn_radiation_collimation    'Focusing mirrors'
_diffrn_radiation_monochromator  'Quazar MX Mirror Optics'
_diffrn_radiation_probe          x-ray
_diffrn_radiation_type           CuK\a
_diffrn_radiation_wavelength     1.54178
_diffrn_reflns_av_R_equivalents  0.0205
_diffrn_reflns_av_unetI/netI     0.0114
_diffrn_reflns_Laue_measured_fraction_full 0.966
_diffrn_reflns_Laue_measured_fraction_max 0.965
_diffrn_reflns_limit_h_max       9
_diffrn_reflns_limit_h_min       -9
_diffrn_reflns_limit_k_max       12
_diffrn_reflns_limit_k_min       -12
_diffrn_reflns_limit_l_max       19
_diffrn_reflns_limit_l_min       -19
_diffrn_reflns_number            30946
_diffrn_reflns_point_group_measured_fraction_full 0.966
_diffrn_reflns_point_group_measured_fraction_max 0.965
_diffrn_reflns_theta_full        67.679
_diffrn_reflns_theta_max         70.101
_diffrn_reflns_theta_min         4.639
_diffrn_source                   'Microfocus Source'
_diffrn_source_target            Cu
_diffrn_source_type              'Incoatec I\mS High Brilliance Microsource'
_exptl_absorpt_coefficient_mu    1.191
_exptl_absorpt_correction_T_max  0.5220
_exptl_absorpt_correction_T_min  0.4538
_exptl_absorpt_correction_type   multi-scan
_exptl_absorpt_process_details
'SADABS-2016/2 (Bruker,2016/2) was used for absorption correction. wR2(int) was 0.1420 before and 0.0316 after correction. The Ratio of minimum to maximum transmission is 0.8693. The \l/2 correction factor is Not present.'
_exptl_crystal_colour            pink
_exptl_crystal_colour_primary    pink
_exptl_crystal_density_diffrn    1.358
_exptl_crystal_description       block
_exptl_crystal_F_000             509
_exptl_crystal_recrystallization_method 'crystallized from DMF/H2O'
_exptl_crystal_size_max          0.16
_exptl_crystal_size_mid          0.15
_exptl_crystal_size_min          0.11
_refine_diff_density_max         0.484
_refine_diff_density_min         -0.377
_refine_diff_density_rms         0.054
_refine_ls_extinction_method     none
_refine_ls_goodness_of_fit_ref   1.064
_refine_ls_hydrogen_treatment    mixed
_refine_ls_matrix_type           full
_refine_ls_number_parameters     318
_refine_ls_number_reflns         4334
_refine_ls_number_restraints     192
_refine_ls_restrained_S_all      1.100
_refine_ls_R_factor_all          0.0344
_refine_ls_R_factor_gt           0.0333
_refine_ls_shift/su_max          0.000
_refine_ls_shift/su_mean         0.000
_refine_ls_structure_factor_coef Fsqd
_refine_ls_weighting_details
'w=1/[\s^2^(Fo^2^)+(0.0367P)^2^+1.1455P] where P=(Fo^2^+2Fc^2^)/3'
_refine_ls_weighting_scheme      calc
_refine_ls_wR_factor_gt          0.0834
_refine_ls_wR_factor_ref         0.0875
_reflns_Friedel_coverage         0.000
_reflns_number_gt                4264
_reflns_number_total             4334
_reflns_threshold_expression     'I > 2\s(I)'
_cod_data_source_file            d1dt00426c2.cif
_cod_data_source_block           ada200
_cod_depositor_comments
;
The following automatic conversions were performed:

data item '_diffrn_radiation_probe' value 'X-ray' was changed to
'x-ray' in accordance with the
/home/data/users/saulius/crontab/automatic-downloads/rss-feeds/RSC/lib/dictionaries/cif_core.dic
dictionary named 'cif_core.dic' version 2.4.2 last updated on
2011-04-26.

Automatic conversion script
Id: cif_fix_values 7556 2019-12-06 15:28:31Z antanas 

 Adding full bibliography for 7707385--7707390.cif.
;
_cod_database_code               7707389
_shelx_shelxl_version_number     2018/3
_shelx_space_group_comment
;
The symmetry employed for this shelxl refinement is uniquely defined
by the following loop, which should always be used as a source of
symmetry information in preference to the above space-group names.
They are only intended as comments.
;
_shelx_estimated_absorpt_t_max   0.880
_shelx_estimated_absorpt_t_min   0.832
_olex2_refinement_description
;
1. Fixed Uiso
 At 1.2 times of:
  All C(H) groups, All C(H,H) groups
 At 1.5 times of:
  All C(H,H,H) groups
2. Uiso/Uaniso restraints and constraints
All non-hydrogen atoms have similar U: within 2A with sigma of 0.002 and sigma
for terminal atoms of 0.02
3.a Secondary CH2 refined with riding coordinates:
 C1(H1A,H1B), C2(H2A,H2B), C3(H3A,H3B), C4(H4A,H4B), C5(H5A,H5B)
3.b Aromatic/amide H refined with riding coordinates:
 C8(H8), C9(H9), C11(H11), C12(H12), C14(H14), C17(H17), C18(H18), C20(H20),
 C21(H21), C1A(H1AA)
3.c Idealised Me refined as rotating group:
 C2A(H2AA,H2AB,H2AC), C3A(H3AA,H3AB,H3AC)
;
_shelx_res_file
;
TITL ada200_a.res in P-1
    ada200.res
    created by SHELXL-2018/3 at 09:32:11 on 28-Jun-2019
REM Old TITL ada200 in P-1
REM SHELXT solution in P-1
REM R1 0.097, Rweak 0.007, Alpha 0.048, Orientation as input
REM Formula found by SHELXT: C52 N4 O10 Cu
CELL 1.54178 8.0072 10.2227 15.6669 95.11 98.69 109.43
ZERR 1 0.0003 0.0003 0.0005 0.001 0.001 0.001
LATT 1
SFAC C H Cu N O
UNIT 50 58 1 6 10
EQIV $1 2-X,1-Y,2-Z
EQIV $2 2-X,1-Y,1-Z
EQIV $3 +X,+Y,-1+Z
SIMU 0.002 0.02 2

L.S. 20
PLAN  10
SIZE 0.11 0.15 0.16
TEMP -173
HTAB C1 O1
HTAB C4 O1_$1
HTAB N1 O4_$2
HTAB N2 O2
HTAB O3 O2_$3
HTAB
CONF
WPDB
MORE -1
BOND $H
LIST 6
fmap 2
acta
OMIT 1 5 7
OMIT 4 4 8
OMIT 3 5 7
OMIT 2 7 7
OMIT 3 3 8
OMIT 3 2 12
OMIT 0 5 12
OMIT 4 2 12
OMIT 0 5 15
OMIT 1 7 8
OMIT 0 6 12
OMIT 3 4 7
OMIT 4 5 7
REM <olex2.extras>
REM <HklSrc "%.\\ada200.hkl">
REM </olex2.extras>

WGHT    0.036700    1.145500
FVAR       1.10311
CU1   3    1.000000    0.500000    1.000000    10.50000    0.01420    0.01274 =
         0.01104    0.00103    0.00253    0.00500
O1    5    0.686894    0.423053    0.928358    11.00000    0.01728    0.01781 =
         0.01810    0.00014   -0.00222    0.00296
O2    5    0.619538    0.208768    0.967005    11.00000    0.01544    0.02299 =
         0.01203    0.00536    0.00208    0.00528
O3    5    0.447428    0.134453    0.088214    11.00000    0.02559    0.01900 =
         0.01509    0.00389    0.00967    0.00599
O4    5    0.591800    0.348614    0.166133    11.00000    0.02413    0.02037 =
         0.02364    0.00265    0.01194    0.00137
N1    4    1.066156    0.508950    0.881002    11.00000    0.01405    0.02598 =
         0.01360    0.00157    0.00262    0.00363
N2    4    1.009585    0.303633    0.987911    11.00000    0.01308    0.01454 =
         0.02626    0.00042    0.00088    0.00515
C1    1    0.982239    0.581224    0.819503    11.00000    0.01917    0.03774 =
         0.01514    0.00880    0.00119    0.00418
AFIX  23
H1A   2    0.850946    0.528067    0.803001    11.00000   -1.20000
H1B   2    1.033552    0.582928    0.765772    11.00000   -1.20000
AFIX   0
C2    1    1.036506    0.363572    0.843406    11.00000    0.01878    0.02927 =
         0.02004   -0.00849    0.00488    0.00484
AFIX  23
H2A   2    1.103227    0.363773    0.795092    11.00000   -1.20000
H2B   2    0.906490    0.312629    0.819863    11.00000   -1.20000
AFIX   0
C3    1    1.102735    0.292343    0.914572    11.00000    0.01807    0.02188 =
         0.02967   -0.00805    0.00372    0.00749
AFIX  23
H3A   2    1.076261    0.192449    0.892239    11.00000   -1.20000
H3B   2    1.234851    0.338062    0.934449    11.00000   -1.20000
AFIX   0
C4    1    1.086430    0.258686    1.066971    11.00000    0.01780    0.01999 =
         0.03531    0.00979   -0.00138    0.00689
AFIX  23
H4A   2    1.215307    0.318050    1.085954    11.00000   -1.20000
H4B   2    1.079391    0.160428    1.052838    11.00000   -1.20000
AFIX   0
C5    1    0.987242    0.269358    1.141172    11.00000    0.01901    0.03041 =
         0.03383    0.01979   -0.00023    0.00474
AFIX  23
H5A   2    1.026160    0.220514    1.187814    11.00000   -1.20000
H5B   2    0.856325    0.219843    1.119289    11.00000   -1.20000
AFIX   0
C6    1    0.598338    0.295015    0.915836    11.00000    0.01191    0.01910 =
         0.01190    0.00075    0.00352    0.00522
C7    1    0.462146    0.233627    0.831755    11.00000    0.01199    0.01633 =
         0.01125    0.00045    0.00277    0.00476
C8    1    0.433451    0.319357    0.771007    11.00000    0.01450    0.01339 =
         0.01428    0.00081    0.00257    0.00291
AFIX  43
H8    2    0.496356    0.417779    0.783712    11.00000   -1.20000
AFIX   0
C9    1    0.314005    0.262377    0.692231    11.00000    0.01555    0.01492 =
         0.01152    0.00248    0.00195    0.00487
AFIX  43
H9    2    0.296784    0.321794    0.651067    11.00000   -1.20000
AFIX   0
C10   1    0.218574    0.117672    0.673005    11.00000    0.01348    0.01529 =
         0.01123    0.00100    0.00286    0.00477
C11   1    0.245961    0.032359    0.734739    11.00000    0.01529    0.01378 =
         0.01409    0.00143    0.00250    0.00351
AFIX  43
H11   2    0.181194   -0.065837    0.722794    11.00000   -1.20000
AFIX   0
C12   1    0.366560    0.089565    0.813130    11.00000    0.01539    0.01530 =
         0.01227    0.00276    0.00280    0.00503
AFIX  43
H12   2    0.384212    0.030384    0.854377    11.00000   -1.20000
AFIX   0
C13   1    0.098680    0.056490    0.585916    11.00000    0.01552    0.01265 =
         0.01227    0.00166    0.00155    0.00598
C14   1    0.170714    0.096024    0.512666    11.00000    0.01412    0.01304 =
         0.01372    0.00124    0.00145    0.00410
AFIX  43
H14   2    0.289263    0.163339    0.521508    11.00000   -1.20000
AFIX   0
C15   1    0.078228    0.042134    0.426842    11.00000    0.01616    0.01287 =
         0.01235    0.00225    0.00269    0.00669
C16   1    0.176810    0.087939    0.355101    11.00000    0.01425    0.01599 =
         0.01193    0.00337    0.00115    0.00622
C17   1    0.171095   -0.006873    0.283822    11.00000    0.01620    0.01416 =
         0.01355    0.00210    0.00213    0.00399
AFIX  43
H17   2    0.098273   -0.102890    0.279205    11.00000   -1.20000
AFIX   0
C18   1    0.270192    0.037025    0.219603    11.00000    0.01712    0.01714 =
         0.01319    0.00171    0.00248    0.00695
AFIX  43
H18   2    0.264137   -0.028657    0.171305    11.00000   -1.20000
AFIX   0
C19   1    0.378674    0.177601    0.225994    11.00000    0.01472    0.01799 =
         0.01373    0.00471    0.00280    0.00720
C20   1    0.388046    0.272678    0.297625    11.00000    0.01716    0.01551 =
         0.01658    0.00413    0.00260    0.00448
AFIX  43
H20   2    0.463446    0.368158    0.302910    11.00000   -1.20000
AFIX   0
C21   1    0.287675    0.228440    0.361270    11.00000    0.01786    0.01639 =
         0.01347    0.00125    0.00268    0.00605
AFIX  43
H21   2    0.294237    0.294246    0.409607    11.00000   -1.20000
AFIX   0
C22   1    0.484480    0.229465    0.157398    11.00000    0.01568    0.01926 =
         0.01681    0.00624    0.00393    0.00910

O1A   5    0.300736    0.469854    0.534628    11.00000    0.04962    0.02940 =
         0.02836    0.00729    0.00607    0.02025
N1A   4    0.255912    0.667457    0.497663    11.00000    0.03593    0.02698 =
         0.05302   -0.00107   -0.00257    0.01777
C1A   1    0.311847    0.559129    0.487350    11.00000    0.03404    0.02585 =
         0.03579    0.00225    0.00210    0.01542
AFIX  43
H1AA  2    0.365822    0.550830    0.438113    11.00000   -1.20000
AFIX   0
C2A   1    0.176774    0.690530    0.572020    11.00000    0.05683    0.07012 =
         0.07579   -0.02221    0.00283    0.04211
AFIX 137
H2AA  2    0.056602    0.693965    0.551700    11.00000   -1.50000
H2AB  2    0.253540    0.779588    0.608358    11.00000   -1.50000
H2AC  2    0.166507    0.613686    0.606433    11.00000   -1.50000
AFIX   0
C3A   1    0.271276    0.764300    0.433437    11.00000    0.07011    0.05115 =
         0.12386    0.04429    0.02298    0.03768
AFIX 137
H3AA  2    0.343044    0.859909    0.462454    11.00000   -1.50000
H3AB  2    0.150608    0.760607    0.406780    11.00000   -1.50000
H3AC  2    0.330465    0.737238    0.388067    11.00000   -1.50000
AFIX   0

H1    2    1.178588    0.552963    0.891530    11.00000    0.01965
H2    2    0.896938    0.256057    0.974776    11.00000    0.02174
H3    2    0.505217    0.164112    0.048565    11.00000    0.04455
HKLF 4




REM  ada200_a.res in P-1
REM wR2 = 0.087455, GooF = S = 1.06352, Restrained GooF = 1.09967 for all data
REM R1 = 0.033253 for 4264 Fo > 4sig(Fo) and 0.034413 for all 4334 data
REM 318 parameters refined using 192 restraints

END

WGHT      0.0367      1.1464

REM Instructions for potential hydrogen bonds
HTAB C1 O1
HTAB C4 O1_$1
HTAB N1 O4_$2
HTAB N2 O2
HTAB O3 O2_$3

REM Highest difference peak  0.484,  deepest hole -0.377,  1-sigma level  0.054
Q1    1   0.2932  0.8011  0.5000  11.00000  0.05    0.48
Q2    1   0.2425  0.6653  0.5425  11.00000  0.05    0.43
Q3    1   0.9896  0.3407  1.1570  11.00000  0.05    0.38
Q4    1   0.1601  0.0777  0.6295  11.00000  0.05    0.34
Q5    1  -0.0149  0.0011  0.4162  11.00000  0.05    0.33
Q6    1   1.0277  0.5051  0.9264  11.00000  0.05    0.31
Q7    1   0.4384  0.1573  0.8184  11.00000  0.05    0.29
Q8    1   1.0659  0.3144  0.8756  11.00000  0.05    0.29
Q9    1   0.3538  0.1145  0.2297  11.00000  0.05    0.28
Q10   1   0.2377  0.0753  0.6999  11.00000  0.05    0.27
;
_shelx_res_checksum              14979
_shelx_hkl_file
;
  -1   0   0  641.14   14.00
  -1   0   0  657.83   13.80
  -1   0   0  651.63   13.80
  -1   0   0  655.13   13.90
  -1   0   0  647.44   14.30
   1   0   0  648.24   14.30
   1   0   0  663.03   14.10
   1   0   0  653.53   14.30
   1   0   0  664.73   14.00
  -2   0   0  355.36    9.10
  -2   0   0  345.27    8.10
  -2   0   0  353.96    8.40
   2   0   0  377.76    9.10
   2   0   0  350.36    9.10
   2   0   0  353.86    8.90
   2   0   0  362.66    9.30
   2   0   0  339.17    8.90
   2   0   0  348.87    8.60
  -3   0   0 4192.38   86.99
  -3   0   0 4219.58   85.89
  -3   0   0 3970.90   85.19
  -3   0   0 4063.79   86.79
   3   0   0 4025.30   86.19
   3   0   0 4078.19   86.79
   3   0   0 4112.79   86.89
   3   0   0 4136.09   87.39
   3   0   0 4214.18   87.49
  -4   0   0  401.06   12.20
  -4   0   0  403.06   10.40
  -4   0   0  402.16   11.90
  -4   0   0  415.86   11.10
   4   0   0  398.46   12.10
   4   0   0  406.06   12.40
   4   0   0  432.86   12.90
   4   0   0  421.16   13.10
  -5   0   0  391.86   13.20
  -5   0   0  405.46   11.80
  -5   0   0  399.96   12.70
   5   0   0  401.26   13.80
   5   0   0  382.16   13.90
   5   0   0  390.26   12.70
   5   0   0  389.36   13.30
   6   0   0   40.10    3.50
   6   0   0   33.10    3.80
   6   0   0   33.70    3.30
   6   0   0   34.20    4.00
   6   0   0   31.20    3.20
   6   0   0   36.70    3.70
   6   0   0   45.70    3.60
   6   0   0   35.20    3.50
   6   0   0   41.30    4.30
   6   0   0   33.50    4.10
   7   0   0  320.67   10.80
   7   0   0  327.07   11.60
   7   0   0  339.17   10.50
   7   0   0  317.77   10.70
   7   0   0  330.77   11.70
   7   0   0  332.37   11.00
   7   0   0  335.97   12.00
   7   0   0  343.87   12.50
   7   0   0  324.27   10.30
   7   0   0  329.57   10.40
  -8   0   0   34.90    3.30
   8   0   0   43.40    3.30
   8   0   0   39.80    3.70
   8   0   0   40.30    3.90
   8   0   0   33.00    3.70
   8   0   0   36.80    3.40
   8   0   0   36.20    3.40
   8   0   0   43.90    3.60
   8   0   0   43.60    2.80
   8   0   0   36.60    3.00
  -9   0   0    0.00    0.70
   9   0   0   -0.20    0.60
   9   0   0    1.10    0.70
   9  -1   0  116.89    4.60
   9  -1   0  111.79    4.80
   9  -1   0  116.79    4.80
   9  -1   0  113.59    4.30
  -9   1   0  108.49    4.80
  -9   1   0  119.89    4.70
   8  -1   0  202.98    7.90
   8  -1   0  195.18    7.20
   8  -1   0  200.58    8.00
   8  -1   0  189.28    8.20
   8  -1   0  193.58    7.50
   8  -1   0  196.78    6.70
   8  -1   0  187.98    8.20
  -8   1   0  207.88    7.60
   7  -1   0   89.29    4.90
   7  -1   0   78.39    4.30
   7  -1   0   81.89    5.20
   7  -1   0   87.19    4.50
   7  -1   0   76.99    6.00
   7  -1   0   78.89    6.20
   7  -1   0   89.89    5.60
   7  -1   0   85.99    4.40
   7  -1   0   83.19    4.70
   7  -1   0   90.59    4.70
  -7   1   0   83.39    4.90
   6  -1   0  931.91   23.20
   6  -1   0  944.41   23.20
   6  -1   0  935.61   24.50
   6  -1   0  912.31   22.70
   6  -1   0  957.70   24.90
   6  -1   0  923.41   22.90
   6  -1   0  947.41   24.30
   6  -1   0  928.91   22.80
   6  -1   0  997.60   26.30
   6  -1   0  947.71   24.30
   6  -1   0  923.91   23.30
   6  -1   0  935.01   23.70
   5  -1   0  141.29    6.60
   5  -1   0  151.88    6.60
   5  -1   0  147.99    7.10
   5  -1   0  134.19    7.10
  -5   1   0  147.09    5.50
  -5   1   0  135.79    6.60
  -5   1   0  141.09    5.90
  -5   1   0  141.09    6.20
   4  -1   0  861.41   22.10
   4  -1   0  856.61   21.20
   4  -1   0  874.31   21.40
   4  -1   0  882.81   21.90
  -4   1   0  880.81   20.50
  -4   1   0  833.92   21.40
  -4   1   0  880.31   21.20
  -4   1   0  868.11   20.00
   3  -1   0 2591.24   55.59
   3  -1   0 2501.35   55.39
   3  -1   0 2641.74   55.29
   3  -1   0 2588.24   55.69
   3  -1   0 2582.64   55.79
  -3   1   0 2525.35   54.39
  -3   1   0 2645.64   55.69
  -3   1   0 2658.73   54.89
  -3   1   0 2618.84   54.49
   2  -1   0 1609.04   33.90
   2  -1   0 1576.64   33.90
   2  -1   0 1653.63   34.00
   2  -1   0 1530.75   33.90
   2  -1   0 1586.14   33.50
  -2   1   0 1583.64   33.30
  -2   1   0 1546.65   33.40
  -2   1   0 1568.44   33.90
  -2   1   0 1622.14   33.50
   1  -1   0   10.10    0.70
   1  -1   0    9.90    0.70
   1  -1   0    9.70    0.60
  -1   1   0    8.60    0.60
  -1   1   0    9.30    0.60
  -1   1   0    8.60    0.50
  -1   1   0    9.40    0.60
   0  -1   0  649.14   14.10
   0  -1   0  695.13   14.20
   0  -1   0  685.33   14.50
   0   1   0  667.23   14.60
   0   1   0  677.53   14.10
   0   1   0  660.93   14.60
   0   1   0  667.73   14.20
   0   1   0  648.24   14.40
   0   1   0  658.53   14.50
  -1  -1   0 3331.77   70.39
  -1  -1   0 3214.88   70.29
   1   1   0 3350.16   70.69
   1   1   0 3394.06   70.79
   1   1   0 3486.75   70.99
   1   1   0 3558.34   70.69
  -2  -1   0 4078.99   86.39
  -2  -1   0 4073.39   85.29
  -2  -1   0 4219.18   86.39
   2   1   0 4311.67   86.59
   2   1   0 4078.59   86.59
   2   1   0 4059.59   86.39
   2   1   0 4109.19   87.09
   2   1   0 4057.49   86.89
  -3  -1   0 9780.22  204.88
   3   1   0 9999.00  205.58
   3   1   0 9890.81  205.08
  -4  -1   0 1131.39   27.80
  -4  -1   0 1165.88   28.30
  -4  -1   0 1146.19   26.50
   4   1   0 1119.69   28.70
   4   1   0 1154.88   28.00
   4   1   0 1142.09   29.60
   4   1   0 1135.89   29.10
  -5  -1   0  475.25   14.90
  -5  -1   0  483.35   13.70
  -5  -1   0  480.95   15.70
   5   1   0  469.85   16.80
   5   1   0  474.25   15.90
   5   1   0  478.55   16.30
   6   1   0   61.29    3.50
   6   1   0   60.99    5.60
   6   1   0   53.59    5.10
   6   1   0   65.09    4.00
   6   1   0   58.29    5.30
   6   1   0   62.49    5.00
   6   1   0   56.99    5.50
   6   1   0   57.99    3.70
   6   1   0   58.39    3.80
   6   1   0   59.09    5.20
   6   1   0   58.09    4.70
  -7  -1   0  954.20   23.80
   7   1   0  952.70   23.80
   7   1   0  958.60   24.30
   7   1   0  956.70   23.90
   7   1   0  961.30   25.30
   7   1   0  966.30   24.30
   7   1   0  971.30   25.30
   7   1   0  962.90   26.10
   7   1   0  958.60   24.40
   7   1   0 1021.00   26.00
   8   1   0   83.99    4.20
   8   1   0   84.49    4.40
   8   1   0   84.49    3.80
   8   1   0   82.69    4.20
   8   1   0   80.39    3.80
   8   1   0   85.09    4.60
   8   1   0   82.99    4.60
   8   1   0   84.09    3.90
   9  -2   0    0.90    0.90
   9  -2   0   -1.20    0.80
   9  -2   0    0.80    0.80
   9  -2   0    0.10    0.80
  -9   2   0    1.40    1.00
  -9   2   0    0.40    0.90
  -9   2   0    0.80    0.80
   8  -2   0   61.49    5.20
   8  -2   0   63.79    5.40
   8  -2   0   64.89    5.00
   8  -2   0   60.99    3.90
   8  -2   0   61.99    4.90
   8  -2   0   62.39    3.70
  -8   2   0   62.49    4.90
  -8   2   0   62.49    4.80
   7  -2   0   11.70    2.50
   7  -2   0    9.50    1.80
   7  -2   0    8.70    1.70
   7  -2   0   12.60    2.50
   7  -2   0    9.20    1.90
   7  -2   0   13.90    2.70
   7  -2   0   15.80    2.80
  -7   2   0   11.60    2.30
   6  -2   0  241.18    8.10
   6  -2   0  257.17   10.80
   6  -2   0  249.68    8.50
   6  -2   0  244.38    9.10
   6  -2   0  244.88    9.00
   6  -2   0  247.28    9.90
   6  -2   0  255.87    8.40
  -6   2   0  243.68   10.30
  -6   2   0  257.67    8.90
   5  -2   0    8.00    1.90
   5  -2   0    7.30    1.60
   5  -2   0    7.80    1.70
   5  -2   0   25.00    3.40
  -5   2   0    6.90    1.30
  -5   2   0   11.20    1.90
  -5   2   0    7.50    1.70
  -5   2   0   14.00    2.00
   4  -2   0    2.80    0.90
   4  -2   0    3.30    1.00
   4  -2   0    3.30    1.10
   4  -2   0    3.20    1.10
   4  -2   0    2.10    0.80
  -4   2   0    2.20    0.90
  -4   2   0    3.40    0.90
  -4   2   0    2.50    0.80
  -4   2   0    2.20    0.80
   3  -2   0  122.49    4.50
   3  -2   0  121.59    4.20
   3  -2   0  121.09    4.30
   3  -2   0  121.69    4.50
   3  -2   0  122.99    4.10
  -3   2   0  122.09    4.00
  -3   2   0  124.19    4.10
  -3   2   0  123.99    4.40
  -3   2   0  120.59    4.10
   2  -2   0 1946.51   39.90
   2  -2   0 1834.32   39.70
   2  -2   0 1842.22   39.40
   2  -2   0 1795.52   39.50
   2  -2   0 1941.11   39.60
  -2   2   0 1869.01   39.60
  -2   2   0 1879.41   39.40
  -2   2   0 1841.42   39.60
  -2   2   0 1879.91   39.50
  -2   2   0 1891.91   39.40
   0  -2   0 1099.29   23.20
   0  -2   0 1100.49   23.90
   0  -2   0 1094.79   23.40
   0   2   0 1069.29   23.90
   0   2   0 1096.39   24.10
   0   2   0 1096.19   23.50
   0   2   0 1051.19   23.10
   0   2   0 1092.59   24.30
   0   2   0 1085.29   24.10
  -1  -2   0    8.70    1.00
  -1  -2   0   10.80    1.30
  -1  -2   0    8.40    1.10
   1   2   0   17.00    2.00
   1   2   0    8.40    1.40
   1   2   0   11.30    1.60
   1   2   0    8.10    1.30
   1   2   0    8.70    1.20
   1   2   0   10.30    1.10
  -2  -2   0   46.80    2.00
  -2  -2   0   67.99    3.20
  -2  -2   0   57.59    2.90
   2   2   0   42.30    2.50
   2   2   0   52.99    3.10
   2   2   0   45.30    3.00
   2   2   0   49.60    3.20
   2   2   0   45.70    3.20
  -3  -2   0  142.09    5.70
  -3  -2   0  137.09    4.70
  -3  -2   0  135.59    5.80
   3   2   0  139.89    6.70
   3   2   0  133.39    6.30
   3   2   0  136.59    6.30
   3   2   0  153.78    6.40
  -4  -2   0 1106.99   30.40
  -4  -2   0 1262.57   30.60
  -4  -2   0 1329.27   31.30
  -4  -2   0 1226.98   28.70
   4   2   0 1238.48   32.00
   4   2   0 1272.77   32.90
   4   2   0 1293.47   32.30
   5   2   0    4.80    1.40
   5   2   0    6.50    1.50
   5   2   0    5.30    1.40
   5   2   0    7.90    2.00
   5   2   0    9.20    2.60
   5   2   0   24.90    3.60
   5   2   0    5.70    1.90
   5   2   0    8.60    2.00
   5   2   0    5.10    1.70
   5   2   0    6.50    1.50
   6   2   0  301.97    9.70
   6   2   0  277.67    9.80
   6   2   0  279.67   10.60
   6   2   0  286.67   10.80
   6   2   0  294.97   11.00
   6   2   0  267.27   11.00
   6   2   0  284.97   11.20
   6   2   0  287.07   10.20
   6   2   0  287.57    9.70
   6   2   0  285.27    9.80
   7   2   0   25.30    2.90
   7   2   0   29.10    3.40
   7   2   0   27.20    2.80
   7   2   0   28.40    3.00
   7   2   0   26.90    3.00
   7   2   0   27.40    3.70
   7   2   0   25.40    3.30
   7   2   0   27.30    2.90
   7   2   0   25.30    3.20
  -8  -2   0    0.30    0.80
   8   2   0    1.00    0.80
   8   2   0    1.40    0.90
   8   2   0    1.10    0.70
   8   2   0    0.60    0.70
   8   2   0    1.00    0.90
   8   2   0    0.70    0.60
   8   2   0    1.70    0.80
   8   2   0    0.90    0.70
   9  -3   0    5.80    1.40
   9  -3   0    6.70    1.50
   9  -3   0   10.10    1.80
  -9   3   0    7.20    1.60
  -9   3   0    4.80    1.40
  -9   3   0    5.90    1.50
   8  -3   0   17.20    2.70
   8  -3   0   18.00    2.80
   8  -3   0   19.20    2.90
   8  -3   0   15.90    2.60
   8  -3   0   18.60    2.60
  -8   3   0   19.30    2.90
   7  -3   0   48.80    4.60
   7  -3   0   45.00    4.60
   7  -3   0   47.30    4.00
   7  -3   0   45.90    4.50
   7  -3   0   52.69    4.90
   7  -3   0   39.90    3.50
  -7   3   0   47.40    4.50
  -7   3   0   48.10    4.40
   6  -3   0   15.20    2.20
   6  -3   0   12.00    1.80
   6  -3   0   15.10    2.90
   6  -3   0   12.80    2.70
   6  -3   0   12.20    2.10
   6  -3   0   14.70    2.40
  -6   3   0   15.70    2.40
  -6   3   0   12.60    2.30
  -6   3   0    6.40    2.00
   5  -3   0   12.50    2.30
   5  -3   0   13.00    2.30
   5  -3   0   13.90    2.20
  -5   3   0   14.90    2.40
  -5   3   0   15.00    2.20
  -5   3   0   12.70    2.00
  -5   3   0   13.30    1.90
   4  -3   0 1277.47   27.90
   4  -3   0 1208.98   28.50
   4  -3   0 1216.28   27.70
   4  -3   0 1252.07   28.70
   4  -3   0 1191.88   28.30
  -4   3   0 1157.08   27.90
  -4   3   0 1232.78   27.90
  -4   3   0 1277.47   27.90
  -4   3   0 1200.28   28.10
   3  -3   0 1082.89   24.50
   3  -3   0 1118.79   24.90
   3  -3   0 1121.89   24.90
   3  -3   0 1103.09   24.20
  -3   3   0 1089.09   24.70
  -3   3   0 1066.09   24.20
  -3   3   0 1079.79   24.20
  -3   3   0 1079.19   24.80
  -3   3   0 1091.79   24.40
   2  -3   0   90.69    3.10
   2  -3   0   86.49    3.40
   2  -3   0   88.59    3.10
   2  -3   0   89.99    3.40
  -2   3   0   86.09    3.30
  -2   3   0   89.49    3.50
  -2   3   0   88.19    3.10
  -2   3   0   95.89    3.50
  -2   3   0   88.29    3.70
  -2   3   0   89.59    2.80
   1  -3   0 1475.75   31.90
   1  -3   0 1433.46   31.30
   1  -3   0 1441.06   31.70
  -1   3   0 1473.35   30.90
  -1   3   0 1436.06   31.40
  -1   3   0 1468.55   32.50
  -1   3   0 1464.65   32.40
  -1   3   0 1458.75   31.80
   0  -3   0  171.28    5.00
   0  -3   0  171.48    5.20
   0  -3   0  182.98    5.80
   0   3   0  182.28    6.10
   0   3   0  178.08    6.00
   0   3   0  173.88    5.90
   0   3   0  177.88    5.10
   0   3   0  174.68    6.20
   0   3   0  176.78    5.40
  -1  -3   0   75.39    3.10
  -1  -3   0   73.09    3.20
  -1  -3   0   74.19    3.30
   1   3   0   68.69    3.10
   1   3   0   72.69    3.60
   1   3   0   68.39    3.70
   1   3   0   72.09    3.90
   1   3   0   72.79    4.00
  -2  -3   0 1818.92   40.80
  -2  -3   0 1916.61   41.30
  -2  -3   0 1768.12   40.90
   2   3   0 1844.22   42.50
   2   3   0 1752.62   41.30
   2   3   0 1898.01   42.20
   2   3   0 1903.51   43.00
   2   3   0 1821.72   42.40
  -3  -3   0  413.36   12.40
  -3  -3   0  411.46   12.60
  -3  -3   0  394.96   12.40
   3   3   0  410.66   14.00
   3   3   0  389.96   13.30
   3   3   0  410.96   13.40
   3   3   0  379.36   13.30
  -4  -3   0   45.00    4.70
  -4  -3   0   42.80    4.40
  -4  -3   0   40.10    4.20
   4   3   0   38.30    5.00
   4   3   0   41.60    5.40
   4   3   0   48.20    5.20
   5   3   0    5.00    2.00
   5   3   0    4.80    1.40
   5   3   0    2.70    1.40
   5   3   0    4.40    1.90
   5   3   0    2.30    1.20
   5   3   0    3.30    1.50
   5   3   0    2.10    1.10
   5   3   0    4.00    1.30
   5   3   0    3.00    1.20
   5   3   0    6.30    1.90
   6   3   0 1538.05   35.80
   6   3   0 1527.35   36.20
   6   3   0 1495.95   35.60
   6   3   0 1526.85   37.90
   6   3   0 1511.35   35.50
   6   3   0 1533.05   37.10
   6   3   0 1534.35   37.30
   6   3   0 1492.55   36.70
   6   3   0 1541.05   38.00
  -7  -3   0   76.99    4.30
   7   3   0   79.19    4.00
   7   3   0   70.69    4.10
   7   3   0   78.09    4.00
   7   3   0   73.39    4.00
   7   3   0   72.99    4.40
   7   3   0   75.09    4.30
   7   3   0   73.99    3.80
   7   3   0   64.89    5.20
   9  -4   0   45.20    3.50
   9  -4   0   34.20    3.20
  -9   4   0   38.80    3.40
  -9   4   0   42.50    3.60
   8  -4   0   26.10    3.10
   8  -4   0   24.40    3.10
   8  -4   0   27.90    3.00
   8  -4   0   21.50    2.90
   8  -4   0   25.90    3.30
  -8   4   0   26.60    3.30
  -8   4   0   26.90    3.30
  -8   4   0   24.10    3.00
   7  -4   0  103.39    5.40
   7  -4   0   98.09    5.30
   7  -4   0   85.09    5.20
   7  -4   0   89.59    5.20
   7  -4   0   89.99    4.80
   7  -4   0   91.79    4.70
  -7   4   0   94.49    5.50
  -7   4   0   87.49    5.20
   6  -4   0   73.69    4.30
   6  -4   0   64.59    3.60
   6  -4   0   63.59    3.90
   6  -4   0   69.19    4.10
  -6   4   0   61.59    4.20
   5  -4   0  531.25   15.60
   5  -4   0  521.95   15.50
  -5   4   0  542.85   14.80
  -5   4   0  559.44   15.60
  -5   4   0  549.54   14.90
   4  -4   0 2053.69   44.60
   4  -4   0 2135.29   45.70
   4  -4   0 2005.90   45.00
   4  -4   0 2049.89   45.60
  -4   4   0 1993.80   44.60
  -4   4   0 2069.89   45.80
  -4   4   0 2021.80   45.60
  -4   4   0 2040.50   44.90
   3  -4   0 2425.06   53.89
   3  -4   0 2622.94   54.89
   3  -4   0 2584.84   54.79
   3  -4   0 2504.85   54.19
   3  -4   0 2526.15   53.89
  -3   4   0 2637.04   55.19
  -3   4   0 2581.94   54.29
  -3   4   0 2475.75   55.19
  -3   4   0 2537.05   55.19
  -3   4   0 2498.85   53.69
   2  -4   0  678.23   16.30
   2  -4   0  686.83   16.00
   2  -4   0  664.33   16.30
   2  -4   0  667.13   15.70
  -2   4   0  673.83   15.60
  -2   4   0  671.03   16.40
  -2   4   0  647.44   17.10
  -2   4   0  653.73   16.70
  -2   4   0  703.23   16.90
   1  -4   0 5503.45  114.39
   1  -4   0 5557.14  113.69
   1  -4   0 5439.26  114.59
  -1   4   0 5356.26  113.99
  -1   4   0 5510.05  115.49
  -1   4   0 5495.05  114.69
  -1   4   0 5405.76  114.49
  -1   4   0 5463.15  115.49
   0  -4   0 4102.29   89.39
   0  -4   0 4314.37   88.99
   0  -4   0 4256.17   88.09
   0  -4   0 4158.08   87.69
   0   4   0 4147.79   88.59
   0   4   0 4258.17   90.19
   0   4   0 4215.98   89.49
   0   4   0 4171.88   89.79
   0   4   0 4078.29   87.79
  -1  -4   0    8.10    1.30
  -1  -4   0    8.20    1.40
  -1  -4   0    8.80    1.70
  -1  -4   0    6.20    1.30
   1   4   0    6.50    1.60
   1   4   0    8.80    2.00
   1   4   0    9.00    1.60
   1   4   0   13.30    2.30
   1   4   0    8.70    1.90
  -2  -4   0   45.40    3.20
  -2  -4   0   46.70    3.30
  -2  -4   0   38.70    4.00
  -2  -4   0   42.60    3.10
   2   4   0   48.40    4.90
   2   4   0   53.09    5.30
   2   4   0   36.10    4.10
   2   4   0   44.40    3.50
  -3  -4   0  540.15   16.00
  -3  -4   0  556.64   15.90
  -3  -4   0  513.55   15.90
   3   4   0  535.95   17.60
   3   4   0  548.05   18.00
   3   4   0  526.15   17.40
   4   4   0    2.80    1.80
   4   4   0    1.80    1.50
   4   4   0    2.00    1.10
   4   4   0    1.50    1.00
   4   4   0    6.40    1.60
   4   4   0    1.40    1.20
   4   4   0    3.50    1.50
   4   4   0    3.10    1.30
   4   4   0    1.90    1.30
   4   4   0    2.20    1.30
   5   4   0   15.20    2.60
   5   4   0    8.70    2.40
   5   4   0   10.90    2.00
   5   4   0   12.90    2.10
   5   4   0    9.80    2.20
   5   4   0   11.50    2.40
   5   4   0   13.40    2.60
   5   4   0   13.50    2.80
   5   4   0    8.10    1.80
   6   4   0   41.90    3.60
   6   4   0   45.40    3.90
   6   4   0   46.40    4.00
   6   4   0   43.60    4.10
   6   4   0   47.00    3.90
   6   4   0   47.80    4.60
   6   4   0   43.90    4.70
   6   4   0   49.40    4.50
   6   4   0   43.80    4.30
   7   4   0   43.80    2.70
   7   4   0   56.69    3.50
   7   4   0   52.29    3.20
   7   4   0   52.49    2.90
   7   4   0   53.19    3.00
   7   4   0   49.50    3.00
   7   4   0   50.19    3.10
   7   4   0   54.09    2.90
   9  -5   0  294.77    9.50
   9  -5   0  316.07    9.50
  -9   5   0  309.87    9.40
  -9   5   0  318.77    9.90
  -9   5   0  288.57    9.60
   8  -5   0   45.30    5.00
   8  -5   0   42.60    4.20
   8  -5   0   41.90    4.10
   8  -5   0   40.90    4.00
  -8   5   0   44.50    4.50
  -8   5   0   42.90    3.90
  -8   5   0   41.10    4.20
   7  -5   0  712.53   19.20
   7  -5   0  702.33   19.50
   7  -5   0  700.03   19.20
   7  -5   0  719.13   19.30
  -7   5   0  739.23   19.90
  -7   5   0  710.63   20.20
  -7   5   0  672.13   19.50
   6  -5   0  308.17   10.00
   6  -5   0  318.97    9.60
   6  -5   0  314.67   10.10
   6  -5   0  296.47   10.20
   6  -5   0  314.57    9.90
  -6   5   0  323.37   10.50
  -6   5   0  309.37   10.90
  -6   5   0  310.27   10.60
   5  -5   0  556.64   16.60
   5  -5   0  601.34   16.80
  -5   5   0  608.54   17.20
  -5   5   0  575.94   16.30
   4  -5   0    6.00    1.40
   4  -5   0    1.90    0.80
   4  -5   0    1.80    0.70
   4  -5   0    1.70    0.90
  -4   5   0    4.40    1.40
  -4   5   0    0.90    0.70
  -4   5   0    1.40    1.00
   3  -5   0   39.90    2.80
   3  -5   0   42.30    2.80
   3  -5   0   45.20    2.60
   3  -5   0   39.60    2.50
  -3   5   0   43.00    3.30
  -3   5   0   44.30    2.70
  -3   5   0   41.80    3.10
  -3   5   0   42.10    3.20
   2  -5   0  409.86   11.00
   2  -5   0  418.26   11.50
   2  -5   0  422.76   11.80
   2  -5   0  431.16   11.70
  -2   5   0  403.86   12.30
  -2   5   0  418.36   10.80
  -2   5   0  429.56   12.40
  -2   5   0  409.16   12.90
  -2   5   0  405.46   11.80
   1  -5   0  380.96   10.80
   1  -5   0  365.06   10.10
   1  -5   0  350.06   10.90
  -1   5   0  366.16   11.90
  -1   5   0  345.77   11.70
  -1   5   0  363.26   11.10
  -1   5   0  351.26   11.00
  -1   5   0  354.96   10.50
   0  -5   0 2233.28   49.90
   0  -5   0 2341.77   50.59
   0  -5   0 2306.37   52.29
   0  -5   0 2386.86   51.69
   0   5   0 2359.06   53.39
   0   5   0 2225.28   51.29
   0   5   0 2266.77   52.69
   0   5   0 2299.27   52.19
  -1  -5   0 3302.57   73.69
  -1  -5   0 3238.68   71.99
  -1  -5   0 3376.06   72.39
   1   5   0 3268.87   74.39
   1   5   0 3416.86   74.89
   1   5   0 3312.47   75.29
   1   5   0 3432.06   74.49
  -2  -5   0  720.13   21.20
  -2  -5   0  756.72   20.20
  -2  -5   0  718.73   19.80
   2   5   0  702.23   22.20
   2   5   0  778.62   21.70
   2   5   0  738.13   22.00
   2   5   0  753.52   22.10
  -3  -5   0   72.09    5.00
   3   5   0   81.39    6.10
   3   5   0   76.69    5.70
   3   5   0   72.19    6.10
   3   5   0   85.69    6.30
   3   5   0   67.49    5.90
   3   5   0   67.39    7.20
   3   5   0   70.09    4.00
   3   5   0   68.99    4.60
   3   5   0   79.39    4.50
   4   5   0  118.49    5.70
   4   5   0  128.19    6.40
   4   5   0  124.29    5.60
   4   5   0  110.99    6.20
   4   5   0  123.99    6.10
   4   5   0  118.99    6.50
   4   5   0  122.79    6.50
   4   5   0  122.39    6.90
   4   5   0  122.49    6.90
   5   5   0  612.64   16.70
   5   5   0  590.24   17.20
   5   5   0  611.84   17.60
   5   5   0  610.34   18.50
   5   5   0  605.24   18.30
   5   5   0  593.64   16.30
   5   5   0  622.84   17.80
   5   5   0  613.24   17.10
   6   5   0   10.50    1.80
   6   5   0    9.50    1.80
   6   5   0    9.40    1.70
   6   5   0    9.70    1.70
   6   5   0    9.10    1.90
   6   5   0   11.50    2.00
   6   5   0   11.80    2.30
   6   5   0    9.10    1.60
   9  -6   0   46.50    3.40
   9  -6   0   47.30    3.60
  -9   6   0   50.49    4.00
  -9   6   0   45.70    3.70
  -9   6   0   46.40    2.90
   8  -6   0  145.49    6.40
   8  -6   0  134.99    6.10
  -8   6   0  133.49    6.80
  -8   6   0  139.29    6.60
   7  -6   0  190.68    7.70
   7  -6   0  209.28    8.00
   7  -6   0  187.98    7.90
   7  -6   0  213.38    8.30
  -7   6   0  203.28    8.40
  -7   6   0  220.58    9.20
  -7   6   0  214.18    8.70
   6  -6   0  145.19    6.10
   6  -6   0  134.99    6.20
   6  -6   0  147.59    6.10
   6  -6   0  138.79    5.90
  -6   6   0  145.39    6.60
  -6   6   0  146.79    6.80
  -6   6   0  150.48    7.10
   5  -6   0 1864.61   44.20
   5  -6   0 1951.60   44.40
  -5   6   0 1824.92   43.90
  -5   6   0 1944.21   45.60
   4  -6   0 1236.28   31.10
   4  -6   0 1298.47   31.20
  -4   6   0 1306.17   32.20
  -4   6   0 1330.97   32.70
  -4   6   0 1323.17   30.90
   3  -6   0   24.00    2.50
   3  -6   0   20.00    2.50
   3  -6   0   22.20    2.30
   3  -6   0   26.50    2.80
  -3   6   0   20.10    2.80
  -3   6   0   25.40    3.40
  -3   6   0   21.50    3.20
   2  -6   0 1640.44   37.10
   2  -6   0 1616.14   36.90
   2  -6   0 1515.85   35.90
   2  -6   0 1581.64   37.00
  -2   6   0 1635.34   37.70
  -2   6   0 1609.94   39.20
  -2   6   0 1600.84   38.30
  -2   6   0 1610.64   38.40
   1  -6   0  117.09    5.60
   1  -6   0  119.69    5.10
   1  -6   0  114.69    5.80
  -1   6   0  119.19    5.60
  -1   6   0  124.39    6.80
  -1   6   0  121.49    6.10
  -1   6   0  123.99    6.70
   0  -6   0    8.90    1.80
   0  -6   0    7.80    1.90
   0  -6   0    9.30    2.20
   0   6   0    8.20    2.40
   0   6   0    9.00    2.10
   0   6   0    4.50    1.70
   0   6   0    7.60    2.00
  -1  -6   0  304.77   12.10
  -1  -6   0  300.07   11.40
  -1  -6   0  317.97   10.70
   1   6   0  316.27   12.20
   1   6   0  299.27   12.80
   1   6   0  316.57   12.60
   2   6   0   73.49    5.50
   2   6   0   76.59    4.50
   2   6   0   70.99    4.40
   2   6   0   64.19    5.40
   2   6   0   74.29    6.00
   2   6   0   65.79    5.50
   2   6   0   67.59    4.10
   2   6   0   75.39    5.90
   2   6   0   73.69    5.60
   2   6   0   62.49    6.70
   3   6   0  149.69    7.10
   3   6   0  143.09    7.50
   3   6   0  150.58    6.60
   3   6   0  155.28    7.60
   3   6   0  141.89    6.90
   3   6   0  137.19    7.30
   3   6   0  148.69    6.90
   3   6   0  152.58    6.40
   3   6   0  152.48    7.10
   4   6   0   11.80    2.50
   4   6   0    9.30    2.00
   4   6   0    7.30    1.80
   4   6   0    9.70    1.90
   4   6   0   10.00    2.20
   4   6   0   10.10    2.40
   4   6   0    8.80    1.90
   4   6   0   11.80    2.60
   4   6   0    7.60    2.00
   5   6   0  113.69    5.50
   5   6   0  112.19    5.30
   5   6   0  112.39    5.40
   5   6   0  109.99    4.80
   5   6   0  118.49    5.70
   5   6   0  111.59    5.20
   5   6   0  107.69    4.90
   5   6   0  118.29    6.00
   5   6   0  114.49    6.00
   6   6   0    7.40    1.20
   6   6   0    9.00    1.40
   6   6   0    9.00    1.60
   6   6   0    8.20    1.20
   6   6   0    7.20    1.20
   6   6   0    7.30    1.40
   6   6   0    7.30    1.30
   6   6   0    8.20    1.20
   9  -7   0   71.19    3.50
   9  -7   0   68.79    3.40
  -9   7   0   65.99    3.90
  -9   7   0   63.59    3.60
   8  -7   0  120.39    5.50
   8  -7   0  121.39    5.50
  -8   7   0  119.99    5.90
  -8   7   0  120.49    5.80
  -8   7   0  131.79    6.60
   7  -7   0  158.38    6.60
   7  -7   0  154.98    6.50
  -7   7   0  144.89    7.30
  -7   7   0  161.08    7.20
  -7   7   0  159.18    7.70
   6  -7   0   75.09    4.40
   6  -7   0   65.99    3.90
   6  -7   0   66.59    4.00
   6  -7   0   70.49    3.90
  -6   7   0   67.89    5.60
  -6   7   0   66.79    5.60
  -6   7   0   68.79    5.70
   5  -7   0    2.40    1.20
   5  -7   0    0.90    0.70
   5  -7   0    0.30    0.70
  -5   7   0    0.20    0.60
  -5   7   0    0.30    1.30
  -5   7   0   -0.80    0.90
  -5   7   0    5.10    1.70
   4  -7   0   63.99    4.20
   4  -7   0   61.19    4.20
  -4   7   0   56.29    5.60
  -4   7   0   66.29    6.40
   3  -7   0  127.99    6.00
   3  -7   0  112.29    5.30
   3  -7   0  118.89    5.80
  -3   7   0  117.79    6.60
  -3   7   0  129.89    7.30
  -3   7   0  134.39    7.30
   2  -7   0  269.27    9.00
   2  -7   0  267.97    9.60
   2  -7   0  261.97    9.70
   2  -7   0  260.67    9.60
  -2   7   0  276.97   10.50
  -2   7   0  263.57   10.70
  -2   7   0  277.87   11.00
  -2   7   0  272.87   11.50
   1  -7   0  361.36   11.30
   1  -7   0  346.57   12.20
   1  -7   0  364.96   12.20
   1  -7   0  361.56   12.60
  -1   7   0  345.07   13.10
  -1   7   0  367.46   14.20
  -1   7   0  387.76   14.30
   0  -7   0  211.28    9.10
   0  -7   0  199.58    9.30
   0  -7   0  213.58    8.40
   0   7   0  220.58    9.80
   0   7   0  212.78   10.50
   0   7   0  213.98    9.60
   0   7   0  216.48   10.60
   1   7   0   25.10    3.60
   1   7   0   21.40    2.80
   1   7   0   20.70    3.30
   1   7   0   22.80    3.10
   1   7   0   25.30    3.20
   1   7   0   22.90    3.30
   1   7   0   21.40    2.80
   1   7   0   23.20    3.10
   1   7   0   18.50    3.00
   1   7   0   20.90    3.60
   2   7   0  160.38    7.40
   2   7   0  172.58    7.20
   2   7   0  173.28    7.70
   2   7   0  174.18    8.10
   2   7   0  193.48    7.00
   2   7   0  167.38    7.50
   2   7   0  165.78    7.90
   2   7   0  174.78    8.30
   2   7   0  176.18    8.60
   2   7   0  168.18    7.30
   3   7   0    2.70    1.10
   3   7   0    3.10    1.40
   3   7   0    3.40    1.50
   3   7   0    3.60    1.70
   3   7   0    4.00    1.60
   3   7   0    2.40    1.20
   3   7   0    4.80    1.70
   3   7   0    2.60    1.30
   3   7   0    5.00    1.60
   4   7   0  219.88    8.30
   4   7   0  205.08    7.60
   4   7   0  223.88    8.70
   4   7   0  218.38    7.90
   4   7   0  222.48    8.30
   4   7   0  236.68    9.00
   4   7   0  225.18    8.20
   4   7   0  219.58    8.90
   5   7   0   97.89    4.60
   5   7   0   99.59    4.70
   5   7   0   99.99    4.30
   5   7   0   94.89    4.10
   5   7   0  101.59    4.30
   5   7   0   90.79    3.90
   5   7   0  103.99    4.40
   5   7   0  104.49    4.30
   9  -8   0   43.90    2.50
   9  -8   0   50.79    2.60
  -9   8   0   46.30    3.00
   8  -8   0    1.80    0.90
   8  -8   0    3.40    1.10
  -8   8   0    3.10    1.30
  -8   8   0    1.30    1.00
  -8   8   0    1.80    1.40
   7  -8   0  462.75   13.30
   7  -8   0  466.35   13.30
  -7   8   0  469.75   15.10
  -7   8   0  466.35   14.30
  -7   8   0  470.25   14.90
   6  -8   0  250.67    8.40
   6  -8   0  238.18    8.20
   6  -8   0  245.98    8.40
   6  -8   0  247.78    8.70
  -6   8   0  238.28    9.90
  -6   8   0  246.08    9.90
  -6   8   0  248.28   10.00
   5  -8   0  447.36   12.50
   5  -8   0  435.26   12.40
   5  -8   0  422.36   12.70
  -5   8   0  445.06   14.50
  -5   8   0  443.96   14.30
  -5   8   0  440.86   14.30
  -5   8   0  434.16   12.20
  -5   8   0  413.96   14.40
   4  -8   0 1154.98   27.10
   4  -8   0 1130.39   27.50
  -4   8   0 1160.48   30.30
  -4   8   0 1179.28   29.60
  -4   8   0 1153.58   27.20
  -4   8   0 1142.69   29.40
  -4   8   0 1171.08   27.30
  -4   8   0 1158.78   29.50
   3  -8   0  143.59    5.80
  -3   8   0  141.89    6.80
  -3   8   0  134.59    5.70
  -3   8   0  146.59    7.30
  -3   8   0  138.29    7.20
  -3   8   0  145.59    7.30
  -3   8   0  145.09    6.80
  -3   8   0  137.49    5.80
  -3   8   0  136.69    5.80
  -2   8   0  281.97   10.40
  -2   8   0  269.87    9.20
  -2   8   0  288.57    9.20
  -2   8   0  272.27    9.30
  -2   8   0  275.97   10.90
  -2   8   0  291.67   11.10
  -2   8   0  248.48    9.10
  -2   8   0  275.57    9.60
  -2   8   0  271.87    9.40
  -2   8   0  273.17    9.00
  -2   8   0  273.07   10.60
  -1   8   0  269.77   10.60
  -1   8   0  273.37    9.90
  -1   8   0  260.87    9.70
  -1   8   0  266.47    9.60
  -1   8   0  267.47    9.40
  -1   8   0  289.87   10.10
  -1   8   0  273.37   10.80
  -1   8   0  279.57    9.20
  -1   8   0  255.07   10.90
  -1   8   0  274.57    9.30
   0   8   0   86.39    5.20
   0   8   0   85.49    6.40
   0   8   0   85.39    5.60
   0   8   0   88.89    4.80
   0   8   0   86.69    5.10
   0   8   0   87.39    4.90
   0   8   0   82.89    5.20
   0   8   0   84.09    4.40
   0   8   0   91.29    4.90
   0   8   0   82.19    7.00
   1   8   0   43.00    4.10
   1   8   0   39.10    3.80
   1   8   0   56.59    4.40
   1   8   0   36.80    4.00
   1   8   0   41.90    4.30
   1   8   0   47.10    5.20
   1   8   0   38.30    4.20
   1   8   0   41.70    3.90
   1   8   0   41.40    4.40
   2   8   0  238.08    8.60
   2   8   0  235.48   10.10
   2   8   0  233.48    9.20
   2   8   0  236.58    9.00
   2   8   0  220.48    9.50
   2   8   0  224.48    9.50
   2   8   0  234.68    9.40
   2   8   0  238.68    8.60
   2   8   0  234.78    8.90
   3   8   0   56.29    3.40
   3   8   0   70.79    4.20
   3   8   0   67.69    4.10
   3   8   0   65.59    5.00
   3   8   0   78.09    4.70
   3   8   0   71.29    4.00
   3   8   0   68.89    3.90
   3   8   0   66.89    5.20
   3   8   0   69.79    5.70
   4   8   0   59.69    3.30
   4   8   0   68.69    3.90
   4   8   0   64.99    3.70
   4   8   0   60.19    3.30
   4   8   0   66.19    3.30
   4   8   0   61.79    3.20
   4   8   0   54.29    4.00
   4   8   0   60.49    3.10
   8  -9   0  340.07    9.50
   8  -9   0  320.47    9.40
  -8   9   0  312.07   10.40
  -8   9   0  333.77   10.40
   7  -9   0    0.80    0.80
   7  -9   0    0.00    0.70
   7  -9   0    0.10    0.60
  -7   9   0    0.30    1.00
  -7   9   0    2.10    1.40
  -7   9   0    0.80    1.20
   6  -9   0  117.79    5.10
   6  -9   0  117.69    5.20
  -6   9   0  118.39    6.50
  -6   9   0  121.29    6.60
  -6   9   0  119.99    6.50
   5  -9   0   29.00    3.00
   5  -9   0   26.30    2.70
   5  -9   0   28.70    3.10
  -5   9   0   27.20    2.80
  -5   9   0   29.40    4.20
  -5   9   0   31.30    4.00
  -5   9   0   22.10    3.60
   4  -9   0  172.98    6.50
   4  -9   0  163.78    6.50
  -4   9   0  165.98    6.50
  -4   9   0  172.18    8.00
  -4   9   0  169.08    8.20
  -4   9   0  175.08    8.00
  -4   9   0  172.38    8.60
  -4   9   0  180.58    6.60
   3  -9   0  868.11   21.60
  -3   9   0  885.21   21.60
  -3   9   0  784.22   21.20
  -3   9   0  889.41   21.60
  -3   9   0  888.11   24.60
  -3   9   0  852.71   24.00
  -3   9   0  848.62   21.40
  -3   9   0  848.42   23.90
  -3   9   0  879.81   23.90
  -2   9   0 1431.16   36.30
  -2   9   0 1401.46   33.40
  -2   9   0 1419.06   33.10
  -2   9   0 1398.56   33.20
  -2   9   0 1412.06   36.30
  -2   9   0 1426.36   33.40
  -2   9   0 1415.46   33.70
  -2   9   0 1400.06   35.90
  -2   9   0 1423.96   35.10
  -2   9   0 1405.76   33.60
  -2   9   0 1410.46   33.80
  -1   9   0  305.57   10.80
  -1   9   0  291.17    9.90
  -1   9   0  323.37   10.70
  -1   9   0  307.77   12.00
  -1   9   0  297.97   12.20
  -1   9   0  306.27   10.80
  -1   9   0  297.87   10.10
  -1   9   0  307.47   10.40
  -1   9   0  301.77   10.70
  -1   9   0  311.97   12.00
   0   9   0    1.40    1.20
   0   9   0    1.70    1.40
   0   9   0    2.60    1.30
   0   9   0    0.40    0.70
   0   9   0    4.00    1.30
   0   9   0    3.00    1.30
   0   9   0    3.10    1.90
   0   9   0    4.20    1.40
   0   9   0    1.60    0.90
   0   9   0    2.00    1.20
   1   9   0 1288.57   30.00
   1   9   0 1288.47   31.40
   1   9   0 1231.48   30.50
   1   9   0 1212.48   30.10
   1   9   0 1193.78   30.50
   1   9   0 1279.87   31.20
   1   9   0 1213.68   29.60
   1   9   0 1326.37   33.00
   1   9   0 1238.48   31.10
   2   9   0  116.49    5.60
   2   9   0  104.89    5.00
   2   9   0  117.99    5.80
   2   9   0  116.29    5.50
   2   9   0  119.19    6.10
   2   9   0  109.49    5.60
   2   9   0  104.09    5.20
   2   9   0  104.99    4.90
   2   9   0  117.09    5.10
   3   9   0  131.89    5.00
   3   9   0  136.79    5.30
   3   9   0  145.79    5.70
   3   9   0  135.79    5.40
   3   9   0  146.49    5.30
   3   9   0  142.29    5.70
   3   9   0  144.09    5.10
   3   9   0  144.59    5.60
   8 -10   0   19.00    1.70
   8 -10   0   18.10    1.70
  -8  10   0   16.20    2.00
  -8  10   0   15.40    3.10
   7 -10   0   92.19    4.00
   7 -10   0   86.39    3.90
  -7  10   0   90.49    4.90
  -7  10   0   86.89    4.60
  -7  10   0   90.19    4.80
   6 -10   0  306.87    9.20
   6 -10   0  317.27    9.20
  -6  10   0  301.97   10.80
  -6  10   0  272.17   10.00
  -6  10   0  320.37   11.00
   5 -10   0 3131.89   67.59
   5 -10   0 3154.48   67.69
   5 -10   0 3238.58   67.99
  -5  10   0 3139.19   70.59
  -5  10   0 3084.19   70.09
  -5  10   0 3051.49   70.59
  -5  10   0 3159.28   67.29
   4 -10   0  185.68    6.60
   4 -10   0  184.88    6.80
  -4  10   0  176.38    8.60
  -4  10   0  188.18    6.50
  -4  10   0  178.48    6.50
  -4  10   0  169.28    8.00
  -4  10   0  175.38    8.20
   3 -10   0   21.80    2.50
  -3  10   0   21.60    3.40
  -3  10   0   22.50    2.50
  -3  10   0   19.90    3.20
  -3  10   0   21.80    3.70
  -3  10   0   19.30    2.40
  -3  10   0   23.00    2.80
  -3  10   0   20.70    2.40
  -3  10   0   23.60    3.50
   2 -10   0  226.18    8.10
  -2  10   0  246.68    8.40
  -2  10   0  241.48    8.20
  -2  10   0  241.98    8.60
  -2  10   0  235.68    9.90
  -2  10   0  239.18    8.30
  -2  10   0  232.38   10.10
  -2  10   0  236.18    8.20
  -2  10   0  237.98    8.30
  -2  10   0  236.78   10.10
  -1  10   0   21.00    3.20
  -1  10   0   34.30    3.30
  -1  10   0   27.50    3.10
  -1  10   0   23.50    2.80
  -1  10   0   26.90    3.00
  -1  10   0   27.40    4.00
  -1  10   0   27.50    3.90
  -1  10   0   25.50    3.10
  -1  10   0   29.60    3.10
  -1  10   0   27.00    2.90
   0 -10   0   61.79    3.40
   0  10   0   62.69    5.70
   0  10   0   65.59    4.00
   0  10   0   66.99    4.00
   0  10   0   58.59    3.70
   0  10   0   65.19    3.70
   0  10   0   66.59    5.60
   0  10   0   55.99    4.40
   0  10   0   68.19    5.00
   0  10   0   64.69    3.70
   1  10   0  533.95   14.40
   1  10   0  493.45   13.90
   1  10   0  505.75   14.30
   1  10   0  524.15   14.30
   1  10   0  495.35   13.80
   1  10   0  497.55   13.60
   1  10   0  526.45   13.70
   1  10   0  507.55   15.20
   2  10   0   14.30    1.80
   2  10   0   14.10    1.70
   2  10   0   15.20    1.80
   2  10   0   13.40    1.60
   2  10   0   19.10    2.20
   2  10   0   13.70    1.70
   2  10   0   14.60    1.80
   2  10   0   12.70    1.60
   7 -11   0  123.09    4.20
   7 -11   0  114.49    4.20
  -7  11   0  140.29    5.00
  -7  11   0  112.49    4.80
   6 -11   0    3.40    0.90
   6 -11   0    0.40    0.60
  -6  11   0   -0.90    0.90
  -6  11   0   -0.80    1.00
  -6  11   0   -0.40    0.80
   5 -11   0  178.38    5.90
   5 -11   0  174.88    5.90
  -5  11   0  166.08    7.20
  -5  11   0  178.08    7.40
   4 -11   0  583.84   14.40
   4 -11   0  531.35   14.40
  -4  11   0  567.24   16.40
  -4  11   0  556.84   15.90
  -4  11   0  599.14   17.00
  -4  11   0  559.34   14.20
   3 -11   0  402.76   10.80
   3 -11   0  384.16   10.90
  -3  11   0  372.16   12.10
  -3  11   0  397.96   10.90
  -3  11   0  401.26   12.30
  -3  11   0  383.46   10.70
  -3  11   0  389.76   13.00
  -3  11   0  401.56   12.80
   2 -11   0  266.07    8.30
  -2  11   0  270.97    8.20
  -2  11   0  290.77   10.20
  -2  11   0  282.17   10.00
  -2  11   0  270.57    8.30
  -2  11   0  273.77   10.00
  -2  11   0  267.27    8.50
  -2  11   0  259.47    8.20
  -2  11   0  279.07    8.40
  -2  11   0  296.47    8.40
   1 -11   0    4.60    1.10
  -1  11   0    5.40    1.20
  -1  11   0    4.90    1.20
  -1  11   0    6.80    1.30
  -1  11   0   -0.50    0.90
  -1  11   0    5.80    1.20
  -1  11   0    5.50    1.30
  -1  11   0    5.80    1.20
  -1  11   0    3.80    1.40
  -1  11   0    6.00    1.60
   0  11   0  171.78    5.70
   0  11   0  164.78    5.70
   0  11   0  164.78    5.50
   0  11   0  166.48    5.60
   0  11   0  158.68    5.40
   0  11   0  154.08    6.00
   0  11   0  170.58    6.70
   0  11   0  171.68    5.90
   1  11   0  110.69    3.80
   1  11   0  111.89    4.00
   1  11   0  107.59    4.30
   1  11   0  108.39    3.90
   1  11   0  116.49    3.80
   1  11   0  115.49    4.10
   1  11   0  111.29    3.90
   5 -12   0    9.60    1.20
   5 -12   0    8.80    1.10
  -5  12   0    8.40    1.50
  -5  12   0   10.00    1.60
   4 -12   0   29.40    2.10
   4 -12   0   24.30    1.90
  -4  12   0   25.40    2.70
  -4  12   0   29.60    2.70
  -4  12   0   25.10    2.40
   3 -12   0    2.30    0.80
   3 -12   0    2.00    0.70
  -3  12   0    2.10    0.90
  -3  12   0    2.80    0.80
  -3  12   0    1.80    1.00
  -3  12   0    0.80    0.80
   2 -12   0   90.89    3.30
   2 -12   0   88.99    3.30
  -2  12   0   97.69    4.10
  -2  12   0   86.79    4.10
  -2  12   0   85.39    3.20
  -2  12   0   84.09    3.90
  -2  12   0   91.19    3.30
  -2  12   0   89.49    3.30
   1 -12   0   59.29    2.30
  -1  12   0   55.29    2.80
  -1  12   0   57.19    2.90
  -1  12   0   58.19    2.40
  -1  12   0   55.69    2.50
  -1  12  -1   15.40    1.80
  -1  12  -1   16.00    1.40
  -1  12  -1   13.40    1.40
  -1  12  -1   14.80    1.80
   1 -12   1   15.10    1.30
   1 -12   1   15.50    1.40
  -2  12  -1   54.09    3.10
  -2  12  -1   51.79    3.10
  -2  12  -1   52.29    2.40
  -2  12  -1   53.69    3.20
   2 -12   1   48.70    2.40
   2 -12   1   53.69    2.50
  -3  12  -1  371.36   10.70
  -3  12  -1  365.86   10.10
  -3  12  -1  368.86   11.00
   3 -12   1  363.96    9.50
   3 -12   1  370.16    9.60
  -4  12  -1  174.48    6.30
  -4  12  -1  192.38    6.90
  -4  12  -1  194.68    6.40
   4 -12   1  174.68    5.40
   4 -12   1  177.98    5.50
   4 -12   1  188.18    5.60
  -5  12  -1   35.20    3.00
  -5  12  -1   30.10    2.70
   5 -12   1   31.30    1.80
   5 -12   1   34.30    1.90
   1  11  -1    9.10    1.30
   1  11  -1    9.10    1.30
   1  11  -1    8.80    1.30
   1  11  -1   10.60    1.20
   1  11  -1    7.70    1.50
   1  11  -1   10.50    1.30
   1  11  -1    9.50    1.20
   0  11  -1  355.26    9.70
   0  11  -1  363.06    9.90
   0  11  -1  367.26    9.80
   0  11  -1  357.36   10.10
   0  11  -1  351.46    9.70
   0  11  -1  362.26   11.40
   0  11  -1  365.06   10.30
   0  11  -1  360.36   10.80
  -1  11  -1   78.39    3.70
  -1  11  -1   73.39    3.60
  -1  11  -1   78.29    4.00
  -1  11  -1   73.89    3.60
  -1  11  -1   78.49    4.90
  -1  11  -1   78.89    3.70
  -1  11  -1   78.79    3.70
  -1  11  -1   78.89    4.80
   1 -11   1   79.39    3.80
  -2  11  -1   72.99    3.80
  -2  11  -1   88.89    4.00
  -2  11  -1   87.29    5.20
  -2  11  -1   75.39    3.70
  -2  11  -1   82.59    5.10
  -2  11  -1   81.59    5.00
  -2  11  -1   79.79    3.70
   2 -11   1   73.09    3.80
  -3  11  -1   33.90    2.80
  -3  11  -1   37.90    3.70
  -3  11  -1   35.90    3.70
  -3  11  -1   32.40    2.70
  -3  11  -1   36.50    4.00
  -3  11  -1   32.70    3.90
   3 -11   1   36.10    2.90
   3 -11   1   38.20    3.10
  -4  11  -1    8.00    2.00
  -4  11  -1   18.40    3.00
  -4  11  -1    9.00    1.90
   4 -11   1    9.90    1.60
   4 -11   1    9.90    1.50
   4 -11   1    8.50    1.40
  -5  11  -1  493.65   14.50
  -5  11  -1  484.55   14.40
   5 -11   1  503.85   12.60
   5 -11   1  450.05   12.60
   5 -11   1  475.25   12.40
  -6  11  -1  700.13   18.00
  -6  11  -1  680.83   17.30
  -6  11  -1  675.33   17.60
   6 -11   1  650.43   16.20
   6 -11   1  674.43   16.30
  -7  11  -1    6.20    1.30
  -7  11  -1   10.40    1.60
   7 -11   1   10.30    1.30
   7 -11   1    8.50    1.10
   2  10  -1  110.99    4.70
   2  10  -1  118.29    4.70
   2  10  -1  123.99    5.00
   2  10  -1  118.29    4.50
   2  10  -1  120.19    4.50
   2  10  -1  121.19    5.10
   2  10  -1  117.39    4.90
   2  10  -1  119.89    4.70
   1  10  -1  169.68    6.60
   1  10  -1  157.58    7.40
   1  10  -1  182.68    6.40
   1  10  -1  171.58    6.80
   1  10  -1  174.88    6.90
   1  10  -1  178.08    6.40
   1  10  -1  169.78    6.80
   1  10  -1  170.98    6.50
   0  10  -1  162.48    6.60
   0  10  -1  148.89    6.70
   0  10  -1  165.08    7.00
   0  10  -1  165.28    6.60
   0  10  -1  171.58    6.40
   0  10  -1  161.18    8.00
   0  10  -1  164.08    6.40
   0  10  -1  159.78    6.70
   0  10  -1  157.58    7.40
   0 -10   1  167.08    6.20
  -1  10  -1  269.97    9.20
  -1  10  -1  287.07    9.50
  -1  10  -1  294.67    9.70
  -1  10  -1  279.47    9.20
  -1  10  -1  295.57    9.50
  -1  10  -1  294.37   11.30
  -1  10  -1  295.27   11.10
  -1  10  -1  290.57    9.80
  -1  10  -1  279.67   11.40
  -1  10  -1  271.07    9.80
   1 -10   1  283.97    8.90
  -2  10  -1  180.88    6.80
  -2  10  -1  182.08    6.90
  -2  10  -1  173.38    7.00
  -2  10  -1  164.98    6.60
  -2  10  -1  177.38    8.40
  -2  10  -1  174.58    8.40
  -2  10  -1  161.88    8.30
  -2  10  -1  174.38    7.00
   2 -10   1  174.58    6.80
  -3  10  -1  805.12   23.20
  -3  10  -1  852.81   23.10
  -3  10  -1  878.61   20.70
  -3  10  -1  845.42   24.00
  -3  10  -1  822.72   20.80
  -3  10  -1  822.92   22.80
   3 -10   1  805.72   20.90
  -4  10  -1  140.59    6.90
  -4  10  -1  136.69    7.10
  -4  10  -1  149.09    7.70
  -4  10  -1  131.49    5.40
  -4  10  -1  129.99    5.30
   4 -10   1  139.59    5.80
   4 -10   1  144.19    5.70
  -5  10  -1    1.40    1.20
  -5  10  -1    0.80    1.30
  -5  10  -1    1.20    1.40
   5 -10   1    5.50    1.30
   5 -10   1    2.80    1.20
   5 -10   1    3.40    1.00
  -6  10  -1    2.70    1.50
  -6  10  -1    4.40    1.60
  -6  10  -1    2.60    1.40
   6 -10   1    2.40    0.90
   6 -10   1    2.20    1.00
   6 -10   1    1.80    0.90
  -7  10  -1  142.89    6.00
  -7  10  -1  132.89    5.80
  -7  10  -1  146.29    6.30
   7 -10   1  146.39    5.30
   7 -10   1  139.09    5.20
  -8  10  -1  140.59    5.20
   8 -10   1  126.69    4.50
   8 -10   1  147.29    4.70
   3   9  -1  170.58    6.60
   3   9  -1  172.28    6.10
   3   9  -1  178.48    6.50
   3   9  -1  181.78    6.00
   3   9  -1  171.58    6.30
   3   9  -1  173.68    6.40
   3   9  -1  180.78    6.80
   3   9  -1  174.28    6.00
  -3  -9   1  172.18    5.80
   2   9  -1  327.57   10.90
   2   9  -1  313.87   10.00
   2   9  -1  316.07    9.90
   2   9  -1  329.97   10.90
   2   9  -1  317.17   10.10
   2   9  -1  327.27   10.50
   2   9  -1  315.77   11.40
   2   9  -1  314.87   10.50
   2   9  -1  322.07   11.00
   1   9  -1  817.72   22.50
   1   9  -1  855.31   22.50
   1   9  -1  851.21   21.20
   1   9  -1  831.42   21.20
   1   9  -1  849.61   23.90
   1   9  -1  839.72   21.90
   1   9  -1  837.32   21.50
   1   9  -1  797.02   22.20
   1   9  -1  799.52   21.80
   0   9  -1  120.79    5.70
   0   9  -1  128.69    7.00
   0   9  -1  130.09    6.40
   0   9  -1  125.79    6.10
   0   9  -1  120.19    5.60
   0   9  -1  115.99    6.20
   0   9  -1  114.19    7.00
   0   9  -1  125.59    5.70
   0   9  -1  119.99    6.20
   0   9  -1  130.69    6.20
  -1   9  -1  759.32   22.10
  -1   9  -1  779.22   20.00
  -1   9  -1  780.62   19.30
  -1   9  -1  696.73   19.40
  -1   9  -1  658.33   19.50
  -1   9  -1  754.62   19.30
  -1   9  -1  749.82   21.50
  -1   9  -1  693.03   19.80
  -1   9  -1  745.93   20.30
  -1   9  -1  750.42   21.60
   1  -9   1  684.53   18.80
  -2   9  -1   53.69    5.10
  -2   9  -1   52.79    5.70
  -2   9  -1   49.80    4.20
  -2   9  -1   50.39    4.20
  -2   9  -1   47.40    4.30
  -2   9  -1   45.40    3.90
  -2   9  -1   53.49    4.20
  -2   9  -1   54.79    5.60
  -2   9  -1   43.60    4.90
  -2   9  -1   46.50    3.80
  -3   9  -1   -0.20    0.70
  -3   9  -1    2.40    1.50
  -3   9  -1    1.30    0.90
  -3   9  -1    3.00    1.60
  -3   9  -1    2.20    1.30
  -3   9  -1    1.10    1.40
  -3   9  -1    1.10    0.80
   3  -9   1    2.80    1.10
  -4   9  -1 2417.06   53.29
  -4   9  -1 2425.36   57.09
  -4   9  -1 2450.25   55.89
  -4   9  -1 2431.16   53.59
  -4   9  -1 2404.26   56.19
  -4   9  -1 2404.56   56.09
   4  -9   1 2478.25   53.59
   4  -9   1 2460.05   53.99
  -5   9  -1  192.48    8.80
  -5   9  -1  183.98    6.80
  -5   9  -1  175.98    8.30
  -5   9  -1  195.68    8.50
   5  -9   1  193.38    6.90
   5  -9   1  191.08    7.30
   5  -9   1  191.38    7.00
  -6   9  -1  189.88    8.40
  -6   9  -1  202.98    8.70
  -6   9  -1  198.18    8.60
   6  -9   1  201.28    7.50
   6  -9   1  194.28    7.20
   6  -9   1  204.68    7.20
  -7   9  -1  465.45   14.10
  -7   9  -1  423.96   13.40
  -7   9  -1  447.16   14.10
   7  -9   1  451.65   12.70
   7  -9   1  455.85   12.60
   7  -9   1  464.75   12.70
  -8   9  -1   38.20    3.40
  -8   9  -1   31.00    3.10
   8  -9   1   31.40    2.50
   8  -9   1   33.00    2.70
   4   8  -1   30.50    2.60
   4   8  -1   33.10    2.80
   4   8  -1   19.80    2.30
   4   8  -1   31.30    2.60
   4   8  -1   35.40    3.00
   4   8  -1   35.70    3.10
   4   8  -1   30.30    3.00
   4   8  -1   37.10    3.50
   3   8  -1   87.59    5.30
   3   8  -1   87.99    5.30
   3   8  -1   84.19    4.40
   3   8  -1   83.59    4.40
   3   8  -1   86.29    4.70
   3   8  -1   85.39    4.80
   3   8  -1   84.89    4.20
   3   8  -1   86.29    5.10
   3   8  -1   84.79    4.80
   2   8  -1  618.24   16.70
   2   8  -1  617.24   17.80
   2   8  -1  620.34   18.20
   2   8  -1  617.64   17.30
   2   8  -1  573.64   18.40
   2   8  -1  578.74   16.80
   2   8  -1  595.14   18.10
   2   8  -1  560.94   17.50
   2   8  -1  599.34   16.60
   1   8  -1   89.79    5.20
   1   8  -1  105.29    5.40
   1   8  -1   91.29    5.50
   1   8  -1  100.59    5.20
   1   8  -1   89.19    5.50
   1   8  -1  100.09    5.10
   1   8  -1  100.99    5.90
   1   8  -1   96.89    5.90
   1   8  -1   95.09    6.40
   1   8  -1   97.19    5.80
   0   8  -1  326.57   11.50
   0   8  -1  338.37   11.10
   0   8  -1  312.27   12.40
   0   8  -1  316.47   10.50
   0   8  -1  333.67   11.70
   0   8  -1  330.07   11.60
   0   8  -1  338.07   10.80
   0   8  -1  338.27   12.20
   0   8  -1  318.37   11.10
   0   8  -1  329.17   10.60
  -1   8  -1  711.63   19.00
  -1   8  -1  714.43   18.90
  -1   8  -1  728.83   20.40
  -1   8  -1  676.23   18.10
  -1   8  -1  684.93   19.20
  -1   8  -1  696.73   19.20
  -1   8  -1  698.33   20.90
  -1   8  -1  727.83   18.40
  -1   8  -1  713.63   19.20
  -1   8  -1  686.33   18.50
  -1   8  -1  689.73   20.30
  -2   8  -1  855.61   22.20
  -2   8  -1  895.61   27.70
  -2   8  -1  877.41   22.50
  -2   8  -1  895.71   22.10
  -2   8  -1  889.61   21.70
  -2   8  -1  874.51   23.90
  -2   8  -1  866.11   23.00
  -2   8  -1  840.02   24.20
  -2   8  -1  898.21   24.10
  -2   8  -1  874.21   21.90
  -3   8  -1  238.58    9.00
  -3   8  -1  226.88    9.50
  -3   8  -1  245.68    8.00
  -3   8  -1  241.08    8.00
  -3   8  -1  234.18    9.10
  -3   8  -1  231.88    9.40
  -3   8  -1  224.98    7.80
   3  -8   1  228.38    8.00
  -4   8  -1  237.58    8.00
  -4   8  -1  240.58    9.50
  -4   8  -1  252.27    8.20
  -4   8  -1  260.47    9.60
  -4   8  -1  248.28   10.10
   4  -8   1  251.37    8.20
   4  -8   1  244.38    8.40
  -5   8  -1    2.70    1.40
  -5   8  -1    5.00    2.00
  -5   8  -1    9.60    2.30
  -5   8  -1    1.90    1.20
  -5   8  -1    3.70    1.20
   5  -8   1    5.30    1.30
   5  -8   1    3.40    1.10
   5  -8   1    4.70    1.20
  -6   8  -1  189.18    8.20
  -6   8  -1  186.98    8.30
  -6   8  -1  190.58    8.40
   6  -8   1  178.48    7.00
   6  -8   1  186.08    7.10
   6  -8   1  187.48    7.40
  -7   8  -1   58.69    4.80
  -7   8  -1   53.39    4.90
  -7   8  -1   51.49    4.70
   7  -8   1   58.29    4.50
   7  -8   1   59.09    4.40
   7  -8   1   56.99    4.30
  -8   8  -1  117.89    5.50
  -8   8  -1  127.89    6.20
  -8   8  -1   97.39    4.90
   8  -8   1  125.39    5.20
   8  -8   1  112.39    4.90
  -9   8  -1   40.40    2.70
   9  -8   1   42.60    2.40
   9  -8   1   39.50    2.30
   5   7  -1   63.19    3.70
   5   7  -1   64.69    3.40
   5   7  -1   65.49    3.70
   5   7  -1   61.99    3.20
   5   7  -1   63.49    3.90
   5   7  -1   64.39    3.40
   5   7  -1   60.29    3.20
   5   7  -1   62.89    3.30
  -5  -7   1   58.09    3.10
   4   7  -1   25.70    2.80
   4   7  -1   35.30    4.00
   4   7  -1   33.20    3.40
   4   7  -1   27.70    3.20
   4   7  -1   23.30    2.80
   4   7  -1   27.00    3.10
   4   7  -1   31.00    3.70
   4   7  -1   29.60    3.80
   3   7  -1  450.55   14.20
   3   7  -1  436.26   13.50
   3   7  -1  460.85   14.20
   3   7  -1  440.46   14.00
   3   7  -1  440.96   14.80
   3   7  -1  457.65   15.00
   3   7  -1  452.25   15.10
   3   7  -1  455.75   13.30
   3   7  -1  464.55   13.90
   2   7  -1  692.43   19.10
   2   7  -1  721.23   19.70
   2   7  -1  690.73   20.20
   2   7  -1  708.83   20.70
   2   7  -1  696.33   18.50
   2   7  -1  664.63   19.70
   2   7  -1  657.73   18.60
   2   7  -1  674.93   20.00
   2   7  -1  665.93   18.90
   2   7  -1  654.73   18.00
   1   7  -1    3.50    1.20
   1   7  -1    7.80    2.00
   1   7  -1    3.90    1.70
   1   7  -1   10.80    2.50
   1   7  -1    5.20    1.60
   1   7  -1    6.40    1.60
   1   7  -1    5.40    1.80
   1   7  -1    4.70    1.20
   1   7  -1    4.50    1.70
   1   7  -1    3.90    1.50
   1   7  -1    8.20    2.00
   0   7  -1    1.60    1.30
   0   7  -1    2.40    1.70
   0   7  -1    3.20    1.70
   0   7  -1    1.90    1.60
   0  -7   1    1.00    1.10
   0  -7   1    4.60    1.60
   0  -7   1    1.80    1.20
  -1   7  -1  138.89    7.20
  -1   7  -1  138.69    7.90
  -1   7  -1  140.69    7.80
   1  -7   1  132.29    6.60
   1  -7   1  127.29    6.50
   1  -7   1  130.69    5.90
   1  -7   1  124.49    6.50
  -2   7  -1  160.88    7.90
  -2   7  -1  171.28    7.60
  -2   7  -1  159.18    7.80
  -2   7  -1  165.38    8.60
   2  -7   1  162.48    7.00
   2  -7   1  166.18    6.70
   2  -7   1  165.68    6.90
   2  -7   1  163.18    7.10
  -3   7  -1 2469.45   56.49
  -3   7  -1 2391.36   56.79
  -3   7  -1 2400.66   55.49
   3  -7   1 2469.15   54.49
   3  -7   1 2346.57   54.09
   3  -7   1 2425.56   53.69
  -4   7  -1  331.87   12.30
  -4   7  -1  349.67   13.00
   4  -7   1  330.27   11.40
   4  -7   1  354.56   11.70
  -5   7  -1 1041.70   26.60
  -5   7  -1 1037.30   26.50
  -5   7  -1 1057.49   26.70
   5  -7   1 1059.39   25.00
   5  -7   1 1032.10   24.90
   5  -7   1 1041.50   25.60
  -6   7  -1  199.38    8.40
  -6   7  -1  197.38    8.20
  -6   7  -1  191.98    8.40
   6  -7   1  199.98    7.40
   6  -7   1  195.58    7.30
   6  -7   1  201.98    7.80
  -7   7  -1    2.30    1.50
  -7   7  -1    4.10    1.60
  -7   7  -1    3.20    1.50
   7  -7   1    4.30    1.30
   7  -7   1    1.90    1.20
   7  -7   1    6.20    1.60
  -8   7  -1   37.80    4.00
  -8   7  -1   35.70    3.60
  -8   7  -1   36.20    3.60
   8  -7   1   42.40    3.70
   8  -7   1   41.50    3.70
   8  -7   1   44.20    3.70
  -9   7  -1    0.40    0.80
  -9   7  -1   -0.20    0.70
   9  -7   1    0.90    0.80
   9  -7   1    0.30    0.60
   6   6  -1    3.40    1.00
   6   6  -1    4.10    1.20
   6   6  -1    4.40    1.00
   6   6  -1    2.50    1.00
   6   6  -1    2.90    0.80
   6   6  -1    6.10    1.20
   6   6  -1    1.20    0.80
   5   6  -1    6.50    1.80
   5   6  -1    7.70    1.70
   5   6  -1    7.50    1.80
   5   6  -1    5.40    1.40
   5   6  -1    7.90    2.00
   5   6  -1    8.10    1.90
   5   6  -1    7.20    1.60
   5   6  -1    5.90    1.50
   5   6  -1    8.00    1.60
   4   6  -1   32.80    4.30
   4   6  -1   29.20    3.50
   4   6  -1   26.00    2.90
   4   6  -1   28.50    3.90
   4   6  -1   30.60    4.10
   4   6  -1   24.60    3.00
   4   6  -1   33.20    3.60
   4   6  -1   27.00    3.50
   4   6  -1   25.00    3.30
   3   6  -1  361.76   12.90
   3   6  -1  367.86   11.50
   3   6  -1  379.26   12.20
   3   6  -1  365.76   12.30
   3   6  -1  379.06   12.50
   3   6  -1  347.97   11.70
   3   6  -1  367.96   12.30
   3   6  -1  368.56   11.20
   3   6  -1  371.26   12.90
   3   6  -1  355.06   13.10
   2   6  -1  131.09    6.70
   2   6  -1  133.29    7.80
   2   6  -1  123.89    6.70
   2   6  -1  126.49    6.50
   2   6  -1  132.39    6.20
   2   6  -1  132.09    6.00
   2   6  -1  131.39    6.10
   2   6  -1  129.09    6.80
   2   6  -1  127.09    8.30
   2   6  -1  129.39    6.50
   2   6  -1  125.89    7.70
  -2  -6   1  135.29    6.80
  -2  -6   1  145.29    7.10
  -2  -6   1  138.29    8.00
   1   6  -1   77.69    5.60
   1   6  -1   72.59    5.80
   1   6  -1   83.49    5.60
  -1  -6   1   86.69    4.90
  -1  -6   1   77.59    5.20
  -1  -6   1   79.29    4.60
  -1  -6   1   77.09    5.40
   0   6  -1  892.01   23.80
   0   6  -1  892.91   23.30
   0   6  -1  862.91   24.60
   0   6  -1  905.91   25.20
   0  -6   1  904.51   22.30
   0  -6   1  872.41   23.20
   0  -6   1  842.82   23.60
  -1   6  -1  151.78    6.30
  -1   6  -1  153.18    6.90
  -1   6  -1  164.28    7.80
  -1   6  -1  170.68    7.90
   1  -6   1  158.48    6.60
   1  -6   1  164.28    6.20
   1  -6   1  151.88    6.70
  -2   6  -1   75.79    4.60
  -2   6  -1   61.39    3.90
  -2   6  -1   71.09    4.90
  -2   6  -1   64.39    4.30
   2  -6   1   68.39    3.80
   2  -6   1   71.29    4.00
   2  -6   1   63.99    3.80
   2  -6   1   70.09    3.70
  -3   6  -1   22.00    3.10
  -3   6  -1    9.80    2.00
  -3   6  -1   14.50    2.70
   3  -6   1   19.20    2.50
   3  -6   1   11.30    1.90
   3  -6   1   21.20    2.50
  -4   6  -1   69.99    4.70
  -4   6  -1   68.19    4.50
  -4   6  -1   72.89    4.10
   4  -6   1   78.89    4.50
   4  -6   1   82.49    4.60
   4  -6   1   74.19    4.10
  -5   6  -1  830.02   22.80
  -5   6  -1  798.42   21.40
   5  -6   1  809.12   21.80
   5  -6   1  839.22   22.10
  -6   6  -1   41.70    4.20
  -6   6  -1   43.60    4.20
  -6   6  -1   44.30    4.10
   6  -6   1   43.20    3.80
   6  -6   1   42.30    4.00
   6  -6   1   36.90    3.50
  -7   6  -1  476.55   14.60
  -7   6  -1  473.55   15.00
  -7   6  -1  450.65   14.20
   7  -6   1  472.15   14.10
   7  -6   1  472.85   14.30
   7  -6   1  472.85   14.00
  -8   6  -1  295.77   10.30
  -8   6  -1  292.97   10.60
   8  -6   1  288.67    9.80
   8  -6   1  290.57    9.90
   8  -6   1  285.67    9.90
  -9   6  -1    2.50    1.10
  -9   6  -1    1.90    1.00
  -9   6  -1    2.00    1.10
   9  -6   1    1.60    0.80
   9  -6   1    1.90    0.80
   7   5  -1   30.30    2.50
   7   5  -1   30.30    2.30
   7   5  -1   30.20    2.80
   6   5  -1    1.10    1.00
   6   5  -1    0.10    1.00
   6   5  -1    0.60    0.90
   6   5  -1    0.40    0.70
   6   5  -1    1.30    1.20
   6   5  -1    0.80    0.80
   6   5  -1    1.90    1.20
   6   5  -1    0.70    0.90
   6   5  -1    1.00    0.90
   5   5  -1   36.50    4.30
   5   5  -1   44.90    3.90
   5   5  -1   39.30    3.60
   5   5  -1   41.20    4.40
   5   5  -1   37.80    3.90
   5   5  -1   39.20    4.20
   5   5  -1   42.10    4.20
   5   5  -1   49.30    5.20
   5   5  -1   37.50    3.70
   4   5  -1   67.59    6.30
   4   5  -1   63.89    5.10
   4   5  -1   58.59    5.00
   4   5  -1   56.69    5.10
   4   5  -1   64.19    4.00
   4   5  -1   60.19    3.90
   4   5  -1   64.39    6.10
   4   5  -1   67.69    5.80
   4   5  -1   62.89    5.50
   3   5  -1  202.18    7.70
   3   5  -1  194.08    8.70
   3   5  -1  192.08    8.20
   3   5  -1  201.28   10.10
   3   5  -1  201.88    9.90
   3   5  -1  187.68    8.50
   3   5  -1  197.28   10.00
   3   5  -1  195.48   10.20
   3   5  -1  193.28    7.90
   3   5  -1  203.28    8.30
   3   5  -1  186.58    8.40
  -3  -5   1  201.58    9.10
  -3  -5   1  188.58    9.40
  -3  -5   1  210.88    8.90
   2   5  -1 1074.69   29.90
   2   5  -1 1111.99   29.70
   2   5  -1 1122.49   29.20
   2   5  -1 1121.19   29.70
  -2  -5   1 1077.09   28.80
  -2  -5   1 1103.19   27.60
  -2  -5   1 1089.59   27.60
   1   5  -1 1367.86   34.50
   1   5  -1 1392.66   34.00
   1   5  -1 1342.47   33.70
   1   5  -1 1425.36   34.20
  -1  -5   1 1388.86   32.10
  -1  -5   1 1292.37   31.80
  -1  -5   1 1342.07   33.10
   0   5  -1  149.88    6.10
   0   5  -1  143.39    6.80
   0   5  -1  161.28    7.30
   0   5  -1  162.88    6.80
   0  -5   1  163.48    6.00
   0  -5   1  158.58    6.80
   0  -5   1  146.29    6.30
   0  -5   1  151.28    5.70
  -1   5  -1 3032.70   64.99
  -1   5  -1 2903.71   63.69
  -1   5  -1 2904.71   63.69
  -1   5  -1 2861.11   64.89
  -1   5  -1 2885.01   62.79
   1  -5   1 2962.80   63.49
   1  -5   1 2913.41   62.39
   1  -5   1 2935.51   63.59
   1  -5   1 2931.81   62.79
  -2   5  -1 1448.66   33.60
  -2   5  -1 1426.16   34.10
  -2   5  -1 1467.05   31.60
  -2   5  -1 1400.96   32.60
  -2   5  -1 1474.55   33.30
   2  -5   1 1432.06   32.30
   2  -5   1 1417.46   32.60
   2  -5   1 1421.56   32.30
   2  -5   1 1451.25   32.80
  -3   5  -1  964.40   22.30
  -3   5  -1  962.30   23.30
  -3   5  -1  940.61   23.90
  -3   5  -1  960.70   23.70
   3  -5   1  958.90   22.90
   3  -5   1  936.21   22.00
   3  -5   1 1015.20   23.30
   3  -5   1  951.00   22.70
  -4   5  -1  705.23   18.00
  -4   5  -1  708.23   19.10
  -4   5  -1  750.32   19.20
   4  -5   1  756.12   19.00
   4  -5   1  718.83   18.40
   4  -5   1  701.93   18.60
  -5   5  -1  217.38    8.50
  -5   5  -1  207.68    7.70
   5  -5   1  207.98    8.30
   5  -5   1  197.28    8.10
   5  -5   1  208.08   10.60
  -6   5  -1    1.40    1.00
  -6   5  -1   -0.40    0.90
   6  -5   1    1.40    0.90
   6  -5   1    0.40    0.70
   6  -5   1    0.20    0.80
   6  -5   1    0.90    0.80
   6  -5   1    0.10    0.70
   6  -5   1    0.20    0.80
  -7   5  -1  459.55   14.30
  -7   5  -1  443.66   13.90
  -7   5  -1  417.86   13.50
   7  -5   1  449.46   14.00
   7  -5   1  459.35   13.80
   7  -5   1  451.35   13.70
   7  -5   1  445.66   12.80
  -8   5  -1  186.88    7.90
  -8   5  -1  183.78    7.20
  -8   5  -1  186.88    7.70
   8  -5   1  191.18    7.70
   8  -5   1  181.48    7.40
   8  -5   1  177.48    7.50
  -9   5  -1  288.17    9.20
  -9   5  -1  286.37    9.10
  -9   5  -1  277.47    8.60
   9  -5   1  289.17    8.90
   9  -5   1  266.07    8.80
   7   4  -1   13.70    1.70
   7   4  -1   12.00    1.60
   7   4  -1   12.50    1.90
   7   4  -1   13.50    1.90
   7   4  -1   11.80    1.80
   7   4  -1   13.10    2.10
   7   4  -1   10.80    1.90
   7   4  -1   11.80    1.60
   6   4  -1  397.06   12.70
   6   4  -1  408.66   12.40
   6   4  -1  425.76   13.40
   6   4  -1  420.16   14.00
   6   4  -1  409.76   12.30
   6   4  -1  412.96   12.60
   6   4  -1  432.76   14.20
   6   4  -1  401.96   12.10
   6   4  -1  404.96   13.00
   5   4  -1  155.58    6.60
   5   4  -1  157.98    6.80
   5   4  -1  170.38    8.30
   5   4  -1  164.78    7.40
   5   4  -1  158.58    6.90
   5   4  -1  157.28    7.50
   5   4  -1  168.68    6.90
   5   4  -1  149.88    7.80
   5   4  -1  157.98    7.60
   5   4  -1  147.19    7.40
   4   4  -1   15.80    2.40
   4   4  -1   18.90    3.00
   4   4  -1   15.90    3.00
   4   4  -1   19.00    3.00
   4   4  -1   12.80    2.30
   4   4  -1   18.80    3.10
   4   4  -1   15.70    3.60
   4   4  -1   12.40    2.00
   4   4  -1   13.70    2.20
   4   4  -1   20.80    3.10
   4   4  -1   15.50    2.70
  -4  -4   1   18.20    3.50
   3   4  -1  213.18    9.70
   3   4  -1  195.98    9.20
   3   4  -1  200.78    9.50
  -3  -4   1  208.48    9.20
  -3  -4   1  201.08    8.50
  -3  -4   1  196.08    8.10
  -3  -4   1  187.38    8.00
   2   4  -1  542.75   16.70
   2   4  -1  535.55   15.70
   2   4  -1  564.94   16.50
   2   4  -1  549.95   16.60
  -2  -4   1  529.85   15.00
  -2  -4   1  541.25   15.00
  -2  -4   1  532.45   14.90
  -2  -4   1  542.85   16.00
   1   4  -1 2185.88   48.70
   1   4  -1 2124.79   46.70
   1   4  -1 2152.18   48.60
   1   4  -1 2094.99   48.10
   1   4  -1 2173.78   49.00
  -1  -4   1 2210.38   47.10
  -1  -4   1 2092.09   48.00
  -1  -4   1 2079.99   46.90
  -1  -4   1 2137.09   46.60
   0   4  -1   18.40    2.00
   0   4  -1   23.00    2.60
   0   4  -1   21.10    1.80
   0   4  -1   20.70    2.50
   0   4  -1   19.20    2.50
   0  -4   1   16.40    1.80
   0  -4   1   17.20    1.80
   0  -4   1   18.00    2.20
   0  -4   1   22.50    2.40
  -1   4  -1 1786.92   39.00
  -1   4  -1 1775.82   40.30
  -1   4  -1 1841.62   39.60
  -1   4  -1 1810.32   40.60
  -1   4  -1 1736.33   39.70
   1  -4   1 1817.12   38.90
   1  -4   1 1847.52   39.80
   1  -4   1 1806.02   39.60
   1  -4   1 1808.12   39.20
  -2   4  -1  244.08    7.10
  -2   4  -1  247.48    7.40
  -2   4  -1  227.38    7.30
  -2   4  -1  242.78    6.50
  -2   4  -1  235.28    7.80
   2  -4   1  234.88    7.00
   2  -4   1  239.28    7.20
   2  -4   1  245.68    6.80
   2  -4   1  249.97    7.30
   2  -4   1  240.08    6.80
  -3   4  -1  591.64   15.10
  -3   4  -1  586.04   14.00
  -3   4  -1  600.74   14.40
  -3   4  -1  604.64   15.10
   3  -4   1  583.84   14.20
   3  -4   1  605.94   14.80
   3  -4   1  599.54   15.10
   3  -4   1  598.74   14.70
   3  -4   1  597.44   15.10
  -4   4  -1 1337.97   30.90
  -4   4  -1 1365.86   31.00
  -4   4  -1 1334.07   30.40
  -4   4  -1 1326.77   30.10
   4  -4   1 1340.67   31.00
   4  -4   1 1378.96   31.40
   4  -4   1 1282.47   30.90
  -5   4  -1  645.34   17.10
  -5   4  -1  661.83   17.80
  -5   4  -1  663.43   17.30
   5  -4   1  671.63   18.50
   5  -4   1  676.43   18.10
   5  -4   1  637.34   18.30
  -6   4  -1   75.19    4.50
   6  -4   1   76.39    4.10
   6  -4   1   70.99    4.50
   6  -4   1   78.89    4.50
   6  -4   1   78.29    3.90
   6  -4   1   75.59    4.40
   6  -4   1   74.59    4.30
  -7   4  -1  155.48    7.20
  -7   4  -1  159.38    7.00
   7  -4   1  135.79    6.10
   7  -4   1  155.18    7.10
   7  -4   1  154.08    6.30
   7  -4   1  165.58    7.40
   7  -4   1  156.28    7.00
  -8   4  -1   14.70    2.60
  -8   4  -1   19.40    2.70
   8  -4   1   14.70    2.40
   8  -4   1   15.40    2.60
   8  -4   1   19.70    2.80
   8  -4   1   20.20    2.50
  -9   4  -1   54.19    3.40
  -9   4  -1   45.10    3.00
  -9   4  -1   57.49    3.30
   9  -4   1   52.79    3.10
   9  -4   1   50.69    3.80
   9  -4   1   61.29    3.50
   8   3  -1  566.44   13.40
   8   3  -1  565.44   13.60
   8   3  -1  548.15   14.00
   8   3  -1  527.25   13.60
   8   3  -1  553.64   13.70
  -8  -3   1  573.94   14.00
   7   3  -1  254.87    8.60
   7   3  -1  266.47    9.30
   7   3  -1  249.78    9.30
   7   3  -1  250.87    8.70
   7   3  -1  250.27    8.20
   7   3  -1  256.57    8.80
   7   3  -1  251.27    9.60
   7   3  -1  228.58    8.10
   7   3  -1  252.97    8.20
  -7  -3   1  235.48    8.60
   6   3  -1  127.59    6.50
   6   3  -1  130.09    6.10
   6   3  -1  125.69    6.00
   6   3  -1  140.99    7.40
   6   3  -1  120.69    5.90
   6   3  -1  118.29    6.50
   6   3  -1  126.39    7.00
   6   3  -1  131.69    5.90
   6   3  -1  127.59    5.80
   6   3  -1  140.59    6.70
   5   3  -1  105.39    5.20
   5   3  -1  102.79    5.80
   5   3  -1  112.59    5.30
   5   3  -1  109.09    5.20
   5   3  -1  100.19    5.80
   5   3  -1  107.79    5.20
   5   3  -1   89.39    5.50
   5   3  -1   95.29    6.00
   5   3  -1  107.69    6.40
   5   3  -1  102.49    5.40
   5   3  -1  107.19    5.80
   4   3  -1    1.00    1.10
   4   3  -1    1.60    1.30
   4   3  -1    0.80    1.00
   4   3  -1    0.90    1.20
  -4  -3   1    0.60    1.00
  -4  -3   1    1.40    1.00
  -4  -3   1    0.70    1.10
   3   3  -1  876.61   23.20
   3   3  -1  861.01   23.60
   3   3  -1  855.11   23.90
   3   3  -1  863.21   23.60
  -3  -3   1  908.91   22.70
  -3  -3   1  814.02   22.10
  -3  -3   1  903.51   22.50
   2   3  -1 2019.30   47.70
   2   3  -1 2137.79   47.90
   2   3  -1 2036.60   46.60
   2   3  -1 2179.18   48.20
   2   3  -1 2144.79   47.50
  -2  -3   1 2155.58   46.60
  -2  -3   1 2068.19   46.50
  -2  -3   1 2113.09   46.60
   1   3  -1    6.40    1.40
   1   3  -1    7.50    1.30
   1   3  -1   12.30    1.90
   1   3  -1    6.70    1.00
   1   3  -1   10.70    1.90
  -1  -3   1    6.40    1.10
  -1  -3   1    7.00    1.30
  -1  -3   1    6.80    1.20
  -1  -3   1    8.10    1.20
   0   3  -1 1537.95   34.30
   0   3  -1 1535.05   34.20
   0   3  -1 1595.04   34.30
   0   3  -1 1572.04   32.80
   0   3  -1 1559.94   33.30
   0   3  -1 1548.65   34.50
   0  -3   1 1527.85   33.90
   0  -3   1 1534.05   33.40
   0  -3   1 1473.85   33.20
  -1   3  -1 1546.15   31.50
  -1   3  -1 1505.15   32.60
  -1   3  -1 1517.35   32.10
  -1   3  -1 1484.75   32.40
  -1   3  -1 1469.25   33.00
  -1   3  -1 1484.55   33.00
   1  -3   1 1514.05   32.60
   1  -3   1 1475.05   32.30
   1  -3   1 1469.65   32.20
   1  -3   1 1515.15   32.60
  -3   3  -1  348.77    9.40
  -3   3  -1  357.26    9.50
  -3   3  -1  354.56    9.10
  -3   3  -1  360.16    9.20
  -3   3  -1  358.66    9.50
   3  -3   1  357.56    9.00
   3  -3   1  359.56    9.70
   3  -3   1  378.36    9.70
   3  -3   1  346.77    9.70
   3  -3   1  371.96    9.90
  -4   3  -1  615.64   15.20
  -4   3  -1  643.64   15.30
  -4   3  -1  604.74   15.70
  -4   3  -1  598.84   15.40
   4  -3   1  626.44   16.30
   4  -3   1  603.34   15.70
   4  -3   1  619.84   16.10
   4  -3   1  596.24   15.90
  -5   3  -1   79.79    4.20
  -5   3  -1   90.49    4.30
  -5   3  -1   77.79    4.10
  -5   3  -1   86.29    4.70
   5  -3   1   85.99    5.00
   5  -3   1   92.19    5.00
   5  -3   1   82.99    4.90
   5  -3   1   82.59    4.40
  -6   3  -1    4.90    1.60
  -6   3  -1    2.90    1.60
   6  -3   1    5.00    1.50
   6  -3   1    4.60    1.20
   6  -3   1    7.80    2.00
   6  -3   1    4.10    1.80
   6  -3   1    4.00    1.40
   6  -3   1    6.00    1.40
   6  -3   1    6.10    1.40
   6  -3   1    5.30    1.70
  -7   3  -1   11.40    2.20
   7  -3   1   15.20    2.70
   7  -3   1   13.90    2.50
   7  -3   1   11.60    1.90
   7  -3   1   13.70    2.60
   7  -3   1   11.70    1.90
   7  -3   1   12.00    2.30
   7  -3   1   12.00    2.50
  -8   3  -1   32.90    3.60
   8  -3   1   35.80    3.80
   8  -3   1   31.20    3.10
   8  -3   1   32.00    3.60
   8  -3   1   37.70    4.80
   8  -3   1   31.60    3.50
  -9   3  -1   99.39    4.50
  -9   3  -1   99.19    4.40
   9  -3   1  101.59    4.60
   9  -3   1   91.69    4.20
   9  -3   1   93.89    4.60
   8   2  -1    2.30    1.00
   8   2  -1    2.20    0.80
   8   2  -1    1.40    1.00
   8   2  -1    1.40    0.80
   8   2  -1    1.50    0.90
   8   2  -1    2.90    1.10
   8   2  -1    1.60    0.80
   8   2  -1    0.20    0.90
   8   2  -1    1.90    0.90
  -8  -2   1    1.40    1.00
   7   2  -1 1047.90   25.40
   7   2  -1 1046.80   25.80
   7   2  -1 1060.79   27.20
   7   2  -1 1055.89   25.20
   7   2  -1 1040.40   26.70
   7   2  -1  995.80   26.10
   7   2  -1 1045.30   25.80
   7   2  -1 1088.99   27.70
   7   2  -1 1009.60   26.20
   7   2  -1  995.60   25.00
   6   2  -1  141.39    6.40
   6   2  -1  135.69    6.90
   6   2  -1  148.29    6.30
   6   2  -1  145.79    6.30
   6   2  -1  133.99    6.20
   6   2  -1  130.79    7.30
   6   2  -1  142.09    6.40
   6   2  -1  148.09    7.60
   6   2  -1  151.58    7.10
   6   2  -1  138.09    7.00
   5   2  -1   22.40    3.30
   5   2  -1   27.60    3.90
   5   2  -1   24.10    2.70
   5   2  -1   24.60    3.30
   5   2  -1   26.50    4.20
   5   2  -1   26.10    3.40
   5   2  -1   27.40    3.00
   5   2  -1   24.30    2.80
   5   2  -1   25.00    3.40
   5   2  -1   22.60    3.00
   5   2  -1   33.30    4.10
   5   2  -1   25.90    4.30
  -5  -2   1   31.00    5.40
  -5  -2   1   21.90    3.20
   4   2  -1  769.22   22.10
   4   2  -1  756.82   21.30
   4   2  -1  734.43   21.20
   4   2  -1  758.32   21.00
  -4  -2   1  725.23   20.00
  -4  -2   1  744.33   20.20
  -4  -2   1  780.62   20.80
  -4  -2   1  728.33   18.60
   3   2  -1   33.70    3.80
   3   2  -1   27.20    3.00
   3   2  -1   32.50    3.50
   3   2  -1   31.30    3.40
  -3  -2   1   28.80    3.00
  -3  -2   1   37.10    2.20
  -3  -2   1   33.20    2.60
  -3  -2   1   27.80    2.80
   2   2  -1 2332.17   50.99
   2   2  -1 2278.27   49.90
   2   2  -1 2300.17   50.89
   2   2  -1 2277.77   50.79
  -2  -2   1 2401.66   50.29
  -2  -2   1 2348.17   48.90
  -2  -2   1 2255.77   50.29
  -2  -2   1 2377.16   50.19
   1   2  -1  694.83   16.80
   1   2  -1  721.63   16.80
   1   2  -1  700.63   16.20
   1   2  -1  714.83   16.60
   1   2  -1  689.93   16.50
   1   2  -1  661.33   15.20
  -1  -2   1  682.93   16.00
  -1  -2   1  716.53   16.10
  -1  -2   1  685.23   16.00
   0   2  -1  871.31   19.20
   0   2  -1  885.91   18.30
   0   2  -1  845.92   19.20
   0   2  -1  867.91   18.60
   0   2  -1  869.81   19.40
   0   2  -1  841.12   19.10
   0  -2   1  870.81   19.10
   0  -2   1  824.62   18.70
   0  -2   1  843.62   18.80
  -1   2  -1  465.35   10.00
  -1   2  -1  452.55   10.80
  -1   2  -1  466.15   10.10
  -1   2  -1  460.15   10.50
  -1   2  -1  468.15    9.90
   1  -2   1  470.55   10.60
   1  -2   1  454.35   10.40
   1  -2   1  462.65   10.70
   1  -2   1  458.55   10.60
   1  -2   1  458.45   10.60
  -3   2  -1 1786.72   38.50
  -3   2  -1 1802.82   38.30
  -3   2  -1 1765.72   38.40
  -3   2  -1 1787.02   39.20
   3  -2   1 1810.72   39.10
   3  -2   1 1763.52   39.20
   3  -2   1 1755.32   39.10
   3  -2   1 1840.72   38.40
   3  -2   1 1797.82   39.20
  -4   2  -1 2185.88   48.50
  -4   2  -1 2166.98   47.50
  -4   2  -1 2251.47   47.30
  -4   2  -1 2122.89   47.10
   4  -2   1 2183.38   47.80
   4  -2   1 2191.48   48.90
   4  -2   1 2219.08   48.70
   4  -2   1 2115.89   48.30
   4  -2   1 2278.77   49.10
  -5   2  -1    1.50    0.80
  -5   2  -1    3.60    1.20
  -5   2  -1    2.70    1.00
   5  -2   1    2.20    1.20
   5  -2   1    3.30    1.20
   5  -2   1    3.70    1.40
  -6   2  -1  315.57   11.50
  -6   2  -1  340.37   12.40
   6  -2   1  324.27   11.30
   6  -2   1  336.27   10.00
   6  -2   1  325.87   10.30
   6  -2   1  337.47   11.00
   6  -2   1  326.57    9.90
   6  -2   1  323.77   11.10
   6  -2   1  348.87   12.20
   6  -2   1  300.37   10.80
   6  -2   1  334.77   10.10
   6  -2   1  338.17   11.40
   7  -2   1    8.00    1.70
   7  -2   1    7.70    2.00
   7  -2   1   10.00    1.80
   7  -2   1    8.50    2.00
   7  -2   1    7.80    2.00
   7  -2   1    8.00    1.60
   7  -2   1    7.50    2.00
   7  -2   1    9.30    2.30
   7  -2   1    6.70    1.50
  -8   2  -1   79.39    4.50
   8  -2   1   84.29    4.50
   8  -2   1   88.19    5.10
   8  -2   1   73.89    4.70
   8  -2   1   84.69    4.30
   8  -2   1   72.09    5.50
   8  -2   1   83.39    4.20
   8  -2   1   64.99    5.50
  -9   2  -1    2.20    1.20
  -9   2  -1    3.00    1.10
   9  -2   1    1.80    1.00
   9  -2   1    1.90    0.90
   9  -2   1    2.50    0.90
   9  -2   1    2.60    1.00
   8   1  -1  483.55   12.80
   8   1  -1  488.65   14.70
   8   1  -1  499.65   13.60
   8   1  -1  508.75   13.90
   8   1  -1  503.95   14.30
   8   1  -1  510.55   13.10
   8   1  -1  463.95   12.80
   8   1  -1  521.55   13.80
  -8  -1   1  461.25   13.80
  -8  -1   1  519.95   14.50
   7   1  -1    9.70    2.00
   7   1  -1    6.90    1.90
   7   1  -1   10.40    2.40
   7   1  -1    8.10    1.60
   7   1  -1    8.70    1.80
   7   1  -1    8.50    1.90
   7   1  -1    8.10    2.30
   7   1  -1    8.90    1.80
   7   1  -1    9.50    1.90
   7   1  -1    8.70    2.30
  -7  -1   1    7.80    1.80
   6   1  -1    9.50    1.90
   6   1  -1    7.40    2.10
   6   1  -1   10.50    1.90
   6   1  -1   11.10    2.00
   6   1  -1   12.00    2.50
   6   1  -1   10.80    2.60
   6   1  -1    9.30    1.70
   6   1  -1   12.00    2.40
   6   1  -1   11.30    2.30
   6   1  -1   11.00    2.00
   6   1  -1   14.20    2.40
   5   1  -1  472.65   16.00
   5   1  -1  486.85   16.70
   5   1  -1  503.15   16.30
  -5  -1   1  471.65   14.90
  -5  -1   1  463.75   14.70
  -5  -1   1  480.15   15.60
  -5  -1   1  483.95   14.00
   4   1  -1  311.57   10.20
   4   1  -1  309.87   11.20
   4   1  -1  317.77   11.00
   4   1  -1  300.97   10.60
  -4  -1   1  305.87    9.10
  -4  -1   1  304.77   10.00
  -4  -1   1  315.57   10.60
   3   1  -1   39.70    2.70
   3   1  -1   40.90    3.10
   3   1  -1   39.20    2.90
   3   1  -1   45.30    3.10
   3   1  -1   46.30    2.80
  -3  -1   1   45.00    2.30
  -3  -1   1   43.00    2.90
  -3  -1   1   43.90    2.80
  -3  -1   1   45.30    1.90
   2   1  -1 2606.54   56.09
   2   1  -1 2686.63   56.39
   2   1  -1 2636.44   56.19
   2   1  -1 2580.54   55.19
   2   1  -1 2688.93   56.59
   2   1  -1 2621.34   55.89
  -2  -1   1 2524.65   54.99
  -2  -1   1 2606.74   55.89
  -2  -1   1 2733.83   56.19
  -2   1  -1   40.80    1.90
  -2   1  -1   41.00    1.70
  -2   1  -1   42.60    1.70
  -2   1  -1   43.20    1.70
  -2   1  -1   43.10    1.80
   2  -1   1   38.40    2.00
   2  -1   1   40.90    2.00
   2  -1   1   43.90    2.00
   2  -1   1   37.90    2.10
   2  -1   1   37.50    2.10
   2  -1   1   38.40    1.70
  -3   1  -1 1213.78   27.90
  -3   1  -1 1213.58   26.60
  -3   1  -1 1242.48   27.00
  -3   1  -1 1242.48   26.50
   3  -1   1 1214.18   27.90
   3  -1   1 1218.08   27.30
   3  -1   1 1187.48   27.90
   3  -1   1 1200.58   27.70
   3  -1   1 1275.97   28.10
  -4   1  -1   15.90    1.80
  -4   1  -1   16.70    2.20
   4  -1   1   19.50    2.40
   4  -1   1   19.90    2.70
   4  -1   1   21.50    2.50
   4  -1   1   18.50    2.50
   4  -1   1   19.90    2.40
  -5   1  -1   55.79    3.20
  -5   1  -1   54.79    3.80
  -5   1  -1   57.89    3.50
  -5   1  -1   51.19    3.90
   5  -1   1   59.39    4.70
   5  -1   1   67.19    4.70
   5  -1   1   57.79    4.10
   6  -1   1  217.88    9.00
   6  -1   1  225.88    8.90
   6  -1   1  198.78    8.40
   6  -1   1  216.48    7.50
   6  -1   1  230.08    7.60
   6  -1   1  230.48    7.80
   6  -1   1  219.98    8.50
   6  -1   1  225.78    8.00
   6  -1   1  218.48    8.00
   6  -1   1  228.08    9.10
   6  -1   1  226.08    8.00
  -7   1  -1   47.10    4.10
   7  -1   1   44.20    4.60
   7  -1   1   50.69    5.10
   7  -1   1   52.99    5.10
   7  -1   1   45.90    3.90
   7  -1   1   38.90    4.20
   7  -1   1   47.30    4.10
   7  -1   1   46.50    4.20
   7  -1   1   46.30    3.70
   7  -1   1   44.40    3.70
   7  -1   1   45.30    4.00
   8  -1   1  190.48    8.10
   8  -1   1  217.28    8.20
   8  -1   1  206.28    6.90
   8  -1   1  204.08    7.60
   8  -1   1  198.98    7.20
   8  -1   1  207.78    8.00
   8  -1   1  198.88    7.20
   8  -1   1  185.68    8.00
   8  -1   1  196.08    6.70
  -9   1  -1   12.80    1.80
  -9   1  -1   11.10    1.50
   9  -1   1   12.20    1.70
   9  -1   1   14.80    1.60
   9  -1   1   10.50    1.50
   9  -1   1   14.70    1.80
   9   0  -1  123.89    4.40
   9   0  -1  125.89    4.90
   9   0  -1  133.09    4.90
  -9   0   1  133.39    5.10
   8   0  -1  830.52   21.40
   8   0  -1  835.82   20.90
   8   0  -1  820.02   20.10
   8   0  -1  834.22   22.30
   8   0  -1  832.82   21.20
   8   0  -1  849.41   22.00
   8   0  -1  805.92   21.00
  -8   0   1  800.02   20.80
   7   0  -1   83.69    4.40
   7   0  -1   71.89    6.20
   7   0  -1   74.59    4.20
   7   0  -1   76.49    4.50
   7   0  -1   82.69    6.50
   7   0  -1   79.69    4.70
   7   0  -1   77.29    6.00
   7   0  -1   77.79    5.00
   7   0  -1   73.49    4.40
   6   0  -1   20.60    2.40
   6   0  -1   22.80    3.40
   6   0  -1   19.70    3.00
   6   0  -1   20.50    3.20
   6   0  -1   19.00    2.60
   6   0  -1   19.10    2.60
   6   0  -1   21.60    2.70
   6   0  -1   21.20    2.60
   6   0  -1   23.10    3.40
   6   0  -1   18.10    2.40
   6   0  -1   21.80    3.10
   5   0  -1  473.35   14.00
   5   0  -1  466.65   15.40
   5   0  -1  455.05   14.60
   5   0  -1  447.46   14.80
  -5   0   1  449.86   13.10
  -5   0   1  442.16   13.60
  -5   0   1  428.36   14.40
   4   0  -1   98.19    5.10
   4   0  -1   90.39    4.50
   4   0  -1   94.39    4.80
   4   0  -1  104.29    5.40
  -4   0   1  100.39    4.60
  -4   0   1  100.59    4.20
  -4   0   1   95.39    4.90
  -4   0   1   96.49    3.70
   3   0  -1 1249.18   28.80
   3   0  -1 1281.17   29.40
   3   0  -1 1276.27   29.30
   3   0  -1 1286.97   29.00
   3   0  -1 1281.37   28.60
  -3   0   1 1261.37   27.60
  -3   0   1 1290.87   28.80
  -3   0   1 1268.47   28.20
  -3   0   1 1317.77   29.30
   1   0  -1  238.08    5.60
   1   0  -1  237.68    5.70
   1   0  -1  228.68    5.70
   1   0  -1  241.58    5.60
   1   0  -1  234.58    5.60
   1   0  -1  252.47    5.50
  -1   0   1  234.48    5.80
  -1   0   1  236.58    5.40
  -1   0   1  249.28    5.60
  -1   0   1  232.28    5.60
  -1   0  -1  101.29    2.80
  -1   0  -1  100.39    2.80
  -1   0  -1  100.69    3.00
  -1   0  -1   98.99    2.90
  -1   0  -1  101.19    2.70
   1   0   1  101.49    3.00
   1   0   1  101.99    3.20
   1   0   1   99.69    3.00
   1   0   1  102.69    2.90
   1   0   1  107.49    3.30
  -3   0  -1 3084.89   66.29
  -3   0  -1 3200.38   66.89
  -3   0  -1 3112.09   68.09
   3   0   1 3169.58   68.69
   3   0   1 3312.77   68.09
   3   0   1 3226.58   68.19
   3   0   1 3182.88   68.59
   3   0   1 3135.39   67.89
  -4   0  -1  134.79    6.00
  -4   0  -1  141.29    5.90
  -4   0  -1  142.99    4.70
  -4   0  -1  149.19    5.30
   4   0   1  136.89    6.00
   4   0   1  140.09    6.10
   4   0   1  140.49    6.50
   4   0   1  132.29    6.50
  -5   0  -1 2259.37   52.09
  -5   0  -1 2259.27   52.69
  -5   0  -1 2354.76   50.79
   5   0   1 2284.97   52.49
   5   0   1 2293.17   53.79
   5   0   1 2205.48   53.99
   6   0   1  135.69    7.00
   6   0   1  134.29    7.00
   6   0   1  144.39    6.10
   6   0   1  147.79    7.00
   6   0   1  147.19    6.70
   6   0   1  148.99    5.80
   6   0   1  142.19    6.30
   6   0   1  150.28    6.20
   6   0   1  143.99    7.30
   6   0   1  150.58    6.20
   7   0   1   96.49    5.00
   7   0   1   83.19    6.50
   7   0   1   85.19    4.40
   7   0   1   90.49    5.40
   7   0   1   90.49    4.60
   7   0   1   96.99    5.80
   7   0   1   87.69    4.50
   7   0   1   83.99    4.60
   7   0   1   86.59    5.40
   7   0   1   82.19    4.80
  -8   0  -1   55.89    3.40
   8   0   1   57.09    3.50
   8   0   1   59.49    4.60
   8   0   1   45.40    4.10
   8   0   1   53.29    3.20
   8   0   1   57.89    3.20
   8   0   1   49.40    4.50
   8   0   1   57.99    3.80
   8   0   1   54.99    3.40
   8   0   1   54.59    3.10
   9  -1  -1   35.40    2.80
   9  -1  -1   35.50    2.30
   9  -1  -1   36.70    3.00
   9  -1  -1   28.80    2.80
  -9   1   1   35.40    3.10
  -9   1   1   36.10    2.90
   8  -1  -1  142.59    6.80
   8  -1  -1  144.69    5.40
   8  -1  -1  135.39    6.30
   8  -1  -1  138.59    6.30
   8  -1  -1  135.79    6.90
   8  -1  -1  135.39    6.20
   8  -1  -1  135.19    5.90
  -8   1   1  137.29    6.30
   7  -1  -1   14.50    2.30
   7  -1  -1   13.70    2.20
   7  -1  -1   10.30    2.20
   7  -1  -1   13.70    2.60
   7  -1  -1   13.50    2.00
   7  -1  -1    8.80    2.20
   7  -1  -1   15.50    2.70
   7  -1  -1   10.80    2.10
  -7   1   1   12.20    2.30
   6  -1  -1  821.02   20.60
   6  -1  -1  789.62   21.60
   6  -1  -1  825.92   21.60
   6  -1  -1  815.22   22.00
   6  -1  -1  810.12   23.30
   6  -1  -1  853.41   27.10
   6  -1  -1  834.22   20.90
   6  -1  -1  809.52   20.40
  -6   1   1  795.62   20.90
  -6   1   1  823.82   21.90
   5  -1  -1   24.30    2.90
   5  -1  -1   27.50    3.40
   5  -1  -1   22.10    3.20
   5  -1  -1   24.60    3.10
  -5   1   1   25.20    2.90
  -5   1   1   22.00    3.00
  -5   1   1   27.70    2.70
  -5   1   1   25.90    2.80
   4  -1  -1  207.68    7.20
   4  -1  -1  207.48    7.30
   4  -1  -1  216.18    7.70
   4  -1  -1  230.58    8.00
  -4   1   1  209.18    6.50
  -4   1   1  212.78    7.60
  -4   1   1  216.28    7.10
  -4   1   1  226.88    7.00
   3  -1  -1   44.90    2.50
   3  -1  -1   37.90    2.00
   3  -1  -1   36.10    2.10
   3  -1  -1   36.60    2.30
  -3   1   1   37.50    2.10
  -3   1   1   43.80    2.20
  -3   1   1   38.70    2.30
  -3   1   1   37.10    1.90
  -3   1   1   37.80    1.90
   2  -1  -1  253.67    6.40
   2  -1  -1  252.37    6.40
   2  -1  -1  265.07    6.60
   2  -1  -1  250.27    6.40
   2  -1  -1  253.97    6.20
  -2   1   1  247.98    6.60
  -2   1   1  244.78    6.30
  -2   1   1  250.67    6.30
  -3  -1  -1  985.90   20.70
  -3  -1  -1  923.71   22.70
  -3  -1  -1  936.51   21.30
  -3  -1  -1  927.71   22.70
   3   1   1  911.21   23.10
   3   1   1  939.61   23.90
   3   1   1  974.20   23.70
   3   1   1  916.81   22.50
   3   1   1  963.20   22.90
  -4  -1  -1   91.49    4.90
  -4  -1  -1   89.89    4.00
  -4  -1  -1   85.79    4.70
   4   1   1   94.39    5.00
   4   1   1   85.49    5.10
   4   1   1   77.99    5.30
   4   1   1   89.99    5.40
  -5  -1  -1 2609.14   61.79
  -5  -1  -1 2826.52   62.99
  -5  -1  -1 2752.92   60.19
   5   1   1 2639.24   64.69
   5   1   1 2755.52   63.59
   5   1   1 2764.92   64.19
   5   1   1 2781.92   62.49
   6   1   1   11.20    2.40
   6   1   1    9.70    2.10
   6   1   1   13.40    2.10
   6   1   1    6.10    2.00
   6   1   1    7.00    1.70
   6   1   1    8.50    1.80
   6   1   1    7.30    1.50
   6   1   1    6.50    1.80
   6   1   1    8.00    1.70
   6   1   1    6.00    1.80
   7   1   1  349.07   12.00
   7   1   1  354.86   12.50
   7   1   1  362.76   11.10
   7   1   1  341.07   11.80
   7   1   1  318.07   11.00
   7   1   1  364.26   11.30
   7   1   1  343.57   10.70
   7   1   1  351.46   12.20
   7   1   1  342.97   10.80
   8   1   1   83.79    4.20
   8   1   1   86.49    4.10
   8   1   1   80.99    4.40
   8   1   1   83.49    3.80
   8   1   1   81.79    4.00
   8   1   1   82.69    4.20
   8   1   1   80.29    4.40
   8   1   1   83.49    3.80
   8   1   1   80.89    3.70
   9  -2  -1    7.30    1.50
   9  -2  -1    9.90    1.50
   9  -2  -1    8.10    1.60
   9  -2  -1    5.50    1.30
  -9   2   1    9.40    1.80
  -9   2   1    8.50    1.60
  -9   2   1    8.00    1.70
   8  -2  -1  229.28    8.90
   8  -2  -1  243.78    8.70
   8  -2  -1  232.38    9.30
   8  -2  -1  243.98    8.30
   8  -2  -1  231.88    9.40
  -8   2   1  238.98    8.90
  -8   2   1  248.68    8.90
   7  -2  -1  753.62   19.70
   7  -2  -1  736.23   20.70
   7  -2  -1  716.73   20.50
   7  -2  -1  731.23   20.00
   7  -2  -1  762.52   21.30
   7  -2  -1  742.73   19.40
   7  -2  -1  797.62   20.90
  -7   2   1  783.72   20.50
   6  -2  -1  107.99    6.20
   6  -2  -1  115.29    6.00
   6  -2  -1  126.69    5.50
   6  -2  -1  115.79    6.70
   6  -2  -1  110.69    6.90
  -6   2   1  111.09    5.50
  -6   2   1  112.39    6.00
  -6   2   1  116.29    6.70
   5  -2  -1  813.62   21.00
   5  -2  -1  812.12   22.00
   5  -2  -1  849.61   21.80
   5  -2  -1  751.62   20.50
  -5   2   1  819.62   21.50
  -5   2   1  810.12   20.10
  -5   2   1  823.82   20.60
   4  -2  -1  661.83   17.20
   4  -2  -1  665.03   17.10
   4  -2  -1  664.63   16.70
   4  -2  -1  668.13   16.70
  -4   2   1  681.03   16.40
  -4   2   1  649.64   16.40
  -4   2   1  661.23   16.30
  -4   2   1  677.33   16.20
  -4   2   1  679.13   17.20
   3  -2  -1 1038.80   22.40
   3  -2  -1 1016.80   22.60
   3  -2  -1 1063.09   22.90
   3  -2  -1 1022.70   22.80
   3  -2  -1 1033.30   23.20
   3  -2  -1  985.70   23.10
  -3   2   1 1003.90   22.80
  -3   2   1 1041.50   22.80
  -3   2   1 1003.80   23.10
  -3   2   1  989.00   23.00
  -2   2   1 4820.72   93.79
  -2   2   1 4738.83   93.79
  -2   2   1 3981.10   93.09
   1  -2  -1   10.60    1.10
   1  -2  -1    8.30    0.90
   1  -2  -1    8.60    0.70
   1  -2  -1    8.30    1.00
  -1   2   1    9.90    0.90
  -1   2   1    8.00    0.90
  -1   2   1    8.30    1.10
  -1   2   1    9.30    1.20
  -1   2   1    9.30    1.10
   0  -2  -1 1331.37   29.20
   0  -2  -1 1347.87   28.40
   0  -2  -1 1375.26   28.70
   0   2   1 1368.96   29.50
   0   2   1 1345.47   29.20
   0   2   1 1245.18   28.80
   0   2   1 1341.47   29.60
   0   2   1 1384.06   29.80
   0   2   1 1371.86   29.60
  -1  -2  -1 2158.38   47.70
  -1  -2  -1 2201.18   46.90
  -1  -2  -1 2227.58   47.70
   1   2   1 2337.17   47.70
   1   2   1 2311.97   49.10
   1   2   1 2193.88   48.30
   1   2   1 2281.37   48.80
   1   2   1 2268.27   48.60
   1   2   1 2279.07   48.80
  -2  -2  -1  128.59    3.90
  -2  -2  -1  127.99    4.80
  -2  -2  -1  136.59    5.00
   2   2   1  131.59    5.10
   2   2   1  126.59    4.80
   2   2   1  134.29    5.50
   2   2   1  130.79    5.50
   2   2   1  127.19    5.70
   2   2   1  128.99    5.30
  -3  -2  -1  481.65   13.30
  -3  -2  -1  447.56   11.70
  -3  -2  -1  511.75   13.50
   3   2   1  451.45   13.80
   3   2   1  460.45   14.70
   3   2   1  484.55   13.70
   3   2   1  483.95   14.50
   3   2   1  449.66   14.10
  -4  -2  -1 1285.87   30.00
  -4  -2  -1 1319.17   32.00
  -4  -2  -1 1364.36   32.70
   4   2   1 1317.17   33.40
   4   2   1 1260.57   34.10
   4   2   1 1304.87   33.70
   5   2   1  372.06   11.20
   5   2   1  378.06   11.30
   5   2   1  381.66   12.80
   5   2   1  383.56   12.80
   5   2   1  379.36   13.10
   5   2   1  387.36   12.20
   5   2   1  375.06   12.50
   5   2   1  374.26   11.60
   5   2   1  367.96   11.40
   5   2   1  381.66   13.00
   6   2   1  827.12   22.50
   6   2   1  830.32   20.90
   6   2   1  814.92   22.60
   6   2   1  792.42   21.50
   6   2   1  817.22   21.00
   6   2   1  816.62   23.10
   6   2   1  794.22   20.80
   6   2   1  796.22   21.00
   6   2   1  787.52   22.10
   7   2   1   89.19    5.10
   7   2   1   98.59    5.40
   7   2   1   95.79    4.70
   7   2   1   88.39    4.50
   7   2   1   92.89    4.80
   7   2   1   96.99    4.60
   7   2   1   87.49    5.00
   7   2   1   93.99    4.70
   7   2   1   84.59    5.30
  -8  -2  -1   71.79    3.50
   8   2   1   62.29    3.20
   8   2   1   64.29    2.90
   8   2   1   62.29    3.00
   8   2   1   61.49    3.40
   8   2   1   65.09    3.00
   8   2   1   57.79    3.10
   8   2   1   62.29    3.20
   8   2   1   65.79    3.50
   9  -3  -1    1.10    1.00
   9  -3  -1    0.00    0.80
   9  -3  -1   -0.80    0.90
  -9   3   1    2.10    1.00
  -9   3   1    0.80    1.10
  -9   3   1    1.00    1.10
   8  -3  -1   93.99    5.00
   8  -3  -1   94.09    5.50
   8  -3  -1   98.89    5.60
   8  -3  -1   95.39    5.30
  -8   3   1   97.39    5.50
  -8   3   1   99.89    5.30
   7  -3  -1  151.18    6.60
   7  -3  -1  164.38    6.70
   7  -3  -1  170.68    7.50
   7  -3  -1  153.18    7.10
   7  -3  -1  164.38    7.20
  -7   3   1  145.59    7.00
  -7   3   1  175.18    7.50
   6  -3  -1   59.99    5.60
   6  -3  -1   40.70    4.00
   6  -3  -1   35.90    4.50
  -6   3   1   38.40    3.90
  -6   3   1   35.20    4.40
  -6   3   1   36.80    4.00
   5  -3  -1  428.76   12.40
   5  -3  -1  432.36   13.10
   5  -3  -1  430.86   13.30
  -5   3   1  399.86   12.40
  -5   3   1  429.26   12.50
  -5   3   1  446.96   12.40
   4  -3  -1   77.69    3.60
   4  -3  -1   74.59    3.90
   4  -3  -1   74.89    3.80
   4  -3  -1   79.79    3.60
  -4   3   1   76.69    3.80
  -4   3   1   73.39    3.50
  -4   3   1   72.49    3.60
  -4   3   1   70.69    3.50
   3  -3  -1    3.20    0.80
   3  -3  -1    2.80    0.70
   3  -3  -1    2.50    0.60
   3  -3  -1    2.90    0.80
   3  -3  -1    4.10    1.00
  -3   3   1    1.30    0.60
  -3   3   1    2.50    0.70
  -3   3   1    2.10    0.70
  -3   3   1    3.50    1.00
  -3   3   1    1.80    0.70
  -3   3   1    2.90    0.80
   2  -3  -1 4271.77   87.49
   2  -3  -1 4052.29   87.19
   2  -3  -1 4224.58   87.29
   2  -3  -1 4200.98   86.79
  -2   3   1 4165.28   87.99
  -2   3   1 4071.69   88.29
  -2   3   1 4207.18   87.19
  -2   3   1 4251.37   86.89
  -2   3   1 4262.37   87.89
   1  -3  -1 3417.26   71.89
   1  -3  -1 3362.46   70.99
   1  -3  -1 3437.16   71.69
   1  -3  -1 3396.86   71.99
  -1   3   1 3421.96   71.79
  -1   3   1 3390.66   70.99
  -1   3   1 3390.46   72.59
  -1   3   1 3463.45   72.69
  -1   3   1 3444.46   72.19
   0  -3  -1  300.87    8.10
   0  -3  -1  311.07    8.90
   0  -3  -1  319.87    7.90
   0   3   1  320.37    9.30
   0   3   1  321.37    9.60
   0   3   1  325.47    9.20
   0   3   1  312.17    8.40
   0   3   1  309.97    9.20
   0   3   1  315.27    8.80
  -1  -3  -1  242.18    6.70
  -1  -3  -1  234.08    7.20
  -1  -3  -1  234.28    7.00
   1   3   1  233.18    7.10
   1   3   1  246.38    8.20
   1   3   1  230.68    8.10
   1   3   1  237.68    7.90
   1   3   1  233.48    7.80
   1   3   1  239.68    8.20
  -2  -3  -1  331.97    9.90
  -2  -3  -1  323.37    9.50
  -2  -3  -1  299.97    9.20
   2   3   1  324.97   10.70
   2   3   1  319.17   11.00
   2   3   1  304.87    9.80
   2   3   1  313.37   10.40
   2   3   1  294.87   10.30
  -3  -3  -1  437.16   12.90
  -3  -3  -1  411.46   13.00
  -3  -3  -1  426.36   12.90
   3   3   1  416.16   14.50
   3   3   1  433.46   14.10
   3   3   1  423.26   13.90
   3   3   1  414.26   14.00
  -4  -3  -1  147.49    7.40
  -4  -3  -1  151.68    7.20
  -4  -3  -1  138.59    7.10
   4   3   1  139.49    7.70
   4   3   1  133.49    8.20
   4   3   1  153.98    8.10
   5   3   1    2.30    1.40
   5   3   1    3.00    1.40
   5   3   1    5.80    1.90
   5   3   1    3.30    1.30
   5   3   1    4.30    1.40
   5   3   1    4.10    1.30
   5   3   1    3.90    1.90
   5   3   1    3.40    1.50
   5   3   1    7.10    1.90
   5   3   1   -0.10    0.70
   6   3   1  188.08    8.60
   6   3   1  187.48    8.30
   6   3   1  191.38    8.20
   6   3   1  189.48    7.30
   6   3   1  194.78    7.80
   6   3   1  181.08    7.20
   6   3   1  182.48    7.20
   6   3   1  192.28    8.10
   7   3   1   38.80    3.50
   7   3   1   37.90    3.50
   7   3   1   32.60    3.00
   7   3   1   34.00    2.90
   7   3   1   33.60    3.40
   7   3   1   35.60    3.60
   7   3   1   33.70    3.10
   7   3   1   36.80    3.00
   9  -4  -1  259.27    8.60
   9  -4  -1  235.18    8.00
   9  -4  -1  238.58    8.30
  -9   4   1  231.28    8.40
  -9   4   1  237.88    8.20
   8  -4  -1 1069.69   27.40
   8  -4  -1 1085.39   26.40
   8  -4  -1 1082.69   27.30
   8  -4  -1 1093.99   27.20
  -8   4   1 1045.20   26.80
  -8   4   1 1083.79   27.60
  -8   4   1 1097.29   27.70
   7  -4  -1  159.38    7.00
   7  -4  -1  163.48    7.20
   7  -4  -1  157.08    6.90
  -7   4   1  164.48    7.30
  -7   4   1  158.38    7.40
   6  -4  -1  409.76   12.10
   6  -4  -1  389.16   11.50
   6  -4  -1  389.36   11.80
   6  -4  -1  405.06   12.20
   6  -4  -1  419.36   13.90
  -6   4   1  403.56   12.40
  -6   4   1  394.66   12.60
  -6   4   1  399.76   13.00
   5  -4  -1  465.15   14.30
   5  -4  -1  493.55   14.40
   5  -4  -1  496.85   13.80
  -5   4   1  500.45   14.00
  -5   4   1  491.55   14.60
  -5   4   1  472.65   13.80
   4  -4  -1  241.88    8.00
   4  -4  -1  245.18    7.50
   4  -4  -1  235.48    7.90
   4  -4  -1  244.58    7.50
  -4   4   1  242.58    8.40
  -4   4   1  239.88    8.30
  -4   4   1  231.48    7.80
  -4   4   1  239.78    7.60
   3  -4  -1  171.08    5.30
   3  -4  -1  169.98    5.60
   3  -4  -1  171.28    6.00
   3  -4  -1  172.68    5.60
   3  -4  -1  174.08    5.90
  -3   4   1  173.08    5.80
  -3   4   1  179.48    6.40
  -3   4   1  160.28    6.40
  -3   4   1  187.88    6.60
  -3   4   1  178.08    5.50
   2  -4  -1 1299.97   28.90
   2  -4  -1 1276.77   28.90
   2  -4  -1 1296.47   29.10
   2  -4  -1 1317.37   28.10
  -2   4   1 1285.97   28.60
  -2   4   1 1283.07   29.40
  -2   4   1 1317.77   29.90
  -2   4   1 1258.47   29.70
  -2   4   1 1248.68   30.10
   1  -4  -1 6672.83  139.89
   1  -4  -1 6925.91  140.89
   1  -4  -1 6875.11  141.29
  -1   4   1 6601.74  139.79
  -1   4   1 6933.61  142.39
  -1   4   1 6553.84  140.79
  -1   4   1 6678.33  141.39
  -1   4   1 6881.51  142.19
   0  -4  -1 1918.91   42.20
   0  -4  -1 1807.02   40.90
   0  -4  -1 1964.50   40.60
   0  -4  -1 1894.31   42.70
   0   4   1 1860.91   41.20
   0   4   1 1930.81   43.50
   0   4   1 1852.81   43.00
   0   4   1 1906.61   42.60
   0   4   1 1793.52   41.90
  -1  -4  -1  258.97    8.00
  -1  -4  -1  267.67    9.20
  -1  -4  -1  271.97    8.40
   1   4   1  261.97    9.50
   1   4   1  259.27    9.40
   1   4   1  261.57    9.60
   1   4   1  262.77    8.50
   1   4   1  258.47    9.80
  -2  -4  -1 2382.16   54.49
  -2  -4  -1 2511.25   54.89
  -2  -4  -1 2506.75   55.19
   2   4   1 2485.85   57.09
   2   4   1 2500.05   56.19
   2   4   1 2427.86   57.19
   2   4   1 2527.55   57.59
  -3  -4  -1  285.57   10.40
  -3  -4  -1  298.87   10.60
   3   4   1  283.47   11.80
   3   4   1  296.87   12.00
   3   4   1  288.07   12.10
   4   4   1   52.49    5.40
   4   4   1   41.60    4.80
   4   4   1   40.50    3.80
   4   4   1   40.60    4.30
   4   4   1   41.60    3.70
   4   4   1   41.10    4.40
   4   4   1   38.70    4.30
   4   4   1   33.70    3.70
   4   4   1   43.30    4.50
   4   4   1   38.50    3.50
   5   4   1  491.75   15.10
   5   4   1  472.75   15.40
   5   4   1  484.05   15.90
   5   4   1  498.35   15.40
   5   4   1  480.05   13.90
   5   4   1  492.95   14.20
   5   4   1  472.25   15.90
   5   4   1  495.65   14.80
   5   4   1  486.95   14.10
   6   4   1    2.00    1.30
   6   4   1    2.20    1.10
   6   4   1    0.20    1.00
   6   4   1    3.00    1.20
   6   4   1    3.20    1.30
   6   4   1    1.70    1.20
   6   4   1    3.20    1.20
   6   4   1    2.10    1.20
   6   4   1    2.20    1.00
   7   4   1   44.80    3.50
   7   4   1   47.80    2.60
   7   4   1   46.20    2.80
   7   4   1   48.60    2.70
   7   4   1   43.00    3.20
   7   4   1   43.40    2.70
   7   4   1   45.00    2.60
   9  -5  -1   89.09    4.50
   9  -5  -1   85.09    4.30
   9  -5  -1   88.29    4.30
  -9   5   1   90.59    4.70
  -9   5   1   86.39    4.70
  -9   5   1   85.09    4.30
   8  -5  -1  312.97   10.50
   8  -5  -1  326.77   10.90
   8  -5  -1  311.97   10.60
  -8   5   1  296.57   11.10
  -8   5   1  313.57   10.50
  -8   5   1  321.97   11.20
   7  -5  -1  167.18    7.00
   7  -5  -1  157.88    7.00
   7  -5  -1  175.78    7.30
  -7   5   1  160.48    6.90
  -7   5   1  166.88    7.80
  -7   5   1  171.18    7.60
   6  -5  -1    2.50    1.10
   6  -5  -1    8.10    1.70
   6  -5  -1    2.80    1.00
  -6   5   1    1.50    1.30
  -6   5   1    2.30    1.40
  -6   5   1    1.60    1.30
   5  -5  -1  487.45   14.50
   5  -5  -1  491.95   13.80
   5  -5  -1  470.45   14.40
  -5   5   1  485.05   14.40
  -5   5   1  499.55   15.40
   4  -5  -1 1271.87   30.80
   4  -5  -1 1312.47   29.80
   4  -5  -1 1320.07   30.50
  -4   5   1 1254.47   31.50
  -4   5   1 1275.47   30.50
  -4   5   1 1352.26   31.80
   3  -5  -1  926.21   22.10
   3  -5  -1  920.51   21.20
   3  -5  -1  924.61   21.90
   3  -5  -1  939.81   22.40
   3  -5  -1  936.41   21.70
  -3   5   1  902.81   23.00
  -3   5   1  941.71   23.60
  -3   5   1  905.51   22.00
  -3   5   1  837.12   23.00
   2  -5  -1 4664.13   96.19
   2  -5  -1 4530.65   94.99
   2  -5  -1 4607.24   95.99
   2  -5  -1 4487.05   96.19
  -2   5   1 4537.75   97.29
  -2   5   1 4436.66   95.29
  -2   5   1 4605.54   98.09
  -2   5   1 4468.05   96.79
  -2   5   1 4480.65   97.19
   1  -5  -1 4265.17   89.19
   1  -5  -1 4007.00   87.99
   1  -5  -1 4175.78   89.69
  -1   5   1 4054.49   89.99
  -1   5   1 4241.68   90.99
  -1   5   1 4340.97   91.29
  -1   5   1 4175.78   89.29
   0  -5  -1   28.20    3.30
   0  -5  -1   35.30    2.50
   0  -5  -1   30.30    2.80
   0  -5  -1   34.80    3.40
   0   5   1   30.50    3.50
   0   5   1   32.80    4.00
   0   5   1   28.50    3.60
   0   5   1   34.30    3.60
  -1  -5  -1 3124.39   71.99
  -1  -5  -1 3428.16   74.29
  -1  -5  -1 3452.45   72.69
   1   5   1 3339.47   74.89
   1   5   1 3483.75   75.39
   1   5   1 3348.06   75.89
   1   5   1 3264.07   74.89
  -2  -5  -1 1506.65   37.10
  -2  -5  -1 1476.35   34.90
  -2  -5  -1 1521.15   35.40
   2   5   1 1426.06   38.00
   2   5   1 1469.25   37.80
   2   5   1 1397.76   37.10
   3   5   1  416.86   12.60
   3   5   1  394.36   13.70
   3   5   1  418.86   12.20
   3   5   1  398.86   13.70
   3   5   1  408.96   11.90
   3   5   1  391.26   12.60
   3   5   1  410.36   13.00
   3   5   1  405.66   13.20
   3   5   1  415.16   13.40
   3   5   1  423.26   13.40
   4   5   1  526.95   16.30
   4   5   1  520.15   15.40
   4   5   1  529.95   16.20
   4   5   1  508.85   14.80
   4   5   1  527.55   16.90
   4   5   1  516.15   16.10
   4   5   1  531.25   15.80
   4   5   1  512.85   14.50
   4   5   1  527.75   16.70
   5   5   1   52.79    5.10
   5   5   1   44.70    3.80
   5   5   1   49.99    4.60
   5   5   1   50.29    4.50
   5   5   1   49.80    5.00
   5   5   1   48.20    3.90
   5   5   1   53.59    4.80
   5   5   1   50.19    4.40
   6   5   1   11.70    1.80
   6   5   1   13.10    2.00
   6   5   1   13.80    1.90
   6   5   1   12.00    1.70
   6   5   1   12.70    2.10
   6   5   1   11.20    1.90
   6   5   1   15.00    2.30
   6   5   1   13.00    2.00
   9  -6  -1  192.28    6.50
   9  -6  -1  173.48    6.40
   9  -6  -1  192.48    6.80
  -9   6   1  186.68    6.50
  -9   6   1  187.58    7.20
  -9   6   1  194.18    7.20
   8  -6  -1   36.30    3.60
   8  -6  -1   43.00    3.90
   8  -6  -1   43.30    3.80
  -8   6   1   40.80    4.30
  -8   6   1   39.00    4.10
   7  -6  -1  421.06   12.80
   7  -6  -1  408.96   12.50
   7  -6  -1  424.66   13.00
  -7   6   1  409.06   13.40
  -7   6   1  394.66   13.90
  -7   6   1  419.86   13.60
   6  -6  -1  236.58    8.10
   6  -6  -1  234.68    8.10
   6  -6  -1  230.48    8.20
  -6   6   1  226.58    9.40
  -6   6   1  237.28    9.40
  -6   6   1  235.28    9.00
   5  -6  -1  335.77   11.20
   5  -6  -1  328.17   11.30
  -5   6   1  321.97   11.20
  -5   6   1  339.57   12.60
   4  -6  -1   19.10    2.70
   4  -6  -1   21.20    2.70
   4  -6  -1   17.60    2.20
  -4   6   1   20.60    3.20
  -4   6   1   17.00    2.60
  -4   6   1   15.30    2.90
   3  -6  -1  449.16   13.30
   3  -6  -1  463.85   12.90
   3  -6  -1  457.85   13.40
   3  -6  -1  473.05   13.20
  -3   6   1  469.35   15.00
  -3   6   1  471.05   14.90
  -3   6   1  457.65   14.40
   2  -6  -1  746.33   19.60
   2  -6  -1  738.23   19.40
   2  -6  -1  710.13   18.20
   2  -6  -1  766.42   19.50
  -2   6   1  762.12   20.50
  -2   6   1  750.52   20.80
  -2   6   1  766.32   21.50
  -2   6   1  745.13   21.00
   1  -6  -1  697.23   18.50
   1  -6  -1  675.63   18.90
   1  -6  -1  654.53   17.30
   1  -6  -1  667.73   18.80
  -1   6   1  668.83   19.40
  -1   6   1  686.33   20.50
  -1   6   1  705.73   20.50
  -1   6   1  684.93   18.70
   0  -6  -1  224.58    8.10
   0  -6  -1  225.48    9.60
   0  -6  -1  247.38    9.30
   0   6   1  241.28   10.50
   0   6   1  243.78    9.80
   0   6   1  229.68   10.30
   0   6   1  239.38    9.50
  -1  -6  -1 1220.58   33.00
  -1  -6  -1 1306.97   30.90
  -1  -6  -1 1249.38   32.20
   1   6   1 1222.58   34.00
   1   6   1 1274.27   33.10
   1   6   1 1271.67   33.70
   2   6   1  712.33   20.10
   2   6   1  699.03   18.60
   2   6   1  721.53   20.10
   2   6   1  689.83   20.30
   2   6   1  715.53   19.40
   2   6   1  693.93   18.20
   2   6   1  712.43   20.40
   2   6   1  692.23   19.30
   2   6   1  700.43   19.40
   2   6   1  717.73   19.20
   3   6   1  537.65   17.20
   3   6   1  544.65   16.40
   3   6   1  558.44   17.60
   3   6   1  561.44   15.60
   3   6   1  569.64   16.90
   3   6   1  578.44   16.20
   3   6   1  570.04   17.30
   3   6   1  583.34   16.90
   3   6   1  555.24   16.50
   4   6   1  153.08    7.10
   4   6   1  154.08    6.90
   4   6   1  153.98    7.60
   4   6   1  153.98    6.70
   4   6   1  156.38    7.70
   4   6   1  143.79    7.10
   4   6   1  153.48    7.10
   4   6   1  144.09    6.20
   5   6   1  730.83   18.80
   5   6   1  772.12   19.80
   5   6   1  748.03   19.10
   5   6   1  797.02   20.90
   5   6   1  788.82   20.10
   5   6   1  766.72   20.60
   5   6   1  789.42   19.60
   5   6   1  794.02   20.20
   6   6   1   20.90    1.90
   6   6   1   23.00    1.90
   6   6   1   22.90    2.00
   6   6   1   25.00    2.30
   6   6   1   23.60    2.00
   6   6   1   24.80    2.10
   6   6   1   21.60    2.10
   6   6   1   22.40    2.10
   9  -7  -1   37.10    2.90
   9  -7  -1   43.60    2.60
   9  -7  -1   40.00    3.10
  -9   7   1   39.40    3.50
  -9   7   1   34.80    3.20
   8  -7  -1    7.50    1.60
   8  -7  -1    4.90    1.50
   8  -7  -1    8.10    1.70
  -8   7   1    6.20    1.70
  -8   7   1    6.20    1.80
  -8   7   1    4.70    1.90
   7  -7  -1  279.67    9.30
   7  -7  -1  258.37    9.00
   7  -7  -1  254.47    9.10
  -7   7   1  274.47   10.80
  -7   7   1  266.87   10.00
  -7   7   1  268.47   10.40
   6  -7  -1   12.10    2.00
   6  -7  -1   13.60    2.10
   6  -7  -1    9.80    1.80
  -6   7   1   12.20    2.60
  -6   7   1   12.60    2.70
  -6   7   1   12.20    2.60
   5  -7  -1  694.03   17.30
   5  -7  -1  681.83   17.40
  -5   7   1  672.43   17.30
  -5   7   1  663.13   19.10
  -5   7   1  659.13   19.20
  -5   7   1  673.73   19.30
   4  -7  -1  242.88    9.00
   4  -7  -1  230.38    8.30
   4  -7  -1  235.98    9.10
  -4   7   1  251.57   10.70
  -4   7   1  226.08   10.30
   3  -7  -1  358.16   11.70
   3  -7  -1  350.46   11.90
   3  -7  -1  365.26   11.90
   3  -7  -1  378.76   11.60
  -3   7   1  355.36   13.20
  -3   7   1  376.36   13.70
  -3   7   1  373.86   13.70
   2  -7  -1  160.08    7.20
   2  -7  -1  169.78    7.20
   2  -7  -1  153.48    7.00
  -2   7   1  153.98    8.20
  -2   7   1  155.58    8.00
  -2   7   1  173.08    8.10
  -2   7   1  164.78    8.80
   1  -7  -1  127.49    6.70
   1  -7  -1  133.39    6.50
   1  -7  -1  119.89    6.40
  -1   7   1  128.79    7.80
  -1   7   1  128.99    7.30
  -1   7   1  140.59    7.80
   0  -7  -1    5.80    1.70
   0  -7  -1    5.80    1.90
   0  -7  -1    9.10    2.30
   0   7   1   -1.60    1.40
   0   7   1    4.00    1.80
   0   7   1    9.10    2.80
   1   7   1  129.19    6.20
   1   7   1  142.69    6.20
   1   7   1  128.79    6.20
   1   7   1  127.19    6.50
   1   7   1  141.49    7.40
   1   7   1  129.99    6.80
   1   7   1  141.49    6.00
   1   7   1  135.99    6.70
   1   7   1  131.99    6.70
   1   7   1  127.79    6.60
   2   7   1   12.70    2.50
   2   7   1   15.60    2.60
   2   7   1   12.10    2.80
   2   7   1   12.80    2.50
   2   7   1   14.30    2.50
   2   7   1   11.60    2.10
   2   7   1   15.80    2.60
   2   7   1   20.50    3.10
   2   7   1   18.90    3.10
   3   7   1  307.27   10.40
   3   7   1  310.97   10.80
   3   7   1  332.67   11.10
   3   7   1  309.77   11.40
   3   7   1  309.77   11.00
   3   7   1  316.67   10.70
   3   7   1  298.47    9.90
   3   7   1  322.87   11.80
   3   7   1  307.77   11.40
   4   7   1   26.50    3.40
   4   7   1   23.40    3.10
   4   7   1   21.90    2.60
   4   7   1   23.00    2.80
   4   7   1   22.70    2.90
   4   7   1   21.70    2.70
   4   7   1   24.80    3.00
   4   7   1   24.00    2.50
   5   7   1   37.80    2.50
   5   7   1   36.10    3.20
   5   7   1   37.10    3.10
   5   7   1   38.10    2.80
   5   7   1   33.30    2.60
   5   7   1   39.20    2.30
   5   7   1   37.70    2.90
   9  -8  -1    0.60    0.60
   9  -8  -1   -0.30    0.50
  -9   8   1   -0.20    0.90
  -9   8   1    0.60    0.90
   8  -8  -1    4.00    1.10
   8  -8  -1    1.00    0.80
   8  -8  -1    0.50    0.80
  -8   8   1    1.00    1.30
  -8   8   1    3.40    1.30
  -8   8   1    0.90    1.10
   7  -8  -1   44.40    3.70
   7  -8  -1   42.30    3.60
   7  -8  -1   43.40    3.70
  -7   8   1   45.90    5.00
  -7   8   1   44.60    4.30
  -7   8   1   40.10    4.30
   6  -8  -1    8.50    1.60
   6  -8  -1    7.90    1.70
   6  -8  -1    5.70    1.40
  -6   8   1    8.20    2.30
  -6   8   1    7.20    2.10
  -6   8   1    5.40    1.90
   5  -8  -1  226.48    7.70
   5  -8  -1  208.48    7.50
  -5   8   1  212.68    9.30
  -5   8   1  231.28    7.70
  -5   8   1  221.38    9.50
  -5   8   1  207.88    9.20
  -5   8   1  221.18    9.60
   4  -8  -1   13.70    1.90
  -4   8   1   13.60    3.10
  -4   8   1   10.20    1.70
  -4   8   1   13.90    2.90
  -4   8   1   11.60    1.90
  -4   8   1   14.30    2.10
  -4   8   1   10.80    2.50
  -4   8   1    9.30    2.30
   3  -8  -1    0.30    0.80
  -3   8   1    2.10    1.00
  -3   8   1    0.40    0.70
  -3   8   1    0.20    0.70
  -3   8   1    2.00    1.30
  -3   8   1    2.20    1.40
  -3   8   1   -0.90    1.50
  -3   8   1    0.60    1.00
  -3   8   1    0.50    1.20
  -3   8   1    1.50    1.00
  -3   8   1    3.40    1.70
  -2   8   1  502.25   14.00
  -2   8   1  499.75   14.60
  -2   8   1  513.15   14.20
  -2   8   1  503.25   14.70
  -2   8   1  511.45   15.70
  -2   8   1  489.35   14.40
  -2   8   1  487.15   14.10
  -2   8   1  494.45   16.00
  -2   8   1  510.95   16.50
  -2   8   1  497.35   14.50
  -2   8   1  521.75   16.40
  -1   8   1  408.86   12.40
  -1   8   1  395.46   14.20
  -1   8   1  412.16   14.10
  -1   8   1  406.06   13.00
  -1   8   1  395.86   12.70
  -1   8   1  404.06   12.30
  -1   8   1  406.76   12.10
  -1   8   1  411.66   14.20
  -1   8   1  405.16   13.00
  -1   8   1  399.56   13.00
   0   8   1  225.78    9.10
   0   8   1  225.98    8.30
   0   8   1  228.98    8.60
   0   8   1  234.98    9.80
   0   8   1  237.18    8.70
   0   8   1  218.58    9.10
   0   8   1  223.18    9.20
   0   8   1  223.88   10.10
   0   8   1  227.88    9.00
   1   8   1  152.28    7.40
   1   8   1  161.58    7.40
   1   8   1  146.59    6.20
   1   8   1  159.28    7.40
   1   8   1  138.19    6.40
   1   8   1  144.19    6.60
   1   8   1  140.29    6.60
   1   8   1  147.39    7.10
   1   8   1  142.79    7.80
   2   8   1   12.70    2.30
   2   8   1   14.70    2.70
   2   8   1   12.90    2.10
   2   8   1   10.80    2.30
   2   8   1    9.60    1.90
   2   8   1   14.10    2.60
   2   8   1   16.80    2.60
   2   8   1    9.30    2.10
   3   8   1   73.19    4.20
   3   8   1   73.59    4.00
   3   8   1   65.79    5.20
   3   8   1   70.19    4.40
   3   8   1   75.59    4.30
   3   8   1   67.79    5.10
   3   8   1   70.99    4.10
   3   8   1   74.19    4.00
   4   8   1  363.86   10.60
   4   8   1  370.26   10.20
   4   8   1  370.76   10.30
   4   8   1  352.76    9.80
   4   8   1  361.06   10.20
   4   8   1  368.56   10.00
   4   8   1  348.97   10.40
   4   8   1  339.87    9.40
   8  -9  -1   36.70    2.90
   8  -9  -1   38.70    2.90
  -8   9   1   34.40    3.50
  -8   9   1   35.20    3.40
   7  -9  -1   25.50    2.60
   7  -9  -1   25.30    2.60
   7  -9  -1   26.10    2.70
  -7   9   1   29.90    3.50
  -7   9   1   31.60    3.70
  -7   9   1   29.00    3.50
   6  -9  -1   86.79    4.30
   6  -9  -1   83.49    4.20
   6  -9  -1   85.89    4.30
  -6   9   1   88.99    5.60
  -6   9   1   76.99    6.20
  -6   9   1   89.09    5.70
   5  -9  -1   81.09    4.20
   5  -9  -1   84.29    4.30
  -5   9   1   81.79    6.50
  -5   9   1   78.89    6.40
  -5   9   1   88.29    7.00
  -5   9   1   80.79    4.10
   4  -9  -1  130.99    5.40
   4  -9  -1  131.49    7.60
  -4   9   1  124.19    7.30
  -4   9   1  127.89    5.40
  -4   9   1  118.79    6.80
  -4   9   1  134.99    5.60
  -4   9   1  120.59    6.70
  -4   9   1  130.39    7.00
  -4   9   1  126.49    5.50
   3  -9  -1  439.66   12.70
  -3   9   1  441.36   15.50
  -3   9   1  429.96   12.90
  -3   9   1  446.96   12.70
  -3   9   1  481.05   15.20
  -3   9   1  479.45   15.20
  -3   9   1  453.65   13.10
  -3   9   1  421.96   12.70
  -3   9   1  430.86   12.80
  -3   9   1  448.66   13.00
  -3   9   1  445.76   15.00
  -2   9   1    2.20    1.00
  -2   9   1    0.60    0.90
  -2   9   1    1.30    0.90
  -2   9   1    0.60    0.80
  -2   9   1   -0.80    1.10
  -2   9   1    0.40    1.30
  -2   9   1   -0.20    1.10
  -2   9   1    0.60    0.90
  -2   9   1    0.30    0.80
  -2   9   1    1.70    1.20
  -2   9   1    0.10    1.30
  -1   9   1   59.19    4.60
  -1   9   1   63.59    5.10
  -1   9   1   67.09    4.20
  -1   9   1   72.39    6.40
  -1   9   1   58.99    4.90
  -1   9   1   57.49    5.00
  -1   9   1   60.99    5.00
  -1   9   1   67.79    6.20
  -1   9   1   73.69    4.20
  -1   9   1   73.19    6.50
   0   9   1  480.55   14.10
   0   9   1  471.05   14.00
   0   9   1  479.25   15.50
   0   9   1  474.95   16.20
   0   9   1  484.45   14.80
   0   9   1  493.65   15.00
   0   9   1  471.05   14.60
   0   9   1  472.85   14.80
   0   9   1  470.55   13.80
   1   9   1  139.69    6.70
   1   9   1  147.49    6.50
   1   9   1  150.78    6.50
   1   9   1  151.78    7.70
   1   9   1  145.69    6.10
   1   9   1  146.99    6.80
   1   9   1  148.39    6.70
   1   9   1  152.38    7.00
   2   9   1  210.98    7.20
   2   9   1  219.18    7.60
   2   9   1  206.98    7.60
   2   9   1  210.98    8.10
   2   9   1  212.98    7.40
   2   9   1  211.08    8.10
   2   9   1  214.58    7.80
   2   9   1  214.28    7.90
   3   9   1   62.89    3.10
   3   9   1   62.19    3.40
   3   9   1   62.89    3.50
   3   9   1   60.49    3.20
   3   9   1   64.99    3.10
   3   9   1   65.99    3.10
   3   9   1   66.19    3.40
   3   9   1   63.89    3.30
   8 -10  -1  573.74   14.30
   8 -10  -1  582.24   13.90
  -8  10   1  530.15   14.70
  -8  10   1  610.84   14.90
   7 -10  -1  183.98    6.30
   7 -10  -1  211.18    6.50
   7 -10  -1  205.58    6.60
  -7  10   1  207.38    7.50
  -7  10   1  194.88    7.70
  -7  10   1  198.28    7.60
   6 -10  -1   50.29    3.00
   6 -10  -1   47.70    2.90
   6 -10  -1   52.19    3.10
  -6  10   1   56.99    4.90
  -6  10   1   57.29    5.00
  -6  10   1   44.70    4.20
   5 -10  -1  294.07    9.20
   5 -10  -1  312.47    9.40
  -5  10   1  316.47   11.50
  -5  10   1  314.37    9.30
  -5  10   1  286.47   11.00
  -5  10   1  298.87   11.00
   4 -10  -1   68.49    3.60
  -4  10   1   73.09    3.90
  -4  10   1   63.59    5.40
  -4  10   1   74.49    4.00
  -4  10   1   63.79    5.80
  -4  10   1   60.09    3.60
  -4  10   1   60.59    5.50
   3 -10  -1  489.15   13.20
  -3  10   1  481.55   13.30
  -3  10   1  475.85   13.40
  -3  10   1  466.75   13.20
  -3  10   1  479.65   13.30
  -3  10   1  463.15   14.90
  -3  10   1  463.55   15.10
  -3  10   1  471.45   15.50
  -3  10   1  475.15   13.10
  -3  10   1  469.35   13.00
  -3  10   1  481.05   16.00
   2 -10  -1   40.70    3.50
  -2  10   1   38.20    4.50
  -2  10   1   38.80    4.50
  -2  10   1   32.30    3.30
  -2  10   1   33.80    3.30
  -2  10   1   37.70    3.50
  -2  10   1   40.90    3.50
  -2  10   1   37.50    4.50
  -2  10   1   39.50    3.70
  -2  10   1   42.80    3.60
  -1  10   1  280.47   10.40
  -1  10   1  275.77    8.90
  -1  10   1  270.97    9.40
  -1  10   1  259.87    9.30
  -1  10   1  283.17    9.20
  -1  10   1  276.37    9.20
  -1  10   1  273.17   10.90
  -1  10   1  272.97    9.30
  -1  10   1  275.27   10.70
  -1  10   1  275.27    9.50
   0  10   1  586.24   16.00
   0  10   1  587.64   15.40
   0  10   1  601.44   16.20
   0  10   1  586.64   16.90
   0  10   1  569.94   15.60
   0  10   1  569.84   16.10
   0  10   1  582.34   17.50
   0  10   1  577.94   16.10
   0  10   1  592.74   15.60
   1  10   1   13.20    1.80
   1  10   1   20.00    2.30
   1  10   1   16.50    2.40
   1  10   1   15.30    2.00
   1  10   1   16.80    2.20
   1  10   1   15.60    2.10
   1  10   1   19.40    2.20
   1  10   1   17.60    2.30
   2  10   1  106.29    4.20
   2  10   1  104.09    4.00
   2  10   1  110.19    4.10
   2  10   1   99.29    3.80
   2  10   1  103.99    4.20
   2  10   1   96.09    3.90
   2  10   1   98.49    4.20
   7 -11  -1  152.28    5.00
   7 -11  -1  152.08    4.80
  -7  11   1  156.48    5.80
  -7  11   1  162.08    5.70
   6 -11  -1  476.75   12.10
   6 -11  -1  492.05   12.00
   6 -11  -1  464.65   11.80
  -6  11   1  439.66   13.20
  -6  11   1  484.75   13.60
  -6  11   1  481.95   13.00
   5 -11  -1   80.09    3.50
   5 -11  -1   80.79    3.60
  -5  11   1   73.89    4.50
  -5  11   1   71.39    4.50
   4 -11  -1  634.14   15.80
  -4  11   1  641.34   17.50
  -4  11   1  644.04   15.90
  -4  11   1  630.44   17.80
  -4  11   1  647.24   18.20
   3 -11  -1    4.00    1.00
   3 -11  -1    3.80    1.00
  -3  11   1    2.00    1.10
  -3  11   1    2.30    1.40
  -3  11   1    2.10    1.30
  -3  11   1    3.20    1.00
  -3  11   1    2.30    1.00
  -3  11   1    2.10    1.20
  -3  11   1    2.90    1.00
  -3  11   1    3.00    1.10
   2 -11  -1    1.80    0.80
  -2  11   1    0.40    0.70
  -2  11   1    1.70    0.90
  -2  11   1    1.00    0.70
  -2  11   1    2.10    0.90
  -2  11   1    2.80    1.30
  -2  11   1    2.40    1.30
  -2  11   1    2.50    1.40
  -2  11   1    1.20    0.80
  -2  11   1    2.10    0.90
   1 -11  -1   24.60    2.20
  -1  11   1   22.10    2.30
  -1  11   1   22.20    2.10
  -1  11   1   24.60    3.00
  -1  11   1   25.30    2.30
  -1  11   1   20.70    2.20
  -1  11   1   23.40    2.40
  -1  11   1   17.80    2.40
  -1  11   1   18.00    2.00
   0  11   1   54.89    2.90
   0  11   1   52.99    2.70
   0  11   1   52.89    2.90
   0  11   1   55.89    2.80
   0  11   1   56.09    2.90
   0  11   1   54.09    3.10
   0  11   1   51.19    3.30
   0  11   1   53.19    2.90
   5 -12  -1  184.98    5.30
   5 -12  -1  181.88    5.40
  -5  12   1  183.88    6.30
  -5  12   1  189.28    6.30
   4 -12  -1  585.24   13.90
   4 -12  -1  585.04   13.70
  -4  12   1  588.74   15.30
  -4  12   1  589.44   14.60
  -4  12   1  572.54   14.80
   3 -12  -1   21.40    1.70
  -3  12   1   19.80    2.10
  -3  12   1   21.50    2.40
  -3  12   1   22.90    2.20
  -3  12   1   22.10    1.70
   2 -12  -1  149.59    4.50
  -2  12   1  150.88    5.40
  -2  12   1  152.78    4.70
  -2  12   1  150.68    4.50
  -2  12   1  142.09    5.10
  -2  12   1  149.59    4.60
  -2  12   1  149.59    5.30
  -1  12  -2   91.29    3.90
  -1  12  -2   91.69    4.00
  -1  12  -2   92.49    3.70
   1 -12   2   92.79    3.40
   1 -12   2   86.29    3.10
  -2  12  -2   11.00    1.70
  -2  12  -2   12.50    1.90
  -2  12  -2   14.10    2.00
  -2  12  -2   14.90    1.40
   2 -12   2   12.00    1.30
   2 -12   2   13.60    1.50
  -3  12  -2   74.29    4.10
  -3  12  -2   76.19    3.90
  -3  12  -2   77.69    3.50
   3 -12   2   75.69    3.00
   3 -12   2   71.79    3.10
   3 -12   2   78.99    3.40
  -4  12  -2    5.60    1.30
  -4  12  -2    4.10    1.30
  -4  12  -2    6.70    1.40
   4 -12   2    6.30    1.00
   4 -12   2    4.10    0.80
   4 -12   2    6.20    1.10
  -5  12  -2   95.79    4.20
  -5  12  -2   95.79    4.20
   5 -12   2   90.99    4.20
   5 -12   2   95.69    3.50
   5 -12   2   88.49    3.20
   1  11  -2  209.48    6.40
   1  11  -2  203.58    5.80
   1  11  -2  201.78    5.70
   1  11  -2  204.58    6.20
   1  11  -2  199.78    6.00
   1  11  -2  203.58    5.90
   1  11  -2  201.48    6.90
  -1 -11   2  197.88    5.80
   0  11  -2  329.57    9.40
   0  11  -2  328.67    9.00
   0  11  -2  328.77    9.70
   0  11  -2  323.97   10.30
   0  11  -2  341.87    9.20
   0  11  -2  329.37   10.80
   0  11  -2  319.67    9.00
   0  11  -2  328.57    9.00
   0 -11   2  319.77    8.90
  -1  11  -2   20.90    2.20
  -1  11  -2   20.10    2.90
  -1  11  -2   17.50    2.00
  -1  11  -2   14.20    1.70
  -1  11  -2   14.90    2.40
  -1  11  -2   16.60    2.10
  -1  11  -2   15.30    1.90
   1 -11   2   17.00    1.90
   1 -11   2   16.20    2.00
  -2  11  -2  420.56   11.20
  -2  11  -2  406.66   13.30
  -2  11  -2  398.96   13.00
  -2  11  -2  403.16   11.10
  -2  11  -2  385.86   11.20
  -2  11  -2  431.96   13.40
   2 -11   2  406.46   11.50
  -3  11  -2  351.46   11.80
  -3  11  -2  398.16   12.70
  -3  11  -2  367.36   10.40
  -3  11  -2  367.66   11.90
  -3  11  -2  396.96   13.20
   3 -11   2  392.26   10.70
   3 -11   2  390.26   11.00
  -4  11  -2   43.50    4.50
  -4  11  -2   37.30    3.90
  -4  11  -2   43.00    4.10
   4 -11   2   42.50    3.10
   4 -11   2   42.40    3.30
   4 -11   2   41.60    2.50
  -5  11  -2  509.55   15.10
  -5  11  -2  531.55   15.40
   5 -11   2  515.95   13.10
   5 -11   2  515.45   13.70
   5 -11   2  518.05   13.30
  -6  11  -2   37.70    3.20
  -6  11  -2   31.10    3.00
  -6  11  -2   37.30    3.40
   6 -11   2   32.80    2.50
   6 -11   2   29.90    2.30
   6 -11   2   31.90    2.60
  -7  11  -2   82.39    3.90
  -7  11  -2   96.79    3.90
   7 -11   2   90.59    3.40
   2  10  -2   16.30    1.80
   2  10  -2   10.10    1.60
   2  10  -2   13.20    1.90
   2  10  -2   13.60    1.60
   2  10  -2   11.80    1.90
   2  10  -2   10.60    1.50
   2  10  -2   11.00    1.70
   2  10  -2   15.20    1.80
   1  10  -2  148.69    5.70
   1  10  -2  138.99    5.50
   1  10  -2  145.29    5.80
   1  10  -2  141.79    6.10
   1  10  -2  155.28    7.30
   1  10  -2  152.18    6.10
   1  10  -2  160.78    6.50
   1  10  -2  164.08    6.60
   0  10  -2  145.39    5.90
   0  10  -2  137.99    6.00
   0  10  -2  137.89    7.00
   0  10  -2  147.19    6.00
   0  10  -2  133.69    5.60
   0  10  -2  142.39    7.50
   0  10  -2  147.69    6.30
   0  10  -2  145.29    6.40
   0  10  -2  140.69    6.40
   0 -10   2  140.59    5.70
  -1  10  -2   22.60    3.00
  -1  10  -2   23.00    3.70
  -1  10  -2   26.50    2.90
  -1  10  -2   26.80    3.10
  -1  10  -2   22.70    3.50
  -1  10  -2   28.00    3.10
  -1  10  -2   23.70    3.50
  -1  10  -2   23.00    2.60
  -1  10  -2   19.50    2.60
  -1  10  -2   20.40    2.50
   1 -10   2   20.80    2.50
  -2  10  -2  609.54   18.70
  -2  10  -2  587.04   18.60
  -2  10  -2  595.84   15.80
  -2  10  -2  607.74   16.00
  -2  10  -2  615.84   16.60
  -2  10  -2  629.14   16.20
  -2  10  -2  615.04   18.70
   2 -10   2  606.24   16.00
   2 -10   2  583.14   16.30
  -3  10  -2  295.77   11.00
  -3  10  -2  306.27   11.70
  -3  10  -2  286.37   10.70
  -3  10  -2  286.17   11.10
  -3  10  -2  281.77    9.00
   3 -10   2  262.97    9.20
  -4  10  -2  233.68    9.90
  -4  10  -2  236.98    9.50
  -4  10  -2  232.98    9.50
   4 -10   2  243.48    7.90
   4 -10   2  225.18    8.10
  -5  10  -2  213.88    9.10
  -5  10  -2  217.28    8.70
  -5  10  -2  225.98    9.10
   5 -10   2  205.18    7.10
   5 -10   2  215.78    7.70
   5 -10   2  224.88    7.40
  -6  10  -2  328.77   11.00
  -6  10  -2  301.77   10.60
  -6  10  -2  303.57   10.40
   6 -10   2  332.07    9.50
   6 -10   2  309.77    9.20
   6 -10   2  307.17    9.70
  -7  10  -2  112.29    5.40
  -7  10  -2  114.59    5.20
   7 -10   2  120.69    4.70
   7 -10   2  110.39    4.50
   7 -10   2  105.79    4.40
   3   9  -2   70.29    3.70
   3   9  -2   73.29    4.00
   3   9  -2   64.19    3.30
   3   9  -2   68.99    3.80
   3   9  -2   67.39    3.50
   3   9  -2   68.19    4.00
   3   9  -2   63.09    3.60
   3   9  -2   66.59    3.40
  -3  -9   2   70.89    3.40
   2   9  -2   82.09    4.30
   2   9  -2   84.99    5.00
   2   9  -2   77.99    4.60
   2   9  -2   74.99    4.00
   2   9  -2   85.79    4.60
   2   9  -2   81.09    4.20
   2   9  -2   71.99    4.60
   2   9  -2   75.89    5.20
   2   9  -2   74.69    4.40
  -2  -9   2   81.09    4.20
   1   9  -2  922.91   24.50
   1   9  -2  902.61   24.60
   1   9  -2  950.20   24.10
   1   9  -2  951.60   24.00
   1   9  -2  930.91   25.00
   1   9  -2  931.71   23.50
   1   9  -2  954.40   24.70
   1   9  -2  948.31   23.60
   1   9  -2  932.21   23.60
   1   9  -2  952.10   26.40
   0   9  -2  236.68    8.50
   0   9  -2  236.18    8.60
   0   9  -2  238.68   10.00
   0   9  -2  221.38    9.00
   0   9  -2  244.58    9.10
   0   9  -2  237.48   10.50
   0   9  -2  232.48    8.80
   0   9  -2  241.88    8.50
   0   9  -2  235.38    9.30
   0   9  -2  231.78    8.90
  -1   9  -2  281.97   10.40
  -1   9  -2  324.27   12.50
  -1   9  -2  288.47   11.50
  -1   9  -2  287.07    9.70
  -1   9  -2  344.07   12.20
  -1   9  -2  324.97   10.10
  -1   9  -2  298.67   10.40
  -1   9  -2  333.17   10.70
  -1   9  -2  293.27   10.50
  -1   9  -2  281.67    9.90
   1  -9   2  301.47    9.80
  -2   9  -2 2361.76   55.19
  -2   9  -2 2378.76   53.79
  -2   9  -2 2244.18   51.79
  -2   9  -2 2386.26   54.99
  -2   9  -2 2310.57   54.69
  -2   9  -2 2435.16   51.99
  -2   9  -2 2304.97   51.79
  -2   9  -2 2323.97   52.69
   2  -9   2 2308.57   51.79
  -3   9  -2  199.08    7.10
  -3   9  -2  183.88    6.90
  -3   9  -2  189.48    8.60
  -3   9  -2  177.58    8.50
  -3   9  -2  201.58    8.40
  -3   9  -2  201.68    9.10
   3  -9   2  192.78    7.30
  -4   9  -2  312.27   11.40
  -4   9  -2  313.57   11.20
  -4   9  -2  313.27    9.50
  -4   9  -2  312.07   11.30
  -4   9  -2  294.77   11.70
   4  -9   2  300.37   10.00
   4  -9   2  318.67    9.70
  -5   9  -2  363.66   12.50
  -5   9  -2  363.46   12.90
  -5   9  -2  356.16   12.50
   5  -9   2  360.26   11.40
   5  -9   2  375.66   10.80
   5  -9   2  361.86   10.90
  -6   9  -2  205.88    8.70
  -6   9  -2  191.28    8.40
  -6   9  -2  199.48    8.30
   6  -9   2  198.88    7.60
   6  -9   2  211.68    7.30
   6  -9   2  214.88    7.40
  -7   9  -2   22.20    2.90
  -7   9  -2   25.70    3.30
  -7   9  -2   26.10    3.20
   7  -9   2   22.70    2.50
   7  -9   2   25.60    2.70
   7  -9   2   19.90    2.30
  -8   9  -2    1.80    1.00
  -8   9  -2    1.80    1.10
   8  -9   2    1.00    0.70
   8  -9   2    1.90    0.80
   4   8  -2   49.90    4.30
   4   8  -2   44.10    2.80
   4   8  -2   46.50    3.80
   4   8  -2   47.80    3.70
   4   8  -2   44.80    3.90
   4   8  -2   47.20    3.00
   4   8  -2   44.10    3.20
   4   8  -2   44.00    2.70
   4   8  -2   49.20    3.60
   3   8  -2   14.00    2.10
   3   8  -2   11.20    2.10
   3   8  -2   11.50    2.30
   3   8  -2   13.30    2.10
   3   8  -2   11.90    2.40
   3   8  -2   12.80    2.30
   3   8  -2   13.30    2.50
   3   8  -2   15.80    2.60
   3   8  -2   15.10    2.20
   2   8  -2  109.09    6.00
   2   8  -2  112.79    6.80
   2   8  -2  100.19    5.10
   2   8  -2  105.39    5.40
   2   8  -2  118.99    5.60
   2   8  -2  117.19    6.40
   2   8  -2  106.69    5.90
   2   8  -2  113.89    5.70
   2   8  -2  106.09    5.50
   2   8  -2  104.09    6.20
   1   8  -2  130.99    7.40
   1   8  -2  126.49    6.70
   1   8  -2  125.99    5.90
   1   8  -2  125.69    6.80
   1   8  -2  124.39    6.70
   1   8  -2  120.89    6.30
   1   8  -2  120.59    6.40
   1   8  -2  132.09    6.00
   1   8  -2  124.89    6.10
   1   8  -2  121.99    5.70
   0   8  -2    8.40    2.00
   0   8  -2    7.80    1.90
   0   8  -2    8.50    2.00
   0   8  -2    7.40    2.20
   0   8  -2   11.40    2.30
   0   8  -2    6.40    2.00
   0   8  -2    6.00    1.90
   0   8  -2    6.80    1.70
   0   8  -2    6.10    1.60
   0   8  -2    9.60    1.90
  -1   8  -2  166.38    7.70
  -1   8  -2  153.88    6.90
  -1   8  -2  160.58    8.00
  -1   8  -2  161.58    6.80
  -1   8  -2  156.08    6.40
  -1   8  -2  154.58    7.00
  -1   8  -2  154.38    6.40
  -1   8  -2  155.78    6.60
  -1   8  -2  162.18    7.70
  -1   8  -2  165.88    6.50
  -2   8  -2  563.54   17.70
  -2   8  -2  604.94   16.90
  -2   8  -2  563.04   17.60
  -2   8  -2  599.74   15.70
  -2   8  -2  597.64   16.20
  -2   8  -2  605.64   17.70
  -2   8  -2  565.04   15.50
  -2   8  -2  596.24   17.50
   2  -8   2  577.14   15.60
  -3   8  -2  528.45   14.10
  -3   8  -2  537.45   16.40
  -3   8  -2  523.25   16.20
  -3   8  -2  527.15   14.30
  -3   8  -2  526.35   15.30
  -3   8  -2  551.54   15.90
   3  -8   2  533.75   14.60
   3  -8   2  503.45   15.90
  -4   8  -2  511.65   13.50
  -4   8  -2  497.15   15.00
  -4   8  -2  483.65   15.10
  -4   8  -2  494.65   15.80
   4  -8   2  496.45   13.60
   4  -8   2  509.25   14.10
  -5   8  -2  472.75   15.00
  -5   8  -2  485.65   14.90
  -5   8  -2  470.45   14.80
  -5   8  -2  468.45   15.20
   5  -8   2  485.85   14.10
   5  -8   2  494.95   13.50
   5  -8   2  490.55   13.30
  -6   8  -2  243.58    9.50
  -6   8  -2  235.78    9.20
  -6   8  -2  227.28    9.30
   6  -8   2  238.78    8.80
   6  -8   2  235.88    8.10
   6  -8   2  233.28    8.20
  -7   8  -2  152.18    7.20
  -7   8  -2  154.68    7.30
  -7   8  -2  155.48    6.80
   7  -8   2  152.28    6.30
   7  -8   2  155.68    6.60
   7  -8   2  162.98    6.50
  -8   8  -2  131.69    6.10
  -8   8  -2  136.49    5.90
   8  -8   2  130.69    5.40
   8  -8   2  125.19    5.30
   8  -8   2  136.29    5.50
   5   7  -2    4.80    1.50
   5   7  -2    5.80    1.30
   5   7  -2    3.80    1.40
   5   7  -2    3.90    1.20
   5   7  -2    4.10    1.10
   5   7  -2    2.70    1.20
   5   7  -2    4.90    1.20
   5   7  -2    5.70    1.20
  -5  -7   2    3.30    1.10
   4   7  -2  219.78    8.40
   4   7  -2  235.58    9.30
   4   7  -2  225.48    8.20
   4   7  -2  228.28    9.40
   4   7  -2  236.58    9.20
   4   7  -2  242.08    8.40
   4   7  -2  229.28    8.50
   4   7  -2  238.48    8.70
   4   7  -2  218.58    7.80
   4   7  -2  231.48    8.10
   3   7  -2   10.20    2.40
   3   7  -2   11.00    2.10
   3   7  -2   14.70    2.50
   3   7  -2   16.40    2.90
   3   7  -2   15.10    2.30
   3   7  -2   12.10    2.30
   3   7  -2   13.60    2.70
   3   7  -2   12.10    2.30
   3   7  -2   11.30    2.40
   2   7  -2  417.06   13.60
   2   7  -2  436.56   14.70
   2   7  -2  416.16   13.90
   2   7  -2  420.26   12.90
   2   7  -2  392.76   13.90
   2   7  -2  430.46   13.40
   2   7  -2  436.06   13.00
   2   7  -2  406.96   13.10
   2   7  -2  418.06   14.30
   2   7  -2  421.36   12.60
   1   7  -2   47.20    4.60
   1   7  -2   43.20    4.80
   1   7  -2   48.20    4.90
   1   7  -2   49.20    4.40
   1   7  -2   46.20    4.00
   1   7  -2   41.60    4.10
   1   7  -2   53.19    4.50
   1   7  -2   43.30    3.70
   1   7  -2   51.99    5.00
   1   7  -2   42.30    4.40
   1   7  -2   53.69    4.50
   0   7  -2  184.88    9.60
   0   7  -2  195.08    8.90
   0   7  -2  191.48    8.70
   0   7  -2  199.38   10.00
   0  -7   2  196.18    8.00
   0  -7   2  181.88    8.20
   0  -7   2  175.48    8.20
  -1   7  -2 2581.24   60.09
  -1   7  -2 2678.23   61.59
  -1   7  -2 2696.93   61.99
   1  -7   2 2544.15   58.99
   1  -7   2 2596.24   59.29
   1  -7   2 2586.54   58.29
   1  -7   2 2626.24   59.19
  -2   7  -2    6.10    1.90
  -2   7  -2    6.40    2.00
  -2   7  -2    8.50    2.10
  -2   7  -2    7.20    2.10
   2  -7   2    8.20    1.90
   2  -7   2    5.40    1.50
   2  -7   2    6.50    1.60
  -3   7  -2  107.39    5.90
  -3   7  -2  118.79    6.60
  -3   7  -2  110.99    6.70
   3  -7   2  112.29    5.50
   3  -7   2  112.79    5.80
   3  -7   2  116.49    5.50
  -4   7  -2   19.50    3.40
  -4   7  -2   18.70    3.10
  -4   7  -2   15.20    2.90
   4  -7   2   18.60    2.80
   4  -7   2   21.90    3.50
   4  -7   2   18.00    2.20
   4  -7   2   22.60    3.20
  -5   7  -2 1518.45   35.40
  -5   7  -2 1436.86   35.10
  -5   7  -2 1472.25   35.10
   5  -7   2 1439.86   34.40
   5  -7   2 1440.86   33.60
   5  -7   2 1486.95   33.60
  -6   7  -2   65.89    5.30
  -6   7  -2   81.99    5.10
  -6   7  -2   71.79    4.70
   6  -7   2   72.09    4.10
   6  -7   2   68.29    4.40
   6  -7   2   83.89    4.40
  -7   7  -2   27.50    3.50
  -7   7  -2   27.90    3.60
  -7   7  -2   23.70    3.10
   7  -7   2   26.90    3.10
   7  -7   2   21.90    3.00
   7  -7   2   22.70    2.80
  -8   7  -2  558.14   15.70
  -8   7  -2  504.35   14.70
  -8   7  -2  527.45   14.90
   8  -7   2  548.15   14.80
   8  -7   2  524.95   14.50
   8  -7   2  497.95   14.50
  -9   7  -2   20.90    2.40
  -9   7  -2   25.40    2.40
   9  -7   2   27.00    2.30
   9  -7   2   20.60    1.90
   6   6  -2   47.20    2.70
   6   6  -2   46.90    3.70
   6   6  -2   40.90    3.50
   6   6  -2   44.50    3.30
   6   6  -2   43.50    2.50
   6   6  -2   43.40    3.20
   6   6  -2   45.50    2.60
   6   6  -2   48.40    2.70
   5   6  -2  130.99    6.00
   5   6  -2  123.79    6.40
   5   6  -2  132.99    6.10
   5   6  -2  133.49    5.70
   5   6  -2  135.19    6.80
   5   6  -2  139.79    5.80
   5   6  -2  142.19    6.00
   5   6  -2  150.58    6.90
   5   6  -2  130.69    5.90
   4   6  -2   15.40    2.40
   4   6  -2   16.50    2.60
   4   6  -2   24.60    3.80
   4   6  -2   22.80    3.00
   4   6  -2   21.90    3.20
   4   6  -2   17.50    3.20
   4   6  -2   22.30    3.30
   4   6  -2   17.00    2.50
   4   6  -2   20.60    3.00
   4   6  -2   18.90    2.90
   3   6  -2    2.40    1.30
   3   6  -2    1.00    1.30
   3   6  -2    4.50    1.50
   3   6  -2    3.30    1.50
   3   6  -2    3.80    1.50
   3   6  -2    3.20    1.50
   3   6  -2    0.90    0.90
   3   6  -2    1.60    1.10
   3   6  -2    3.40    1.50
   3   6  -2    1.20    1.20
   2   6  -2   73.49    5.80
   2   6  -2   73.89    8.10
   2   6  -2   78.79    7.30
   2   6  -2   79.49    6.50
   2   6  -2   65.89    7.20
   2   6  -2   61.49    6.30
  -2  -6   2   62.29    5.80
  -2  -6   2   75.39    5.00
  -2  -6   2   66.49    4.70
   1   6  -2  317.77   12.70
   1   6  -2  345.17   12.60
   1   6  -2  340.27   13.30
  -1  -6   2  309.87   11.50
  -1  -6   2  330.07   12.30
  -1  -6   2  339.97   11.20
  -1  -6   2  329.07   11.20
   0   6  -2   37.00    4.60
   0   6  -2   35.00    3.90
   0   6  -2   35.70    3.70
   0   6  -2   32.60    4.10
   0  -6   2   36.20    4.00
   0  -6   2   37.30    3.80
   0  -6   2   37.00    3.50
   0  -6   2   35.80    3.50
  -1   6  -2    4.20    1.30
  -1   6  -2    4.90    1.70
  -1   6  -2    4.00    1.60
  -1   6  -2    4.80    1.40
   1  -6   2    4.80    1.40
   1  -6   2    5.80    1.40
   1  -6   2    3.80    1.20
  -2   6  -2 1147.29   27.90
  -2   6  -2 1016.30   27.80
  -2   6  -2 1147.19   27.20
  -2   6  -2 1147.89   29.00
   2  -6   2 1128.09   27.30
   2  -6   2 1153.18   27.00
   2  -6   2 1136.29   26.80
  -3   6  -2 1310.57   33.40
  -3   6  -2 1360.56   32.40
  -3   6  -2 1388.76   33.10
   3  -6   2 1396.86   32.20
   3  -6   2 1375.46   31.80
   3  -6   2 1340.07   31.60
  -4   6  -2  763.32   19.50
  -4   6  -2  775.32   20.70
  -4   6  -2  791.52   21.20
   4  -6   2  776.42   20.20
   4  -6   2  767.22   20.50
   4  -6   2  755.82   20.00
  -5   6  -2  194.08    8.90
  -5   6  -2  179.18    7.30
  -5   6  -2  180.48    7.40
  -5   6  -2  189.78    7.30
   5  -6   2  185.68    7.40
   5  -6   2  184.18    6.90
   5  -6   2  182.78    7.70
   5  -6   2  178.88    6.60
  -6   6  -2  345.27   11.50
  -6   6  -2  335.47   11.50
   6  -6   2  340.37   11.40
   6  -6   2  329.27   10.50
   6  -6   2  356.86   11.00
  -7   6  -2  173.88    7.40
  -7   6  -2  168.88    7.30
  -7   6  -2  168.28    7.60
   7  -6   2  170.78    7.20
   7  -6   2  167.58    7.40
   7  -6   2  161.78    6.90
  -8   6  -2  349.17   11.80
  -8   6  -2  361.86   11.50
   8  -6   2  354.06   11.40
   8  -6   2  372.66   11.50
   8  -6   2  357.46   11.30
  -9   6  -2  132.39    4.90
  -9   6  -2  145.59    5.70
  -9   6  -2  129.79    5.30
   9  -6   2  131.59    5.10
   9  -6   2  136.39    5.00
   9  -6   2  138.39    5.30
   7   5  -2  148.29    4.80
   7   5  -2  136.89    5.10
   7   5  -2  131.19    5.00
   7   5  -2  135.89    4.50
   6   5  -2   34.20    3.40
   6   5  -2   31.40    2.90
   6   5  -2   33.80    3.20
   6   5  -2   25.80    3.30
   6   5  -2   31.70    3.10
   6   5  -2   30.00    2.90
   6   5  -2   36.70    3.60
   6   5  -2   31.00    3.00
   6   5  -2   34.60    3.70
  -6  -5   2   29.30    3.10
   5   5  -2  495.25   14.40
   5   5  -2  471.45   13.90
   5   5  -2  476.55   14.50
   5   5  -2  475.85   14.00
   5   5  -2  471.95   15.20
   5   5  -2  473.45   14.70
   5   5  -2  486.25   14.10
   5   5  -2  482.05   16.00
   5   5  -2  484.25   15.80
   5   5  -2  493.15   15.00
   4   5  -2   44.10    4.50
   4   5  -2   53.09    4.80
   4   5  -2   50.49    5.10
   4   5  -2   52.59    4.50
   4   5  -2   51.39    4.70
   4   5  -2   49.80    5.40
   4   5  -2   47.90    5.10
   4   5  -2   49.20    4.10
   4   5  -2   46.20    4.50
   4   5  -2   40.90    3.80
   3   5  -2    3.70    1.90
   3   5  -2    4.60    2.00
   3   5  -2    6.60    2.30
   3   5  -2    5.30    1.90
  -3  -5   2    3.10    1.40
  -3  -5   2    1.10    1.30
  -3  -5   2    4.10    1.70
   2   5  -2 1642.44   42.30
   2   5  -2 1740.43   42.00
   2   5  -2 1703.33   41.70
   2   5  -2 1705.23   41.30
  -2  -5   2 1705.13   40.10
  -2  -5   2 1629.54   40.60
  -2  -5   2 1707.13   39.60
   1   5  -2   15.50    2.70
   1   5  -2   13.30    2.10
   1   5  -2   13.70    2.70
   1   5  -2   11.60    2.30
   1   5  -2   16.40    2.80
  -1  -5   2   13.80    2.10
  -1  -5   2   11.30    1.90
  -1  -5   2   13.40    2.20
   0   5  -2 1955.30   42.70
   0   5  -2 1861.51   43.90
   0   5  -2 1925.41   43.70
   0   5  -2 1919.91   44.60
   0  -5   2 1884.11   42.40
   0  -5   2 1834.12   43.40
   0  -5   2 1907.11   43.10
   0  -5   2 1930.51   42.40
  -1   5  -2  458.95   12.80
  -1   5  -2  467.85   13.80
  -1   5  -2  454.85   12.10
  -1   5  -2  447.76   12.80
  -1   5  -2  460.85   13.80
   1  -5   2  471.35   12.90
   1  -5   2  469.55   12.90
   1  -5   2  478.25   12.50
   1  -5   2  473.85   12.50
  -2   5  -2   92.59    4.80
  -2   5  -2   90.39    4.10
  -2   5  -2   88.09    3.40
  -2   5  -2   94.99    4.60
  -2   5  -2   96.29    4.50
   2  -5   2   94.79    3.90
   2  -5   2   95.29    4.30
   2  -5   2   89.59    4.00
   2  -5   2   91.09    4.10
   2  -5   2   90.39    4.10
  -3   5  -2   34.90    2.70
  -3   5  -2   34.70    2.60
  -3   5  -2   32.80    3.40
   3  -5   2   34.90    2.50
   3  -5   2   34.20    2.60
   3  -5   2   33.40    2.50
  -4   5  -2 1217.38   28.70
  -4   5  -2 1207.08   29.70
  -4   5  -2 1296.67   29.80
   4  -5   2 1239.28   29.50
   4  -5   2 1240.58   29.60
   4  -5   2 1261.47   30.10
  -5   5  -2  501.95   14.80
  -5   5  -2  474.25   14.00
   5  -5   2  510.95   15.00
   5  -5   2  493.85   14.90
   5  -5   2  500.35   15.30
  -6   5  -2  181.18    7.60
  -6   5  -2  181.68    7.30
   6  -5   2  189.38    7.00
   6  -5   2  184.08    7.20
   6  -5   2  181.68    6.50
   6  -5   2  187.18    7.40
   6  -5   2  185.38    7.70
  -7   5  -2  497.85   15.20
  -7   5  -2  499.25   14.70
   7  -5   2  516.65   15.00
   7  -5   2  494.75   13.70
   7  -5   2  492.05   15.20
   7  -5   2  488.95   14.80
  -8   5  -2  130.59    6.30
  -8   5  -2  133.29    6.20
   8  -5   2  120.29    5.90
   8  -5   2  127.69    6.10
   8  -5   2  134.29    6.20
  -9   5  -2  126.39    4.90
  -9   5  -2  122.29    5.20
  -9   5  -2  133.09    5.40
   9  -5   2  135.99    5.40
   9  -5   2  119.59    5.00
   9  -5   2  123.59    4.90
   7   4  -2    7.20    1.40
   7   4  -2    9.90    2.00
   7   4  -2    8.80    1.40
   7   4  -2    7.00    1.40
   7   4  -2    7.80    1.60
   7   4  -2    8.50    1.40
   7   4  -2    8.40    1.40
   7   4  -2    7.40    1.70
  -7  -4   2    7.40    1.60
   6   4  -2    2.90    1.60
   6   4  -2    8.90    2.20
   6   4  -2    4.60    1.60
   6   4  -2    7.20    1.70
   6   4  -2    6.60    1.60
   6   4  -2    7.90    1.70
   6   4  -2    8.40    2.00
   6   4  -2    7.20    1.80
   6   4  -2    8.00    1.80
   5   4  -2   69.49    4.20
   5   4  -2   69.39    5.50
   5   4  -2   62.49    5.80
   5   4  -2   75.39    6.10
   5   4  -2   71.89    4.50
   5   4  -2   66.29    4.20
   5   4  -2   74.89    6.60
   5   4  -2   69.19    5.70
   5   4  -2   81.29    4.70
   5   4  -2   71.99    5.80
   4   4  -2    5.00    1.70
   4   4  -2   -0.20    1.10
   4   4  -2    1.10    0.90
   4   4  -2   -0.10    1.40
   4   4  -2    0.20    1.10
   4   4  -2    6.50    1.70
   4   4  -2    1.50    1.00
   4   4  -2    0.40    1.10
   4   4  -2    1.40    1.30
   4   4  -2   -0.10    1.00
   4   4  -2    0.70    1.10
  -4  -4   2    0.10    1.40
   3   4  -2  357.46   13.40
   3   4  -2  377.06   13.70
   3   4  -2  369.06   13.60
  -3  -4   2  343.57   12.70
  -3  -4   2  352.56   11.80
  -3  -4   2  379.16   12.30
  -3  -4   2  361.76   12.50
   2   4  -2   49.30    4.80
   2   4  -2   42.60    4.40
   2   4  -2   40.90    3.30
   2   4  -2   33.70    4.00
  -2  -4   2   38.40    3.80
  -2  -4   2   40.00    3.00
  -2  -4   2   45.10    3.20
  -2  -4   2   36.70    3.00
   1   4  -2  155.38    5.40
   1   4  -2  156.68    6.40
   1   4  -2  159.78    6.60
   1   4  -2  161.48    6.60
   1   4  -2  157.28    6.90
  -1  -4   2  156.48    6.00
  -1  -4   2  149.59    6.20
  -1  -4   2  158.48    5.80
  -1  -4   2  155.48    5.90
   0   4  -2    1.40    0.80
   0   4  -2    2.30    0.90
   0   4  -2    2.10    0.60
   0   4  -2    3.80    0.90
   0   4  -2    2.30    0.90
   0  -4   2    3.20    0.90
   0  -4   2    5.80    1.20
   0  -4   2    2.10    0.90
   0  -4   2    2.10    0.90
  -1   4  -2 1311.97   31.10
  -1   4  -2 1305.97   31.00
  -1   4  -2 1393.36   30.30
  -1   4  -2 1380.86   29.80
  -1   4  -2 1318.77   30.40
   1  -4   2 1363.06   30.40
   1  -4   2 1370.36   30.60
   1  -4   2 1351.36   30.30
   1  -4   2 1412.86   30.30
  -2   4  -2 1577.74   34.70
  -2   4  -2 1592.64   35.00
  -2   4  -2 1533.85   35.00
  -2   4  -2 1552.74   35.50
  -2   4  -2 1604.54   33.90
   2  -4   2 1589.14   35.10
   2  -4   2 1605.64   34.80
   2  -4   2 1623.44   35.10
   2  -4   2 1605.14   34.80
   2  -4   2 1537.85   34.00
  -3   4  -2 5464.55  116.29
  -3   4  -2 5464.05  115.39
  -3   4  -2 5659.53  116.19
  -3   4  -2 5582.44  115.19
   3  -4   2 5509.55  116.29
   3  -4   2 5708.13  116.59
   3  -4   2 5429.26  116.29
   3  -4   2 5603.64  116.59
  -4   4  -2  467.65   12.30
  -4   4  -2  490.25   13.00
  -4   4  -2  446.36   12.60
  -4   4  -2  469.75   12.20
   4  -4   2  461.45   13.00
   4  -4   2  481.05   13.40
   4  -4   2  445.56   13.10
   4  -4   2  471.55   13.20
  -5   4  -2   20.50    2.50
  -5   4  -2   23.80    2.70
  -5   4  -2   23.50    2.80
   5  -4   2   24.40    3.10
   5  -4   2   23.30    3.20
   5  -4   2   19.20    2.80
  -6   4  -2   10.50    2.10
  -6   4  -2   10.50    1.90
   6  -4   2    7.50    1.90
   6  -4   2    6.30    1.80
   6  -4   2    5.40    1.40
   6  -4   2   10.30    2.00
   6  -4   2    7.60    1.70
   6  -4   2   11.90    2.00
  -7   4  -2  357.16   11.90
   7  -4   2  344.67   11.60
   7  -4   2  361.36   12.00
   7  -4   2  354.16   11.00
   7  -4   2  364.66   12.10
   7  -4   2  364.06   11.20
   7  -4   2  366.76   12.40
   7  -4   2  358.66   10.90
  -8   4  -2   23.50    3.10
  -8   4  -2   27.50    3.20
   8  -4   2   25.30    3.00
   8  -4   2   23.80    2.70
   8  -4   2   23.90    2.60
   8  -4   2   30.20    3.50
   8  -4   2   26.50    3.30
  -9   4  -2  184.48    6.60
  -9   4  -2  201.58    6.90
   9  -4   2  193.98    6.60
   9  -4   2  208.18    7.00
   9  -4   2  194.48    6.90
   8   3  -2    0.70    0.60
   8   3  -2    0.30    0.80
   8   3  -2    0.20    0.70
   8   3  -2    0.90    0.60
   8   3  -2    1.50    1.60
  -8  -3   2    0.90    0.70
   7   3  -2  129.59    5.40
   7   3  -2  127.69    5.70
   7   3  -2  118.89    5.50
   7   3  -2  123.09    5.60
   7   3  -2  123.79    5.20
   7   3  -2  132.59    5.30
   7   3  -2  132.79    6.50
   7   3  -2  134.29    6.20
   7   3  -2  136.09    6.60
  -7  -3   2  116.89    5.70
   6   3  -2  544.25   15.60
   6   3  -2  553.04   15.50
   6   3  -2  527.55   16.60
   6   3  -2  562.04   17.60
   6   3  -2  574.44   16.00
   6   3  -2  552.44   15.50
   6   3  -2  579.04   16.60
   6   3  -2  541.15   17.50
   6   3  -2  535.85   16.20
   5   3  -2   17.90    3.10
   5   3  -2   23.50    3.20
   5   3  -2   16.10    2.40
   5   3  -2   14.40    2.90
   5   3  -2   15.60    2.70
   5   3  -2   19.10    2.70
   5   3  -2   14.70    2.40
   5   3  -2   12.70    2.50
   5   3  -2   16.40    2.50
   5   3  -2   14.60    2.90
   5   3  -2   19.60    2.70
   4   3  -2  109.69    6.40
   4   3  -2   99.49    6.60
   4   3  -2  109.29    6.90
   4   3  -2  102.69    6.60
  -4  -3   2  107.99    5.90
  -4  -3   2  111.19    5.90
  -4  -3   2  114.09    6.60
   3   3  -2 3817.32   83.29
   3   3  -2 3821.12   82.89
   3   3  -2 3719.23   82.89
   3   3  -2 3752.42   82.19
  -3  -3   2 3613.44   80.99
  -3  -3   2 3828.92   81.29
  -3  -3   2 3694.13   81.99
   2   3  -2  582.44   16.30
   2   3  -2  588.54   15.50
   2   3  -2  607.14   16.30
   2   3  -2  591.34   16.40
   2   3  -2  581.94   15.90
  -2  -3   2  577.04   15.10
  -2  -3   2  582.54   15.20
  -2  -3   2  563.94   15.50
   1   3  -2  519.45   13.40
   1   3  -2  515.15   13.80
   1   3  -2  507.45   12.20
   1   3  -2  516.55   13.70
   1   3  -2  521.15   13.90
  -1  -3   2  503.35   13.40
  -1  -3   2  504.75   13.10
  -1  -3   2  512.55   13.10
  -1  -3   2  527.15   13.00
   0   3  -2 2162.78   47.10
   0   3  -2 2222.48   47.00
   0   3  -2 2215.98   45.40
   0   3  -2 2130.59   46.80
   0   3  -2 2166.28   46.00
   0  -3   2 2190.38   46.40
   0  -3   2 2145.19   46.20
   0  -3   2 2126.19   46.60
   0  -3   2 2146.89   46.40
  -1   3  -2  238.58    5.60
  -1   3  -2  228.28    6.30
  -1   3  -2  234.58    6.10
  -1   3  -2  234.78    6.30
  -1   3  -2  226.98    6.80
  -1   3  -2  222.48    6.70
   1  -3   2  232.58    6.70
   1  -3   2  227.68    6.60
   1  -3   2  228.38    6.40
   1  -3   2  238.48    6.50
  -2   3  -2 1396.56   30.90
  -2   3  -2 1397.86   30.80
  -2   3  -2 1440.46   30.00
  -2   3  -2 1439.26   31.10
  -2   3  -2 1429.56   30.40
  -2   3  -2 1417.06   30.30
  -2   3  -2 1399.96   30.50
   2  -3   2 1415.96   31.40
   2  -3   2 1421.76   30.80
   2  -3   2 1425.86   31.10
   2  -3   2 1401.56   31.10
   2  -3   2 1438.86   31.50
  -3   3  -2   16.90    1.70
  -3   3  -2   19.10    1.70
  -3   3  -2   24.70    1.70
  -3   3  -2   16.00    1.70
  -3   3  -2   25.40    1.60
   3  -3   2   14.40    1.90
   3  -3   2   15.90    1.70
   3  -3   2   17.40    2.00
   3  -3   2   16.60    1.90
  -4   3  -2 2552.44   53.59
  -4   3  -2 2426.96   53.59
  -4   3  -2 2504.35   54.69
  -4   3  -2 2434.26   53.79
   4  -3   2 2544.35   55.29
   4  -3   2 2544.45   54.99
   4  -3   2 2485.75   54.89
   4  -3   2 2435.26   54.89
  -5   3  -2   22.20    2.50
  -5   3  -2   21.50    2.50
  -5   3  -2   23.10    2.90
  -5   3  -2   19.80    2.30
   5  -3   2   18.90    2.90
   5  -3   2   24.70    3.00
   5  -3   2   20.80    2.90
   5  -3   2   22.10    3.10
   6  -3   2  897.91   21.50
   6  -3   2  919.51   23.00
   6  -3   2  888.11   21.70
   6  -3   2  872.91   22.80
   6  -3   2  861.31   23.20
   6  -3   2  856.21   21.70
   6  -3   2  860.51   22.70
   6  -3   2  896.91   22.10
  -7   3  -2  181.88    7.50
   7  -3   2  175.48    7.10
   7  -3   2  172.38    6.80
   7  -3   2  183.38    7.00
   7  -3   2  171.78    7.90
   7  -3   2  182.18    7.50
   7  -3   2  189.78    7.20
   7  -3   2  186.28    8.00
   7  -3   2  190.58    8.00
  -8   3  -2   47.30    4.20
   8  -3   2   48.70    3.10
   8  -3   2   43.90    3.60
   8  -3   2   43.80    4.10
   8  -3   2   46.00    4.30
   8  -3   2   48.30    3.90
   8  -3   2   41.80    3.70
   8  -3   2   42.80    4.20
  -9   3  -2    3.40    1.10
  -9   3  -2    4.40    1.10
   9  -3   2    2.10    1.00
   9  -3   2    2.50    1.00
   9  -3   2    2.30    1.00
   8   2  -2   21.90    2.30
   8   2  -2   19.60    2.00
   8   2  -2   20.90    2.00
   8   2  -2   19.00    2.60
   8   2  -2   17.40    2.20
   8   2  -2   15.10    2.10
  -8  -2   2   21.70    2.50
   7   2  -2   11.70    2.30
   7   2  -2   14.00    2.10
   7   2  -2   10.80    2.10
   7   2  -2   16.50    2.30
   7   2  -2   14.40    2.40
   7   2  -2   12.20    2.50
   7   2  -2   13.50    2.10
   7   2  -2   15.60    2.50
   6   2  -2  129.59    5.80
   6   2  -2  125.29    5.90
   6   2  -2  121.59    6.50
   6   2  -2  134.59    7.30
   6   2  -2  130.49    6.50
   6   2  -2  139.99    6.70
   6   2  -2  123.59    5.70
   6   2  -2  131.89    7.10
   6   2  -2  129.59    6.00
   6   2  -2  134.69    6.20
   5   2  -2   50.89    3.30
   5   2  -2   45.50    5.80
   5   2  -2   57.79    5.40
   5   2  -2   36.70    4.90
   5   2  -2   40.80    3.60
   5   2  -2   45.20    5.20
   5   2  -2   41.30    4.50
   5   2  -2   49.70    5.70
  -5  -2   2   49.10    4.80
  -5  -2   2   49.30    4.90
  -5  -2   2   47.00    5.20
   4   2  -2  376.86   13.40
   4   2  -2  361.86   12.60
   4   2  -2  378.96   12.80
   4   2  -2  368.16   12.90
  -4  -2   2  382.06   12.90
  -4  -2   2  380.26   11.80
  -4  -2   2  371.66   12.00
  -4  -2   2  345.57   10.70
   3   2  -2   16.40    2.60
   3   2  -2   12.10    2.10
   3   2  -2   12.50    2.10
   3   2  -2   13.60    2.20
  -3  -2   2   14.10    2.00
  -3  -2   2   13.80    1.70
  -3  -2   2   12.60    2.00
  -3  -2   2   13.80    2.00
   2   2  -2   35.20    2.70
   2   2  -2   38.00    2.30
   2   2  -2   33.00    2.50
   2   2  -2   42.60    2.70
   2   2  -2   38.80    2.70
  -2  -2   2   38.40    2.00
  -2  -2   2   39.80    2.50
  -2  -2   2   33.10    2.40
  -2  -2   2   36.50    2.40
   1   2  -2  149.19    5.00
   1   2  -2  140.79    4.90
   1   2  -2  146.19    4.80
   1   2  -2  142.39    5.00
   1   2  -2  143.99    4.00
  -1  -2   2  143.39    4.50
  -1  -2   2  140.59    4.80
  -1  -2   2  143.99    4.60
   0   2  -2 1135.29   23.30
   0   2  -2  956.20   22.90
   0   2  -2 1110.99   23.20
   0   2  -2 1135.59   22.70
   0   2  -2  921.21   22.80
   0   2  -2  947.41   22.30
   0  -2   2 1095.29   23.00
   0  -2   2 1105.89   22.90
   0  -2   2  982.60   23.10
   0  -2   2 1122.69   23.10
  -1   2  -2  269.97    6.40
  -1   2  -2  277.17    6.80
  -1   2  -2  256.37    6.80
  -1   2  -2  256.57    6.60
   1  -2   2  276.67    6.50
   1  -2   2  253.67    7.00
   1  -2   2  284.57    7.40
   1  -2   2  266.57    6.80
   1  -2   2  272.67    6.80
  -2   2  -2 5996.30  121.19
  -2   2  -2 5990.30  121.79
   2  -2   2 5810.12  122.49
   2  -2   2 5745.13  121.89
  -3   2  -2 2046.40   44.10
  -3   2  -2 2003.00   44.00
  -3   2  -2 2089.59   43.80
  -3   2  -2 2098.59   44.60
  -3   2  -2 2121.89   44.00
   3  -2   2 2021.80   45.10
   3  -2   2 2096.69   45.10
   3  -2   2 2076.89   44.90
   3  -2   2 1971.10   45.20
   3  -2   2 2089.09   43.90
  -4   2  -2  129.99    5.30
  -4   2  -2  101.99    4.20
  -4   2  -2  101.69    4.00
  -4   2  -2   92.89    3.90
   4  -2   2  103.79    5.00
   4  -2   2   94.99    4.90
   4  -2   2  101.49    4.80
   4  -2   2   96.39    4.80
  -5   2  -2  171.28    7.50
  -5   2  -2  180.38    6.40
  -5   2  -2  180.08    6.80
   5  -2   2  184.58    7.50
   5  -2   2  181.18    8.10
   5  -2   2  179.48    7.70
   5  -2   2  165.08    7.90
   6  -2   2  335.67   10.90
   6  -2   2  356.76   10.90
   6  -2   2  354.06   11.60
   6  -2   2  347.67   10.40
   6  -2   2  346.87   11.60
   6  -2   2  349.17   12.10
   6  -2   2  355.66   10.40
   6  -2   2  363.76   11.80
   6  -2   2  360.56   10.70
   6  -2   2  353.96   10.70
   7  -2   2  598.24   16.30
   7  -2   2  594.24   16.10
   7  -2   2  605.44   17.70
   7  -2   2  623.74   17.80
   7  -2   2  600.74   16.30
   7  -2   2  586.64   16.00
   7  -2   2  569.14   17.70
   7  -2   2  616.44   17.10
   7  -2   2  597.84   16.60
   7  -2   2  605.14   16.20
  -8   2  -2   69.69    4.10
   8  -2   2   69.89    3.90
   8  -2   2   66.99    3.80
   8  -2   2   67.99    4.00
   8  -2   2   63.99    3.90
   8  -2   2   68.69    5.20
   8  -2   2   69.09    4.10
   8  -2   2   69.29    4.50
   8  -2   2   66.19    5.10
   8  -2   2   68.09    3.50
  -9   2  -2   30.90    2.60
   9  -2   2   24.20    2.30
   9  -2   2   31.00    2.50
   9  -2   2   28.40    1.90
   9  -2   2   24.80    2.40
   8   1  -2  125.89    5.70
   8   1  -2  105.69    5.00
   8   1  -2  102.89    4.40
   8   1  -2  112.69    5.10
   8   1  -2  112.29    4.70
   8   1  -2  113.69    5.60
   8   1  -2  108.09    5.70
  -8  -1   2  101.29    4.80
  -8  -1   2  121.39    5.80
   7   1  -2  505.45   14.50
   7   1  -2  539.35   14.50
   7   1  -2  519.45   16.50
   7   1  -2  525.45   15.30
   7   1  -2  523.55   16.20
   7   1  -2  531.15   15.50
   7   1  -2  539.35   16.80
   7   1  -2  507.95   15.40
   7   1  -2  494.75   14.40
   7   1  -2  529.75   15.70
  -7  -1   2  539.05   15.10
   6   1  -2   47.50    4.50
   6   1  -2   50.79    4.10
   6   1  -2   49.80    4.30
   6   1  -2   56.79    5.40
   6   1  -2   56.29    5.00
   6   1  -2   50.29    5.10
   6   1  -2   55.09    4.50
   6   1  -2   50.39    4.90
   6   1  -2   56.79    4.40
   6   1  -2   55.09    4.60
   5   1  -2   86.69    6.10
   5   1  -2   89.69    5.80
   5   1  -2   93.09    6.00
  -5  -1   2   93.99    6.00
  -5  -1   2   88.29    5.30
  -5  -1   2   92.39    4.90
  -5  -1   2   87.69    5.20
   4   1  -2  585.64   17.00
   4   1  -2  590.44   17.30
   4   1  -2  591.94   17.00
   4   1  -2  586.54   16.60
  -4  -1   2  604.14   16.30
  -4  -1   2  602.54   17.10
  -4  -1   2  592.44   16.20
  -4  -1   2  604.74   15.50
   3   1  -2  664.53   17.30
   3   1  -2  692.43   17.70
   3   1  -2  677.53   17.30
   3   1  -2  641.74   17.00
  -3  -1   2  683.33   16.80
  -3  -1   2  679.43   17.30
  -3  -1   2  676.93   16.20
   2   1  -2    0.90    0.60
   2   1  -2    0.60    0.60
   2   1  -2    0.80    0.60
   2   1  -2    3.00    0.70
   2   1  -2    0.60    0.50
  -2  -1   2    1.20    0.60
  -2  -1   2    1.80    0.70
  -2  -1   2    3.70    0.90
  -2  -1   2    2.40    0.60
   1   1  -2 2039.60   43.80
   1   1  -2 2109.79   43.90
   1   1  -2 2055.89   43.80
   1   1  -2 2101.99   43.20
   1   1  -2 2237.08   44.00
   1   1  -2 2094.29   44.00
  -1  -1   2 2019.50   43.60
  -1  -1   2 2038.60   44.20
  -1  -1   2 2091.19   43.50
  -1  -1   2 2019.30   43.80
   1  -1   2 5037.10  104.79
  -3   1  -2 3656.33   74.39
  -3   1  -2 3404.56   74.19
  -3   1  -2 3601.74   75.19
  -3   1  -2 3609.04   74.39
  -3   1  -2 3642.34   74.79
  -3   1  -2 3532.55   75.99
   3  -1   2 3553.54   75.89
   3  -1   2 3560.54   75.79
   3  -1   2 3530.15   75.99
   3  -1   2 3442.46   74.89
   3  -1   2 3611.04   75.99
  -4   1  -2   48.90    2.60
  -4   1  -2   55.29    3.00
   4  -1   2   49.10    3.70
   4  -1   2   50.29    3.50
   4  -1   2   48.90    3.40
   4  -1   2   57.79    3.90
  -5   1  -2  862.11   20.70
  -5   1  -2  875.61   21.50
  -5   1  -2  833.22   22.90
  -5   1  -2  874.51   22.80
   5  -1   2  865.51   23.20
   5  -1   2  830.42   24.00
   5  -1   2  872.31   24.10
   6  -1   2  482.85   15.30
   6  -1   2  498.75   14.00
   6  -1   2  496.65   15.20
   6  -1   2  491.95   15.50
   6  -1   2  482.75   15.10
   6  -1   2  502.65   14.10
   6  -1   2  511.35   15.00
   6  -1   2  498.65   13.50
   6  -1   2  513.65   14.10
   6  -1   2  504.65   13.50
   6  -1   2  501.65   14.30
   7  -1   2    1.10    0.90
   7  -1   2    5.30    1.80
   7  -1   2    0.50    1.20
   7  -1   2    0.60    0.80
   7  -1   2    0.60    1.20
   7  -1   2    0.90    1.00
   7  -1   2   -0.80    1.00
   7  -1   2    0.80    0.80
   7  -1   2    1.00    0.80
   7  -1   2    1.00    0.90
   8  -1   2  101.49    4.40
   8  -1   2   96.19    4.70
   8  -1   2  108.59    5.50
   8  -1   2  103.59    5.50
   8  -1   2  102.79    4.90
   8  -1   2  100.49    4.40
   8  -1   2  105.49    4.80
   8  -1   2  105.79    5.40
  -9   1  -2   20.40    2.10
  -9   1  -2   19.40    1.80
   9  -1   2   22.00    2.00
   9  -1   2   20.10    2.00
   9  -1   2   20.30    1.80
   9  -1   2   19.20    2.10
   9   0  -2   86.49    3.80
   9   0  -2   76.89    3.30
   9   0  -2   79.19    3.90
  -9   0   2   73.59    3.60
  -9   0   2   79.59    3.90
  -9   0   2   80.49    3.50
   8   0  -2   22.60    3.10
   8   0  -2   19.80    2.20
   8   0  -2   20.40    2.60
   8   0  -2   22.30    3.00
   8   0  -2   18.90    2.60
  -8   0   2   17.40    2.60
   7   0  -2  128.29    5.60
   7   0  -2  127.49    6.00
   7   0  -2  121.69    6.30
   7   0  -2  125.69    6.60
   7   0  -2  128.79    7.00
   7   0  -2  123.29    6.80
   7   0  -2  129.29    6.10
   7   0  -2  130.89    6.50
  -7   0   2  129.19    6.10
   6   0  -2   38.60    4.10
   6   0  -2   38.00    4.00
   6   0  -2   43.70    3.80
   6   0  -2   33.20    3.20
   6   0  -2   41.20    4.30
   6   0  -2   33.30    3.90
   6   0  -2   33.50    3.50
   6   0  -2   43.30    4.60
   6   0  -2   35.70    3.50
   5   0  -2  118.69    6.30
   5   0  -2   99.79    5.90
   5   0  -2  111.29    6.50
  -5   0   2  103.79    5.40
  -5   0   2  109.99    6.20
  -5   0   2  119.39    5.60
   4   0  -2   71.89    3.90
   4   0  -2   79.49    4.30
   4   0  -2   72.99    4.20
   4   0  -2   77.79    4.60
   4   0  -2   74.09    3.80
  -4   0   2   74.99    3.30
  -4   0   2   80.19    4.40
  -4   0   2   79.19    3.80
  -4   0   2   69.49    3.70
   3   0  -2  233.38    7.30
   3   0  -2  232.28    7.00
   3   0  -2  242.58    7.20
   3   0  -2  230.08    7.30
   3   0  -2  246.48    7.70
  -3   0   2  238.78    6.50
  -3   0   2  236.28    7.60
  -3   0   2  228.28    6.80
  -3   0   2  235.98    7.00
   2   0  -2  116.69    3.80
   2   0  -2  122.09    3.90
   2   0  -2  120.69    3.90
   2   0  -2  114.29    3.90
   2   0  -2  121.09    3.60
   2   0  -2  118.59    3.70
  -2   0   2  111.29    3.50
  -2   0   2  119.49    3.80
  -2   0   2  116.59    3.80
  -2   0   2  117.39    4.20
   0   0  -2 2275.57   46.90
   0   0   2 2264.07   47.10
   0   0   2 2232.18   47.00
   0   0   2 2249.87   47.20
   0   0   2 2282.37   47.50
  -1   0  -2 3312.87   67.39
  -1   0  -2 2881.91   67.29
   1   0   2 3269.77   67.59
   1   0   2 3322.57   67.69
   1   0   2 3270.57   67.89
   1   0   2 3370.26   68.39
   1   0   2 3321.47   67.59
  -2   0  -2  570.44   13.00
  -2   0  -2  573.44   13.30
  -2   0  -2  570.74   13.60
  -2   0  -2  565.74   13.00
  -2   0  -2  563.74   12.90
   2   0   2  573.64   14.00
   2   0   2  584.34   13.90
   2   0   2  546.85   14.00
   2   0   2  561.84   14.00
   2   0   2  576.34   13.50
   2   0   2  559.14   14.20
  -3   0  -2 3918.21   81.59
  -3   0  -2 3770.62   79.19
  -3   0  -2 3621.24   79.39
  -3   0  -2 3884.81   79.99
  -3   0  -2 3860.81   79.59
  -3   0  -2 3863.91   80.49
   3   0   2 3738.13   81.79
   3   0   2 3947.00   81.49
   3   0   2 3738.93   81.79
   3   0   2 3860.91   81.49
   3   0   2 3746.33   80.99
  -4   0  -2  274.47    7.80
  -4   0  -2  290.47    9.80
  -4   0  -2  281.77    8.40
   4   0   2  286.97   10.50
   4   0   2  275.77    9.50
   4   0   2  279.37   10.30
   4   0   2  285.67    9.80
  -5   0  -2    2.00    1.30
  -5   0  -2    1.30    0.90
  -5   0  -2    1.10    1.00
   5   0   2    2.40    1.40
   5   0   2    1.00    1.20
   5   0   2    3.70    1.50
   6   0   2  525.65   16.40
   6   0   2  537.15   16.30
   6   0   2  524.05   15.70
   6   0   2  524.95   16.50
   6   0   2  524.95   14.90
   6   0   2  524.35   14.90
   6   0   2  523.35   16.10
   6   0   2  536.85   15.20
   6   0   2  515.65   14.90
   6   0   2  537.15   14.30
   7   0   2  196.48    7.50
   7   0   2  179.58    7.00
   7   0   2  169.88    7.80
   7   0   2  171.68    6.60
   7   0   2  176.48    7.10
   7   0   2  177.98    8.10
   7   0   2  170.08    7.30
   7   0   2  180.88    7.90
   7   0   2  172.78    7.00
   7   0   2  178.58    8.10
  -8   0  -2  106.59    4.70
   8   0   2  112.49    5.30
   8   0   2  116.49    5.50
   8   0   2  112.99    5.30
   8   0   2  111.79    4.80
   8   0   2  107.89    4.50
   8   0   2  109.79    4.70
   8   0   2  110.49    4.90
   8   0   2  115.29    4.60
   9  -1  -2  247.58    7.50
   9  -1  -2  238.78    8.20
   9  -1  -2  252.27    8.10
  -9   1   2  241.78    8.20
  -9   1   2  246.58    7.90
   8  -1  -2  456.25   13.90
   8  -1  -2  480.95   15.20
   8  -1  -2  486.85   14.80
   8  -1  -2  460.85   13.60
  -8   1   2  485.15   14.20
   7  -1  -2  278.97    9.70
   7  -1  -2  256.17    9.80
   7  -1  -2  256.97   10.20
   7  -1  -2  283.17   10.70
   7  -1  -2  278.77   10.30
   7  -1  -2  253.57    9.10
  -7   1   2  241.28    9.40
  -7   1   2  285.37    9.70
   6  -1  -2  548.65   15.10
   6  -1  -2  563.04   15.40
   6  -1  -2  574.14   18.80
   6  -1  -2  575.04   18.00
   6  -1  -2  537.45   17.80
   6  -1  -2  568.14   15.60
   6  -1  -2  556.44   17.90
   6  -1  -2  561.24   16.10
   6  -1  -2  582.74   16.70
  -6   1   2  568.24   24.80
   5  -1  -2  244.68    8.80
   5  -1  -2  270.57    9.70
   5  -1  -2  287.77   10.40
   5  -1  -2  269.07   10.00
  -5   1   2  268.97    8.60
  -5   1   2  270.87    9.00
  -5   1   2  259.47    9.90
  -5   1   2  274.67    9.30
   4  -1  -2 3093.69   67.09
   4  -1  -2 3014.10   66.19
   4  -1  -2 3035.40   66.69
   4  -1  -2 3213.38   67.39
   4  -1  -2 3098.79   66.19
  -4   1   2 3008.80   65.79
  -4   1   2 3140.39   67.49
  -4   1   2 3125.29   66.09
   3  -1  -2  337.57    8.60
   3  -1  -2  321.47    8.90
   3  -1  -2  329.27    8.60
   3  -1  -2  323.97    9.00
   3  -1  -2  326.77    8.80
  -3   1   2  324.67    8.50
  -3   1   2  330.17    8.60
  -3   1   2  323.67    9.20
  -3   1   2  299.27    8.40
  -3   1   2  329.37    8.80
   1   1   2 2252.37   47.80
   1   1   2 2201.28   47.60
   1   1   2 2185.58   47.10
   1   1   2 2188.08   47.20
   1   1   2 2381.46   47.50
   1   1   2 2218.08   47.60
   1   1   2 2211.28   47.00
   1   1   2 2258.97   47.80
   1   1   2 2236.98   47.90
   1   1   2 2140.19   47.50
   1   1   2 2237.38   47.40
   1   1   2 2364.86   47.00
  -2  -1  -2 1130.69   25.70
  -2  -1  -2 1183.88   26.80
  -2  -1  -2 1201.08   25.40
  -2  -1  -2 1152.38   25.40
  -2  -1  -2 1156.48   26.10
   2   1   2 1162.48   27.40
   2   1   2 1183.88   27.20
   2   1   2 1226.58   26.90
   2   1   2 1167.28   26.80
   2   1   2 1184.98   26.90
   2   1   2 1189.38   26.60
  -3  -1  -2 3031.10   65.19
  -3  -1  -2 3170.98   66.49
  -3  -1  -2 3049.20   64.29
  -3  -1  -2 3045.20   64.09
  -3  -1  -2 3057.19   64.69
   3   1   2 3055.49   67.29
   3   1   2 3008.60   66.59
   3   1   2 3028.50   67.49
   3   1   2 3079.59   66.59
  -4  -1  -2 2089.79   44.80
  -4  -1  -2 2078.29   46.80
  -4  -1  -2 2019.80   46.70
   4   1   2 2008.50   48.60
   4   1   2 2034.50   46.90
   4   1   2 1970.10   48.00
   4   1   2 2028.50   47.40
  -5  -1  -2  650.63   19.20
  -5  -1  -2  680.33   17.50
  -5  -1  -2  664.83   19.60
   5   1   2  635.14   18.90
   5   1   2  641.04   20.60
   5   1   2  653.13   18.40
   5   1   2  620.14   18.20
   5   1   2  684.33   21.10
   5   1   2  648.04   17.20
   5   1   2  660.83   17.20
   5   1   2  639.94   21.20
   5   1   2  646.84   18.00
   5   1   2  647.24   19.40
   6   1   2  175.18    7.10
   6   1   2  183.88    8.10
   6   1   2  176.48    7.70
   6   1   2  189.18    8.30
   6   1   2  183.28    7.10
   6   1   2  168.58    6.90
   6   1   2  167.68    8.10
   6   1   2  174.78    6.50
   6   1   2  183.88    8.50
   7   1   2   28.10    2.90
   7   1   2   34.30    3.90
   7   1   2   24.60    2.80
   7   1   2   23.00    2.70
   7   1   2   33.50    3.40
   7   1   2   26.20    3.40
   7   1   2   27.80    3.00
   7   1   2   26.90    3.30
   7   1   2   30.20    3.80
   8   1   2   39.50    2.60
   8   1   2   38.30    2.40
   8   1   2   35.20    3.10
   8   1   2   34.10    2.80
   8   1   2   38.80    3.30
   8   1   2   41.10    2.40
   8   1   2   36.60    2.90
   8   1   2   36.80    3.30
   9  -2  -2   12.20    2.10
   9  -2  -2   13.80    2.10
   9  -2  -2   12.00    1.80
  -9   2   2   13.80    2.10
  -9   2   2   15.50    2.30
  -9   2   2   17.60    2.30
   8  -2  -2   24.60    3.10
   8  -2  -2   23.50    2.80
   8  -2  -2   22.80    3.40
   8  -2  -2   27.80    3.20
   8  -2  -2   25.00    3.40
  -8   2   2   19.60    2.90
  -8   2   2   24.30    3.20
   7  -2  -2  513.95   14.60
   7  -2  -2  542.65   15.90
   7  -2  -2  503.15   15.00
   7  -2  -2  521.05   16.00
   7  -2  -2  519.85   15.70
   7  -2  -2  499.25   15.30
  -7   2   2  523.35   15.50
   6  -2  -2   39.30    4.60
   6  -2  -2   37.30    4.40
   6  -2  -2   37.80    4.70
   6  -2  -2   40.40    3.80
  -6   2   2   42.20    4.10
  -6   2   2   34.80    4.00
  -6   2   2   37.80    4.50
   5  -2  -2  455.95   13.60
   5  -2  -2  482.95   14.40
   5  -2  -2  464.25   13.90
  -5   2   2  448.86   13.40
  -5   2   2  460.85   14.10
  -5   2   2  463.85   13.00
   4  -2  -2   71.79    3.30
   4  -2  -2   69.89    3.50
   4  -2  -2   70.69    3.80
   4  -2  -2   66.39    3.60
   4  -2  -2   69.09    3.20
  -4   2   2   69.89    3.70
  -4   2   2   73.49    3.50
  -4   2   2   69.19    3.50
  -4   2   2   71.49    3.60
   3  -2  -2  844.32   19.60
   3  -2  -2  868.01   19.60
   3  -2  -2  861.31   19.80
   3  -2  -2  854.91   19.30
  -3   2   2  853.61   19.70
  -3   2   2  860.01   19.70
  -3   2   2  841.72   19.80
  -3   2   2  874.31   19.70
  -3   2   2  819.22   19.90
   2  -2  -2 1669.43   35.90
   2  -2  -2 1694.53   36.30
   2  -2  -2 1752.72   36.20
   2  -2  -2 1705.43   36.30
  -2   2   2 1691.23   36.70
  -2   2   2 1694.03   36.80
  -2   2   2 1655.13   36.90
  -2   2   2 1708.63   36.30
   1  -2  -2   17.40    1.50
   1  -2  -2   18.70    1.40
   1  -2  -2   17.30    1.10
  -1   2   2   16.40    1.40
  -1   2   2   17.00    1.80
  -1   2   2   14.80    1.20
  -1   2   2   18.30    1.80
  -1   2   2   15.10    1.60
   0  -2  -2  211.18    6.10
   0  -2  -2  213.58    5.40
   0  -2  -2  214.88    5.60
   0   2   2  216.18    6.20
   0   2   2  224.08    6.40
   0   2   2  217.18    6.60
   0   2   2  208.08    5.70
   0   2   2  220.78    6.70
   0   2   2  218.48    6.40
   0   2   2  212.28    6.40
  -1  -2  -2  661.33   14.80
  -1  -2  -2  660.43   15.20
  -1  -2  -2  659.33   15.60
  -1  -2  -2  665.33   15.00
   1   2   2  669.03   16.80
   1   2   2  668.83   15.00
   1   2   2  683.43   16.50
   1   2   2  664.43   16.50
   1   2   2  685.73   15.90
   1   2   2  679.43   16.40
   1   2   2  680.13   15.70
   1   2   2  652.43   15.40
   1   2   2  669.73   16.70
  -2  -2  -2  663.53   15.30
  -2  -2  -2  666.93   16.50
  -2  -2  -2  662.13   15.60
  -2  -2  -2  674.43   16.60
  -2  -2  -2  680.63   15.00
   2   2   2  653.93   17.30
   2   2   2  673.23   16.80
   2   2   2  682.63   17.90
   2   2   2  653.03   16.40
   2   2   2  635.74   17.10
  -3  -2  -2 2646.44   56.89
  -3  -2  -2 2770.52   58.99
  -3  -2  -2 2734.23   58.99
   3   2   2 2530.95   58.99
   3   2   2 2639.14   60.79
   3   2   2 2622.54   59.99
   3   2   2 2741.93   60.39
  -4  -2  -2   14.10    2.60
  -4  -2  -2   14.00    1.90
  -4  -2  -2   16.60    2.70
   4   2   2   16.80    3.30
   4   2   2   16.40    3.10
   4   2   2   16.00    3.00
   4   2   2   14.90    2.70
   5   2   2    2.00    1.00
   5   2   2    4.30    1.70
   5   2   2    4.80    1.70
   5   2   2    5.80    1.50
   5   2   2    2.40    1.00
   5   2   2    3.50    1.20
   5   2   2    4.20    1.50
   5   2   2    3.70    1.50
   5   2   2    4.50    1.80
   6   2   2 1799.32   40.40
   6   2   2 1748.93   41.10
   6   2   2 1678.63   40.10
   6   2   2 1757.22   40.40
   6   2   2 1736.13   42.60
   6   2   2 1749.62   42.20
   6   2   2 1750.72   42.20
   6   2   2 1780.42   40.60
   6   2   2 1766.42   41.90
   7   2   2    1.10    0.90
   7   2   2    1.40    1.30
   7   2   2    0.50    0.80
   7   2   2    0.40    1.10
   7   2   2    1.40    0.90
   7   2   2    0.20    0.80
   7   2   2    1.50    1.00
   7   2   2    0.40    0.80
   7   2   2    0.00    0.80
  -8  -2  -2   57.39    3.10
   8   2   2   62.29    2.70
   8   2   2   58.49    2.90
   8   2   2   56.89    2.80
   8   2   2   55.09    3.00
   8   2   2   56.89    2.70
   8   2   2   58.89    3.00
   8   2   2   60.39    2.80
   9  -3  -2  180.18    6.40
   9  -3  -2  170.48    6.80
   9  -3  -2  175.18    7.00
  -9   3   2  166.98    6.70
  -9   3   2  182.28    6.90
  -9   3   2  178.48    6.90
   8  -3  -2    0.70    1.00
   8  -3  -2    1.60    1.20
   8  -3  -2   -0.10    0.80
  -8   3   2    0.50    1.10
  -8   3   2    1.10    1.30
   7  -3  -2  846.42   22.60
   7  -3  -2  874.31   22.30
   7  -3  -2  859.41   23.00
   7  -3  -2  897.81   23.30
  -7   3   2  875.51   23.20
  -7   3   2  860.61   23.20
   6  -3  -2    1.10    1.10
   6  -3  -2    0.90    1.10
   6  -3  -2    1.80    1.20
  -6   3   2    0.10    1.20
  -6   3   2    0.40    1.10
   5  -3  -2  993.20   24.60
   5  -3  -2  962.00   24.10
   5  -3  -2  975.30   24.90
  -5   3   2  944.51   24.50
  -5   3   2 1029.10   24.40
  -5   3   2  971.80   24.40
   4  -3  -2  295.07    8.90
   4  -3  -2  276.87    8.60
   4  -3  -2  279.67    8.50
  -4   3   2  285.37    9.20
  -4   3   2  280.27    8.80
  -4   3   2  304.07    8.80
   3  -3  -2  158.28    5.30
   3  -3  -2  166.78    5.30
   3  -3  -2  162.08    5.40
   3  -3  -2  171.58    5.70
  -3   3   2  169.68    6.00
  -3   3   2  167.58    6.00
  -3   3   2  160.98    5.50
  -3   3   2  167.58    5.60
  -3   3   2  160.48    5.40
   2  -3  -2   15.90    1.60
   2  -3  -2   17.30    1.60
   2  -3  -2   16.60    1.60
   2  -3  -2   13.20    1.40
  -2   3   2   16.90    2.00
  -2   3   2   13.80    1.50
  -2   3   2   11.50    1.70
  -2   3   2   15.20    1.40
  -2   3   2   20.70    2.20
   1  -3  -2  803.32   19.20
   1  -3  -2  821.72   18.90
   1  -3  -2  819.52   19.20
   1  -3  -2  797.82   18.00
  -1   3   2  819.62   18.70
  -1   3   2  831.12   20.20
  -1   3   2  840.52   19.50
  -1   3   2  833.42   19.80
  -1   3   2  835.82   19.90
   0  -3  -2 3683.83   78.29
   0  -3  -2 3700.43   77.39
   0  -3  -2 3724.03   76.89
   0   3   2 3685.13   79.29
   0   3   2 3655.03   78.49
   0   3   2 3732.83   79.19
   0   3   2 3720.43   78.79
   0   3   2 3686.23   77.99
  -1  -3  -2  344.57    9.70
  -1  -3  -2  336.17    9.30
  -1  -3  -2  356.76    9.20
   1   3   2  333.17   10.70
   1   3   2  351.16   10.50
   1   3   2  345.07   10.50
   1   3   2  342.07    9.60
   1   3   2  353.86   11.00
   1   3   2  340.67   10.60
  -2  -3  -2  321.17    9.60
  -2  -3  -2  302.97    8.90
  -2  -3  -2  306.37    9.20
  -2  -3  -2  322.77    9.90
   2   3   2  306.57   10.60
   2   3   2  277.87    9.70
   2   3   2  318.57   10.60
   2   3   2  307.77   10.60
   2   3   2  309.07   10.90
  -3  -3  -2  189.98    7.40
  -3  -3  -2  179.18    7.30
  -3  -3  -2  188.28    7.70
   3   3   2  176.98    8.20
   3   3   2  173.58    8.60
   3   3   2  168.08    8.00
  -4  -3  -2   24.30    3.50
  -4  -3  -2   27.10    3.60
  -4  -3  -2   24.90    3.50
   4   3   2   17.10    3.30
   4   3   2   24.40    3.60
   4   3   2   24.40    4.30
   4   3   2   30.60    4.70
   4   3   2   22.90    3.90
   4   3   2   29.80    4.50
   5   3   2   77.59    6.80
   5   3   2  117.79    6.40
   5   3   2  111.49    5.30
   5   3   2  118.49    5.60
   5   3   2  114.99    6.50
   5   3   2  111.39    5.30
   5   3   2  117.69    6.30
   5   3   2  122.99    6.00
   5   3   2  116.79    6.30
   6   3   2   80.99    4.40
   6   3   2   88.99    5.30
   6   3   2   76.29    4.30
   6   3   2   86.79    4.60
   6   3   2   72.09    4.50
   6   3   2   80.99    6.60
   6   3   2   84.49    5.10
   6   3   2   85.19    6.40
   7   3   2  329.57    9.80
   7   3   2  338.87   10.50
   7   3   2  330.97    9.50
   7   3   2  338.87    9.60
   7   3   2  334.87   10.20
   7   3   2  298.27    9.40
   7   3   2  328.67   10.20
   7   3   2  326.07   10.30
   9  -4  -2   11.20    1.80
   9  -4  -2   12.10    2.00
   9  -4  -2   12.80    2.10
  -9   4   2   13.30    2.10
  -9   4   2   12.50    2.00
   8  -4  -2  209.78    8.10
   8  -4  -2  194.58    8.30
   8  -4  -2  197.98    8.10
  -8   4   2  209.98    8.70
  -8   4   2  211.38    8.90
  -8   4   2  192.18    8.10
   7  -4  -2    0.60    1.00
   7  -4  -2    1.00    1.00
   7  -4  -2    0.20    1.00
  -7   4   2    4.40    1.50
  -7   4   2    1.00    1.00
  -7   4   2    0.00    1.10
   6  -4  -2  379.96   12.50
   6  -4  -2  383.06   12.90
   6  -4  -2  388.26   11.50
   6  -4  -2  370.86   11.60
   6  -4  -2  384.66   13.10
  -6   4   2  372.36   12.50
  -6   4   2  391.06   13.00
  -6   4   2  369.96   12.00
   5  -4  -2    3.00    1.00
   5  -4  -2    2.60    1.10
   5  -4  -2    3.20    1.10
  -5   4   2    1.80    1.10
  -5   4   2    1.20    1.10
  -5   4   2    5.00    1.60
   4  -4  -2  142.29    5.60
   4  -4  -2  151.68    5.90
   4  -4  -2  140.99    5.40
  -4   4   2  152.88    5.90
  -4   4   2  152.48    6.50
  -4   4   2  140.89    6.10
  -4   4   2  141.69    5.60
   3  -4  -2 3347.17   70.59
   3  -4  -2 3410.06   70.99
   3  -4  -2 3291.87   70.69
   3  -4  -2 3380.86   70.59
  -3   4   2 3282.37   70.99
  -3   4   2 3278.47   71.69
  -3   4   2 3266.87   70.49
  -3   4   2 3310.77   72.19
  -3   4   2 3371.76   72.09
   2  -4  -2 2444.86   52.09
   2  -4  -2 2381.96   51.89
   2  -4  -2 2388.26   51.59
  -2   4   2 2490.35   53.29
  -2   4   2 2345.37   53.29
  -2   4   2 2391.96   51.69
  -2   4   2 2394.36   52.79
  -2   4   2 2386.76   52.79
   1  -4  -2 1460.55   32.60
   1  -4  -2 1386.16   30.90
   1  -4  -2 1390.16   32.00
   1  -4  -2 1421.06   32.50
  -1   4   2 1434.76   32.60
  -1   4   2 1460.35   33.60
  -1   4   2 1428.26   33.10
  -1   4   2 1442.96   33.40
  -1   4   2 1383.46   31.30
   0  -4  -2 1622.24   36.10
   0  -4  -2 1537.05   34.80
   0  -4  -2 1558.84   34.10
   0  -4  -2 1608.04   36.70
   0   4   2 1546.85   36.20
   0   4   2 1575.64   35.50
   0   4   2 1619.64   36.60
   0   4   2 1571.54   37.10
   0   4   2 1563.94   37.20
  -1  -4  -2 1864.51   41.40
  -1  -4  -2 1904.51   43.10
  -1  -4  -2 1909.21   42.00
   1   4   2 1855.11   43.60
   1   4   2 1815.12   42.00
   1   4   2 1906.61   44.30
   1   4   2 1867.51   43.60
   1   4   2 1881.81   43.90
  -2  -4  -2 1939.41   42.90
  -2  -4  -2 1885.81   42.40
   2   4   2 1817.62   44.40
   2   4   2 1807.12   44.80
   2   4   2 1857.01   45.10
  -3  -4  -2   14.60    2.60
  -3  -4  -2   10.00    2.20
   3   4   2   11.70    2.80
   3   4   2   12.80    3.00
   4   4   2   63.89    5.70
   4   4   2   69.89    4.10
   4   4   2   73.49    4.80
   4   4   2   85.09    6.30
   4   4   2   67.99    4.30
   4   4   2   67.29    5.90
   4   4   2   58.59    3.70
   4   4   2   69.29    5.70
   4   4   2   70.19    3.90
   5   4   2 1437.56   34.20
   5   4   2 1489.35   36.30
   5   4   2 1498.45   35.80
   5   4   2 1449.85   36.50
   5   4   2 1454.95   34.40
   5   4   2 1475.75   36.90
   5   4   2 1495.95   35.30
   5   4   2 1480.75   36.10
   5   4   2 1455.05   34.60
   6   4   2   11.40    2.30
   6   4   2   10.50    2.00
   6   4   2   12.20    2.10
   6   4   2   10.70    1.80
   6   4   2   11.60    2.20
   6   4   2   13.40    2.00
   6   4   2   14.90    2.20
   6   4   2   11.90    1.90
   7   4   2    5.10    1.20
   7   4   2    7.50    1.20
   7   4   2    7.20    1.30
   7   4   2    7.30    1.20
   7   4   2    6.90    1.20
   7   4   2    8.60    1.30
   7   4   2    8.90    1.30
   9  -5  -2   26.80    2.60
   9  -5  -2   25.30    2.70
   9  -5  -2   23.10    2.70
  -9   5   2   21.20    2.60
  -9   5   2   27.70    3.10
  -9   5   2   26.60    3.10
   8  -5  -2  545.35   16.10
   8  -5  -2  588.04   16.00
   8  -5  -2  574.94   16.30
  -8   5   2  560.94   16.90
  -8   5   2  571.24   16.20
  -8   5   2  542.85   17.10
   7  -5  -2  630.34   17.50
   7  -5  -2  598.64   17.00
   7  -5  -2  609.14   17.50
  -7   5   2  618.94   18.70
  -7   5   2  642.34   18.40
  -7   5   2  654.73   17.70
   6  -5  -2  238.28    8.20
   6  -5  -2  227.48    8.00
   6  -5  -2  234.08    8.00
  -6   5   2  228.48    8.20
  -6   5   2  229.38    8.90
  -6   5   2  226.78    9.00
  -6   5   2  235.58    9.30
   5  -5  -2  184.48    7.00
   5  -5  -2  171.98    7.30
   5  -5  -2  180.28    7.20
  -5   5   2  176.88    7.50
  -5   5   2  185.18    8.40
   4  -5  -2 1141.69   27.00
   4  -5  -2 1150.28   27.50
   4  -5  -2 1104.99   26.70
  -4   5   2 1105.09   27.40
  -4   5   2 1113.99   28.60
  -4   5   2 1199.68   29.00
   3  -5  -2   10.50    1.60
   3  -5  -2   10.60    1.70
   3  -5  -2   11.70    1.70
   3  -5  -2   14.00    2.00
  -3   5   2   10.10    1.70
  -3   5   2   13.70    2.40
  -3   5   2   11.10    2.10
  -3   5   2   11.20    2.20
   2  -5  -2    3.20    1.00
   2  -5  -2    2.10    0.70
   2  -5  -2    0.80    0.70
   2  -5  -2    1.80    0.80
  -2   5   2    0.70    0.70
  -2   5   2    0.60    0.90
  -2   5   2    1.80    1.00
  -2   5   2    1.60    1.10
   1  -5  -2 8580.44  178.98
   1  -5  -2 8623.34  179.58
   1  -5  -2 8602.64  177.58
   1  -5  -2 8444.16  179.48
  -1   5   2 8363.86  179.38
  -1   5   2 8832.72  180.98
  -1   5   2 8770.82  181.18
  -1   5   2 8425.66  180.28
   0  -5  -2 1236.08   29.70
   0  -5  -2 1204.98   28.80
   0  -5  -2 1138.49   27.30
   0   5   2 1150.68   29.00
   0   5   2 1180.98   29.40
   0   5   2 1188.18   30.40
   0   5   2 1147.09   30.00
  -1  -5  -2 3387.86   73.09
  -1  -5  -2 3310.27   71.39
  -1  -5  -2 3209.68   75.39
   1   5   2 3239.88   73.59
   1   5   2 3316.87   73.89
   1   5   2 3200.88   74.49
  -2  -5  -2 1650.03   38.90
  -2  -5  -2 1629.84   38.30
  -2  -5  -2 1668.23   40.70
   2   5   2 1581.84   40.90
   2   5   2 1675.43   42.00
   2   5   2 1616.24   41.60
   3   5   2  493.65   15.00
   3   5   2  459.05   14.90
   3   5   2  495.75   15.60
   3   5   2  481.85   14.60
   3   5   2  484.15   14.90
   3   5   2  495.05   13.70
   3   5   2  451.15   13.20
   3   5   2  488.95   14.30
   3   5   2  482.95   15.50
   4   5   2 1393.86   34.60
   4   5   2 1459.95   34.20
   4   5   2 1425.56   35.80
   4   5   2 1388.56   34.90
   4   5   2 1406.06   33.40
   4   5   2 1432.46   33.10
   4   5   2 1454.55   35.20
   4   5   2 1383.56   35.60
   5   5   2    4.60    1.50
   5   5   2    8.40    2.10
   5   5   2    4.60    1.50
   5   5   2    4.10    1.30
   5   5   2    3.70    1.20
   5   5   2    4.00    1.40
   5   5   2    3.90    1.70
   5   5   2    4.50    1.50
   6   5   2  632.94   16.10
   6   5   2  630.54   16.20
   6   5   2  623.84   16.60
   6   5   2  613.34   15.40
   6   5   2  612.94   15.60
   6   5   2  626.64   15.90
   6   5   2  639.44   16.30
   9  -6  -2  100.19    4.70
   9  -6  -2  104.99    4.40
   9  -6  -2  103.49    4.70
  -9   6   2  108.69    5.20
  -9   6   2  106.59    4.70
  -9   6   2  108.79    5.30
   8  -6  -2   68.89    4.20
   8  -6  -2   71.39    4.20
   8  -6  -2   73.49    4.20
  -8   6   2   67.09    5.80
  -8   6   2   60.59    5.20
   7  -6  -2   79.19    4.70
   7  -6  -2   87.49    4.90
   7  -6  -2   85.09    4.60
  -7   6   2   82.79    5.30
  -7   6   2   81.79    6.70
  -7   6   2   85.29    5.40
   6  -6  -2  521.25   14.50
   6  -6  -2  511.25   14.30
   6  -6  -2  534.75   14.70
  -6   6   2  520.85   15.70
  -6   6   2  537.45   16.50
  -6   6   2  524.95   16.20
   5  -6  -2    6.80    1.80
   5  -6  -2    6.10    1.50
   5  -6  -2   10.40    2.10
  -5   6   2    8.60    2.40
  -5   6   2    8.60    2.10
   4  -6  -2  783.82   20.90
   4  -6  -2  775.82   20.40
   4  -6  -2  790.72   20.20
  -4   6   2  802.92   22.60
  -4   6   2  813.62   22.70
  -4   6   2  793.12   21.10
   3  -6  -2  740.83   18.90
   3  -6  -2  751.72   19.30
   3  -6  -2  743.73   19.30
   3  -6  -2  712.13   18.70
  -3   6   2  722.73   20.90
  -3   6   2  720.53   20.70
  -3   6   2  746.43   21.10
  -3   6   2  707.53   19.10
   2  -6  -2  482.65   13.90
   2  -6  -2  432.56   13.50
   2  -6  -2  466.05   13.40
  -2   6   2  467.95   14.90
  -2   6   2  475.05   14.80
  -2   6   2  477.95   15.60
  -2   6   2  461.25   15.10
   1  -6  -2  184.18    7.80
   1  -6  -2  176.98    6.60
   1  -6  -2  182.38    7.80
   1  -6  -2  184.48    7.40
  -1   6   2  185.28    7.80
  -1   6   2  201.08    8.70
  -1   6   2  188.78    9.00
  -1   6   2  199.68    8.90
   0  -6  -2  501.05   14.20
   0  -6  -2  497.15   16.10
   0  -6  -2  531.05   15.60
   0   6   2  502.75   17.10
   0   6   2  502.65   17.10
   0   6   2  508.65   16.20
   0   6   2  491.75   15.80
  -1  -6  -2  744.33   22.50
  -1  -6  -2  758.22   20.20
  -1  -6  -2  751.92   21.60
   1   6   2  778.62   23.10
   1   6   2  739.83   23.20
   1   6   2  745.33   22.30
   2   6   2  551.34   16.10
   2   6   2  575.44   17.00
   2   6   2  558.14   16.30
   2   6   2  539.25   15.60
   2   6   2  585.14   16.50
   2   6   2  574.74   16.50
   2   6   2  554.24   17.10
   2   6   2  556.64   17.00
   3   6   2  556.04   16.90
   3   6   2  630.74   18.00
   3   6   2  632.34   16.30
   3   6   2  563.14   17.80
   3   6   2  591.44   18.20
   3   6   2  591.74   17.50
   3   6   2  601.04   16.80
   3   6   2  575.94   17.30
   4   6   2 1628.04   38.50
   4   6   2 1611.74   38.40
   4   6   2 1645.44   39.50
   4   6   2 1603.74   37.10
   4   6   2 1622.04   38.10
   4   6   2 1572.74   37.50
   4   6   2 1617.54   39.30
   5   6   2  255.97    8.80
   5   6   2  264.17    8.50
   5   6   2  253.07    8.10
   5   6   2  269.47    8.70
   5   6   2  267.87    8.90
   5   6   2  281.57    9.40
   5   6   2  249.28    9.10
   9  -7  -2   17.60    2.00
   9  -7  -2   15.10    1.80
   9  -7  -2   14.30    1.80
  -9   7   2   14.30    2.10
  -9   7   2   15.90    2.40
   8  -7  -2  156.38    6.50
   8  -7  -2  165.48    6.60
   8  -7  -2  162.98    6.30
  -8   7   2  172.98    7.90
  -8   7   2  156.18    7.00
  -8   7   2  156.18    7.10
   7  -7  -2   78.59    4.50
   7  -7  -2   84.69    4.50
   7  -7  -2   86.59    4.50
  -7   7   2   83.69    5.20
  -7   7   2   83.99    5.40
  -7   7   2   80.59    6.80
   6  -7  -2  101.89    4.90
   6  -7  -2   97.99    4.70
   6  -7  -2   96.69    4.70
  -6   7   2  102.09    6.20
  -6   7   2  101.09    6.10
  -6   7   2  101.39    5.90
   5  -7  -2  101.59    4.60
   5  -7  -2  107.09    4.80
  -5   7   2  102.49    4.70
  -5   7   2   96.09    5.90
  -5   7   2  105.09    6.20
  -5   7   2  107.89    6.10
  -5   7   2   98.09    5.90
  -5   7   2  107.39    4.80
   4  -7  -2   45.50    4.10
   4  -7  -2   38.00    3.60
   4  -7  -2   32.80    3.70
  -4   7   2   34.40    3.80
  -4   7   2   36.80    4.70
  -4   7   2   40.60    5.00
  -4   7   2   52.09    6.20
  -4   7   2   38.30    4.30
  -4   7   2   33.50    2.90
   3  -7  -2   31.80    3.70
   3  -7  -2   30.10    3.30
   3  -7  -2   26.10    3.20
   3  -7  -2   25.10    2.90
  -3   7   2   37.00    4.80
  -3   7   2   25.90    3.90
  -3   7   2   33.10    4.60
   2  -7  -2   48.20    4.40
   2  -7  -2   49.80    3.70
   2  -7  -2   51.39    3.90
  -2   7   2   50.19    5.80
  -2   7   2   45.10    5.00
  -2   7   2   47.00    5.40
  -2   7   2   54.19    5.60
   1  -7  -2    0.00    0.90
   1  -7  -2    0.10    0.80
   1  -7  -2    0.90    1.00
  -1   7   2    2.60    1.60
  -1   7   2    0.30    1.20
  -1   7   2    1.30    1.40
   0  -7  -2  106.09    7.60
   0   7   2   92.89    5.20
   0   7   2   93.19    4.90
   0   7   2   92.79    5.40
   0   7   2   93.29    4.70
   0   7   2   98.89    6.30
   0   7   2   89.99    5.30
   0   7   2   88.99    5.10
   0   7   2   91.19    5.90
   0   7   2   99.49    6.20
   1   7   2  383.76   12.90
   1   7   2  374.06   13.00
   1   7   2  387.16   12.60
   1   7   2  364.76   12.80
   1   7   2  402.26   12.40
   1   7   2  369.66   12.20
   1   7   2  391.16   13.90
   1   7   2  400.36   12.10
   1   7   2  373.16   11.50
   2   7   2   86.79    5.00
   2   7   2   90.79    5.60
   2   7   2   79.59    6.40
   2   7   2   86.79    6.90
   2   7   2   91.39    5.30
   2   7   2   86.99    5.20
   2   7   2   84.89    5.00
   2   7   2   78.09    4.60
   3   7   2  238.88    9.70
   3   7   2  233.58    9.50
   3   7   2  239.68    8.60
   3   7   2  236.78    9.10
   3   7   2  238.48    8.90
   3   7   2  245.98    9.40
   3   7   2  230.08    8.90
   4   7   2  111.39    5.30
   4   7   2  116.49    5.20
   4   7   2  109.09    5.60
   4   7   2  113.09    5.30
   4   7   2  103.09    4.60
   4   7   2  115.09    5.70
   4   7   2  113.89    5.30
   4   7   2  108.99    4.90
   5   7   2  204.18    6.00
   5   7   2  203.58    6.20
   5   7   2  199.08    6.20
   5   7   2  205.58    6.40
   5   7   2  201.88    6.60
   5   7   2  204.28    6.50
   5   7   2  211.48    6.50
   9  -8  -2   50.29    2.60
  -9   8   2   44.50    2.90
  -9   8   2   47.30    3.80
   8  -8  -2  113.59    4.90
   8  -8  -2  128.69    5.30
   8  -8  -2  115.79    5.10
  -8   8   2  123.99    5.90
  -8   8   2  127.99    6.40
  -8   8   2  114.69    5.60
   7  -8  -2   12.10    2.10
   7  -8  -2   13.70    2.00
   7  -8  -2   15.80    2.20
  -7   8   2   10.20    2.40
  -7   8   2   15.00    2.90
  -7   8   2   15.10    2.70
   6  -8  -2  109.59    5.10
   6  -8  -2  111.69    5.10
   6  -8  -2  110.59    5.00
  -6   8   2  104.99    6.20
  -6   8   2  111.89    6.40
  -6   8   2  101.39    6.40
   5  -8  -2  182.58    6.60
   5  -8  -2  184.78    6.70
  -5   8   2  168.98    6.50
  -5   8   2  177.08    8.50
  -5   8   2  177.28    8.30
  -5   8   2  170.28    8.30
  -5   8   2  181.18    6.80
  -5   8   2  170.28    8.20
   4  -8  -2   16.20    2.10
  -4   8   2   19.30    3.20
  -4   8   2   17.80    2.30
  -4   8   2   18.90    3.10
  -4   8   2   18.70    2.30
  -4   8   2   15.30    2.90
  -4   8   2   16.00    2.30
  -4   8   2   13.10    2.90
  -3   8   2  176.28    7.00
  -3   8   2  175.38    8.10
  -3   8   2  189.88    8.40
  -3   8   2  175.88    8.20
  -3   8   2  175.08    8.60
  -3   8   2  171.38    6.90
  -3   8   2  171.58    8.00
  -3   8   2  176.08    6.60
  -3   8   2  181.18    6.90
  -3   8   2  183.48    7.00
  -3   8   2  173.38    6.80
  -2   8   2  803.12   21.00
  -2   8   2  816.02   20.60
  -2   8   2  803.12   22.30
  -2   8   2  786.42   21.00
  -2   8   2  807.92   23.10
  -2   8   2  799.02   20.20
  -2   8   2  821.52   23.00
  -2   8   2  806.82   21.10
  -2   8   2  775.82   21.00
  -2   8   2  792.42   22.70
  -1   8   2   55.49    5.50
  -1   8   2   53.29    5.30
  -1   8   2   62.29    5.10
  -1   8   2   50.79    4.60
  -1   8   2   63.89    3.80
  -1   8   2   66.39    6.20
  -1   8   2   58.39    5.00
  -1   8   2   57.99    3.80
  -1   8   2   52.19    4.40
  -1   8   2   61.29    5.00
   0   8   2    8.20    2.10
   0   8   2   12.40    2.30
   0   8   2   12.50    2.40
   0   8   2    6.80    2.00
   0   8   2    9.30    2.00
   0   8   2   10.20    2.00
   0   8   2   10.70    2.30
   0   8   2   14.00    2.50
   0   8   2   15.00    3.00
   1   8   2  143.39    7.10
   1   8   2  147.69    7.00
   1   8   2  156.38    8.00
   1   8   2  148.29    6.70
   1   8   2  140.29    6.50
   1   8   2  140.59    6.40
   1   8   2  149.09    7.30
   1   8   2  148.89    7.10
   2   8   2   95.89    4.90
   2   8   2   99.89    5.20
   2   8   2   88.89    5.00
   2   8   2   97.09    5.30
   2   8   2   92.69    5.50
   2   8   2  101.69    4.90
   2   8   2   94.39    5.50
   2   8   2   98.99    5.50
   3   8   2   -0.10    0.70
   3   8   2    0.60    0.80
   3   8   2    0.20    0.90
   3   8   2    2.50    1.00
   3   8   2    1.80    1.00
   3   8   2    1.40    0.90
   3   8   2    0.20    0.90
   3   8   2    0.90    0.80
   4   8   2   32.60    2.80
   4   8   2   26.60    2.30
   4   8   2   30.60    2.40
   4   8   2   27.60    2.70
   4   8   2   30.20    2.50
   4   8   2   31.90    2.50
   4   8   2   30.00    2.20
   8  -9  -2    8.70    1.40
   8  -9  -2   12.00    1.60
   8  -9  -2    9.70    1.50
  -8   9   2    8.20    1.80
  -8   9   2    9.60    2.00
   7  -9  -2   22.50    2.50
   7  -9  -2   22.00    2.30
   7  -9  -2   22.30    2.40
  -7   9   2   21.50    3.00
  -7   9   2   28.10    3.70
  -7   9   2   22.60    3.40
   6  -9  -2   10.10    1.70
   6  -9  -2   15.40    2.00
   6  -9  -2   15.50    2.20
  -6   9   2   13.30    2.70
  -6   9   2   14.70    2.80
  -6   9   2   15.00    3.00
  -6   9   2   16.10    3.10
   5  -9  -2  189.88    6.90
   5  -9  -2  192.68    7.00
  -5   9   2  191.88    8.80
  -5   9   2  196.98    6.90
  -5   9   2  195.08    8.90
  -5   9   2  193.38    7.10
  -5   9   2  187.98    8.70
   4  -9  -2    9.80    1.70
  -4   9   2   20.70    3.60
  -4   9   2    7.70    1.60
  -4   9   2    8.90    2.20
  -4   9   2    8.60    1.60
  -4   9   2    9.60    2.40
  -4   9   2    8.70    1.70
  -4   9   2    6.80    2.20
  -4   9   2    7.20    2.30
  -3   9   2  294.87    9.40
  -3   9   2  290.87    9.70
  -3   9   2  294.17    9.70
  -3   9   2  311.47    9.80
  -3   9   2  310.07   12.20
  -3   9   2  314.47   10.00
  -3   9   2  292.77    9.80
  -3   9   2  281.37   11.40
  -3   9   2  307.07   11.50
  -3   9   2  295.47   11.50
  -2   9   2  750.82   21.10
  -2   9   2  730.53   18.90
  -2   9   2  736.03   19.50
  -2   9   2  709.83   19.50
  -2   9   2  704.63   19.60
  -2   9   2  746.23   22.00
  -2   9   2  717.33   19.80
  -2   9   2  746.23   21.60
  -2   9   2  724.73   21.60
  -2   9   2  772.82   19.50
  -1   9   2  104.39    5.60
  -1   9   2  101.39    6.20
  -1   9   2  107.69    5.30
  -1   9   2   93.79    6.30
  -1   9   2  103.19    5.20
  -1   9   2  107.09    5.60
  -1   9   2  100.99    6.30
  -1   9   2   96.79    5.40
  -1   9   2  106.29    5.60
  -1   9   2  100.59    5.00
   0   9   2  822.12   22.90
   0   9   2  851.51   21.60
   0   9   2  820.82   22.30
   0   9   2  835.12   21.40
   0   9   2  831.82   22.30
   0   9   2  814.42   22.00
   0   9   2  838.52   22.10
   0   9   2  827.52   23.70
   0   9   2  814.82   21.10
   1   9   2   81.59    5.30
   1   9   2   86.19    4.60
   1   9   2   74.69    4.70
   1   9   2   87.99    4.90
   1   9   2   81.79    4.80
   1   9   2   79.99    4.50
   1   9   2   78.69    4.80
   1   9   2   84.49    4.40
   2   9   2  102.39    4.80
   2   9   2  101.29    4.80
   2   9   2  106.39    4.60
   2   9   2  110.59    5.10
   2   9   2  108.29    4.90
   2   9   2  104.19    5.20
   2   9   2  108.19    5.20
   3   9   2   97.59    3.90
   3   9   2   93.89    3.80
   3   9   2   95.79    3.80
   3   9   2   92.19    3.90
   3   9   2  100.99    4.20
   3   9   2  100.89    4.30
   3   9   2   93.69    3.60
   8 -10  -2  211.58    6.20
  -8  10   2  215.58    7.00
  -8  10   2  184.78    7.80
   7 -10  -2  253.57    7.40
   7 -10  -2  236.98    7.50
   7 -10  -2  250.87    7.60
  -7  10   2  243.08    8.60
  -7  10   2  245.18    8.40
  -7  10   2  246.98    8.80
   6 -10  -2  924.11   22.10
   6 -10  -2  968.50   22.20
   6 -10  -2  890.41   21.80
  -6  10   2  911.11   24.10
  -6  10   2  900.51   23.40
  -6  10   2  955.90   24.30
   5 -10  -2    2.10    0.90
   5 -10  -2    3.30    1.00
  -5  10   2    2.30    1.40
  -5  10   2    1.00    1.40
  -5  10   2    3.70    1.10
  -5  10   2    3.10    1.60
  -5  10   2    2.60    1.00
  -5  10   2    1.40    1.10
   4 -10  -2    0.00    0.70
  -4  10   2    1.10    1.10
  -4  10   2   -1.00    1.00
  -4  10   2    1.40    0.90
  -4  10   2    1.90    1.20
  -4  10   2    0.90    0.70
  -4  10   2    1.00    1.30
  -4  10   2    0.30    0.70
  -4  10   2    1.60    1.20
  -3  10   2 1165.18   26.80
  -3  10   2 1135.89   26.80
  -3  10   2 1150.08   26.80
  -3  10   2 1085.29   29.50
  -3  10   2 1105.59   26.50
  -3  10   2 1126.29   29.20
  -3  10   2 1118.19   26.90
  -3  10   2 1119.69   27.10
  -3  10   2 1133.89   28.90
  -3  10   2 1111.19   29.00
   2 -10  -2    3.20    1.10
  -2  10   2    2.70    1.40
  -2  10   2    4.60    1.40
  -2  10   2    2.60    1.00
  -2  10   2    3.70    1.20
  -2  10   2    1.70    1.40
  -2  10   2    3.00    1.20
  -2  10   2    4.10    1.70
  -2  10   2    2.40    1.10
  -2  10   2    3.60    1.30
  -1  10   2    1.80    1.40
  -1  10   2    1.60    1.30
  -1  10   2    2.20    1.20
  -1  10   2    0.00    0.60
  -1  10   2    0.00    1.00
  -1  10   2    1.90    1.00
  -1  10   2    1.00    0.80
  -1  10   2    1.30    1.10
  -1  10   2    2.20    1.00
  -1  10   2    1.90    1.00
   0  10   2  155.78    6.40
   0  10   2  150.68    5.80
   0  10   2  150.08    6.30
   0  10   2  148.09    5.90
   0  10   2  155.38    6.00
   0  10   2  147.49    7.00
   0  10   2  164.18    6.50
   0  10   2  151.28    6.70
   0  10   2  162.98    6.50
   1  10   2  402.36   11.80
   1  10   2  402.86   11.30
   1  10   2  410.76   11.50
   1  10   2  375.16   10.80
   1  10   2  397.76   11.40
   1  10   2  387.96   10.70
   1  10   2  404.46   11.30
   1  10   2  400.16   11.00
   2  10   2  251.17    7.10
   2  10   2  256.17    7.20
   2  10   2  259.77    7.10
   2  10   2  254.87    7.30
   2  10   2  250.27    7.00
   2  10   2  264.77    7.50
   7 -11  -2   28.60    2.10
  -7  11   2   31.20    2.60
  -7  11   2   29.80    2.70
   6 -11  -2  804.52   18.50
   6 -11  -2  796.52   18.60
   6 -11  -2  800.22   18.70
  -6  11   2  810.52   20.30
  -6  11   2  750.42   19.90
  -6  11   2  807.02   19.60
   5 -11  -2  181.78    5.90
   5 -11  -2  169.68    5.70
  -5  11   2  177.88    6.40
  -5  11   2  186.18    7.40
  -5  11   2  174.58    7.30
   4 -11  -2   75.59    3.40
  -4  11   2   69.39    3.50
  -4  11   2   72.09    3.90
  -4  11   2   76.69    4.70
  -4  11   2   69.39    4.40
  -4  11   2   74.39    4.30
  -4  11   2   67.49    3.30
   3 -11  -2  434.06   11.30
  -3  11   2  417.06   11.40
  -3  11   2  431.26   11.50
  -3  11   2  426.06   12.90
  -3  11   2  434.86   13.60
  -3  11   2  452.25   13.30
  -3  11   2  432.16   11.70
  -3  11   2  437.66   11.60
  -3  11   2  400.56   11.10
  -3  11   2  430.16   12.70
  -2  11   2   10.00    2.10
  -2  11   2    8.40    1.90
  -2  11   2   13.30    1.80
  -2  11   2    9.90    1.50
  -2  11   2   10.10    1.50
  -2  11   2   10.40    1.50
  -2  11   2   12.70    1.60
  -2  11   2   11.40    1.60
  -2  11   2    9.90    2.00
   1 -11  -2   83.39    3.50
  -1  11   2   89.89    3.80
  -1  11   2   95.19    4.00
  -1  11   2   89.99    4.70
  -1  11   2   90.29    3.90
  -1  11   2   90.69    4.00
  -1  11   2   90.49    4.60
  -1  11   2   93.49    4.10
  -1  11   2   97.79    4.10
   0 -11  -2   98.69    3.60
   0  11   2  102.79    3.80
   0  11   2  100.99    3.90
   0  11   2   92.29    3.90
   0  11   2   99.19    3.90
   0  11   2   94.89    3.70
   0  11   2  100.09    3.90
   0  11   2   99.59    4.40
   0  11   2   95.79    3.90
   5 -12  -2    4.30    0.80
  -5  12   2    5.00    1.20
  -5  12   2    2.50    1.00
   4 -12  -2  320.17    8.10
   4 -12  -2  315.27    8.40
  -4  12   2  342.37    9.10
  -4  12   2  331.77    8.30
  -4  12   2  315.47    9.10
  -4  12   2  319.77    9.50
   3 -12  -2   36.80    1.90
  -3  12   2   32.40    2.60
  -3  12   2   32.80    2.80
  -3  12   2   38.80    2.30
  -3  12   2   36.50    2.00
   2 -12  -2  135.29    4.10
  -2  12   2  135.89    4.20
  -2  12   2  142.89    4.90
  -2  12   2  131.19    4.20
  -2  12   2  141.39    4.30
  -2  12   2  132.89    4.90
  -1  12  -3  392.36   10.80
  -1  12  -3  408.46   10.90
   1 -12   3  400.86   10.00
   1 -12   3  378.66    9.60
  -2  12  -3   87.79    4.10
  -2  12  -3   85.69    4.20
  -2  12  -3   84.59    3.90
   2 -12   3   88.19    3.50
   2 -12   3   81.19    3.20
  -3  12  -3  145.39    6.00
  -3  12  -3  166.18    6.10
   3 -12   3  147.69    4.90
   3 -12   3  149.29    4.60
   3 -12   3  156.18    5.20
  -4  12  -3   10.00    1.70
  -4  12  -3    9.70    1.60
  -4  12  -3   10.30    1.50
   4 -12   3    8.50    1.10
   4 -12   3    8.10    1.10
   4 -12   3    9.70    1.30
  -5  12  -3    2.40    0.90
  -5  12  -3    1.70    0.90
   5 -12   3    1.70    0.70
   5 -12   3    1.70    0.60
   1  11  -3   87.79    3.30
   1  11  -3   92.99    3.60
   1  11  -3   94.39    3.90
   1  11  -3   92.69    3.20
   1  11  -3   85.29    4.20
  -1 -11   3   87.99    3.40
   0  11  -3   52.79    3.00
   0  11  -3   57.69    3.30
   0  11  -3   65.79    3.10
   0  11  -3   61.39    3.80
   0  11  -3   55.19    2.80
   0  11  -3   62.09    4.10
   0 -11   3   62.29    3.20
   0 -11   3   63.59    3.10
  -1  11  -3   96.09    3.90
  -1  11  -3  100.09    4.20
  -1  11  -3   97.29    4.40
  -1  11  -3  104.69    5.50
  -1  11  -3   99.39    5.60
   1 -11   3   92.59    4.10
   1 -11   3  100.99    4.50
  -2  11  -3  158.88    7.20
  -2  11  -3  147.69    7.00
  -2  11  -3  149.29    6.90
  -2  11  -3  140.49    5.20
   2 -11   3  135.79    5.30
   2 -11   3  149.49    5.70
  -3  11  -3  368.56   12.70
  -3  11  -3  394.26   12.00
  -3  11  -3  369.46   12.30
  -3  11  -3  339.37   11.40
   3 -11   3  384.46   10.90
   3 -11   3  379.86   10.40
  -4  11  -3  102.09    5.30
  -4  11  -3  108.99    6.00
  -4  11  -3  109.09    5.60
   4 -11   3  111.09    4.80
   4 -11   3  111.09    4.50
   4 -11   3  113.19    4.30
  -5  11  -3   41.30    3.80
  -5  11  -3   48.20    4.20
   5 -11   3   48.80    2.80
   5 -11   3   44.00    2.90
   5 -11   3   45.30    2.50
  -6  11  -3   33.60    3.00
  -6  11  -3   37.40    3.20
  -6  11  -3   38.10    3.40
   6 -11   3   36.50    2.60
   6 -11   3   36.40    2.40
   6 -11   3   36.10    2.10
   2  10  -3   33.80    2.60
   2  10  -3   27.30    2.30
   2  10  -3   31.30    2.70
   2  10  -3   32.40    2.40
   2  10  -3   30.40    2.80
   2  10  -3   33.30    3.00
   2  10  -3   32.10    3.30
   2  10  -3   40.00    3.20
  -2 -10   3   28.30    2.50
   1  10  -3   31.40    3.10
   1  10  -3   29.90    3.80
   1  10  -3   31.30    3.30
   1  10  -3   26.50    2.60
   1  10  -3   26.60    2.80
   1  10  -3   29.10    3.10
   1  10  -3   28.00    2.80
   1  10  -3   29.40    2.60
  -1 -10   3   28.10    2.70
   0  10  -3  797.52   20.60
   0  10  -3  795.22   19.70
   0  10  -3  790.52   22.00
   0  10  -3  814.52   22.80
   0  10  -3  819.62   20.30
   0  10  -3  787.52   20.60
   0  10  -3  778.02   19.80
   0  10  -3  792.12   19.70
   0  10  -3  772.62   20.90
   0 -10   3  782.02   20.10
  -1  10  -3   98.79    4.50
  -1  10  -3   98.49    6.00
  -1  10  -3   95.49    4.90
  -1  10  -3  100.59    6.20
  -1  10  -3   96.79    4.60
  -1  10  -3   92.49    5.00
   1 -10   3   86.79    4.50
  -2  10  -3  800.02   22.60
  -2  10  -3  790.62   19.70
  -2  10  -3  766.52   22.20
  -2  10  -3  755.62   22.30
  -2  10  -3  785.12   19.40
   2 -10   3  791.92   20.20
   2 -10   3  785.92   19.80
  -3  10  -3   67.49    7.00
  -3  10  -3   49.40    5.00
  -3  10  -3   56.09    5.20
  -3  10  -3   60.89    3.30
  -3  10  -3   63.79    5.90
   3 -10   3   59.49    3.60
   3 -10   3   55.49    3.60
   3 -10   3   58.39    3.40
  -4  10  -3  579.84   16.90
  -4  10  -3  566.44   16.90
  -4  10  -3  559.24   17.60
   4 -10   3  550.04   14.60
   4 -10   3  571.54   15.60
   4 -10   3  575.74   15.00
  -5  10  -3  618.74   17.80
  -5  10  -3  592.74   17.80
  -5  10  -3  605.94   17.20
   5 -10   3  593.54   16.20
   5 -10   3  597.34   15.30
   5 -10   3  607.34   15.60
  -6  10  -3    1.40    1.20
  -6  10  -3    0.80    1.00
   6 -10   3    1.90    0.80
   6 -10   3    0.30    0.80
   6 -10   3    0.20    0.60
  -7  10  -3  133.89    5.70
  -7  10  -3  142.09    5.70
   7 -10   3  135.09    5.00
   7 -10   3  128.19    4.70
   7 -10   3  137.49    5.20
   4   9  -3   49.40    2.40
   4   9  -3   52.09    2.50
   4   9  -3   47.90    2.60
   4   9  -3   45.90    2.50
   3   9  -3    6.60    1.60
   3   9  -3    6.10    1.40
   3   9  -3    7.70    1.60
   3   9  -3    5.40    1.30
   3   9  -3    7.60    1.50
   3   9  -3    7.40    1.30
   3   9  -3    7.80    1.50
   3   9  -3    1.10    0.90
   3   9  -3    5.90    1.30
  -3  -9   3    9.10    1.50
   2   9  -3   35.20    3.70
   2   9  -3   41.50    4.20
   2   9  -3   46.90    4.00
   2   9  -3   42.40    4.60
   2   9  -3   41.80    3.50
   2   9  -3   46.20    3.90
   2   9  -3   43.70    3.50
   2   9  -3   38.80    3.90
   2   9  -3   37.70    3.40
  -2  -9   3   47.10    3.90
   1   9  -3   21.30    2.80
   1   9  -3   17.00    2.40
   1   9  -3   20.70    2.70
   1   9  -3   18.80    2.80
   1   9  -3   17.10    3.00
   1   9  -3   18.70    3.40
   1   9  -3   19.80    2.90
   1   9  -3   16.10    2.80
   1   9  -3   21.60    2.80
   1   9  -3   17.40    2.80
  -1  -9   3   21.30    2.60
   0   9  -3    1.10    1.20
   0   9  -3    2.60    1.60
   0   9  -3    1.60    1.00
   0   9  -3    2.70    1.20
   0   9  -3    0.70    1.20
   0   9  -3    1.50    1.10
   0   9  -3    1.30    1.00
   0   9  -3    1.70    1.20
   0   9  -3    1.60    1.00
   0   9  -3    2.90    1.40
  -1   9  -3    3.00    1.30
  -1   9  -3    3.20    1.20
  -1   9  -3    2.50    1.40
  -1   9  -3    3.80    1.30
  -1   9  -3    2.70    1.60
  -1   9  -3    2.50    1.70
  -1   9  -3    1.70    0.90
   1  -9   3    0.80    0.80
  -2   9  -3   61.69    5.20
  -2   9  -3   54.99    4.10
  -2   9  -3   57.29    5.60
  -2   9  -3   57.39    5.70
  -2   9  -3   52.89    5.30
  -2   9  -3   50.99    4.00
   2  -9   3   58.29    3.70
  -3   9  -3   22.90    3.50
  -3   9  -3   28.60    2.90
  -3   9  -3   22.30    3.40
  -3   9  -3   27.80    3.60
   3  -9   3   25.90    2.90
   3  -9   3   28.70    3.00
  -4   9  -3  523.55   16.50
  -4   9  -3  521.95   15.90
  -4   9  -3  505.65   15.40
  -4   9  -3  489.65   15.60
   4  -9   3  505.45   14.60
   4  -9   3  508.35   14.30
   4  -9   3  519.65   14.00
  -5   9  -3  216.38    8.80
  -5   9  -3  221.28    9.00
  -5   9  -3  217.48    9.20
   5  -9   3  216.78    7.40
   5  -9   3  223.38    7.60
   5  -9   3  201.08    8.00
  -6   9  -3   44.50    4.50
  -6   9  -3   22.30    3.10
  -6   9  -3   36.40    3.80
   6  -9   3   37.70    3.20
   6  -9   3   36.20    3.50
   6  -9   3   39.70    3.30
  -7   9  -3  393.96   12.10
  -7   9  -3  375.66   11.90
  -7   9  -3  357.96   11.40
   7  -9   3  384.26   10.80
   7  -9   3  369.46   11.20
   7  -9   3  378.46   11.00
  -8   9  -3   56.79    3.50
  -8   9  -3   59.29    3.40
   8  -9   3   60.89    3.10
   8  -9   3   61.09    3.10
   8  -9   3   58.19    2.90
   4   8  -3  121.89    5.80
   4   8  -3  137.59    5.30
   4   8  -3  126.19    5.40
   4   8  -3  126.19    4.90
   4   8  -3  122.99    5.00
   4   8  -3  133.09    5.60
   4   8  -3  136.59    5.40
   4   8  -3  123.19    5.80
   4   8  -3  134.99    5.20
   3   8  -3    1.30    1.20
   3   8  -3    2.20    1.10
   3   8  -3    7.00    1.70
   3   8  -3    0.50    0.80
   3   8  -3   -0.40    0.80
   3   8  -3    1.10    0.90
   3   8  -3   -0.20    0.90
   3   8  -3    1.10    1.00
   3   8  -3    0.20    0.70
   3   8  -3    0.30    0.80
   2   8  -3   14.50    2.50
   2   8  -3   20.20    3.00
   2   8  -3   18.40    2.60
   2   8  -3   14.20    2.30
   2   8  -3   16.70    3.10
   2   8  -3   17.90    2.60
   2   8  -3   14.80    2.60
   2   8  -3   20.00    3.30
   2   8  -3   16.70    2.90
   2   8  -3   15.20    2.40
   1   8  -3  121.19    6.40
   1   8  -3  127.99    6.20
   1   8  -3  119.39    6.40
   1   8  -3  124.29    5.80
   1   8  -3  125.69    5.80
   1   8  -3  123.09    6.60
   1   8  -3  128.29    5.80
   1   8  -3  116.09    6.90
   1   8  -3  124.09    6.20
   1   8  -3  125.29    6.70
   0   8  -3  191.38    8.00
   0   8  -3  173.48    7.20
   0   8  -3  187.98    7.90
   0   8  -3  188.48    7.30
   0   8  -3  183.18    7.10
   0   8  -3  175.08    7.00
   0   8  -3  193.18    8.30
   0   8  -3  185.28    7.40
   0   8  -3  170.68    7.60
   0   8  -3  170.08    8.50
   0  -8   3  171.08    6.90
  -1   8  -3  144.59    7.40
  -1   8  -3  140.59    5.80
  -1   8  -3  138.59    6.40
  -1   8  -3  142.79    6.30
  -1   8  -3  133.09    6.80
  -1   8  -3  144.49    7.00
  -1   8  -3  134.09    5.80
  -2   8  -3  380.66   11.70
  -2   8  -3  389.16   12.90
  -2   8  -3  370.26   11.10
  -2   8  -3  380.06   12.20
  -2   8  -3  363.06   13.00
  -2   8  -3  387.06   12.80
  -2   8  -3  377.46   11.00
   2  -8   3  380.96   11.30
  -3   8  -3  395.96   12.40
  -3   8  -3  404.16   11.50
  -3   8  -3  408.26   12.80
  -3   8  -3  378.96   12.90
  -3   8  -3  411.36   11.50
  -3   8  -3  391.66   13.20
   3  -8   3  397.26   11.80
   3  -8   3  416.86   12.00
  -4   8  -3  217.58    8.60
  -4   8  -3  228.18    9.20
  -4   8  -3  219.68    8.50
   4  -8   3  209.88    7.80
   4  -8   3  233.28    8.10
   4  -8   3  213.58    7.50
  -5   8  -3   12.10    2.40
  -5   8  -3   17.80    3.00
  -5   8  -3   12.60    2.40
  -5   8  -3   12.90    2.40
   5  -8   3   15.80    2.20
   5  -8   3   11.30    1.80
   5  -8   3    9.10    1.90
  -6   8  -3  239.58    9.30
  -6   8  -3  232.18    9.30
  -6   8  -3  253.37    9.50
   6  -8   3  235.28    8.30
   6  -8   3  236.58    8.10
   6  -8   3  252.27    9.10
  -7   8  -3  329.97   10.80
  -7   8  -3  316.27   11.10
  -7   8  -3  316.17   11.00
   7  -8   3  321.77   10.00
   7  -8   3  333.57   10.40
   7  -8   3  313.47   10.50
  -8   8  -3   14.40    2.10
  -8   8  -3    7.00    1.40
  -8   8  -3   16.50    2.40
   8  -8   3   16.90    2.10
   8  -8   3   18.90    2.20
   8  -8   3   14.70    2.00
   5   7  -3   -0.70    0.70
   5   7  -3    3.50    1.30
   5   7  -3    0.90    0.70
   5   7  -3    0.70    0.70
   5   7  -3    0.50    0.90
   5   7  -3    1.10    0.80
   5   7  -3    0.60    0.90
   5   7  -3    0.20    0.90
   5   7  -3    0.20    0.70
  -5  -7   3    0.20    0.70
   4   7  -3    2.10    1.00
   4   7  -3    3.00    1.30
   4   7  -3    2.90    1.30
   4   7  -3    4.60    1.70
   4   7  -3    2.30    1.40
   4   7  -3    2.50    1.20
   4   7  -3    3.40    1.50
   4   7  -3    1.90    1.10
   4   7  -3    2.30    1.10
   3   7  -3  429.16   12.90
   3   7  -3  407.76   12.80
   3   7  -3  436.76   14.40
   3   7  -3  417.06   13.40
   3   7  -3  415.56   13.00
   3   7  -3  436.16   13.90
   3   7  -3  415.36   14.40
   3   7  -3  429.16   14.00
   3   7  -3  443.56   13.40
   2   7  -3  233.48    9.30
   2   7  -3  238.68    8.50
   2   7  -3  232.48    9.70
   2   7  -3  239.78    8.70
   2   7  -3  239.38   10.10
   2   7  -3  240.38    8.60
   2   7  -3  226.78    8.70
   2   7  -3  229.28    9.60
   2   7  -3  225.88    8.90
   2   7  -3  242.98    9.50
   1   7  -3   35.80    4.10
   1   7  -3   32.90    3.90
   1   7  -3   42.90    4.80
   1   7  -3   36.90    3.90
   1   7  -3   38.40    3.60
   1   7  -3   33.30    3.80
   1   7  -3   38.80    3.90
   1   7  -3   40.70    3.60
   1   7  -3   40.60    3.70
   1   7  -3   39.60    4.30
   1   7  -3   28.00    3.10
   0   7  -3   12.90    2.60
   0   7  -3   11.10    2.90
   0   7  -3   12.60    3.00
   0   7  -3   18.70    3.20
   0  -7   3   15.10    2.80
   0  -7   3   16.50    2.60
   0  -7   3   11.90    2.40
  -1   7  -3  610.74   19.50
  -1   7  -3  591.94   18.00
  -1   7  -3  625.54   19.40
   1  -7   3  582.54   17.40
   1  -7   3  630.94   17.20
   1  -7   3  608.34   17.30
  -2   7  -3    9.40    2.50
  -2   7  -3   11.20    2.30
  -2   7  -3   11.20    2.40
   2  -7   3   11.70    2.10
   2  -7   3    9.50    1.90
  -3   7  -3  825.92   22.50
  -3   7  -3  861.11   23.30
   3  -7   3  860.31   21.90
   3  -7   3  810.72   22.00
   3  -7   3  838.92   21.50
  -4   7  -3  315.37   10.40
  -4   7  -3  314.97   10.20
  -4   7  -3  324.57   12.10
  -4   7  -3  311.47   11.70
   4  -7   3  335.77   11.20
   4  -7   3  306.67   10.00
   4  -7   3  316.67   10.70
   4  -7   3  334.27    9.60
  -5   7  -3  141.99    6.40
  -5   7  -3  144.59    6.50
  -5   7  -3  130.89    6.20
   5  -7   3  129.29    5.90
   5  -7   3  141.69    5.70
   5  -7   3  143.39    6.30
   5  -7   3  145.99    5.80
  -6   7  -3   65.19    5.30
  -6   7  -3   63.79    5.20
  -6   7  -3   49.99    4.50
   6  -7   3   60.59    4.70
   6  -7   3   58.49    4.30
   6  -7   3   52.19    4.60
  -7   7  -3  247.38    9.40
  -7   7  -3  239.78    8.70
  -7   7  -3  230.48    9.00
   7  -7   3  227.08    8.30
   7  -7   3  229.08    8.90
   7  -7   3  241.88    8.70
  -8   7  -3  133.19    5.80
  -8   7  -3  128.19    5.70
  -8   7  -3  140.29    6.30
   8  -7   3  130.69    5.50
   8  -7   3  135.59    5.80
   8  -7   3  133.49    5.70
  -9   7  -3   41.80    2.50
  -9   7  -3   43.10    2.80
   9  -7   3   38.60    2.30
   6   6  -3  721.43   17.60
   6   6  -3  715.53   18.10
   6   6  -3  724.73   17.40
   6   6  -3  719.73   18.70
   6   6  -3  706.63   17.10
   6   6  -3  721.23   18.40
   6   6  -3  722.03   17.40
   6   6  -3  748.13   17.60
  -6  -6   3  738.63   17.90
   5   6  -3  396.76   12.90
   5   6  -3  396.06   12.00
   5   6  -3  395.46   12.90
   5   6  -3  391.86   11.70
   5   6  -3  404.76   13.40
   5   6  -3  383.46   12.00
   5   6  -3  376.76   11.70
   5   6  -3  394.46   11.80
   5   6  -3  392.06   11.70
   4   6  -3   53.29    5.30
   4   6  -3   48.50    4.50
   4   6  -3   44.90    4.00
   4   6  -3   49.40    4.30
   4   6  -3   56.09    4.90
   4   6  -3   50.29    4.50
   4   6  -3   44.70    4.80
   4   6  -3   47.50    4.10
   4   6  -3   48.80    4.60
   4   6  -3   48.30    4.90
   3   6  -3  428.16   12.90
   3   6  -3  424.36   14.50
   3   6  -3  434.96   13.20
   3   6  -3  425.26   13.60
   3   6  -3  417.96   13.00
   3   6  -3  425.06   13.40
   3   6  -3  436.96   12.80
   3   6  -3  399.86   13.90
   3   6  -3  430.46   14.30
   3   6  -3  428.26   13.40
   2   6  -3  446.86   16.80
   2   6  -3  459.65   16.20
   2   6  -3  477.05   16.50
   2   6  -3  453.05   14.40
   2   6  -3  444.26   13.70
   2   6  -3  429.06   14.60
  -2  -6   3  453.15   15.30
  -2  -6   3  451.35   14.50
  -2  -6   3  452.45   14.80
   1   6  -3  197.68    9.20
   1   6  -3  206.38    9.80
   1   6  -3  195.78    8.90
  -1  -6   3  203.48    8.00
  -1  -6   3  195.18    8.80
  -1  -6   3  202.28    8.50
  -1  -6   3  195.38    8.20
   0   6  -3    5.00    1.70
   0   6  -3    3.30    1.30
   0   6  -3    2.90    1.30
   0   6  -3    2.80    1.30
   0  -6   3    3.80    1.30
   0  -6   3    4.80    1.50
   0  -6   3    5.20    1.40
   0  -6   3    3.10    1.20
  -1   6  -3 2249.97   51.29
  -1   6  -3 2351.26   52.89
  -1   6  -3 2200.68   52.69
   1  -6   3 2262.47   50.99
   1  -6   3 2288.37   51.09
   1  -6   3 2159.48   50.79
   1  -6   3 2406.36   50.79
  -2   6  -3  872.41   21.70
  -2   6  -3  885.21   22.50
  -2   6  -3  888.41   23.60
   2  -6   3  872.61   21.50
   2  -6   3  849.32   21.90
   2  -6   3  869.51   21.90
  -3   6  -3    4.40    1.30
  -3   6  -3    3.20    1.20
   3  -6   3    4.10    1.30
   3  -6   3    4.70    1.30
   3  -6   3    5.80    1.30
  -4   6  -3 1650.73   38.50
  -4   6  -3 1652.23   37.20
  -4   6  -3 1614.14   38.80
   4  -6   3 1569.04   38.30
   4  -6   3 1630.14   37.70
   4  -6   3 1661.93   38.30
  -5   6  -3    3.20    1.30
  -5   6  -3    5.00    1.50
  -5   6  -3    1.20    1.00
   5  -6   3    1.40    0.90
   5  -6   3    0.00    0.90
   5  -6   3    1.30    0.90
   5  -6   3    1.70    1.10
   5  -6   3    2.00    1.00
   5  -6   3    1.20    1.10
   5  -6   3    1.10    0.80
  -6   6  -3  365.86   11.90
  -6   6  -3  364.16   11.70
   6  -6   3  351.56   11.10
   6  -6   3  350.26   10.80
   6  -6   3  363.86   11.40
   6  -6   3  347.97   11.80
   6  -6   3  364.66   11.70
  -7   6  -3  157.38    7.10
  -7   6  -3  137.69    6.40
  -7   6  -3  155.38    6.80
   7  -6   3  144.69    6.50
   7  -6   3  144.59    6.80
   7  -6   3  150.28    6.70
   7  -6   3  139.99    6.80
  -8   6  -3  496.85   14.30
  -8   6  -3  505.25   14.80
   8  -6   3  518.35   14.50
   8  -6   3  496.05   14.50
   8  -6   3  482.75   14.00
  -9   6  -3    0.80    0.80
  -9   6  -3    1.10    0.90
  -9   6  -3    0.60    0.80
   9  -6   3    0.90    0.70
   9  -6   3    0.50    0.70
   9  -6   3    0.90    0.80
   7   5  -3  399.06   10.30
   7   5  -3  420.36   11.10
   7   5  -3  421.96   10.30
   7   5  -3  389.76   11.00
   7   5  -3  397.16   10.40
  -7  -5   3  405.26   12.00
  -7  -5   3  402.56   10.70
   6   5  -3  232.38    8.30
   6   5  -3  250.27    9.20
   6   5  -3  228.08    8.00
   6   5  -3  255.07    8.20
   6   5  -3  233.18    8.60
   6   5  -3  246.88    9.40
   6   5  -3  239.28    7.90
   6   5  -3  237.28    8.10
   6   5  -3  220.48    7.80
  -6  -5   3  224.28    8.40
   5   5  -3   52.59    4.40
   5   5  -3   42.10    4.70
   5   5  -3   49.20    4.60
   5   5  -3   38.40    4.50
   5   5  -3   49.20    4.40
   5   5  -3   44.80    4.00
   5   5  -3   45.30    4.70
   5   5  -3   46.80    4.00
   5   5  -3   38.50    3.70
   4   5  -3  329.07   11.40
   4   5  -3  327.07   11.00
   4   5  -3  332.57   11.30
   4   5  -3  321.07   10.80
   4   5  -3  312.27   11.20
   4   5  -3  317.27   11.80
   4   5  -3  315.77   10.60
   4   5  -3  329.37   10.60
   4   5  -3  307.97   12.10
   4   5  -3  321.87   10.60
   4   5  -3  322.57   12.00
   3   5  -3  197.08   10.30
   3   5  -3  211.78   10.20
   3   5  -3  206.28    9.20
   3   5  -3  214.08   10.10
  -3  -5   3  197.48    9.30
  -3  -5   3  210.78    9.10
  -3  -5   3  194.48    8.50
   2   5  -3  532.05   16.80
   2   5  -3  508.65   16.10
   2   5  -3  513.05   16.40
   2   5  -3  499.05   17.00
  -2  -5   3  524.85   15.40
  -2  -5   3  501.95   15.00
  -2  -5   3  489.25   15.70
   1   5  -3   48.40    3.80
   1   5  -3   50.49    5.10
   1   5  -3   47.60    3.10
   1   5  -3   42.10    4.40
  -1  -5   3   47.20    3.30
  -1  -5   3   41.90    3.20
  -1  -5   3   41.60    3.90
   0   5  -3 1169.98   28.30
   0   5  -3 1183.78   29.50
   0   5  -3 1207.48   29.10
   0   5  -3 1171.28   27.40
   0  -5   3 1163.08   28.20
   0  -5   3 1107.29   27.60
   0  -5   3 1204.98   27.70
   0  -5   3 1139.79   27.90
  -1   5  -3  604.84   15.30
  -1   5  -3  587.54   16.40
  -1   5  -3  602.24   14.70
  -1   5  -3  573.04   15.20
  -1   5  -3  605.14   16.40
   1  -5   3  585.04   15.50
   1  -5   3  597.14   15.30
   1  -5   3  562.24   15.30
   1  -5   3  569.64   15.20
  -2   5  -3 1233.48   28.00
  -2   5  -3 1174.78   28.60
  -2   5  -3 1175.98   26.80
  -2   5  -3 1176.08   29.20
  -2   5  -3 1271.37   28.60
   2  -5   3 1251.27   28.40
   2  -5   3 1252.87   28.50
   2  -5   3 1227.48   28.60
   2  -5   3 1230.98   27.90
  -3   5  -3  156.98    5.30
  -3   5  -3  152.78    5.90
  -3   5  -3  153.88    6.20
   3  -5   3  155.38    5.80
   3  -5   3  157.48    6.20
   3  -5   3  172.88    6.20
   3  -5   3  156.68    6.20
  -4   5  -3 1892.41   42.60
  -4   5  -3 1797.62   41.40
  -4   5  -3 1877.11   42.60
   4  -5   3 1862.91   42.20
   4  -5   3 1903.11   42.90
   4  -5   3 1884.01   43.10
  -5   5  -3  511.85   14.30
  -5   5  -3  493.65   14.90
   5  -5   3  483.25   15.60
   5  -5   3  508.35   15.30
   5  -5   3  530.75   15.60
  -6   5  -3  197.78    7.70
  -6   5  -3  176.68    7.10
   6  -5   3  178.68    7.50
   6  -5   3  175.28    6.70
   6  -5   3  187.38    7.40
   6  -5   3  178.98    7.20
   6  -5   3  182.18    7.70
   6  -5   3  170.78    6.40
  -7   5  -3  305.17   10.80
  -7   5  -3  299.77   10.20
   7  -5   3  326.77    9.70
   7  -5   3  289.57   10.50
   7  -5   3  305.67   10.50
   7  -5   3  302.17   10.60
   7  -5   3  310.07   10.00
   7  -5   3  298.87   11.00
  -8   5  -3    0.50    1.00
  -8   5  -3    1.20    1.10
   8  -5   3    1.60    1.10
   8  -5   3    0.90    0.90
   8  -5   3   -0.30    0.80
   8  -5   3    1.00    0.80
  -9   5  -3  533.85   13.70
  -9   5  -3  518.25   13.20
  -9   5  -3  501.45   13.40
   9  -5   3  506.35   13.30
   9  -5   3  537.05   13.50
   9  -5   3  529.05   13.70
   7   4  -3   44.20    2.80
   7   4  -3   41.40    3.10
   7   4  -3   44.50    3.50
   7   4  -3   44.00    2.70
   7   4  -3   52.59    3.00
   7   4  -3   46.90    2.70
   7   4  -3   42.30    3.90
   7   4  -3   38.60    3.80
  -7  -4   3   50.59    3.40
   6   4  -3   99.99    5.00
   6   4  -3  109.49    5.80
   6   4  -3   99.09    5.20
   6   4  -3   97.09    5.20
   6   4  -3   97.19    5.00
   6   4  -3  104.69    5.10
   6   4  -3   99.89    5.70
   6   4  -3   94.89    6.00
   6   4  -3   97.29    5.10
   6   4  -3  101.49    6.00
   5   4  -3  373.76   12.70
   5   4  -3  394.66   13.50
   5   4  -3  398.46   12.50
   5   4  -3  394.96   12.70
   5   4  -3  407.96   12.30
   5   4  -3  401.56   14.00
   5   4  -3  406.06   12.40
   5   4  -3  394.06   12.50
   5   4  -3  381.66   13.10
   5   4  -3  415.56   14.30
   4   4  -3   70.79    5.90
   4   4  -3   72.49    5.50
   4   4  -3   63.09    3.90
   4   4  -3   59.59    3.80
   4   4  -3   66.69    5.90
   4   4  -3   71.89    5.30
   4   4  -3   67.89    4.20
   4   4  -3   72.29    5.60
   4   4  -3   65.69    5.70
   4   4  -3   57.99    3.90
   4   4  -3   59.59    4.80
  -4  -4   3   67.09    5.60
   3   4  -3 1138.99   29.00
   3   4  -3 1060.19   29.00
   3   4  -3 1037.20   28.50
  -3  -4   3 1089.79   27.40
  -3  -4   3 1049.00   27.70
  -3  -4   3 1010.50   26.40
  -3  -4   3 1037.00   27.90
   2   4  -3  130.69    6.20
   2   4  -3  122.89    6.30
   2   4  -3  124.99    6.50
   2   4  -3  118.49    6.20
  -2  -4   3  122.09    6.00
  -2  -4   3  114.99    5.80
  -2  -4   3  124.69    5.50
  -2  -4   3  127.19    5.80
   1   4  -3  233.38    8.20
   1   4  -3  233.88    7.00
   1   4  -3  225.48    8.20
   1   4  -3  248.88    8.90
   1   4  -3  228.98    8.30
  -1  -4   3  225.98    7.90
  -1  -4   3  224.18    7.90
  -1  -4   3  243.48    7.90
  -1  -4   3  226.28    7.50
   0   4  -3 4342.27   93.39
   0   4  -3 4447.16   92.59
   0   4  -3 4293.27   94.19
   0   4  -3 4538.05   93.89
   0   4  -3 4384.26   91.59
   0  -4   3 4588.14   93.09
   0  -4   3 4455.05   93.19
   0  -4   3 4401.86   93.29
   0  -4   3 4317.57   93.19
   0  -4   3 4337.17   93.19
  -1   4  -3  912.41   20.70
  -1   4  -3  904.01   20.40
  -1   4  -3  897.71   19.40
  -1   4  -3  892.41   21.60
  -1   4  -3  905.11   20.90
  -1   4  -3  867.31   21.50
   1  -4   3  889.41   20.70
   1  -4   3  917.31   20.90
   1  -4   3  865.31   21.30
   1  -4   3  895.71   21.10
  -2   4  -3  201.78    5.50
  -2   4  -3  195.58    5.70
  -2   4  -3  199.28    5.70
  -2   4  -3  206.48    5.30
  -2   4  -3  206.48    6.40
  -2   4  -3  213.08    6.60
  -2   4  -3  208.28    6.90
   2  -4   3  203.98    6.80
   2  -4   3  214.18    6.70
   2  -4   3  213.88    6.60
   2  -4   3  215.78    6.30
   2  -4   3  200.98    6.80
  -3   4  -3 5779.82  121.59
  -3   4  -3 5885.41  121.19
  -3   4  -3 5920.71  121.89
  -3   4  -3 6075.29  122.69
  -3   4  -3 5722.43  122.39
  -3   4  -3 5528.65  121.89
   3  -4   3 5876.41  122.39
   3  -4   3 5844.22  123.09
   3  -4   3 5850.31  122.99
   3  -4   3 5925.21  123.49
   3  -4   3 6080.49  123.09
  -4   4  -3  425.66   11.90
  -4   4  -3  408.86   11.30
  -4   4  -3  425.56   11.30
   4  -4   3  416.06   12.60
   4  -4   3  404.06   12.50
   4  -4   3  426.56   12.20
   4  -4   3  422.96   12.70
  -5   4  -3 1598.84   37.00
  -5   4  -3 1603.14   37.00
  -5   4  -3 1613.24   37.60
   5  -4   3 1650.03   38.90
   5  -4   3 1643.74   38.90
   5  -4   3 1614.04   39.20
  -6   4  -3  521.85   14.30
   6  -4   3  513.45   15.00
   6  -4   3  502.05   15.10
   6  -4   3  514.35   13.70
   6  -4   3  533.45   14.20
   6  -4   3  514.05   14.90
   6  -4   3  498.65   15.40
   6  -4   3  517.45   14.00
  -7   4  -3  472.65   14.40
   7  -4   3  495.15   14.00
   7  -4   3  490.25   14.70
   7  -4   3  490.35   13.70
   7  -4   3  491.85   14.90
   7  -4   3  477.45   15.30
   7  -4   3  485.65   13.60
   7  -4   3  497.65   15.10
  -8   4  -3   71.89    4.30
  -8   4  -3   72.29    4.40
   8  -4   3   64.79    4.90
   8  -4   3   75.59    4.00
   8  -4   3   72.79    4.60
   8  -4   3   75.79    4.10
   8  -4   3   75.39    3.90
   8  -4   3   60.19    4.80
  -9   4  -3   22.80    2.30
  -9   4  -3   19.50    2.10
   9  -4   3   22.50    2.30
   9  -4   3   23.70    2.30
   9  -4   3   22.90    2.30
   8   3  -3   65.39    3.30
   8   3  -3   61.29    3.30
   8   3  -3   59.79    3.20
   8   3  -3   66.89    3.10
  -8  -3   3   64.19    3.30
   7   3  -3  346.87   10.70
   7   3  -3  358.16   11.50
   7   3  -3  332.37   10.60
   7   3  -3  345.17   11.00
   7   3  -3  340.47   10.30
   7   3  -3  354.36   10.40
   7   3  -3  366.96   12.30
   7   3  -3  384.46   10.90
   7   3  -3  378.96   12.20
  -7  -3   3  337.07   11.20
   6   3  -3    1.70    1.50
   6   3  -3    5.20    1.80
   6   3  -3    3.90    1.90
   6   3  -3    3.50    1.70
   6   3  -3    2.80    1.40
   6   3  -3    2.60    1.20
   6   3  -3    3.00    1.40
   6   3  -3    4.00    1.60
   6   3  -3    2.10    1.10
   6   3  -3    2.10    1.10
  -6  -3   3    4.90    1.80
   5   3  -3   15.80    2.50
   5   3  -3   14.00    2.90
   5   3  -3   13.60    2.60
   5   3  -3   13.10    2.60
   5   3  -3   20.20    2.70
   5   3  -3   15.50    2.40
   5   3  -3   13.20    2.60
   5   3  -3   13.50    2.40
   5   3  -3   18.00    2.40
   5   3  -3   10.40    2.50
   5   3  -3   13.90    2.60
   4   3  -3   46.00    5.20
   4   3  -3   48.00    5.00
   4   3  -3   44.10    5.10
   4   3  -3   49.40    5.50
  -4  -3   3   40.80    4.00
  -4  -3   3   50.59    4.40
  -4  -3   3   49.99    4.00
   3   3  -3  779.12   21.70
   3   3  -3  791.22   21.20
   3   3  -3  798.22   21.60
   3   3  -3  788.12   21.80
  -3  -3   3  776.62   21.40
  -3  -3   3  759.62   20.10
  -3  -3   3  786.62   20.60
   2   3  -3  118.79    5.10
   2   3  -3  116.59    5.60
   2   3  -3  121.69    5.60
   2   3  -3  116.99    5.50
  -2  -3   3  117.29    4.90
  -2  -3   3  117.39    5.30
  -2  -3   3  116.49    5.40
  -2  -3   3  120.99    5.20
   1   3  -3  262.77    8.20
   1   3  -3  259.67    8.40
   1   3  -3  266.07    8.30
   1   3  -3  261.47    7.10
   1   3  -3  270.47    8.30
  -1  -3   3  247.18    8.10
  -1  -3   3  267.87    8.00
  -1  -3   3  263.97    8.00
  -1  -3   3  262.17    7.70
   0   3  -3  826.32   19.50
   0   3  -3  825.32   18.70
   0   3  -3  824.62   18.10
   0   3  -3  813.12   19.10
   0   3  -3  804.02   19.50
   0  -3   3  843.62   19.00
   0  -3   3  810.12   19.20
   0  -3   3  806.92   19.40
   0  -3   3  818.92   19.00
   0  -3   3  824.92   19.00
  -1   3  -3 1876.21   41.70
  -1   3  -3 1923.31   41.50
  -1   3  -3 1939.11   41.10
  -1   3  -3 1957.20   40.50
  -1   3  -3 1934.41   41.30
   1  -3   3 1877.81   40.90
   1  -3   3 1873.51   41.90
   1  -3   3 1905.21   42.30
   1  -3   3 2039.10   41.60
   1  -3   3 1948.61   41.40
  -2   3  -3   25.90    1.70
  -2   3  -3   22.70    1.50
  -2   3  -3   24.20    1.70
  -2   3  -3   24.70    1.50
  -2   3  -3   26.00    1.70
  -2   3  -3   21.80    1.60
  -2   3  -3   26.00    1.40
   2  -3   3   23.60    2.30
   2  -3   3   23.30    2.00
   2  -3   3   30.00    1.90
   2  -3   3   19.20    1.80
   2  -3   3   28.10    1.70
  -3   3  -3 1337.47   29.50
  -3   3  -3 1375.16   30.00
  -3   3  -3 1383.76   30.10
  -3   3  -3 1317.27   29.60
  -3   3  -3 1348.37   29.70
  -3   3  -3 1312.57   29.20
   3  -3   3 1379.06   30.70
   3  -3   3 1331.97   30.10
   3  -3   3 1334.07   30.60
   3  -3   3 1354.56   31.10
   3  -3   3 1281.07   30.90
  -4   3  -3 4798.92   98.19
  -4   3  -3 4619.44   98.29
  -4   3  -3 4635.14   99.69
  -4   3  -3 4509.05   98.29
   4  -3   3 4765.22   99.89
   4  -3   3 4728.63   99.59
   4  -3   3 4712.13   99.89
   4  -3   3 4586.64   99.79
  -5   3  -3   81.79    4.10
  -5   3  -3   81.39    4.20
  -5   3  -3   78.09    4.20
  -5   3  -3   82.59    4.90
   5  -3   3   82.79    5.30
   5  -3   3   85.39    5.00
   5  -3   3   83.89    5.30
   5  -3   3   88.19    5.20
   6  -3   3  272.17    9.00
   6  -3   3  278.57    9.70
   6  -3   3  282.67    9.00
   6  -3   3  267.27    9.70
   6  -3   3  279.97    8.70
   6  -3   3  283.37   10.00
   6  -3   3  273.27    9.00
   6  -3   3  287.77    9.20
   6  -3   3  272.37    9.40
   6  -3   3  277.67    9.90
   6  -3   3  284.37   10.40
  -7   3  -3  224.98    8.30
   7  -3   3  224.68    7.80
   7  -3   3  221.58    9.10
   7  -3   3  222.98    8.10
   7  -3   3  219.88    7.90
   7  -3   3  214.38    8.50
   7  -3   3  214.38    7.70
   7  -3   3  222.08    7.90
   7  -3   3  213.78    8.80
   7  -3   3  210.68    8.80
   7  -3   3  212.98    7.90
  -8   3  -3  272.77    9.40
   8  -3   3  275.07    9.90
   8  -3   3  274.57    9.10
   8  -3   3  274.57    8.60
   8  -3   3  283.47   10.00
   8  -3   3  276.17    9.00
   8  -3   3  278.57    8.80
   8  -3   3  286.77    9.90
  -9   3  -3   85.19    3.70
  -9   3  -3   81.49    3.70
   9  -3   3   82.79    3.50
   9  -3   3   77.69    3.70
   9  -3   3   81.69    3.70
   9  -3   3   81.09    3.80
   8   2  -3    6.20    1.50
   8   2  -3    5.20    1.20
   8   2  -3    4.40    1.50
   8   2  -3    4.80    1.10
   8   2  -3    4.90    1.50
   8   2  -3    7.50    1.30
  -8  -2   3    4.30    1.40
  -8  -2   3    6.30    1.50
   7   2  -3    1.00    0.90
   7   2  -3    0.70    1.10
   7   2  -3    1.20    1.30
   7   2  -3    2.30    1.40
   7   2  -3    1.60    1.00
   7   2  -3    0.00    1.00
   7   2  -3    1.00    0.90
   7   2  -3    1.30    1.00
  -7  -2   3    0.60    1.30
   6   2  -3  416.16   12.90
   6   2  -3  425.76   13.50
   6   2  -3  433.56   14.70
   6   2  -3  416.16   13.40
   6   2  -3  432.96   12.70
   6   2  -3  433.76   12.80
   6   2  -3  446.26   13.50
   6   2  -3  452.15   15.10
   6   2  -3  442.66   13.90
   6   2  -3  432.06   14.10
   6   2  -3  444.66   13.60
   5   2  -3    8.00    2.50
   5   2  -3    3.60    1.20
   5   2  -3    3.60    1.70
   5   2  -3    2.40    1.30
   5   2  -3    3.40    1.70
   5   2  -3    3.80    1.30
   5   2  -3    5.10    1.90
  -5  -2   3    3.50    1.80
  -5  -2   3    3.00    1.50
  -5  -2   3    4.70    1.70
   4   2  -3  838.42   23.20
   4   2  -3  813.92   22.40
   4   2  -3  819.22   22.70
   4   2  -3  809.82   22.10
  -4  -2   3  844.42   22.90
  -4  -2   3  792.82   20.50
  -4  -2   3  786.92   21.30
  -4  -2   3  784.72   20.90
   3   2  -3   32.50    3.40
   3   2  -3   26.20    2.20
   3   2  -3   23.20    2.80
   3   2  -3   24.80    2.90
   3   2  -3   29.10    3.40
  -3  -2   3   32.80    3.40
  -3  -2   3   26.10    2.40
  -3  -2   3   27.50    2.80
  -3  -2   3   24.30    2.50
   2   2  -3  387.56   10.80
   2   2  -3  383.56   10.50
   2   2  -3  369.86   10.90
   2   2  -3  367.36   10.20
   2   2  -3  386.26   10.90
  -2  -2   3  380.96   10.40
  -2  -2   3  368.46   10.10
  -2  -2   3  379.16    9.70
  -2  -2   3  377.06   11.00
   1   2  -3   63.99    3.00
   1   2  -3   66.39    3.00
   1   2  -3   67.39    3.00
   1   2  -3   78.89    3.30
   1   2  -3   67.09    2.50
  -1  -2   3   62.99    2.70
  -1  -2   3   63.09    3.20
  -1  -2   3   68.59    3.00
  -1  -2   3   68.29    2.60
  -1  -2   3   65.19    2.90
   0   2  -3  403.96   10.00
   0   2  -3  406.16   10.10
   0   2  -3  391.86    9.60
   0   2  -3  413.66    9.70
   0   2  -3  405.06    9.50
   0  -2   3  409.26    9.70
   0  -2   3  397.16   10.50
  -1   2  -3   91.29    3.20
  -1   2  -3   95.69    3.20
  -1   2  -3   95.49    3.00
  -1   2  -3   94.99    3.30
   1  -2   3   91.49    3.30
   1  -2   3   95.09    3.30
   1  -2   3   93.69    4.00
   1  -2   3   93.19    3.20
   1  -2   3   91.09    3.60
  -2   2  -3 6003.80  124.79
  -2   2  -3 6114.09  125.19
  -2   2  -3 6073.79  124.49
   2  -2   3 5920.11  126.19
  -3   2  -3  861.71   20.30
  -3   2  -3  861.81   19.20
  -3   2  -3  840.82   19.80
  -3   2  -3  887.41   19.60
  -3   2  -3  861.31   19.90
  -3   2  -3  828.22   19.40
   3  -2   3  829.32   20.90
   3  -2   3  864.31   21.40
   3  -2   3  897.71   20.90
   3  -2   3  857.71   20.40
   3  -2   3  867.31   20.80
  -4   2  -3 2400.46   55.69
  -4   2  -3 2567.64   53.79
  -4   2  -3 2571.34   54.79
  -4   2  -3 2351.06   53.69
  -4   2  -3 2497.35   54.09
   4  -2   3 2554.04   55.79
   4  -2   3 2477.05   55.79
   4  -2   3 2579.14   55.79
   4  -2   3 2503.25   56.09
  -5   2  -3  864.41   22.00
  -5   2  -3  905.51   21.60
  -5   2  -3  876.51   23.50
   5  -2   3  899.51   23.90
   5  -2   3  923.71   24.70
   5  -2   3  859.71   23.30
   5  -2   3  886.21   24.60
   6  -2   3   61.69    4.00
   6  -2   3   65.79    3.90
   6  -2   3   60.39    5.10
   6  -2   3   63.99    3.80
   6  -2   3   57.99    5.20
   6  -2   3   66.69    3.60
   6  -2   3   71.79    5.60
   6  -2   3   69.29    3.70
   6  -2   3   68.69    5.50
   6  -2   3   70.19    4.00
   6  -2   3   60.49    3.60
   7  -2   3  396.46   11.90
   7  -2   3  397.66   12.00
   7  -2   3  379.56   11.70
   7  -2   3  397.06   12.00
   7  -2   3  405.76   11.70
   7  -2   3  388.46   13.30
   7  -2   3  406.46   11.80
   7  -2   3  409.56   13.30
   7  -2   3  400.26   13.30
   7  -2   3  381.16   12.60
  -8   2  -3   69.49    4.00
   8  -2   3   73.09    3.80
   8  -2   3   85.79    4.80
   8  -2   3   75.09    3.90
   8  -2   3   68.19    3.50
   8  -2   3   76.19    4.10
   8  -2   3   73.79    4.50
   8  -2   3   72.69    3.70
   8  -2   3   70.19    4.00
   8  -2   3   72.19    4.60
  -9   2  -3   29.80    2.30
   9  -2   3   28.10    2.30
   9  -2   3   27.80    2.30
   8   1  -3 1425.26   33.50
   8   1  -3 1422.26   34.30
   8   1  -3 1367.46   32.10
   8   1  -3 1377.36   32.50
   8   1  -3 1448.06   34.00
   8   1  -3 1512.55   33.20
  -8  -1   3 1332.17   32.50
  -8  -1   3 1453.45   33.90
   7   1  -3    1.70    1.30
   7   1  -3    5.60    2.00
   7   1  -3    0.30    1.20
   7   1  -3    0.30    1.20
   7   1  -3    0.50    1.00
   7   1  -3    2.10    1.10
   7   1  -3    3.10    1.40
  -7  -1   3    3.00    1.50
   6   1  -3   28.70    3.30
   6   1  -3   24.50    3.50
   6   1  -3   25.80    3.40
   6   1  -3   25.90    3.00
   6   1  -3   30.80    3.20
   6   1  -3   21.40    3.10
   6   1  -3   27.20    3.60
   6   1  -3   26.80    3.00
  -6  -1   3   27.10    3.20
   5   1  -3   33.10    4.30
   5   1  -3   32.10    4.50
   5   1  -3   30.60    4.10
  -5  -1   3   34.10    3.50
  -5  -1   3   29.60    3.50
  -5  -1   3   29.20    4.00
  -5  -1   3   31.60    3.50
   4   1  -3    3.50    1.20
   4   1  -3    2.50    1.20
   4   1  -3    2.50    1.10
   4   1  -3    3.50    1.30
  -4  -1   3    4.30    1.30
  -4  -1   3    3.20    1.10
  -4  -1   3    3.70    1.20
  -4  -1   3    5.50    1.60
   3   1  -3  104.49    4.70
   3   1  -3  109.89    4.20
   3   1  -3  114.49    4.90
   3   1  -3  102.79    4.90
   3   1  -3  106.39    4.70
  -3  -1   3  102.09    4.30
  -3  -1   3  101.99    4.20
  -3  -1   3  115.99    5.20
  -3  -1   3  103.29    4.40
   2   1  -3   44.30    2.40
   2   1  -3   47.60    2.60
   2   1  -3   50.29    2.60
   2   1  -3   47.60    2.60
  -2  -1   3   46.90    2.30
  -2  -1   3   45.80    2.30
  -2  -1   3   44.80    2.80
  -2  -1   3   53.29    2.50
   1   1  -3  485.85   11.00
   1   1  -3  482.25   11.40
   1   1  -3  475.95   11.20
   1   1  -3  480.55   11.40
   1   1  -3  481.35   11.20
  -1  -1   3  472.95   11.40
  -1  -1   3  472.45   11.30
  -1  -1   3  476.25   11.00
  -1  -1   3  487.65   11.00
   0   1  -3  528.35   12.20
   0   1  -3  529.55   11.80
   0   1  -3  541.95   12.10
   0   1  -3  542.25   12.20
   0  -1   3  514.45   12.30
   0  -1   3  523.15   13.00
   0  -1   3  523.35   12.40
  -1   1  -3 1166.88   25.10
  -1   1  -3 1186.18   25.30
  -1   1  -3 1150.58   24.90
  -1   1  -3 1181.28   25.50
   1  -1   3 1174.08   25.30
   1  -1   3 1162.88   26.60
   1  -1   3 1132.29   25.00
   1  -1   3 1176.58   25.90
   1  -1   3 1175.18   25.70
  -2   1  -3  839.42   18.80
  -2   1  -3  824.12   19.30
  -2   1  -3  862.81   19.90
  -2   1  -3  867.61   19.60
  -2   1  -3  875.21   19.20
  -2   1  -3  854.71   19.20
   2  -1   3  874.21   19.80
   2  -1   3  843.52   20.70
   2  -1   3  843.72   19.40
   2  -1   3  859.81   19.70
   2  -1   3  852.91   20.20
  -3   1  -3 6440.56  135.59
  -3   1  -3 6570.64  135.89
  -3   1  -3 6742.63  136.49
  -3   1  -3 6605.24  135.49
  -3   1  -3 6592.94  135.49
   3  -1   3 6409.16  137.09
   3  -1   3 6661.63  137.09
   3  -1   3 6535.25  137.59
   3  -1   3 6318.27  136.79
   3  -1   3 6576.94  137.39
  -4   1  -3  391.36   10.80
  -4   1  -3  382.96   10.30
  -4   1  -3  376.16   10.30
  -4   1  -3  377.66   12.10
  -4   1  -3  406.96   11.40
   4  -1   3  390.36   12.60
   4  -1   3  373.46   12.40
   4  -1   3  388.66   12.10
   4  -1   3  393.16   12.20
  -5   1  -3  734.83   21.00
  -5   1  -3  762.32   18.70
  -5   1  -3  761.32   19.40
   5  -1   3  756.82   22.20
   5  -1   3  730.63   21.90
   5  -1   3  776.42   21.30
   6  -1   3  378.16   10.90
   6  -1   3  372.26   10.90
   6  -1   3  388.76   12.40
   6  -1   3  373.36   11.90
   6  -1   3  397.56   12.90
   6  -1   3  378.26   11.50
   6  -1   3  366.96   12.50
   6  -1   3  382.96   11.50
   6  -1   3  367.96   12.90
   6  -1   3  377.36   11.50
   7  -1   3  145.69    6.20
   7  -1   3  133.39    6.00
   7  -1   3  134.79    7.00
   7  -1   3  133.69    5.80
   7  -1   3  134.69    6.00
   7  -1   3  142.19    5.80
   7  -1   3  124.79    6.70
   7  -1   3  137.39    6.50
   7  -1   3  149.69    7.10
   7  -1   3  138.09    5.70
   8  -1   3  245.88    7.80
   8  -1   3  234.48    8.10
   8  -1   3  249.88    8.80
   8  -1   3  249.18    8.00
   8  -1   3  265.57    8.40
   8  -1   3  243.28    8.80
   8  -1   3  233.08    7.60
   8  -1   3  235.58    7.50
   8  -1   3  250.97    8.90
   9   0  -3   24.30    2.30
   9   0  -3   23.60    2.50
  -9   0   3   23.40    2.20
  -9   0   3   22.10    2.40
  -9   0   3   22.50    2.20
   8   0  -3   18.50    2.60
   8   0  -3   18.30    2.80
   8   0  -3   14.30    2.50
   8   0  -3   18.20    2.90
   8   0  -3   19.60    2.20
   8   0  -3   22.00    2.70
  -8   0   3   17.90    2.80
  -8   0   3   15.00    2.40
   7   0  -3   88.59    5.20
   7   0  -3   90.89    4.50
   7   0  -3   92.69    5.80
   7   0  -3   88.69    5.00
   7   0  -3   91.59    5.70
   7   0  -3   91.79    5.30
  -7   0   3   86.29    5.10
   6   0  -3   66.49    5.20
   6   0  -3   58.99    3.90
   6   0  -3   71.59    5.80
   6   0  -3   61.39    4.00
   6   0  -3   60.89    3.70
   6   0  -3   64.39    5.50
   6   0  -3   72.89    5.70
  -6   0   3   58.19    4.60
   5   0  -3 1331.67   34.40
   5   0  -3 1465.65   35.50
   5   0  -3 1386.86   34.50
  -5   0   3 1427.16   33.50
  -5   0   3 1371.36   33.30
  -5   0   3 1404.66   35.30
   4   0  -3    1.40    1.00
   4   0  -3    0.40    0.70
   4   0  -3    0.80    0.70
   4   0  -3    1.00    0.70
  -4   0   3    1.80    0.80
  -4   0   3    1.10    0.70
  -4   0   3    1.10    0.70
  -4   0   3    1.30    0.90
   3   0  -3  141.19    5.10
   3   0  -3  131.89    4.40
   3   0  -3  132.59    5.00
   3   0  -3  126.59    5.10
   3   0  -3  130.69    4.90
  -3   0   3  139.19    4.60
  -3   0   3  137.49    4.90
  -3   0   3  132.89    4.80
  -3   0   3  133.59    5.50
  -2   0   3 5334.37  112.09
  -2   0   3 5436.06  112.49
  -2   0   3 5477.25  112.49
  -2   0   3 5339.37  112.79
  -2   0   3 5602.24  112.49
   1   0  -3 3417.36   71.19
   1   0  -3 3488.45   71.69
  -1   0   3 3400.16   71.69
  -1   0   3 3362.16   71.79
  -1   0   3 3523.05   71.79
  -1   0   3 3479.85   72.39
  -1   0   3 3439.56   71.39
   0   0  -3 2212.28   46.30
   0   0  -3 2183.98   45.90
   0   0  -3 2232.58   46.30
   0   0   3 2182.48   45.80
   0   0   3 2273.37   46.40
   0   0   3 2192.48   47.20
   0   0   3 2229.18   46.70
   0   0   3 2168.98   46.70
   0   0   3 2203.18   46.50
  -1   0  -3  365.16    8.80
  -1   0  -3  365.26    8.70
  -1   0  -3  371.96    9.20
   1   0   3  374.66    9.30
   1   0   3  378.06    9.10
   1   0   3  367.56    9.10
   1   0   3  376.96    9.20
   1   0   3  380.96   10.20
   1   0   3  370.66    9.50
   1   0   3  372.56    9.60
  -2   0  -3 1732.53   37.30
  -2   0  -3 1773.62   37.70
  -2   0  -3 1745.33   38.10
  -2   0  -3 1718.93   37.40
  -2   0  -3 1768.72   37.30
   2   0   3 1704.43   38.40
   2   0   3 1774.22   38.60
   2   0   3 1698.93   38.90
   2   0   3 1731.33   37.60
   2   0   3 1765.62   38.30
   2   0   3 1731.73   38.30
  -3   0  -3  137.79    4.90
  -3   0  -3  139.69    5.20
  -3   0  -3  133.29    4.50
  -3   0  -3  135.99    5.70
  -3   0  -3  144.49    4.70
  -3   0  -3  138.79    4.50
   3   0   3  135.29    5.30
   3   0   3  161.68    6.30
   3   0   3  132.29    5.80
   3   0   3  136.99    5.70
   3   0   3  134.39    5.60
  -4   0  -3   75.49    3.70
  -4   0  -3   70.99    4.40
  -4   0  -3   70.39    3.20
   4   0   3   72.59    4.80
   4   0   3   72.79    4.90
   4   0   3   73.39    4.40
   4   0   3   72.19    4.50
  -5   0  -3  106.79    6.00
  -5   0  -3  106.49    5.10
  -5   0  -3  108.49    6.20
   5   0   3  112.49    6.30
   5   0   3  102.29    6.90
   5   0   3  104.69    6.70
   6   0   3  511.85   15.80
   6   0   3  498.75   15.30
   6   0   3  514.15   14.30
   6   0   3  492.45   13.50
   6   0   3  508.65   14.70
   6   0   3  508.15   14.30
   6   0   3  498.75   14.30
   6   0   3  486.35   15.80
   6   0   3  497.85   15.60
   7   0   3   19.00    2.50
   7   0   3   16.80    2.20
   7   0   3   22.20    3.20
   7   0   3   23.30    3.30
   7   0   3   19.40    2.40
   7   0   3   18.10    2.90
   7   0   3   19.80    2.50
   7   0   3   18.40    2.70
   7   0   3   18.00    2.40
  -8   0  -3  128.69    5.00
   8   0   3  126.89    5.60
   8   0   3  124.99    5.10
   8   0   3  130.99    5.10
   8   0   3  126.49    4.90
   8   0   3  125.19    5.50
   8   0   3  132.29    5.10
   8   0   3  128.09    5.60
   8   0   3  129.09    4.90
   9  -1  -3  441.76   12.90
   9  -1  -3  477.55   12.60
  -9   1   3  476.75   12.50
  -9   1   3  437.56   12.10
  -9   1   3  431.16   12.80
   8  -1  -3    0.60    1.10
   8  -1  -3   -1.00    0.90
   8  -1  -3    1.30    1.10
   8  -1  -3    0.40    0.90
   8  -1  -3   -0.10    1.00
  -8   1   3    0.40    1.10
  -8   1   3   -1.40    0.90
   7  -1  -3  365.06   12.40
   7  -1  -3  308.07   10.60
   7  -1  -3  340.37   11.60
   7  -1  -3  345.57   12.00
   7  -1  -3  302.17   11.00
   7  -1  -3  353.46   11.50
  -7   1   3  362.76   11.60
  -7   1   3  283.57   10.80
   6  -1  -3  151.38    6.70
   6  -1  -3  146.69    6.80
   6  -1  -3  147.69    6.50
   6  -1  -3  153.28    6.90
   6  -1  -3  157.68    6.30
  -6   1   3  149.29   10.30
  -6   1   3  161.68    8.20
   5  -1  -3  214.48    8.50
   5  -1  -3  216.18    8.80
   5  -1  -3  204.48    8.30
  -5   1   3  212.58    8.90
  -5   1   3  218.58    7.60
   4  -1  -3  441.96   12.50
   4  -1  -3  443.16   12.20
   4  -1  -3  449.26   11.80
   4  -1  -3  461.35   12.90
   4  -1  -3  455.75   12.70
  -4   1   3  458.85   12.00
  -4   1   3  445.06   13.30
  -4   1   3  440.96   12.00
  -4   1   3  461.75   12.60
   3  -1  -3   47.10    2.50
   3  -1  -3   49.40    2.70
   3  -1  -3   50.99    2.60
   3  -1  -3   49.80    2.50
   3  -1  -3   49.10    2.30
  -3   1   3   48.10    2.90
  -3   1   3   45.70    2.50
  -3   1   3   50.59    2.40
  -3   1   3   50.59    2.70
  -3   1   3   49.40    2.70
   2  -1  -3  710.73   15.90
   2  -1  -3  703.53   16.10
   2  -1  -3  709.13   16.10
   2  -1  -3  700.53   15.80
  -2   1   3  696.13   16.10
  -2   1   3  711.13   16.20
  -2   1   3  705.33   16.30
  -2   1   3  687.23   16.50
  -2   1   3  698.63   16.60
   1  -1  -3  341.17    8.10
   1  -1  -3  347.97    7.90
  -1   1   3  334.17    8.90
  -1   1   3  366.26    8.80
  -1   1   3  331.07    8.60
  -1   1   3  332.47    8.70
  -1   1   3  343.67    8.70
   0   1   3 1149.89   25.20
   0   1   3 1149.89   25.20
   0   1   3 1155.18   25.20
   0   1   3 1126.49   25.40
   0   1   3 1166.18   24.70
   0   1   3 1156.68   25.30
   0   1   3 1110.29   25.00
   0   1   3 1122.89   24.30
   0   1   3 1149.08   24.80
   0   1   3 1150.98   25.10
   1   1   3 1878.81   41.60
   1   1   3 1942.61   41.30
   1   1   3 1925.71   41.30
   1   1   3 1915.71   41.10
   1   1   3 1905.21   41.40
   1   1   3 1926.91   41.20
   1   1   3 1996.10   41.50
   1   1   3 1945.71   41.50
   1   1   3 1901.91   42.00
   1   1   3 1914.11   41.30
   1   1   3 1950.20   41.00
   1   1   3 1903.21   41.70
  -2  -1  -3 2552.24   53.89
  -2  -1  -3 2496.85   54.09
  -2  -1  -3 2500.95   54.49
  -2  -1  -3 2680.43   53.99
  -2  -1  -3 2413.86   53.69
   2   1   3 2613.74   55.19
   2   1   3 2594.94   55.59
   2   1   3 2503.85   55.59
   2   1   3 2556.04   55.09
   2   1   3 2637.14   55.89
   2   1   3 2541.15   54.69
   2   1   3 2498.85   55.09
  -3  -1  -3  470.05   11.70
  -3  -1  -3  473.45   11.50
  -3  -1  -3  466.15   12.50
  -3  -1  -3  476.85   13.60
  -3  -1  -3  455.55   12.00
   3   1   3  472.05   13.60
   3   1   3  478.75   13.50
   3   1   3  480.65   13.60
   3   1   3  470.25   14.30
   3   1   3  463.35   14.10
  -4  -1  -3 1106.29   27.20
  -4  -1  -3 1069.99   26.90
  -4  -1  -3 1051.89   24.90
   4   1   3 1045.30   28.50
   4   1   3 1022.60   27.00
   4   1   3 1050.09   28.20
   5   1   3  358.26   10.70
   5   1   3  363.26   11.80
   5   1   3  338.37   10.00
   5   1   3  352.46   12.20
   5   1   3  351.16   10.70
   5   1   3  341.27   12.00
   5   1   3  349.57   12.10
   5   1   3  345.77   11.10
   5   1   3  359.86   11.00
   5   1   3  349.96   11.80
   6   1   3  487.55   14.00
   6   1   3  473.25   14.40
   6   1   3  506.85   13.50
   6   1   3  495.25   15.60
   6   1   3  491.55   14.20
   6   1   3  494.95   15.00
   6   1   3  480.95   15.40
   6   1   3  492.95   14.20
   6   1   3  493.85   15.70
   7   1   3   23.70    3.10
   7   1   3   24.60    3.10
   7   1   3   21.50    2.50
   7   1   3   24.70    2.70
   7   1   3   26.10    2.80
   7   1   3   29.30    2.90
   7   1   3   23.20    2.80
   7   1   3   25.70    3.20
   8   1   3   14.30    1.70
   8   1   3   16.20    1.60
   8   1   3   13.70    1.70
   8   1   3   16.50    1.70
   8   1   3   12.70    1.70
   8   1   3   13.70    1.90
   8   1   3   17.20    2.10
   8   1   3   11.40    1.70
   9  -2  -3  137.89    6.20
   9  -2  -3  141.59    6.00
  -9   2   3  146.49    6.10
  -9   2   3  155.68    6.10
  -9   2   3  143.09    5.80
   8  -2  -3   53.89    3.60
   8  -2  -3   48.60    4.60
   8  -2  -3   49.00    4.50
   8  -2  -3   55.89    5.20
   8  -2  -3   58.29    4.60
  -8   2   3   55.49    5.00
  -8   2   3   49.10    4.60
  -8   2   3   54.19    4.80
   7  -2  -3  265.47    9.60
   7  -2  -3  271.17   10.30
   7  -2  -3  239.18    8.80
   7  -2  -3  267.77    9.90
   7  -2  -3  267.07   10.10
   7  -2  -3  271.57    9.60
  -7   2   3  265.47    9.70
  -7   2   3  264.47    9.90
   6  -2  -3  506.45   15.30
   6  -2  -3  580.44   17.60
   6  -2  -3  522.25   16.40
  -6   2   3  526.75   15.70
  -6   2   3  514.85   16.30
  -6   2   3  540.15   17.40
   5  -2  -3  884.81   23.30
   5  -2  -3  924.51   23.80
   5  -2  -3  881.51   23.00
  -5   2   3  897.41   23.10
  -5   2   3  924.61   24.00
  -5   2   3  930.01   22.80
   4  -2  -3  752.92   18.90
   4  -2  -3  748.73   18.50
   4  -2  -3  750.22   18.20
   4  -2  -3  756.22   18.60
  -4   2   3  761.52   18.90
  -4   2   3  734.23   19.20
  -4   2   3  750.42   18.90
  -4   2   3  758.42   18.70
   3  -2  -3 4642.44   96.49
   3  -2  -3 4585.84   96.39
   3  -2  -3 4727.83   96.79
   3  -2  -3 4660.83   96.19
   3  -2  -3 4570.04   96.39
  -3   2   3 4453.65   97.29
  -3   2   3 4548.45   96.79
  -3   2   3 4661.03   97.19
  -3   2   3 4686.43   97.09
  -3   2   3 4663.43   96.79
  -2   2   3 7248.88  152.88
  -2   2   3 7484.15  152.38
  -2   2   3 7396.56  152.18
  -2   2   3 7327.87  152.18
   1  -2  -3  326.47    8.40
   1  -2  -3  316.17    7.80
   1  -2  -3  332.27    8.40
  -1   2   3  335.27    9.00
  -1   2   3  325.07    9.10
  -1   2   3  330.47    9.00
  -1   2   3  310.87    8.30
  -1   2   3  328.97    8.60
   0   2   3  735.43   17.60
   0   2   3  745.23   17.10
   0   2   3  731.93   17.00
   0   2   3  745.13   17.50
   0   2   3  735.03   17.00
   0   2   3  747.53   16.50
   0   2   3  741.33   17.80
   0   2   3  727.63   17.80
   0   2   3  742.43   17.40
   1   2   3 3909.81   82.89
   1   2   3 3986.60   82.29
   1   2   3 3921.31   82.89
   1   2   3 3938.61   82.99
   1   2   3 3963.20   82.49
   1   2   3 3862.31   83.29
   1   2   3 3964.60   81.69
   1   2   3 3891.41   81.79
   1   2   3 3879.51   82.29
   1   2   3 3861.71   82.09
   1   2   3 3868.91   82.09
   1   2   3 3900.11   83.19
  -2  -2  -3    6.90    1.00
  -2  -2  -3    5.90    1.20
  -2  -2  -3    5.10    0.90
  -2  -2  -3    6.40    1.10
  -2  -2  -3    6.30    1.00
   2   2   3    4.70    1.20
   2   2   3    4.20    1.40
   2   2   3    4.60    1.20
   2   2   3    4.50    1.30
   2   2   3    4.40    1.30
  -3  -2  -3   36.00    3.50
  -3  -2  -3   42.10    2.20
  -3  -2  -3   37.90    2.30
  -3  -2  -3   37.80    2.50
  -3  -2  -3   42.20    3.10
   3   2   3   36.40    4.20
   3   2   3   34.40    3.80
   3   2   3   36.00    3.90
   3   2   3   42.90    4.10
  -4  -2  -3  260.07    9.80
  -4  -2  -3  266.97    9.90
  -4  -2  -3  246.58    8.10
   4   2   3  242.18    9.90
   4   2   3  263.97   11.00
   4   2   3  262.57   11.40
   5   2   3  469.35   14.90
   5   2   3  457.95   13.60
   5   2   3  452.15   15.10
   5   2   3  477.65   13.30
   5   2   3  471.35   13.60
   5   2   3  479.55   13.90
   5   2   3  479.75   14.90
   5   2   3  457.55   15.00
   5   2   3  488.15   14.60
   6   2   3   16.00    2.90
   6   2   3   15.00    2.70
   6   2   3   15.80    2.30
   6   2   3   16.20    2.40
   6   2   3   17.70    2.80
   6   2   3   16.40    2.80
   6   2   3   17.60    3.00
   6   2   3   18.90    2.50
   6   2   3   15.60    2.40
   7   2   3    0.10    0.60
   7   2   3    0.80    0.80
   7   2   3   -0.10    0.60
   7   2   3   -0.10    0.70
   7   2   3   -0.30    0.90
   7   2   3    0.40    0.80
   7   2   3    0.20    1.00
   7   2   3    2.00    1.00
   9  -3  -3   37.60    3.50
   9  -3  -3   35.70    3.40
  -9   3   3   39.90    3.60
  -9   3   3   33.50    3.30
  -9   3   3   36.30    3.40
   8  -3  -3 1291.27   32.50
   8  -3  -3 1299.47   32.00
   8  -3  -3 1328.87   31.50
  -8   3   3 1283.57   32.30
  -8   3   3 1302.77   32.30
  -8   3   3 1318.27   32.10
   7  -3  -3  193.98    7.90
   7  -3  -3  195.68    7.90
   7  -3  -3  212.18    8.30
   7  -3  -3  206.88    8.20
   7  -3  -3  199.38    8.30
  -7   3   3  194.38    8.50
  -7   3   3  202.28    8.50
  -7   3   3  193.58    8.10
   6  -3  -3  511.65   16.60
   6  -3  -3  496.65   14.50
   6  -3  -3  511.85   16.30
   6  -3  -3  500.95   15.70
  -6   3   3  539.15   15.60
  -6   3   3  514.15   15.60
  -6   3   3  502.65   15.00
  -6   3   3  510.45   16.00
   5  -3  -3 1366.66   33.00
   5  -3  -3 1443.56   33.90
   5  -3  -3 1406.76   33.40
  -5   3   3 1412.96   33.60
  -5   3   3 1325.47   33.60
  -5   3   3 1503.55   33.60
   4  -3  -3  517.15   13.40
   4  -3  -3  524.95   13.90
   4  -3  -3  518.25   13.70
   4  -3  -3  518.75   13.70
  -4   3   3  541.55   14.00
  -4   3   3  526.95   14.80
  -4   3   3  531.45   14.20
  -4   3   3  512.95   14.20
   3  -3  -3   25.50    2.00
   3  -3  -3   25.40    1.90
   3  -3  -3   25.10    1.90
   3  -3  -3   23.80    1.70
  -3   3   3   26.20    2.70
  -3   3   3   34.70    2.30
  -3   3   3   26.20    2.10
  -3   3   3   25.60    2.40
  -3   3   3   23.80    2.60
   2  -3  -3 2033.90   43.70
   2  -3  -3 2004.70   44.00
   2  -3  -3 2032.10   43.10
   2  -3  -3 2064.39   43.70
  -2   3   3 2048.30   44.90
  -2   3   3 2005.10   44.90
  -2   3   3 2044.90   44.10
  -2   3   3 2013.30   43.70
  -2   3   3 2000.20   44.80
   1  -3  -3  396.56   10.70
   1  -3  -3  399.16   10.30
   1  -3  -3  394.36   10.70
  -1   3   3  396.06   10.10
  -1   3   3  413.56   11.30
  -1   3   3  405.46   10.60
  -1   3   3  407.96   11.60
  -1   3   3  410.16   11.40
  -1   3   3  429.06   11.60
   0  -3  -3  486.85   13.30
   0  -3  -3  490.35   12.90
   0  -3  -3  495.55   12.00
   0   3   3  505.95   13.30
   0   3   3  491.65   13.00
   0   3   3  484.85   12.20
   0   3   3  507.35   13.90
   0   3   3  492.95   13.70
   0   3   3  500.85   13.30
  -1  -3  -3  225.18    6.70
  -1  -3  -3  208.98    6.90
  -1  -3  -3  215.58    6.70
   1   3   3  214.18    7.70
   1   3   3  206.18    7.00
   1   3   3  211.08    7.70
   1   3   3  216.98    8.00
   1   3   3  214.88    7.70
   1   3   3  214.08    8.00
   1   3   3  210.58    6.70
  -2  -3  -3  325.57   10.20
  -2  -3  -3  359.96   10.80
  -2  -3  -3  332.97   10.10
   2   3   3  356.06   11.50
   2   3   3  339.87   11.50
   2   3   3  344.47   11.50
   2   3   3  327.57   11.70
  -3  -3  -3  123.89    5.80
  -3  -3  -3  121.99    5.90
  -3  -3  -3  131.89    6.40
   3   3   3  120.09    6.70
   3   3   3  117.89    7.00
   3   3   3  111.99    6.50
   4   3   3   83.49    5.00
   4   3   3   77.89    4.30
   4   3   3   73.29    4.00
   4   3   3   89.49    7.70
   4   3   3   76.59    5.70
   4   3   3   84.49    7.60
   4   3   3   78.19    5.00
   4   3   3   73.99    4.10
   4   3   3   80.49    4.70
   4   3   3   78.89    6.30
   5   3   3 1805.72   42.20
   5   3   3 1835.12   43.40
   5   3   3 1891.81   44.20
   5   3   3 1842.82   42.50
   5   3   3 1899.41   45.00
   5   3   3 1896.31   44.40
   5   3   3 1875.61   44.40
   5   3   3 1861.41   42.80
   6   3   3   37.10    3.40
   6   3   3   37.30    3.40
   6   3   3   37.30    3.30
   6   3   3   32.60    3.70
   6   3   3   40.00    4.20
   6   3   3   41.80    4.10
   6   3   3   39.80    4.30
   6   3   3   35.20    3.60
   7   3   3   10.80    1.60
   7   3   3    9.50    1.70
   7   3   3    8.20    1.40
   7   3   3    8.70    1.70
   7   3   3    9.80    1.50
   7   3   3    7.90    1.50
   7   3   3    8.30    1.40
   7   3   3    8.00    1.50
   9  -4  -3   66.89    4.00
   9  -4  -3   63.09    3.90
  -9   4   3   64.09    4.00
  -9   4   3   72.59    4.30
   8  -4  -3  508.55   14.50
   8  -4  -3  493.55   15.00
   8  -4  -3  490.05   14.80
  -8   4   3  478.55   14.80
  -8   4   3  497.35   15.50
  -8   4   3  489.05   15.30
   7  -4  -3   81.79    4.70
   7  -4  -3   93.19    5.10
   7  -4  -3   77.89    4.70
   7  -4  -3   83.59    5.00
  -7   4   3   90.89    5.70
  -7   4   3   90.39    5.50
  -7   4   3   91.09    5.20
   6  -4  -3  139.89    6.10
   6  -4  -3  145.89    7.20
   6  -4  -3  142.49    6.00
   6  -4  -3  151.28    6.20
  -6   4   3  142.49    6.30
  -6   4   3  155.48    7.20
  -6   4   3  156.78    7.00
   5  -4  -3 1059.69   26.10
   5  -4  -3 1048.10   26.30
   5  -4  -3 1095.59   26.90
  -5   4   3 1107.19   27.90
  -5   4   3 1058.19   26.90
  -5   4   3 1085.99   26.90
   4  -4  -3   -0.10    0.50
   4  -4  -3    0.40    0.60
   4  -4  -3    1.00    0.70
   4  -4  -3    0.70    0.50
   4  -4  -3    4.40    1.10
  -4   4   3    0.80    0.80
  -4   4   3    0.60    0.90
  -4   4   3    1.20    0.80
  -4   4   3    0.40    0.90
   3  -4  -3  449.86   12.10
   3  -4  -3  462.45   12.00
   3  -4  -3  450.75   12.20
   3  -4  -3  441.46   11.60
  -3   4   3  473.05   13.60
  -3   4   3  471.75   13.50
  -3   4   3  451.15   12.10
  -3   4   3  447.66   12.50
  -3   4   3  425.66   12.80
   2  -4  -3  383.56   10.70
   2  -4  -3  374.56   10.20
   2  -4  -3  387.36   10.80
  -2   4   3  401.46   11.10
  -2   4   3  404.06   11.90
  -2   4   3  402.96   12.10
  -2   4   3  400.16   12.10
   1  -4  -3 1730.93   39.00
   1  -4  -3 1688.83   38.40
   1  -4  -3 1773.62   39.00
  -1   4   3 1781.12   40.10
  -1   4   3 1707.43   38.30
  -1   4   3 1722.23   39.90
  -1   4   3 1768.02   40.40
  -1   4   3 1707.23   39.40
   0  -4  -3   87.79    4.40
   0  -4  -3   92.39    3.80
   0  -4  -3   90.69    4.80
   0   4   3   88.19    4.60
   0   4   3   88.59    4.70
   0   4   3   89.29    5.00
   0   4   3   94.69    5.30
   0   4   3   90.09    4.40
  -1  -4  -3  206.98    6.90
  -1  -4  -3  211.88    7.30
  -1  -4  -3  203.58    8.00
   1   4   3  210.28    7.50
   1   4   3  213.38    8.40
   1   4   3  217.78    8.80
   1   4   3  209.18    8.40
   1   4   3  204.58    8.70
  -2  -4  -3 1157.98   27.60
  -2  -4  -3 1092.39   26.80
   2   4   3 1083.69   28.80
   2   4   3 1080.09   29.30
   2   4   3 1105.19   29.10
  -3  -4  -3  335.27   11.50
  -3  -4  -3  330.07   11.80
   3   4   3  314.47   13.20
   3   4   3  335.57   12.90
   4   4   3    5.80    1.80
   4   4   3    7.60    1.70
   4   4   3   13.70    2.60
   4   4   3    8.90    2.20
   4   4   3   10.00    2.00
   4   4   3    4.30    1.60
   4   4   3    6.70    1.60
   4   4   3    5.80    2.00
   5   4   3  140.69    7.20
   5   4   3  146.69    7.10
   5   4   3  143.19    6.80
   5   4   3  137.49    6.90
   5   4   3  145.89    6.20
   5   4   3  132.29    6.30
   5   4   3  140.69    5.90
   6   4   3   21.30    2.70
   6   4   3   19.50    2.80
   6   4   3   26.30    2.50
   6   4   3   19.00    2.60
   6   4   3   23.50    2.50
   6   4   3   21.00    2.70
   6   4   3   23.70    2.70
   6   4   3   29.40    2.80
   7   4   3  437.66   10.90
   7   4   3  433.36   10.70
   7   4   3  435.76   11.00
   7   4   3  430.06   11.10
   7   4   3  434.66   11.00
   7   4   3  427.16   10.60
   9  -5  -3  364.86   11.10
   9  -5  -3  381.86   11.10
  -9   5   3  351.86   11.30
  -9   5   3  373.36   11.60
  -9   5   3  352.66   10.80
   8  -5  -3  263.47    9.00
   8  -5  -3  267.27    9.50
   8  -5  -3  254.27    9.40
  -8   5   3  239.88   10.00
  -8   5   3  244.78    9.30
  -8   5   3  265.77   10.10
   7  -5  -3   23.60    3.00
   7  -5  -3   25.90    3.10
   7  -5  -3   27.20    3.20
  -7   5   3   21.40    3.30
  -7   5   3   25.30    3.80
  -7   5   3   24.50    3.20
   6  -5  -3  418.76   11.90
   6  -5  -3  399.76   12.00
   6  -5  -3  396.26   11.70
   6  -5  -3  385.86   11.70
  -6   5   3  397.46   13.10
  -6   5   3  398.36   12.40
  -6   5   3  407.16   13.10
  -6   5   3  414.56   13.80
   5  -5  -3  985.10   24.80
   5  -5  -3 1036.70   25.60
   5  -5  -3  991.10   24.80
  -5   5   3 1013.10   27.20
  -5   5   3  987.10   25.90
   4  -5  -3   28.60    2.90
   4  -5  -3   25.10    2.80
   4  -5  -3   22.70    2.50
   4  -5  -3   27.50    2.70
  -4   5   3   26.10    3.10
  -4   5   3   26.30    3.50
  -4   5   3   27.80    3.20
  -4   5   3   24.70    3.50
   3  -5  -3  569.04   15.10
   3  -5  -3  578.94   15.40
   3  -5  -3  605.54   15.70
   3  -5  -3  577.74   15.70
  -3   5   3  618.64   17.50
  -3   5   3  588.34   16.10
  -3   5   3  615.04   17.20
  -3   5   3  590.84   17.20
   2  -5  -3  376.16   10.80
   2  -5  -3  379.56   11.30
   2  -5  -3  381.06   11.20
  -2   5   3  381.66   11.20
  -2   5   3  386.66   12.30
  -2   5   3  376.06   12.50
  -2   5   3  386.96   12.80
  -2   5   3  390.46   12.40
   1  -5  -3 1952.10   43.30
   1  -5  -3 1894.01   43.30
   1  -5  -3 1950.70   44.00
   1  -5  -3 1966.90   44.10
  -1   5   3 1969.90   45.40
  -1   5   3 1912.21   45.60
  -1   5   3 1875.61   44.90
  -1   5   3 1906.01   44.30
   0  -5  -3    6.50    1.30
   0  -5  -3    6.50    1.60
   0  -5  -3    4.10    1.40
   0   5   3    3.10    1.40
   0   5   3    8.60    1.90
   0   5   3    5.70    1.70
   0   5   3    4.70    1.70
  -1  -5  -3 1801.52   42.40
  -1  -5  -3 1740.43   41.30
  -1  -5  -3 1712.43   39.60
   1   5   3 1710.13   42.00
   1   5   3 1704.03   42.70
   1   5   3 1685.93   41.70
  -2  -5  -3 1718.33   39.60
  -2  -5  -3 1675.73   41.40
   2   5   3 1617.04   41.50
   2   5   3 1665.13   42.30
   2   5   3 1638.44   42.30
   3   5   3   78.69    6.10
   3   5   3   71.89    6.10
   3   5   3   72.49    4.80
   3   5   3   77.19    4.20
   3   5   3   72.79    5.60
   3   5   3   76.79    6.20
   3   5   3   66.89    4.30
   3   5   3   79.19    5.80
   4   5   3 2585.24   57.99
   4   5   3 2654.13   60.29
   4   5   3 2679.83   59.39
   4   5   3 2494.25   57.49
   4   5   3 2693.13   59.89
   4   5   3 2648.54   59.59
   4   5   3 2633.94   60.19
   4   5   3 2615.24   58.69
   5   5   3   97.89    4.90
   5   5   3   90.89    5.30
   5   5   3   88.19    5.00
   5   5   3   94.59    5.00
   5   5   3   90.69    4.30
   5   5   3   88.39    4.40
   5   5   3   93.59    5.10
   6   5   3  105.19    4.20
   6   5   3  117.19    4.80
   6   5   3  106.99    4.60
   6   5   3  104.09    4.50
   6   5   3  103.99    4.40
   6   5   3  109.19    4.50
   6   5   3  107.69    4.10
   9  -6  -3  151.48    6.00
   9  -6  -3  160.18    6.00
  -9   6   3  149.79    6.60
  -9   6   3  153.18    6.50
  -9   6   3  145.69    5.70
   8  -6  -3  247.18    8.90
   8  -6  -3  258.87    8.70
   8  -6  -3  246.88    9.00
  -8   6   3  259.97   10.30
  -8   6   3  251.17    9.80
   7  -6  -3    0.60    0.90
   7  -6  -3   -0.50    0.70
   7  -6  -3    2.10    1.00
   7  -6  -3   -0.20    0.70
  -7   6   3    0.20    1.30
  -7   6   3    1.40    1.50
  -7   6   3    0.70    1.20
   6  -6  -3  381.56   11.40
   6  -6  -3  374.66   11.50
   6  -6  -3  406.16   11.90
  -6   6   3  376.06   12.80
  -6   6   3  405.36   13.80
  -6   6   3  386.46   13.30
   5  -6  -3  736.83   20.00
   5  -6  -3  781.42   19.00
  -5   6   3  771.82   21.40
  -5   6   3  804.22   23.50
  -5   6   3  734.43   21.00
  -5   6   3  737.93   21.40
  -5   6   3  786.92   19.20
   4  -6  -3   49.40    3.40
   4  -6  -3   47.60    3.60
   4  -6  -3   49.80    3.40
   4  -6  -3   31.10    3.30
  -4   6   3   50.89    4.20
  -4   6   3   54.49    4.80
  -4   6   3   59.39    5.90
  -4   6   3   45.90    5.00
   3  -6  -3    5.60    1.40
   3  -6  -3    4.60    1.40
   3  -6  -3    8.40    1.80
   3  -6  -3    6.80    1.50
  -3   6   3    7.40    1.80
  -3   6   3    4.20    1.60
  -3   6   3    8.60    2.30
  -3   6   3    7.20    2.10
   2  -6  -3 1820.12   41.40
   2  -6  -3 1768.82   41.70
   2  -6  -3 1823.22   42.00
  -2   6   3 1876.11   43.60
  -2   6   3 1855.11   44.40
  -2   6   3 1763.32   43.80
  -2   6   3 1783.72   43.40
   1  -6  -3  243.28    9.30
   1  -6  -3  232.78    8.70
   1  -6  -3  239.58    9.20
  -1   6   3  246.48   10.30
  -1   6   3  238.58    9.50
  -1   6   3  224.68    9.80
  -1   6   3  233.28   10.30
   0  -6  -3   66.99    5.00
   0  -6  -3   72.49    4.70
   0   6   3   81.19    5.30
   0   6   3   66.09    5.30
   0   6   3   73.59    5.50
  -1  -6  -3 1522.35   35.90
  -1  -6  -3 1560.94   38.90
  -1  -6  -3 1500.95   37.60
   1   6   3 1503.35   38.70
   1   6   3 1456.45   39.30
   1   6   3 1501.35   38.90
   2   6   3  973.00   24.50
   2   6   3  974.20   25.30
   2   6   3  999.00   26.20
   2   6   3  977.00   26.00
   2   6   3  978.70   25.70
   2   6   3  994.00   25.30
   2   6   3 1000.00   25.00
   2   6   3  940.21   25.00
   3   6   3   37.20    4.10
   3   6   3   31.20    3.90
   3   6   3   28.50    3.50
   3   6   3   31.80    3.80
   3   6   3   31.60    3.70
   3   6   3   37.90    3.70
   3   6   3   34.90    4.20
   4   6   3  817.72   20.60
   4   6   3  847.12   21.60
   4   6   3  817.22   21.80
   4   6   3  821.32   21.80
   4   6   3  828.42   21.10
   4   6   3  818.12   22.40
   4   6   3  830.02   22.40
   5   6   3  104.99    4.50
   5   6   3  106.59    4.70
   5   6   3  107.89    5.10
   5   6   3  109.09    4.90
   5   6   3  109.09    4.40
   5   6   3  109.19    4.90
   5   6   3  108.39    4.90
   9  -7  -3   30.20    2.70
   9  -7  -3   37.40    2.90
  -9   7   3   27.50    2.90
  -9   7   3   29.70    3.10
   8  -7  -3   73.39    3.90
   8  -7  -3   70.99    4.20
   8  -7  -3   75.79    4.10
  -8   7   3   64.39    5.20
  -8   7   3   63.19    5.10
  -8   7   3   82.49    5.40
   7  -7  -3   37.20    3.50
   7  -7  -3   40.80    3.70
   7  -7  -3   40.90    3.60
  -7   7   3   35.50    4.10
  -7   7   3   43.50    4.80
  -7   7   3   39.90    4.90
   6  -7  -3  418.46   12.80
   6  -7  -3  428.86   12.60
   6  -7  -3  455.55   12.50
  -6   7   3  458.15   12.70
  -6   7   3  466.85   15.00
  -6   7   3  443.96   14.50
  -6   7   3  450.65   15.40
   5  -7  -3    9.50    1.70
   5  -7  -3    8.90    1.70
  -5   7   3    5.70    1.90
  -5   7   3    6.60    2.20
  -5   7   3    6.90    2.10
  -5   7   3    7.50    1.60
  -5   7   3    7.30    2.10
  -5   7   3    7.10    1.60
   4  -7  -3  206.38    7.10
  -4   7   3  195.98    8.70
  -4   7   3  213.68    8.90
  -4   7   3  206.38    7.30
  -4   7   3  220.88    7.30
  -4   7   3  213.38   12.70
  -4   7   3  216.58    7.50
  -4   7   3  201.48    9.00
   3  -7  -3   15.70    2.50
   3  -7  -3   24.20    3.00
   3  -7  -3   19.80    2.70
   3  -7  -3   23.10    3.20
  -3   7   3   22.00    3.80
  -3   7   3   17.50    3.40
  -3   7   3   18.90    3.50
   2  -7  -3  106.89    5.50
   2  -7  -3  103.99    5.80
   2  -7  -3  104.79    5.70
  -2   7   3  106.49    6.60
  -2   7   3  102.89    6.90
  -2   7   3  108.19    6.60
  -2   7   3  105.19    7.00
   1  -7  -3  514.45   16.50
   1  -7  -3  496.45   16.10
   1  -7  -3  522.65   15.60
  -1   7   3  503.25   17.10
  -1   7   3  488.55   17.70
  -1   7   3  535.05   17.90
   0   7   3   88.99    5.30
   0   7   3   97.99    5.10
   0   7   3   90.59    5.20
   0   7   3   95.59    6.10
   0   7   3   91.49    4.80
   0   7   3   96.69    4.80
   0   7   3   94.69    5.70
   0   7   3  106.49    5.50
   0   7   3   85.59    5.20
   1   7   3  227.28    9.30
   1   7   3  242.98    9.70
   1   7   3  244.28    9.50
   1   7   3  240.48    8.90
   1   7   3  239.78    9.00
   1   7   3  227.18    9.00
   1   7   3  238.28    8.60
   1   7   3  223.48    9.80
   2   7   3   12.00    2.40
   2   7   3   13.60    2.50
   2   7   3   10.60    2.30
   2   7   3    5.60    1.90
   2   7   3    9.60    2.00
   2   7   3   11.30    2.10
   2   7   3   10.70    2.20
   2   7   3    7.90    2.00
   3   7   3  174.88    7.30
   3   7   3  187.18    8.00
   3   7   3  177.58    7.50
   3   7   3  182.98    7.10
   3   7   3  190.28    7.70
   3   7   3  181.28    8.00
   3   7   3  177.68    7.60
   4   7   3  168.78    6.50
   4   7   3  176.78    6.40
   4   7   3  170.28    6.60
   4   7   3  168.88    6.10
   4   7   3  176.18    7.00
   4   7   3  179.78    6.90
   5   7   3  252.67    7.10
   5   7   3  242.68    6.90
   5   7   3  246.08    6.80
   5   7   3  256.97    7.20
   5   7   3  255.87    7.20
   9  -8  -3  221.18    6.60
   9  -8  -3  222.68    6.60
  -9   8   3  236.78    7.70
  -9   8   3  183.98    7.30
   8  -8  -3   13.00    1.80
   8  -8  -3   13.60    2.00
   8  -8  -3   14.20    2.00
  -8   8   3   11.80    2.20
  -8   8   3   16.30    2.50
  -8   8   3   14.70    2.70
   7  -8  -3  149.79    6.20
   7  -8  -3  151.38    5.90
   7  -8  -3  149.79    6.10
  -7   8   3  151.88    6.90
  -7   8   3  145.29    7.30
  -7   8   3  155.58    7.80
   6  -8  -3    4.50    1.30
   6  -8  -3    8.30    1.60
   6  -8  -3    5.70    1.40
  -6   8   3    5.40    1.40
  -6   8   3    4.20    1.80
  -6   8   3    3.90    1.80
  -6   8   3    5.40    1.90
   5  -8  -3   30.90    3.00
   5  -8  -3   21.80    2.50
  -5   8   3   24.70    3.60
  -5   8   3   29.70    4.10
  -5   8   3   29.30    3.00
  -5   8   3   28.30    3.90
  -5   8   3   29.00    4.00
  -5   8   3   26.10    2.70
   4  -8  -3    4.70    1.20
  -4   8   3    3.70    1.30
  -4   8   3    5.40    1.50
  -4   8   3    5.50    1.50
  -4   8   3    5.20    1.80
  -4   8   3    5.50    2.20
  -4   8   3    3.20    1.10
  -4   8   3    4.90    1.80
  -4   8   3    6.50    2.10
  -4   8   3    4.20    1.60
  -3   8   3  754.92   21.90
  -3   8   3  756.82   19.80
  -3   8   3  781.92   19.80
  -3   8   3  784.72   22.60
  -3   8   3  768.32   21.60
  -3   8   3  775.32   22.00
  -3   8   3  763.32   19.90
  -3   8   3  771.32   19.30
  -3   8   3  785.62   20.10
  -3   8   3  751.02   21.50
  -3   8   3  750.52   19.60
  -2   8   3   24.70    3.60
  -2   8   3   21.50    3.40
  -2   8   3   22.70    3.60
  -2   8   3   34.80    3.40
  -2   8   3   33.00    3.60
  -2   8   3   22.10    2.90
  -2   8   3   33.80    4.60
  -2   8   3   27.60    3.30
  -2   8   3   25.60    3.10
  -2   8   3   29.20    3.10
  -1   8   3   25.50    2.90
  -1   8   3   19.50    2.90
  -1   8   3   24.80    3.80
  -1   8   3   19.70    2.90
  -1   8   3   27.80    4.20
  -1   8   3   23.30    3.30
  -1   8   3   22.00    2.90
  -1   8   3   21.10    3.00
  -1   8   3   26.10    3.80
   0   8   3  301.47   10.90
   0   8   3  301.37   10.30
   0   8   3  323.37   11.40
   0   8   3  337.27   11.30
   0   8   3  324.17   10.70
   0   8   3  308.07   10.30
   0   8   3  309.67   11.10
   0   8   3  309.67   11.70
   0   8   3  312.77   12.20
   1   8   3   23.40    3.20
   1   8   3   21.10    3.10
   1   8   3   21.90    3.40
   1   8   3   22.60    3.00
   1   8   3   19.30    2.90
   1   8   3   23.80    3.00
   1   8   3   18.30    2.60
   1   8   3   23.40    3.30
   2   8   3   15.50    2.50
   2   8   3   18.80    2.70
   2   8   3   14.40    2.50
   2   8   3   15.40    2.40
   2   8   3   15.90    2.60
   2   8   3   17.90    2.60
   2   8   3   15.30    2.30
   3   8   3   21.00    2.60
   3   8   3   21.40    2.20
   3   8   3   23.00    2.60
   3   8   3   19.50    2.40
   3   8   3   18.50    2.30
   3   8   3   21.00    2.40
   3   8   3   18.90    2.50
   4   8   3    4.00    0.90
   4   8   3    2.70    0.80
   4   8   3    3.10    0.90
   4   8   3    3.40    0.90
   4   8   3    3.00    0.80
   4   8   3    3.30    1.00
   8  -9  -3  106.39    4.40
   8  -9  -3  121.79    4.60
  -8   9   3  108.99    5.50
  -8   9   3  118.19    5.40
   7  -9  -3  546.15   14.00
   7  -9  -3  490.85   13.40
   7  -9  -3  517.75   13.90
  -7   9   3  491.15   14.80
  -7   9   3  545.65   15.80
  -7   9   3  514.15   16.00
   6  -9  -3    0.80    0.70
   6  -9  -3    1.00    0.80
   6  -9  -3    0.30    0.60
  -6   9   3    1.70    1.40
  -6   9   3    0.10    1.20
  -6   9   3    0.60    1.20
  -6   9   3    0.80    0.80
  -6   9   3    0.70    1.30
   5  -9  -3   14.30    2.10
   5  -9  -3   15.20    2.10
  -5   9   3   16.80    3.20
  -5   9   3   13.00    2.70
  -5   9   3   11.20    1.90
  -5   9   3   15.10    2.10
  -5   9   3   12.30    2.60
   4  -9  -3   16.70    2.10
  -4   9   3   14.90    2.50
  -4   9   3   14.10    2.10
  -4   9   3   16.70    2.80
  -4   9   3   14.60    3.00
  -4   9   3   11.10    1.90
  -4   9   3   12.90    2.80
  -4   9   3   14.60    2.80
  -4   9   3   13.00    2.00
  -4   9   3   12.00    2.60
  -4   9   3   15.90    2.20
  -3   9   3    2.40    1.10
  -3   9   3    3.80    1.60
  -3   9   3    3.10    1.50
  -3   9   3    1.50    0.90
  -3   9   3    2.60    1.20
  -3   9   3    2.60    1.50
  -3   9   3    3.20    1.20
  -3   9   3    3.90    1.20
  -3   9   3    3.40    1.30
  -3   9   3    3.80    1.60
  -2   9   3 1495.05   37.40
  -2   9   3 1484.35   35.30
  -2   9   3 1470.55   35.30
  -2   9   3 1508.35   37.70
  -2   9   3 1482.15   35.30
  -2   9   3 1478.05   34.50
  -2   9   3 1496.15   36.80
  -2   9   3 1490.15   34.90
  -2   9   3 1523.45   35.60
  -2   9   3 1478.15   37.40
  -1   9   3  101.69    6.30
  -1   9   3   99.59    5.50
  -1   9   3  102.39    5.40
  -1   9   3  103.49    6.20
  -1   9   3  100.09    6.10
  -1   9   3   97.99    5.10
  -1   9   3   96.19    5.40
  -1   9   3  108.39    5.50
  -1   9   3  103.69    4.90
   0   9   3 1112.09   28.40
   0   9   3 1089.79   29.10
   0   9   3 1081.49   27.80
   0   9   3 1119.29   27.80
   0   9   3 1118.39   27.70
   0   9   3 1111.39   27.20
   0   9   3 1076.39   26.50
   0   9   3 1131.69   27.70
   1   9   3  164.28    6.60
   1   9   3  148.09    6.00
   1   9   3  150.78    6.20
   1   9   3  153.38    6.60
   1   9   3  150.28    6.30
   1   9   3  150.48    6.60
   1   9   3  154.08    7.10
   1   9   3  161.58    7.00
   2   9   3    7.20    1.50
   2   9   3    7.00    1.40
   2   9   3    5.50    1.40
   2   9   3    7.70    1.50
   2   9   3    7.70    1.50
   2   9   3    6.50    1.30
   2   9   3    6.00    1.30
   3   9   3  303.17    8.40
   3   9   3  297.07    8.20
   3   9   3  303.17    8.00
   3   9   3  289.37    8.00
   3   9   3  302.77    8.00
   3   9   3  300.97    8.40
   7 -10  -3    2.10    0.80
   7 -10  -3    1.40    0.80
   7 -10  -3    2.50    0.90
  -7  10   3    0.30    1.00
  -7  10   3    0.60    1.10
  -7  10   3    1.60    1.10
   6 -10  -3  444.46   12.00
   6 -10  -3  459.45   12.00
   6 -10  -3  427.56   11.50
  -6  10   3  421.66   12.90
  -6  10   3  425.06   13.70
  -6  10   3  458.75   13.80
   5 -10  -3   56.49    3.30
   5 -10  -3   54.89    3.00
  -5  10   3   52.59    4.80
  -5  10   3   63.39    3.30
  -5  10   3   53.79    5.00
  -5  10   3   59.69    3.80
  -5  10   3   58.59    5.20
  -5  10   3   55.29    3.30
   4 -10  -3  573.64   14.90
  -4  10   3  567.04   15.20
  -4  10   3  556.84   17.40
  -4  10   3  609.74   15.40
  -4  10   3  588.24   17.70
  -4  10   3  593.34   14.80
  -4  10   3  579.44   15.40
  -4  10   3  584.14   16.30
  -4  10   3  551.24   16.70
  -4  10   3  571.24   15.20
  -3  10   3   37.90    4.10
  -3  10   3   35.80    4.00
  -3  10   3   35.80    3.10
  -3  10   3   30.90    4.00
  -3  10   3   38.70    4.30
  -3  10   3   34.80    3.20
  -3  10   3   40.30    3.40
  -3  10   3   36.40    3.20
  -3  10   3   33.70    3.20
  -2  10   3    4.80    1.80
  -2  10   3    3.40    1.10
  -2  10   3    2.00    1.40
  -2  10   3    4.20    1.30
  -2  10   3    4.30    1.20
  -2  10   3    5.60    1.50
  -2  10   3    3.90    1.30
  -2  10   3    4.00    1.60
  -2  10   3    1.80    1.00
  -1  10   3  211.08    8.80
  -1  10   3  219.68    7.90
  -1  10   3  218.88    8.70
  -1  10   3  222.08    7.90
  -1  10   3  205.68    7.20
  -1  10   3  228.48    7.90
  -1  10   3  217.28    8.00
  -1  10   3  223.28    7.70
   0  10   3  124.89    5.70
   0  10   3  127.69    5.40
   0  10   3  123.39    5.00
   0  10   3  126.59    5.40
   0  10   3  136.19    5.70
   0  10   3  124.79    5.40
   0  10   3  133.49    6.20
   0  10   3  125.29    5.20
   1  10   3  133.69    4.90
   1  10   3  144.39    5.20
   1  10   3  144.09    5.50
   1  10   3  138.79    4.90
   1  10   3  138.39    5.30
   1  10   3  141.69    5.10
   1  10   3  153.98    5.70
   1  10   3  144.79    5.40
   6 -11  -3   38.60    2.30
   6 -11  -3   41.10    2.20
   6 -11  -3   43.30    2.40
  -6  11   3   35.50    3.30
  -6  11   3   38.00    3.30
  -6  11   3   38.40    3.10
   5 -11  -3  162.88    5.40
   5 -11  -3  157.38    5.20
  -5  11   3  164.58    5.80
  -5  11   3  163.18    6.80
  -5  11   3  158.58    5.20
  -5  11   3  162.18    6.60
   4 -11  -3   58.29    2.90
  -4  11   3   54.59    3.30
  -4  11   3   57.49    3.60
  -4  11   3   55.59    4.60
  -4  11   3   56.99    3.00
  -4  11   3   58.99    3.10
  -4  11   3   52.39    4.40
   3 -11  -3  458.45   12.10
  -3  11   3  438.56   13.50
  -3  11   3  483.65   13.70
  -3  11   3  506.55   12.80
  -3  11   3  474.85   12.30
  -3  11   3  492.45   14.40
  -3  11   3  472.95   12.50
  -3  11   3  493.65   12.70
  -3  11   3  493.35   12.40
  -3  11   3  500.95   14.00
  -2  11   3  149.39    6.20
  -2  11   3  141.19    6.10
  -2  11   3  150.08    5.40
  -2  11   3  138.09    5.10
  -2  11   3  154.88    6.30
  -2  11   3  140.39    5.20
  -2  11   3  148.79    5.40
  -2  11   3  147.29    5.40
  -1  11   3  751.72   18.80
  -1  11   3  765.42   18.00
  -1  11   3  766.02   18.10
  -1  11   3  724.33   17.50
  -1  11   3  766.02   18.10
  -1  11   3  775.02   18.00
  -1  11   3  743.83   19.00
  -1  11   3  729.73   17.80
   0  11   3   35.90    2.10
   0  11   3   36.30    1.90
   0  11   3   36.20    2.20
   0  11   3   39.90    2.20
   0  11   3   36.60    2.40
   0  11   3   39.70    2.20
   0  11   3   37.00    2.10
   4 -12  -3   70.19    2.80
  -4  12   3   78.99    2.90
  -4  12   3   73.89    3.20
  -4  12   3   73.39    3.50
   3 -12  -3   14.10    1.30
  -3  12   3   14.80    1.70
  -3  12   3   14.50    1.40
  -3  12   3   14.90    1.50
  -3  12   3   13.70    1.60
  -1  12  -4   48.20    2.80
  -1  12  -4   34.60    2.80
   1 -12   4   43.10    2.00
   1 -12   4   49.10    2.30
  -2  12  -4   10.20    1.70
  -2  12  -4   13.40    1.70
  -2  12  -4   12.00    1.80
   2 -12   4   10.20    1.30
   2 -12   4   10.20    1.20
  -3  12  -4    2.70    1.10
  -3  12  -4    2.60    1.10
   3 -12   4    1.10    0.70
   3 -12   4    0.70    0.50
  -4  12  -4   27.70    2.80
  -4  12  -4   29.70    2.50
  -4  12  -4   28.00    2.40
   4 -12   4   28.40    2.20
   4 -12   4   27.30    2.00
  -5  12  -4  180.18    6.10
  -5  12  -4  194.88    6.30
   5 -12   4  182.58    5.40
   5 -12   4  190.98    5.70
   1  11  -4  255.57    6.70
   1  11  -4  235.48    8.10
   1  11  -4  254.37    7.00
   1  11  -4  246.28    7.30
  -1 -11   4  243.88    7.10
  -1 -11   4  248.98    7.00
   0  11  -4  127.29    5.00
   0  11  -4  113.19    5.40
   0  11  -4  118.69    5.80
   0  11  -4  124.39    4.40
   0 -11   4  122.59    4.60
   0 -11   4  122.29    4.80
  -1  11  -4  322.47   10.80
  -1  11  -4  345.07   11.60
  -1  11  -4  322.87    9.80
  -1  11  -4  332.17    9.40
  -1  11  -4  344.77   11.40
   1 -11   4  362.16   10.00
   1 -11   4  343.97    9.80
  -2  11  -4  188.58    8.10
  -2  11  -4  206.38    8.30
  -2  11  -4  202.78    8.20
   2 -11   4  208.28    7.00
   2 -11   4  192.88    6.70
   2 -11   4  197.98    6.40
  -3  11  -4  107.99    5.90
  -3  11  -4  109.89    5.70
  -3  11  -4  110.09    5.40
   3 -11   4  102.99    4.30
   3 -11   4  111.39    4.80
   3 -11   4  109.09    4.60
  -4  11  -4   95.09    4.90
  -4  11  -4  100.59    5.20
  -4  11  -4   95.69    5.50
   4 -11   4   97.19    4.50
   4 -11   4   97.39    4.10
  -5  11  -4  228.68    8.50
  -5  11  -4  229.78    8.40
   5 -11   4  233.98    7.50
   5 -11   4  230.78    7.10
  -6  11  -4   92.19    4.40
  -6  11  -4   87.09    4.20
   6 -11   4   94.29    3.90
   6 -11   4   90.39    3.70
   2  10  -4  112.09    4.80
   2  10  -4  113.69    4.10
   2  10  -4  107.59    4.40
   2  10  -4  109.49    5.30
   2  10  -4  112.69    4.50
   2  10  -4  108.79    4.80
  -2 -10   4  105.69    4.20
  -2 -10   4  107.29    4.40
   1  10  -4  187.18    6.50
   1  10  -4  201.98    7.50
   1  10  -4  212.28    7.40
   1  10  -4  199.98    7.80
   1  10  -4  206.48    7.70
   1  10  -4  203.98    6.70
   1  10  -4  206.18    8.70
  -1 -10   4  217.28    7.20
  -1 -10   4  188.58    6.70
   0  10  -4   11.10    1.80
   0  10  -4   13.20    1.90
   0  10  -4   10.40    2.20
   0  10  -4   10.40    2.00
   0  10  -4   12.50    2.20
   0  10  -4   11.90    2.00
   0  10  -4   10.80    2.50
   0 -10   4   11.90    1.90
  -1  10  -4   78.29    4.10
  -1  10  -4   79.29    6.80
  -1  10  -4   83.39    4.60
  -1  10  -4   82.79    5.40
  -1  10  -4   74.79    6.10
  -1  10  -4   79.59    3.90
   1 -10   4   70.89    4.10
  -2  10  -4 1593.34   34.80
  -2  10  -4 1521.75   37.90
  -2  10  -4 1541.55   38.10
  -2  10  -4 1490.25   37.80
  -2  10  -4 1494.75   35.00
   2 -10   4 1533.45   35.50
   2 -10   4 1581.04   35.80
  -3  10  -4  104.59    6.10
  -3  10  -4  107.79    6.10
  -3  10  -4  102.29    4.30
  -3  10  -4   90.79    5.30
   3 -10   4   95.49    4.50
   3 -10   4   95.89    4.80
   3 -10   4   98.09    4.70
  -4  10  -4   45.50    4.80
  -4  10  -4   52.29    4.80
  -4  10  -4   41.40    4.20
   4 -10   4   45.10    3.50
   4 -10   4   49.60    4.00
   4 -10   4   51.39    3.90
  -5  10  -4  606.44   17.90
  -5  10  -4  617.54   17.40
  -5  10  -4  650.23   17.80
   5 -10   4  610.34   15.90
   5 -10   4  617.74   16.60
  -6  10  -4   62.99    4.80
  -6  10  -4   55.89    4.50
   6 -10   4   63.79    3.70
   6 -10   4   55.39    3.20
  -7  10  -4  199.88    6.90
  -7  10  -4  200.28    7.20
   7 -10   4  194.98    6.40
   7 -10   4  221.28    6.90
   4   9  -4  209.48    7.00
   4   9  -4  224.88    6.70
   4   9  -4  217.98    6.50
  -4  -9   4  212.48    6.20
   3   9  -4   43.40    3.90
   3   9  -4   40.60    2.50
   3   9  -4   40.80    3.20
   3   9  -4   43.50    3.60
   3   9  -4   45.50    2.90
   3   9  -4   42.00    3.50
   3   9  -4   42.90    2.50
   3   9  -4   45.90    3.40
   3   9  -4   46.10    3.90
  -3  -9   4   42.80    2.80
   2   9  -4   42.40    3.30
   2   9  -4   35.50    3.70
   2   9  -4   41.20    4.20
   2   9  -4   38.90    3.50
   2   9  -4   41.30    3.90
   2   9  -4   41.80    3.60
   2   9  -4   36.20    4.10
   2   9  -4   38.00    3.30
   2   9  -4   37.60    3.60
  -2  -9   4   35.00    3.30
   1   9  -4    1.10    0.90
   1   9  -4    2.20    1.40
   1   9  -4    1.30    1.10
   1   9  -4    2.20    1.20
   1   9  -4    1.80    1.40
   1   9  -4    1.40    1.10
   1   9  -4    4.10    1.60
   1   9  -4    1.60    0.90
   1   9  -4    2.90    1.20
  -1  -9   4    2.70    1.10
   0   9  -4   25.90    3.40
   0   9  -4   20.00    3.60
   0   9  -4   25.20    3.40
   0   9  -4   22.00    2.60
   0   9  -4   23.20    3.00
   0   9  -4   22.70    2.70
   0   9  -4   21.10    3.40
   0  -9   4   25.90    3.00
  -1   9  -4    0.70    0.90
  -1   9  -4    1.00    1.30
  -1   9  -4    2.60    1.10
  -1   9  -4    1.20    1.20
  -1   9  -4    1.30    1.40
  -1   9  -4    1.90    1.10
  -1   9  -4    3.20    1.60
   1  -9   4    2.70    1.20
  -2   9  -4   16.10    2.10
  -2   9  -4   18.60    3.10
  -2   9  -4   13.30    2.50
  -2   9  -4    9.50    2.40
  -2   9  -4   13.80    2.70
  -2   9  -4   10.70    1.80
   2  -9   4   15.30    2.30
   2  -9   4   12.50    2.00
  -3   9  -4  198.18    6.90
  -3   9  -4  207.08    9.00
  -3   9  -4  206.28    8.50
  -3   9  -4  188.88    8.60
   3  -9   4  210.18    7.70
   3  -9   4  200.68    7.60
   3  -9   4  203.18    7.00
  -4   9  -4   40.50    4.40
  -4   9  -4   33.50    3.70
  -4   9  -4   33.10    4.20
   4  -9   4   28.20    2.80
   4  -9   4   32.90    3.40
   4  -9   4   37.70    3.60
  -5   9  -4  128.29    6.30
  -5   9  -4  127.29    6.60
  -5   9  -4  136.79    6.70
   5  -9   4  133.49    5.80
   5  -9   4  127.09    5.90
   5  -9   4  128.39    5.50
  -6   9  -4   73.69    4.60
  -6   9  -4   75.19    4.70
   6  -9   4   73.29    4.00
   6  -9   4   75.09    4.40
  -7   9  -4  224.18    8.20
  -7   9  -4  221.18    8.00
  -7   9  -4  235.48    8.50
   7  -9   4  235.08    7.70
   7  -9   4  226.18    7.90
  -8   9  -4  191.68    6.80
  -8   9  -4  210.48    6.80
   8  -9   4  213.38    6.50
   8  -9   4  200.98    6.40
   4   8  -4   54.09    4.20
   4   8  -4   63.79    4.00
   4   8  -4   54.89    3.00
   4   8  -4   66.69    3.60
   4   8  -4   62.49    3.60
   4   8  -4   58.09    3.40
   4   8  -4   54.19    3.10
   4   8  -4   59.89    3.60
  -4  -8   4   53.29    3.20
   3   8  -4  118.99    6.20
   3   8  -4   97.79    5.20
   3   8  -4   93.49    5.50
   3   8  -4   96.09    4.80
   3   8  -4  100.29    4.70
   3   8  -4   98.69    5.50
   3   8  -4   93.89    4.70
   3   8  -4   95.79    4.80
   3   8  -4   87.19    5.40
   3   8  -4   99.09    5.10
  -3  -8   4   96.99    4.80
   2   8  -4  548.45   17.50
   2   8  -4  531.75   15.20
   2   8  -4  567.64   16.70
   2   8  -4  524.35   15.90
   2   8  -4  559.04   15.60
   2   8  -4  552.44   15.20
   2   8  -4  536.95   15.80
   2   8  -4  530.15   16.70
   2   8  -4  551.64   16.70
   1   8  -4   18.00    2.50
   1   8  -4   16.70    3.20
   1   8  -4   16.10    2.90
   1   8  -4   18.70    3.10
   1   8  -4   18.50    3.10
   1   8  -4   17.30    2.60
   1   8  -4   20.80    2.90
   1   8  -4   20.20    2.70
   1   8  -4   25.70    3.40
  -1  -8   4   19.90    2.80
   0   8  -4  591.14   17.30
   0   8  -4  553.04   16.90
   0   8  -4  614.24   16.00
   0   8  -4  605.64   16.90
   0   8  -4  607.34   17.80
   0   8  -4  584.54   17.10
   0   8  -4  578.74   15.90
   0   8  -4  576.34   18.30
   0   8  -4  614.94   16.60
   0  -8   4  583.44   16.30
  -1   8  -4  572.04   16.50
  -1   8  -4  589.74   16.40
  -1   8  -4  617.64   17.50
  -1   8  -4  573.74   17.30
  -1   8  -4  575.64   17.90
  -1   8  -4  554.84   18.80
  -1   8  -4  588.94   15.70
   1  -8   4  631.24   16.30
   1  -8   4  554.64   19.90
  -2   8  -4    2.20    1.20
  -2   8  -4    1.10    1.10
  -2   8  -4    2.40    1.30
  -2   8  -4    2.50    1.60
  -2   8  -4    1.40    1.00
   2  -8   4    3.40    1.30
  -3   8  -4 1155.78   28.90
  -3   8  -4 1184.18   29.20
  -3   8  -4 1003.10   27.30
  -3   8  -4 1220.68   28.50
   3  -8   4 1119.79   27.30
   3  -8   4 1157.98   27.60
  -4   8  -4   19.80    2.90
  -4   8  -4   22.40    3.10
  -4   8  -4   22.10    3.40
   4  -8   4   19.00    2.60
   4  -8   4   20.00    2.40
   4  -8   4   17.80    2.50
  -5   8  -4  266.87   10.40
  -5   8  -4  295.57   10.30
  -5   8  -4  244.18    9.60
  -5   8  -4  292.07   10.30
   5  -8   4  286.97    9.80
   5  -8   4  282.87    9.60
   5  -8   4  287.87    9.20
  -6   8  -4   86.69    5.10
  -6   8  -4   92.19    5.30
  -6   8  -4   91.19    5.20
   6  -8   4   90.19    5.00
   6  -8   4   90.89    4.80
   6  -8   4   88.69    4.70
  -7   8  -4   51.99    4.50
  -7   8  -4   52.49    4.50
  -7   8  -4   49.99    4.30
   7  -8   4   52.69    4.10
   7  -8   4   50.69    4.30
  -8   8  -4  202.78    7.00
  -8   8  -4  187.48    7.20
   8  -8   4  193.98    6.80
   8  -8   4  190.38    6.70
   5   7  -4  547.65   14.70
   5   7  -4  546.75   13.90
   5   7  -4  543.85   13.60
   5   7  -4  554.04   15.10
   5   7  -4  509.25   14.10
   5   7  -4  544.35   14.20
   5   7  -4  578.04   15.50
   5   7  -4  557.34   14.10
   5   7  -4  535.95   14.00
  -5  -7   4  526.35   14.30
   4   7  -4   -0.10    0.80
   4   7  -4    0.90    0.90
   4   7  -4   -0.30    0.70
   4   7  -4    2.40    1.10
   4   7  -4    1.20    1.10
   4   7  -4    0.30    0.80
   4   7  -4    2.50    1.30
   4   7  -4    0.50    0.80
   4   7  -4    0.60    1.00
  -4  -7   4    0.60    0.80
   3   7  -4  183.98    8.60
   3   7  -4  173.08    8.30
   3   7  -4  170.58    7.10
   3   7  -4  187.18    7.50
   3   7  -4  191.78    7.60
   3   7  -4  180.68    8.00
   3   7  -4  175.98    8.30
   3   7  -4  181.78    8.00
   3   7  -4  180.28    7.40
   3   7  -4  185.68    7.60
  -3  -7   4  189.38    7.70
   2   7  -4   41.50    4.20
   2   7  -4   35.60    3.60
   2   7  -4   33.20    3.70
   2   7  -4   34.80    3.90
   2   7  -4   39.40    4.60
   2   7  -4   37.20    3.70
   2   7  -4   33.10    3.40
   2   7  -4   31.60    3.70
   2   7  -4   31.50    4.00
   2   7  -4   32.50    3.90
  -2  -7   4   33.90    3.60
   1   7  -4  281.07    9.20
   1   7  -4  264.77    9.20
   1   7  -4  267.27   10.00
   1   7  -4  271.17   10.20
   1   7  -4  283.67    9.40
   1   7  -4  280.57   10.30
   1   7  -4  281.77   10.90
   1   7  -4  293.07   10.20
   1   7  -4  292.97    9.90
   1   7  -4  285.07    9.50
   0   7  -4  366.66   14.20
   0   7  -4  399.76   14.90
   0   7  -4  372.96   12.80
   0  -7   4  344.17   12.40
   0  -7   4  367.76   12.20
  -1   7  -4   36.20    4.60
  -1   7  -4   29.90    4.30
  -1   7  -4   29.10    3.80
   1  -7   4   28.70    3.40
   1  -7   4   32.80    3.60
  -2   7  -4  650.33   19.20
  -2   7  -4  681.53   20.70
  -2   7  -4  676.13   18.40
   2  -7   4  654.33   18.60
   2  -7   4  696.33   18.60
  -3   7  -4   16.30    2.60
  -3   7  -4   16.10    2.90
   3  -7   4   15.60    2.60
   3  -7   4   20.40    2.90
  -4   7  -4    3.80    1.30
  -4   7  -4   13.80    2.50
  -4   7  -4    2.30    1.10
  -4   7  -4    4.40    1.50
   4  -7   4    2.60    1.00
   4  -7   4    2.90    1.10
   4  -7   4    3.80    1.30
  -5   7  -4  301.57   10.30
  -5   7  -4  285.97   10.10
  -5   7  -4  299.27   10.30
   5  -7   4  319.77   10.50
   5  -7   4  293.37   10.10
   5  -7   4  308.57    9.70
  -6   7  -4   45.20    4.30
  -6   7  -4   38.10    4.00
  -6   7  -4   46.90    4.30
   6  -7   4   47.80    4.20
   6  -7   4   43.40    4.10
   6  -7   4   44.20    4.20
  -7   7  -4   98.09    5.40
  -7   7  -4  106.79    5.30
  -7   7  -4  105.79    5.70
   7  -7   4  106.89    5.30
   7  -7   4  102.69    5.50
   7  -7   4  115.89    5.40
  -8   7  -4  373.06   11.10
  -8   7  -4  365.86   11.10
  -8   7  -4  386.96   11.70
   8  -7   4  372.46   11.20
   8  -7   4  388.86   11.50
   6   6  -4  288.37    8.30
   6   6  -4  313.27    9.80
   6   6  -4  300.77    9.30
   6   6  -4  291.87    9.20
   6   6  -4  292.77    8.40
   6   6  -4  294.37    8.70
   6   6  -4  304.87    8.60
  -6  -6   4  314.27    9.10
   5   6  -4  159.98    7.30
   5   6  -4  143.49    6.90
   5   6  -4  152.98    6.40
   5   6  -4  159.88    6.50
   5   6  -4  173.08    7.80
   5   6  -4  155.98    6.50
   5   6  -4  160.78    6.40
   5   6  -4  159.28    6.40
   5   6  -4  151.38    6.20
  -5  -6   4  155.78    6.70
   4   6  -4  463.75   15.20
   4   6  -4  444.56   13.70
   4   6  -4  467.05   13.70
   4   6  -4  446.26   14.80
   4   6  -4  464.25   14.00
   4   6  -4  464.35   13.60
   4   6  -4  486.65   14.20
   4   6  -4  433.86   15.10
   4   6  -4  478.05   13.90
   4   6  -4  450.35   14.20
   3   6  -4  311.67   10.30
   3   6  -4  308.77   10.30
   3   6  -4  319.67   11.70
   3   6  -4  324.97   10.90
   3   6  -4  303.67   11.30
   3   6  -4  311.47   11.90
   3   6  -4  317.37   10.60
   3   6  -4  304.37   10.60
   3   6  -4  321.87   11.30
   3   6  -4  303.87   11.50
   3   6  -4  329.17   10.70
   2   6  -4   28.50    4.30
   2   6  -4   28.10    3.70
   2   6  -4   27.90    3.40
   2   6  -4   26.20    3.50
   2   6  -4   22.30    2.70
   2   6  -4   24.70    2.90
   2   6  -4   26.00    3.30
   2   6  -4   34.70    4.80
  -2  -6   4   18.20    3.40
  -2  -6   4   24.50    3.70
  -2  -6   4   33.50    4.20
   1   6  -4  958.20   27.00
   1   6  -4  934.11   25.40
   1   6  -4  900.91   25.80
  -1  -6   4  936.31   24.70
  -1  -6   4  980.80   25.00
  -1  -6   4  903.01   24.90
  -1  -6   4  931.21   24.40
   0   6  -4  648.94   18.70
   0   6  -4  688.53   20.10
   0   6  -4  704.63   20.50
   0   6  -4  675.53   18.30
   0  -6   4  657.23   18.30
   0  -6   4  661.43   18.50
   0  -6   4  719.23   18.50
   0  -6   4  684.73   18.80
  -1   6  -4 1181.88   30.50
  -1   6  -4 1253.57   30.90
  -1   6  -4 1204.28   29.20
   1  -6   4 1186.28   29.00
   1  -6   4 1188.78   29.40
   1  -6   4 1209.78   29.00
  -2   6  -4   66.49    4.00
  -2   6  -4   58.19    3.50
  -2   6  -4   64.79    4.40
   2  -6   4   65.59    3.80
   2  -6   4   58.59    3.90
   2  -6   4   59.19    3.70
  -3   6  -4   27.00    3.00
  -3   6  -4   27.80    3.40
   3  -6   4   24.40    2.90
   3  -6   4   25.60    2.90
  -4   6  -4 1575.74   37.60
  -4   6  -4 1572.04   37.20
  -4   6  -4 1580.94   35.90
   4  -6   4 1509.85   37.60
   4  -6   4 1609.54   37.60
  -5   6  -4   96.89    4.90
  -5   6  -4   91.89    4.70
   5  -6   4   90.39    4.90
   5  -6   4   92.79    4.60
   5  -6   4   83.79    4.40
   5  -6   4   92.79    4.40
   5  -6   4   88.49    4.80
   5  -6   4   86.09    4.20
  -6   6  -4  309.97   10.30
  -6   6  -4  320.57   10.60
   6  -6   4  308.17   10.70
   6  -6   4  258.67    9.60
   6  -6   4  318.37   10.20
   6  -6   4  294.57    9.50
   6  -6   4  300.27   10.50
  -7   6  -4   37.70    3.70
  -7   6  -4   31.90    3.60
   7  -6   4   38.60    3.80
   7  -6   4   30.80    3.50
   7  -6   4   33.20    3.00
   7  -6   4   29.40    3.60
  -8   6  -4    1.40    1.10
  -8   6  -4    2.50    1.30
   8  -6   4    0.80    1.00
   8  -6   4   -0.40    0.80
   8  -6   4    2.60    1.10
  -9   6  -4  366.96   10.40
   9  -6   4  378.96   10.10
   9  -6   4  384.36   10.20
   7   5  -4  202.38    6.50
   7   5  -4  207.28    5.90
   7   5  -4  184.28    6.50
  -7  -5   4  197.88    6.30
  -7  -5   4  194.28    6.20
   6   5  -4  845.02   21.50
   6   5  -4  769.52   19.70
   6   5  -4  822.32   21.80
   6   5  -4  757.12   19.50
   6   5  -4  819.32   21.10
   6   5  -4  790.42   20.30
   6   5  -4  789.02   19.70
   6   5  -4  814.32   19.90
   6   5  -4  831.52   20.20
  -6  -5   4  756.62   20.60
   5   5  -4  118.79    6.60
   5   5  -4  113.49    6.80
   5   5  -4  120.09    5.70
   5   5  -4  125.99    5.90
   5   5  -4  121.79    6.10
   5   5  -4  115.79    5.70
   5   5  -4  128.29    6.00
   5   5  -4  125.19    5.80
   5   5  -4  117.09    6.60
  -5  -5   4  128.59    6.40
   4   5  -4 1020.80   25.10
   4   5  -4 1023.00   26.80
   4   5  -4  972.30   25.10
   4   5  -4 1006.90   25.50
   4   5  -4  999.50   26.70
   4   5  -4 1040.60   25.30
   4   5  -4  989.70   25.60
   4   5  -4  985.10   25.10
   4   5  -4  966.30   27.00
   4   5  -4  984.30   25.70
   3   5  -4  219.38    8.40
   3   5  -4  217.68   10.90
   3   5  -4  230.98   10.50
   3   5  -4  224.18   10.50
   3   5  -4  222.48   11.00
   3   5  -4  226.88    8.60
   3   5  -4  227.68    8.60
   3   5  -4  244.28    8.30
   3   5  -4  231.88    9.10
  -3  -5   4  240.78   10.20
  -3  -5   4  227.48    9.30
  -3  -5   4  215.78    9.70
   2   5  -4  503.75   16.30
   2   5  -4  522.35   16.50
   2   5  -4  530.65   17.50
   2   5  -4  519.55   16.70
  -2  -5   4  511.65   15.40
  -2  -5   4  528.05   15.90
  -2  -5   4  529.45   16.00
   1   5  -4  986.70   23.50
   1   5  -4 1001.10   26.30
   1   5  -4  964.40   25.60
   1   5  -4  947.81   25.20
  -1  -5   4  943.11   24.30
  -1  -5   4  964.10   24.80
  -1  -5   4  965.90   24.00
  -1  -5   4  976.60   24.70
   0   5  -4   64.09    4.30
   0   5  -4   59.89    3.70
   0   5  -4   59.19    3.30
   0   5  -4   66.09    4.20
   0  -5   4   64.49    3.90
   0  -5   4   59.49    3.60
   0  -5   4   63.19    3.70
   0  -5   4   58.79    3.50
  -1   5  -4  213.18    6.60
  -1   5  -4  207.28    7.10
  -1   5  -4  204.58    7.80
  -1   5  -4  213.88    8.20
   1  -5   4  196.48    6.70
   1  -5   4  215.38    7.30
   1  -5   4  202.68    7.10
   1  -5   4  192.88    7.40
  -2   5  -4 1512.05   34.00
  -2   5  -4 1555.04   34.50
  -2   5  -4 1466.45   35.10
   2  -5   4 1536.05   34.50
   2  -5   4 1475.65   34.30
   2  -5   4 1511.05   35.10
  -3   5  -4 1292.87   30.60
  -3   5  -4 1307.57   30.40
  -3   5  -4 1301.17   29.30
   3  -5   4 1323.77   30.90
   3  -5   4 1323.57   30.90
   3  -5   4 1292.57   31.30
  -4   5  -4 2525.65   54.59
  -4   5  -4 2407.06   53.39
  -4   5  -4 2418.86   54.39
   4  -5   4 2445.46   55.19
   4  -5   4 2448.96   57.89
   4  -5   4 2456.85   55.19
  -5   5  -4  143.09    6.50
  -5   5  -4  144.79    6.50
  -5   5  -4  142.09    5.80
   5  -5   4  143.39    5.90
   5  -5   4  139.49    7.00
   5  -5   4  129.59    6.10
   5  -5   4  151.98    7.90
   5  -5   4  126.99    5.50
  -6   5  -4  429.66   12.60
   6  -5   4  423.16   13.30
   6  -5   4  407.46   12.60
   6  -5   4  424.86   13.50
   6  -5   4  408.76   11.60
   6  -5   4  435.16   13.00
   6  -5   4  418.66   12.10
  -7   5  -4  962.70   23.50
  -7   5  -4  916.31   23.80
   7  -5   4  958.30   22.60
   7  -5   4  919.41   23.00
   7  -5   4  894.01   23.90
   7  -5   4  925.41   23.80
   7  -5   4  872.51   24.40
   7  -5   4  933.21   23.90
  -8   5  -4   24.90    2.80
  -8   5  -4   27.70    3.10
   8  -5   4   25.70    2.70
   8  -5   4   29.40    3.30
   8  -5   4   34.50    3.30
   8  -5   4   26.40    3.10
   8  -5   4   29.20    2.70
  -9   5  -4   23.40    2.00
  -9   5  -4   24.20    2.30
   9  -5   4   26.90    2.40
   9  -5   4   26.60    2.30
   7   4  -4   -0.20    0.80
   7   4  -4    0.90    0.70
   7   4  -4    0.30    0.90
   7   4  -4    1.60    0.70
   7   4  -4    0.70    1.00
   7   4  -4    0.30    1.00
   7   4  -4    0.70    0.80
  -7  -4   4    0.40    0.90
   6   4  -4  694.43   18.00
   6   4  -4  680.93   18.20
   6   4  -4  705.43   18.40
   6   4  -4  653.43   18.80
   6   4  -4  704.53   20.30
   6   4  -4  699.53   18.30
   6   4  -4  706.63   19.70
   6   4  -4  675.03   18.10
   6   4  -4  674.03   19.80
   5   4  -4  256.67    9.40
   5   4  -4  247.98    9.00
   5   4  -4  223.38    9.90
   5   4  -4  240.08    9.50
   5   4  -4  260.47    9.20
   5   4  -4  269.77    9.20
   5   4  -4  232.68   10.30
   5   4  -4  254.47    9.30
   5   4  -4  247.68   10.00
   5   4  -4  271.57    9.60
   4   4  -4   13.40    2.10
   4   4  -4   12.60    2.30
   4   4  -4   14.20    2.70
   4   4  -4   15.50    2.80
   4   4  -4   17.90    3.00
   4   4  -4   16.80    2.40
   4   4  -4   17.70    2.80
   4   4  -4   15.90    2.60
   4   4  -4   13.60    2.30
   4   4  -4   18.90    2.60
   4   4  -4   14.90    2.60
  -4  -4   4   10.60    3.20
   3   4  -4  269.87   10.90
   3   4  -4  250.27   11.00
   3   4  -4  265.47   10.90
   3   4  -4  254.47   10.00
  -3  -4   4  271.77    9.60
  -3  -4   4  274.07   10.30
  -3  -4   4  270.47   10.30
  -3  -4   4  271.67   11.00
   2   4  -4 1467.75   35.70
   2   4  -4 1620.64   37.30
   2   4  -4 1524.65   36.40
   2   4  -4 1443.96   36.00
  -2  -4   4 1462.25   34.80
  -2  -4   4 1487.15   36.30
  -2  -4   4 1551.04   35.70
  -2  -4   4 1485.15   35.50
   1   4  -4   20.30    2.60
   1   4  -4   23.30    2.90
   1   4  -4   20.50    2.70
   1   4  -4   21.90    2.60
   1   4  -4   22.20    2.10
  -1  -4   4   20.90    2.40
  -1  -4   4   21.10    2.50
  -1  -4   4   19.90    2.20
  -1  -4   4   25.40    3.00
   0   4  -4  346.67    8.70
   0   4  -4  353.96   10.50
   0   4  -4  344.17    9.90
   0   4  -4  320.77   10.40
   0   4  -4  333.27    9.40
   0  -4   4  348.47    9.70
   0  -4   4  334.47    9.70
   0  -4   4  335.17    9.70
   0  -4   4  338.47   10.40
   0  -4   4  351.36   10.20
  -1   4  -4  217.88    5.80
  -1   4  -4  222.58    7.50
  -1   4  -4  229.68    7.40
  -1   4  -4  216.18    6.90
  -1   4  -4  218.38    6.50
   1  -4   4  218.98    7.00
   1  -4   4  215.38    6.90
   1  -4   4  222.78    6.40
   1  -4   4  225.58    7.80
   1  -4   4  230.58    7.60
  -2   4  -4  280.77    8.70
  -2   4  -4  276.67    7.50
  -2   4  -4  287.67    8.30
  -2   4  -4  293.07    8.40
  -2   4  -4  282.87    7.20
  -2   4  -4  292.87    7.90
  -2   4  -4  277.97    7.50
   2  -4   4  288.17    8.60
   2  -4   4  278.17    9.00
   2  -4   4  285.77    9.20
   2  -4   4  282.17    7.80
   2  -4   4  279.97    8.40
  -3   4  -4 1483.75   34.10
  -3   4  -4 1546.65   34.30
  -3   4  -4 1552.74   33.60
  -3   4  -4 1539.15   34.00
  -3   4  -4 1519.25   33.10
  -3   4  -4 1507.05   33.60
   3  -4   4 1492.95   34.80
   3  -4   4 1477.35   33.90
   3  -4   4 1566.44   35.10
   3  -4   4 1525.75   35.60
   3  -4   4 1534.35   35.30
  -4   4  -4    4.90    1.10
  -4   4  -4    7.30    1.50
  -4   4  -4    5.90    1.20
   4  -4   4    6.90    1.70
   4  -4   4    5.20    1.50
   4  -4   4    6.40    1.50
  -5   4  -4 2086.99   46.80
  -5   4  -4 2066.39   46.70
  -5   4  -4 2118.39   47.30
   5  -4   4 2122.89   49.10
   5  -4   4 2066.29   48.60
   5  -4   4 2078.49   49.30
  -6   4  -4  138.49    5.90
   6  -4   4  146.89    6.60
   6  -4   4  159.28    5.80
   6  -4   4  142.19    6.50
   6  -4   4  149.69    7.00
   6  -4   4  150.38    5.90
   6  -4   4  140.09    5.80
   6  -4   4  145.29    6.50
   6  -4   4  158.48    6.30
   6  -4   4  139.69    6.70
  -7   4  -4  264.27    9.80
   7  -4   4  287.27   10.10
   7  -4   4  278.67   10.30
   7  -4   4  275.47   10.00
   7  -4   4  286.77   10.70
   7  -4   4  270.37    9.00
   7  -4   4  287.97    9.20
   7  -4   4  284.27    9.40
   7  -4   4  297.07    9.40
  -8   4  -4  512.45   14.60
  -8   4  -4  540.95   14.90
   8  -4   4  551.94   14.10
   8  -4   4  524.05   14.50
   8  -4   4  514.15   13.90
   8  -4   4  525.05   15.20
   8  -4   4  552.04   15.60
   8  -4   4  524.25   14.90
  -9   4  -4  115.89    4.40
  -9   4  -4  122.89    4.60
   9  -4   4  120.69    4.60
   9  -4   4  123.39    4.70
   8   3  -4    0.30    0.80
   8   3  -4    0.70    0.70
   8   3  -4    1.60    0.80
  -8  -3   4    0.80    0.80
   7   3  -4   31.50    2.90
   7   3  -4   25.00    4.20
   7   3  -4   25.70    2.70
   7   3  -4   27.80    3.50
   7   3  -4   20.70    2.80
   7   3  -4   31.00    3.60
  -7  -3   4   24.50    3.10
   6   3  -4  206.08    8.60
   6   3  -4  198.08    7.80
   6   3  -4  217.28    8.20
   6   3  -4  205.38    8.30
   6   3  -4  215.08    8.90
   6   3  -4  208.68    7.80
   6   3  -4  208.68    9.40
   6   3  -4  205.28    9.20
   6   3  -4  212.88    7.80
  -6  -3   4  204.38    8.70
   5   3  -4  260.57    9.90
   5   3  -4  275.47    9.70
   5   3  -4  270.77    9.30
   5   3  -4  270.57   10.30
   5   3  -4  268.17   10.80
   5   3  -4  276.67    9.30
   5   3  -4  267.67    9.60
   5   3  -4  268.27    9.10
   5   3  -4  265.77   10.50
  -5  -3   4  255.47    9.90
   4   3  -4  583.34   18.70
   4   3  -4  587.84   18.50
   4   3  -4  575.94   18.60
  -4  -3   4  607.64   19.00
  -4  -3   4  570.34   17.40
  -4  -3   4  561.84   16.60
   3   3  -4   94.39    5.40
   3   3  -4   92.29    4.80
   3   3  -4   89.29    5.40
   3   3  -4   95.09    5.50
  -3  -3   4   89.29    5.10
  -3  -3   4   87.69    4.60
  -3  -3   4   96.49    5.10
  -3  -3   4   92.49    5.60
   2   3  -4    8.70    1.70
   2   3  -4    9.70    1.80
   2   3  -4   11.60    2.00
   2   3  -4    9.20    1.90
  -2  -3   4   12.70    1.90
  -2  -3   4   14.40    1.70
  -2  -3   4   11.40    1.70
  -2  -3   4   13.10    2.20
  -2  -3   4   10.50    1.80
   1   3  -4  755.62   17.40
   1   3  -4  774.82   18.40
   1   3  -4  730.43   18.50
   1   3  -4  738.73   18.50
   1   3  -4  770.42   19.00
  -1  -3   4  768.12   18.50
  -1  -3   4  744.93   18.00
  -1  -3   4  735.13   17.90
  -1  -3   4  731.73   19.00
   0   3  -4    5.00    1.10
   0   3  -4    6.60    0.90
   0   3  -4    6.00    1.00
   0   3  -4    7.10    1.30
   0   3  -4    6.40    1.10
   0  -3   4    6.80    1.40
   0  -3   4    5.70    1.20
   0  -3   4   11.30    1.40
   0  -3   4    6.20    1.00
   0  -3   4    6.00    1.00
  -1   3  -4  328.07    8.80
  -1   3  -4  318.97    9.00
  -1   3  -4  330.27    8.60
  -1   3  -4  317.17    8.00
   1  -3   4  332.27    8.60
   1  -3   4  325.07    8.90
   1  -3   4  321.67    9.90
   1  -3   4  325.67    8.60
   1  -3   4  336.47    9.50
  -2   3  -4  656.33   15.90
  -2   3  -4  674.53   16.00
  -2   3  -4  649.24   15.80
  -2   3  -4  669.33   15.50
  -2   3  -4  660.43   15.30
  -2   3  -4  668.43   15.80
  -2   3  -4  666.23   16.10
   2  -3   4  683.03   16.30
   2  -3   4  637.74   16.90
   2  -3   4  645.04   17.30
   2  -3   4  680.03   15.30
   2  -3   4  674.63   16.10
  -3   3  -4 4471.65   96.39
  -3   3  -4 4614.64   96.19
  -3   3  -4 4517.75   95.89
  -3   3  -4 4734.03   96.79
  -3   3  -4 4648.33   97.09
  -3   3  -4 4490.35   96.19
   3  -3   4 4611.94   97.49
   3  -3   4 4699.83   97.59
   3  -3   4 4574.34   98.29
   3  -3   4 4687.43   96.79
   3  -3   4 4552.54   98.39
  -4   3  -4  381.46   10.30
  -4   3  -4  381.06   11.80
  -4   3  -4  370.16   10.50
  -4   3  -4  352.56    9.80
  -4   3  -4  346.37   10.30
  -4   3  -4  344.17   10.70
   4  -3   4  348.87   11.70
   4  -3   4  365.46   11.70
   4  -3   4  372.36   11.60
   4  -3   4  355.76   11.20
  -5   3  -4   42.60    3.70
  -5   3  -4   45.10    3.00
  -5   3  -4   43.20    3.10
  -5   3  -4   43.00    3.10
   5  -3   4   46.80    4.60
   5  -3   4   42.50    4.40
   5  -3   4   43.10    4.70
   6  -3   4  910.11   24.40
   6  -3   4  916.61   22.70
   6  -3   4  884.81   22.40
   6  -3   4  879.91   23.00
   6  -3   4  918.81   22.70
   6  -3   4  904.61   23.90
   6  -3   4  933.21   23.90
   6  -3   4  924.61   22.40
   6  -3   4  906.81   22.10
   6  -3   4  904.71   22.50
   6  -3   4  917.71   23.60
  -7   3  -4  136.29    6.10
   7  -3   4  142.09    6.90
   7  -3   4  132.19    5.70
   7  -3   4  131.29    6.50
   7  -3   4  139.49    6.90
   7  -3   4  135.99    5.70
   7  -3   4  130.99    5.60
   7  -3   4  126.49    6.30
   7  -3   4  131.89    5.60
   7  -3   4  134.09    5.90
   7  -3   4  134.89    6.00
  -8   3  -4  219.48    7.70
   8  -3   4  223.08    8.10
   8  -3   4  220.58    8.30
   8  -3   4  215.98    7.70
   8  -3   4  211.38    7.30
   8  -3   4  208.18    7.00
   8  -3   4  199.48    6.90
   8  -3   4  218.68    7.20
   8  -3   4  228.28    8.50
   8  -3   4  200.78    7.80
  -9   3  -4    7.20    1.20
  -9   3  -4    8.90    1.70
   9  -3   4    8.20    1.10
   9  -3   4   10.90    1.50
   9  -3   4    8.20    1.30
   8   2  -4    1.00    0.80
   8   2  -4    2.00    1.10
   8   2  -4    2.10    1.00
   8   2  -4    3.00    1.30
  -8  -2   4   -0.10    0.90
  -8  -2   4    0.90    0.90
   7   2  -4 1668.73   37.50
   7   2  -4 1673.53   38.80
   7   2  -4 1665.83   40.30
   7   2  -4 1610.34   39.10
   7   2  -4 1668.83   38.00
   7   2  -4 1642.24   39.00
   7   2  -4 1693.13   40.30
  -7  -2   4 1592.04   39.40
   6   2  -4  104.59    5.20
   6   2  -4  107.79    5.10
   6   2  -4  116.59    5.80
   6   2  -4  107.09    6.40
   6   2  -4  106.69    6.00
   6   2  -4  107.59    5.80
   6   2  -4  108.89    5.90
  -6  -2   4  116.79    6.40
   5   2  -4   59.29    3.90
   5   2  -4   63.59    6.40
   5   2  -4   63.19    5.70
   5   2  -4   66.69    5.20
   5   2  -4   68.69    5.80
   5   2  -4   63.09    3.70
   5   2  -4   56.69    3.80
   5   2  -4   73.99    6.90
  -5  -2   4   57.99    4.60
   4   2  -4  607.34   18.40
   4   2  -4  598.04   17.20
   4   2  -4  605.54   18.00
   4   2  -4  590.44   17.90
  -4  -2   4  624.24   18.60
  -4  -2   4  596.64   16.40
  -4  -2   4  601.24   17.10
  -4  -2   4  569.04   16.20
   3   2  -4  101.19    5.20
   3   2  -4   96.99    5.20
   3   2  -4  103.19    4.70
   3   2  -4  101.79    4.80
   3   2  -4  106.79    5.30
  -3  -2   4  109.79    5.00
  -3  -2   4  110.69    5.70
  -3  -2   4   99.89    4.50
  -3  -2   4   98.39    4.50
   2   2  -4    5.50    0.90
   2   2  -4    0.20    0.50
   2   2  -4    1.00    0.70
   2   2  -4    1.60    0.80
   2   2  -4    0.40    0.50
  -2  -2   4    1.30    0.60
  -2  -2   4    0.90    0.70
  -2  -2   4    0.70    0.70
  -2  -2   4    0.90    0.80
   1   2  -4   92.29    3.60
   1   2  -4   87.99    3.50
   1   2  -4   97.29    3.40
   1   2  -4   94.59    3.90
   1   2  -4   90.49    3.90
  -1  -2   4  101.49    3.60
  -1  -2   4   98.89    4.40
  -1  -2   4   97.49    3.60
  -1  -2   4   94.49    3.50
  -1  -2   4   97.59    3.90
   0  -2   4 6745.03  141.69
   0  -2   4 6956.30  142.19
  -1   2  -4    4.50    0.80
  -1   2  -4    6.10    0.90
  -1   2  -4    6.10    1.00
  -1   2  -4    4.90    0.90
   1  -2   4    6.60    0.90
   1  -2   4    4.00    1.20
   1  -2   4    6.30    1.20
   1  -2   4    6.20    1.00
   1  -2   4    5.00    1.00
  -2   2  -4  124.59    4.10
  -2   2  -4  128.09    4.50
  -2   2  -4  115.19    4.10
   2  -2   4  125.19    5.10
   2  -2   4  120.09    4.50
   2  -2   4  126.59    5.50
   2  -2   4  119.39    4.30
   2  -2   4  120.59    4.00
  -3   2  -4  296.57    8.00
  -3   2  -4  286.87    7.70
  -3   2  -4  295.37    8.40
  -3   2  -4  280.47    7.90
  -3   2  -4  287.97    8.70
  -3   2  -4  289.47    8.30
   3  -2   4  278.27    8.90
   3  -2   4  284.47    9.60
   3  -2   4  263.57    9.10
   3  -2   4  281.87    8.60
   3  -2   4  295.37    9.10
  -4   2  -4  832.92   19.80
  -4   2  -4  815.82   20.00
  -4   2  -4  820.82   20.90
  -4   2  -4  859.61   20.00
  -4   2  -4  815.52   21.80
  -4   2  -4  823.42   20.30
   4  -2   4  867.21   22.00
   4  -2   4  830.52   22.10
   4  -2   4  844.62   22.10
   4  -2   4  846.02   21.90
  -5   2  -4  333.67   10.60
  -5   2  -4  346.87   10.20
  -5   2  -4  325.67   11.90
   5  -2   4  341.17   12.20
   5  -2   4  335.37   12.70
   5  -2   4  356.56   12.70
   5  -2   4  338.87   12.00
   6  -2   4 1707.63   38.10
   6  -2   4 1711.33   40.60
   6  -2   4 1622.54   39.60
   6  -2   4 1682.73   37.90
   6  -2   4 1642.04   39.60
   6  -2   4 1711.03   40.00
   6  -2   4 1660.53   38.30
   6  -2   4 1689.53   39.00
   6  -2   4 1629.84   37.80
   6  -2   4 1667.83   38.60
   6  -2   4 1659.53   38.50
   7  -2   4  255.97    8.80
   7  -2   4  251.27    9.70
   7  -2   4  250.87    8.90
   7  -2   4  248.28    8.40
   7  -2   4  262.37   10.20
   7  -2   4  262.47    8.50
   7  -2   4  247.78    9.50
   7  -2   4  247.68    8.70
   7  -2   4  257.47    8.50
   7  -2   4  256.17    9.90
  -8   2  -4  111.89    5.10
   8  -2   4  120.49    4.90
   8  -2   4  128.09    5.40
   8  -2   4  124.79    5.80
   8  -2   4  116.59    5.50
   8  -2   4  116.09    4.80
   8  -2   4  122.69    4.90
   8  -2   4  129.09    5.20
   8  -2   4  127.29    5.90
   8  -2   4  117.19    4.60
   8   1  -4  519.75   14.90
   8   1  -4  491.75   12.90
   8   1  -4  493.95   13.90
   8   1  -4  485.75   14.50
  -8  -1   4  432.96   13.20
  -8  -1   4  493.25   14.60
   7   1  -4   47.90    4.90
   7   1  -4   45.40    4.50
   7   1  -4   57.09    5.70
   7   1  -4   47.70    4.20
   7   1  -4   58.09    3.60
  -7  -1   4   48.40    4.80
  -7  -1   4   48.80    4.50
   6   1  -4  834.82   21.20
   6   1  -4  850.51   21.90
   6   1  -4  846.32   23.30
   6   1  -4  848.02   22.30
   6   1  -4  829.72   22.50
   6   1  -4  830.92   22.20
   6   1  -4  824.12   23.10
  -6  -1   4  842.32   21.90
   5   1  -4  490.45   16.50
   5   1  -4  469.75   15.50
   5   1  -4  470.95   15.80
  -5  -1   4  490.95   14.70
  -5  -1   4  486.85   14.80
  -5  -1   4  481.55   16.50
   4   1  -4  499.55   14.90
   4   1  -4  523.95   14.90
   4   1  -4  477.55   14.50
   4   1  -4  453.15   14.00
  -4  -1   4  478.25   13.70
  -4  -1   4  482.35   15.30
  -4  -1   4  483.25   13.90
  -4  -1   4  479.15   13.30
   3   1  -4  984.10   23.10
   3   1  -4  934.41   23.80
   3   1  -4 1017.50   24.10
   3   1  -4 1019.80   23.90
   3   1  -4  985.10   23.50
  -3  -1   4  996.30   23.50
  -3  -1   4  991.40   22.90
  -3  -1   4  967.40   23.30
  -3  -1   4  994.40   22.50
   2   1  -4   95.39    3.80
   2   1  -4   96.99    3.90
   2   1  -4   94.19    3.60
   2   1  -4   98.69    3.90
   2   1  -4   99.99    3.20
   2   1  -4   97.59    4.00
  -2  -1   4   94.99    3.90
  -2  -1   4   92.19    3.80
  -2  -1   4   94.09    3.40
  -2  -1   4  101.19    4.60
  -2  -1   4  101.99    3.60
   1   1  -4  463.65   11.20
   1   1  -4  457.05   10.80
   1   1  -4  455.35   10.80
  -1  -1   4  451.15   12.10
  -1  -1   4  450.75   11.30
  -1  -1   4  467.35   11.40
  -1  -1   4  439.06   11.00
  -1  -1   4  464.85   10.60
  -1  -1   4  448.86   10.90
   0   1  -4 1280.27   27.40
   0   1  -4 1228.98   27.10
   0   1  -4 1247.58   27.30
   0   1  -4 1247.18   26.80
   0  -1   4 1257.77   27.30
   0  -1   4 1255.67   27.70
   0  -1   4 1265.67   27.80
   0  -1   4 1240.38   28.60
   0  -1   4 1241.38   26.80
  -1   1  -4   13.00    1.30
  -1   1  -4   11.70    1.30
  -1   1  -4   14.10    1.10
   1  -1   4   11.80    1.80
   1  -1   4   14.90    1.70
   1  -1   4   16.30    1.10
   1  -1   4   15.80    1.80
  -2   1  -4 1873.61   40.20
  -2   1  -4 1855.31   39.70
  -2   1  -4 1821.62   40.30
   2  -1   4 1888.81   40.80
   2  -1   4 1818.52   40.60
   2  -1   4 1831.32   40.60
   2  -1   4 1947.01   41.50
   2  -1   4 1845.52   40.30
   2  -1   4 1869.71   42.20
  -3   1  -4 2285.67   48.10
  -3   1  -4 2201.98   47.80
  -3   1  -4 2172.08   48.10
  -3   1  -4 2199.38   48.90
  -3   1  -4 2299.87   48.50
   3  -1   4 2185.18   49.40
   3  -1   4 2312.17   49.99
   3  -1   4 2166.28   49.30
   3  -1   4 2253.07   50.39
   3  -1   4 2215.58   49.60
  -4   1  -4  179.68    6.40
  -4   1  -4  170.78    5.90
  -4   1  -4  182.18    6.80
  -4   1  -4  166.98    7.40
  -4   1  -4  176.58    5.90
   4  -1   4  167.08    7.50
   4  -1   4  179.48    7.50
   4  -1   4  173.38    7.40
   4  -1   4  163.38    7.60
  -5   1  -4  170.88    6.70
  -5   1  -4  165.38    6.00
  -5   1  -4  158.08    7.60
   5  -1   4  154.38    7.50
   5  -1   4  142.29    8.20
   5  -1   4  154.98    8.30
   5  -1   4  163.88    7.80
   6  -1   4  219.58    9.40
   6  -1   4  224.68    8.30
   6  -1   4  230.88    8.30
   6  -1   4  232.68    8.70
   6  -1   4  232.88    7.80
   6  -1   4  226.08    9.20
   6  -1   4  223.98    8.90
   6  -1   4  233.18    7.80
   6  -1   4  234.18    8.30
   6  -1   4  247.68    9.60
   7  -1   4  314.47    9.80
   7  -1   4  331.57   10.30
   7  -1   4  316.77   10.50
   7  -1   4  334.17   10.00
   7  -1   4  329.17   11.60
   7  -1   4  319.37   10.30
   7  -1   4  330.57   11.50
   7  -1   4  328.27   10.30
   7  -1   4  331.97   11.80
   7  -1   4  321.77   11.10
   8  -1   4    6.20    1.30
   8  -1   4    6.90    1.30
   8  -1   4    4.30    1.30
   8  -1   4    9.20    1.60
   8  -1   4    6.70    1.60
   8  -1   4    9.10    1.60
   8  -1   4    6.00    1.20
   8  -1   4    7.90    1.80
   8  -1   4    7.20    1.40
   9   0  -4   -1.30    0.70
   9   0  -4    0.40    0.70
   9   0  -4    0.70    0.80
  -9   0   4    1.30    0.90
  -9   0   4    0.70    0.80
  -9   0   4    1.60    0.90
   8   0  -4  737.83   20.90
   8   0  -4  742.53   19.70
   8   0  -4  796.82   21.40
   8   0  -4  758.42   20.30
  -8   0   4  830.12   21.30
  -8   0   4  734.03   20.00
   7   0  -4  438.56   14.00
   7   0  -4  440.06   14.50
   7   0  -4  452.35   14.70
   7   0  -4  440.96   12.50
   7   0  -4  413.76   13.20
  -7   0   4  425.06   13.60
   6   0  -4  355.46   12.20
   6   0  -4  375.46   11.40
   6   0  -4  345.77   11.50
   6   0  -4  335.57   11.20
   6   0  -4  338.27   11.40
   6   0  -4  342.27   10.40
   6   0  -4  354.46   12.20
  -6   0   4  340.07   11.40
   5   0  -4  250.77    9.70
   5   0  -4  238.78    9.70
   5   0  -4  257.07   10.30
  -5   0   4  271.17    9.70
  -5   0   4  263.97    9.20
  -5   0   4  268.27   10.80
   4   0  -4   41.30    3.00
   4   0  -4   31.70    3.20
   4   0  -4   37.00    3.70
   4   0  -4   35.90    2.90
  -4   0   4   55.89    3.40
  -4   0   4   56.59    4.00
  -4   0   4   34.50    3.00
   3   0  -4 9197.98  189.88
  -3   0   4 9299.97  189.98
  -3   0   4 8767.52  189.18
  -3   0   4 9430.06  190.48
  -3   0   4 9089.39  189.88
  -3   0   4 9350.76  191.68
   2   0  -4 4417.26   90.29
   2   0  -4 4279.07   89.59
   2   0  -4 4444.16   90.09
   2   0  -4 4311.47   89.79
   2   0  -4 4308.77   90.19
  -2   0   4 4319.77   91.39
  -2   0   4 4319.07   90.19
  -2   0   4 4218.48   90.19
  -2   0   4 4349.26   89.99
  -2   0   4 4233.58   90.59
   1   0  -4 1686.23   35.50
   1   0  -4 1653.03   35.00
   1   0  -4 1689.03   35.80
   1   0  -4 1663.53   35.60
  -1   0   4 1601.54   35.90
  -1   0   4 1652.43   36.10
  -1   0   4 1682.73   35.60
  -1   0   4 1628.54   36.00
  -1   0   4 1700.43   36.80
   0   0  -4  578.54   13.10
   0   0  -4  556.74   12.60
   0   0  -4  559.74   13.10
   0   0   4  549.54   13.20
   0   0   4  571.24   13.60
   0   0   4  554.54   13.70
   0   0   4  544.15   12.50
   0   0   4  558.54   14.30
   0   0   4  563.94   13.40
  -1   0  -4 1245.18   28.20
  -1   0  -4 1304.97   28.10
  -1   0  -4 1290.67   28.80
   1   0   4 1306.37   28.40
   1   0   4 1337.17   30.20
   1   0   4 1311.37   29.10
   1   0   4 1285.67   28.40
   1   0   4 1332.17   28.70
   1   0   4 1281.57   29.00
  -2   0  -4  271.87    7.00
  -2   0  -4  266.27    7.50
  -2   0  -4  258.37    7.30
   2   0   4  257.97    7.90
   2   0   4  260.07    8.10
   2   0   4  256.27    8.00
   2   0   4  259.17    8.70
   2   0   4  264.17    8.40
  -3   0  -4  111.59    4.40
  -3   0  -4  106.49    4.70
  -3   0  -4  113.09    4.10
  -3   0  -4  103.79    4.00
  -3   0  -4  110.49    4.10
   3   0   4  101.49    5.10
   3   0   4  101.89    5.00
   3   0   4  102.19    5.00
   3   0   4  101.19    5.20
  -4   0  -4 1415.66   32.20
  -4   0  -4 1451.75   32.40
  -4   0  -4 1476.95   33.10
  -4   0  -4 1407.06   34.90
  -4   0  -4 1495.05   33.80
   4   0   4 1466.05   36.00
   4   0   4 1419.36   35.80
   4   0   4 1418.06   34.90
   4   0   4 1430.36   34.90
   5   0   4 1039.90   26.90
   5   0   4 1097.09   26.90
   5   0   4 1071.69   30.00
   5   0   4 1059.59   26.40
   5   0   4 1080.49   25.00
   5   0   4 1023.20   27.20
   5   0   4 1081.39   26.00
   5   0   4 1081.79   29.60
   5   0   4 1040.70   26.00
   5   0   4 1060.19   25.70
   6   0   4  174.98    7.20
   6   0   4  174.58    6.90
   6   0   4  160.78    7.50
   6   0   4  152.88    7.30
   6   0   4  163.18    6.10
   6   0   4  166.78    6.80
   6   0   4  169.18    7.90
   6   0   4  164.68    6.80
   6   0   4  158.78    7.80
   7   0   4  166.48    7.30
   7   0   4  149.88    6.70
   7   0   4  149.99    6.20
   7   0   4  156.18    5.90
   7   0   4  146.69    6.00
   7   0   4  147.49    7.00
   7   0   4  153.18    6.20
   7   0   4  152.08    7.20
   7   0   4  160.78    6.40
  -8   0  -4   93.29    3.90
   8   0   4   93.89    4.10
   8   0   4  104.49    4.70
   8   0   4   92.59    4.30
   8   0   4  100.19    4.00
   8   0   4   94.99    4.50
   8   0   4  100.49    4.20
   8   0   4   92.49    3.90
   8   0   4   97.59    4.20
   9  -1  -4  211.18    7.10
   9  -1  -4  215.58    7.60
   9  -1  -4  206.28    7.10
  -9   1   4  209.28    7.20
  -9   1   4  200.18    7.40
  -9   1   4  203.28    6.90
   8  -1  -4   58.09    5.00
   8  -1  -4   51.39    4.90
   8  -1  -4   48.50    4.40
   8  -1  -4   52.99    3.50
  -8   1   4   40.50    4.10
  -8   1   4   45.70    4.60
   7  -1  -4  192.78    8.50
   7  -1  -4  192.48    8.60
   7  -1  -4  192.78    7.60
   7  -1  -4  199.58    8.20
  -7   1   4  192.18    8.10
  -7   1   4  185.08    8.00
   6  -1  -4    0.80    0.90
   6  -1  -4    1.00    1.10
   6  -1  -4    0.80    0.90
   6  -1  -4    2.10    1.30
   6  -1  -4    0.90    1.00
  -6   1   4    3.50    1.30
  -6   1   4    4.20    1.70
   5  -1  -4  243.88    9.40
   5  -1  -4  235.38    9.00
  -5   1   4  251.07   10.00
  -5   1   4  236.28    8.50
   4  -1  -4 2999.10   65.59
   4  -1  -4 2977.50   65.39
   4  -1  -4 3104.09   65.49
   4  -1  -4 2957.70   65.89
  -4   1   4 2999.20   65.39
  -4   1   4 2997.80   66.89
  -4   1   4 3183.18   66.19
   3  -1  -4  602.04   14.90
   3  -1  -4  609.24   14.60
   3  -1  -4  609.34   14.80
   3  -1  -4  574.04   14.80
  -3   1   4  629.84   15.40
  -3   1   4  605.74   15.90
  -3   1   4  602.24   14.30
  -3   1   4  599.04   14.30
  -3   1   4  604.84   15.10
  -3   1   4  620.24   15.40
   2  -1  -4  688.13   15.70
   2  -1  -4  686.23   16.00
   2  -1  -4  695.73   16.20
   2  -1  -4  670.43   15.50
  -2   1   4  676.53   16.40
  -2   1   4  712.13   16.90
  -2   1   4  674.63   16.70
  -2   1   4  670.93   16.10
  -2   1   4  694.63   16.50
   1  -1  -4 1001.60   22.30
   1  -1  -4 1058.39   22.10
   1  -1  -4 1025.10   22.80
   1  -1  -4 1066.29   23.30
  -1   1   4 1039.30   23.70
  -1   1   4 1010.60   23.20
  -1   1   4 1038.80   23.40
  -1   1   4 1005.40   23.30
  -1   1   4 1030.10   23.70
   0  -1  -4   35.00    1.70
   0  -1  -4   34.10    1.80
   0   1   4   37.40    2.10
   0   1   4   34.60    2.10
   0   1   4   35.80    2.10
   0   1   4   37.30    2.50
   0   1   4   35.10    2.20
   0   1   4   34.60    2.30
   0   1   4   33.60    1.90
   1   1   4  654.63   16.20
   1   1   4  735.93   17.60
   1   1   4  679.83   16.60
   1   1   4  669.33   16.20
   1   1   4  678.73   16.30
   1   1   4  714.23   16.70
   1   1   4  691.83   16.40
   1   1   4  686.13   16.60
   1   1   4  707.33   16.60
   1   1   4  705.33   16.70
   1   1   4  681.03   16.20
   1   1   4  685.43   16.30
  -2  -1  -4 1425.76   32.20
  -2  -1  -4 1437.66   31.80
  -2  -1  -4 1501.65   31.50
  -2  -1  -4 1421.36   32.70
  -2  -1  -4 1408.86   31.70
  -2  -1  -4 1461.35   32.00
   2   1   4 1434.06   33.40
   2   1   4 1453.95   33.00
   2   1   4 1448.16   33.70
   2   1   4 1440.06   33.50
   2   1   4 1500.45   33.30
   2   1   4 1457.75   32.80
  -3  -1  -4  722.03   18.10
  -3  -1  -4  722.33   17.60
  -3  -1  -4  738.83   17.20
  -3  -1  -4  751.42   19.40
  -3  -1  -4  696.23   17.10
   3   1   4  715.93   19.20
   3   1   4  706.13   19.80
   3   1   4  744.03   19.30
   3   1   4  706.13   19.80
  -4  -1  -4   19.90    2.30
  -4  -1  -4   19.10    2.90
  -4  -1  -4   19.10    2.90
   4   1   4   15.40    3.00
   4   1   4   19.30    3.50
   4   1   4   15.70    2.70
   5   1   4  306.27   11.10
   5   1   4  285.87    9.60
   5   1   4  293.17   10.80
   5   1   4  288.47    9.40
   5   1   4  289.77    8.90
   5   1   4  290.77   10.60
   5   1   4  290.27   10.50
   5   1   4  296.97    9.70
   5   1   4  299.77   10.00
   6   1   4  329.67   11.80
   6   1   4  346.97   10.90
   6   1   4  325.47    9.90
   6   1   4  355.66   11.00
   6   1   4  340.07   11.50
   6   1   4  330.37   10.70
   6   1   4  326.57   11.80
   6   1   4  331.27   12.10
   6   1   4  338.67   11.00
   7   1   4  195.28    6.90
   7   1   4  192.18    7.80
   7   1   4  192.58    7.80
   7   1   4  196.28    7.40
   7   1   4  195.28    7.10
   7   1   4  201.88    8.10
   7   1   4  200.38    7.10
   7   1   4  189.88    7.10
   8   1   4   35.80    2.20
   8   1   4   34.00    2.70
   8   1   4   31.90    2.10
   8   1   4   32.30    2.50
   8   1   4   31.70    2.50
   8   1   4   38.80    2.10
   8   1   4   33.70    2.10
   8   1   4   36.80    2.10
   9  -2  -4   80.39    4.20
   9  -2  -4   70.19    4.00
   9  -2  -4   76.49    4.40
  -9   2   4   79.19    4.20
  -9   2   4   72.89    4.20
  -9   2   4   67.99    4.10
   8  -2  -4  121.99    6.20
   8  -2  -4  130.69    6.50
   8  -2  -4  120.29    6.40
  -8   2   4  122.49    6.30
  -8   2   4  118.39    6.40
  -8   2   4  125.39    6.40
   7  -2  -4  352.06   11.90
   7  -2  -4  350.26   12.10
   7  -2  -4  354.46   12.20
  -7   2   4  348.57   12.20
  -7   2   4  354.86   12.00
   6  -2  -4   14.10    2.30
   6  -2  -4    9.40    2.00
   6  -2  -4    8.30    2.30
   6  -2  -4   11.80    2.20
   6  -2  -4   10.10    2.00
   6  -2  -4    9.20    2.60
  -6   2   4    8.20    1.90
  -6   2   4    8.70    2.10
  -6   2   4    8.80    2.50
  -6   2   4   10.50    2.40
   5  -2  -4  484.05   14.10
   5  -2  -4  500.55   14.70
  -5   2   4  461.75   14.30
  -5   2   4  486.05   14.10
  -5   2   4  457.55   14.80
   4  -2  -4 7794.42  159.98
   4  -2  -4 7571.64  160.18
   4  -2  -4 7578.34  160.08
   4  -2  -4 7749.12  160.58
  -4   2   4 7537.35  160.88
  -4   2   4 7668.43  160.68
  -4   2   4 7884.91  161.18
  -4   2   4 7740.73  161.48
   3  -2  -4 2733.73   57.29
   3  -2  -4 2691.23   57.39
   3  -2  -4 2690.33   57.29
   3  -2  -4 2660.43   57.49
  -3   2   4 2602.64   57.99
  -3   2   4 2712.13   58.39
  -3   2   4 2705.43   58.59
  -3   2   4 2664.93   57.99
  -3   2   4 2709.73   57.79
   2  -2  -4   19.80    1.90
   2  -2  -4   20.00    1.70
   2  -2  -4   18.90    1.40
  -2   2   4   20.30    2.20
  -2   2   4   19.00    2.00
  -2   2   4   20.10    2.10
  -2   2   4   20.60    2.00
  -2   2   4   19.30    2.10
   1  -2  -4  428.96   10.70
   1  -2  -4  432.86   11.00
   1  -2  -4  423.26   10.50
  -1   2   4  432.56   11.70
  -1   2   4  445.16   11.60
  -1   2   4  423.26   11.10
  -1   2   4  432.86   11.60
  -1   2   4  419.56   11.10
  -1   2   4  431.56   11.30
   0  -2  -4  110.69    4.30
   0   2   4  115.89    4.30
   0   2   4  110.29    4.40
   0   2   4  111.19    4.60
   0   2   4  114.09    4.30
   0   2   4  114.89    3.80
   0   2   4  117.89    4.60
   0   2   4  114.19    4.60
   0   2   4  110.39    3.70
   0   2   4  118.79    4.60
   1   2   4  524.95   13.40
   1   2   4  522.55   13.50
   1   2   4  502.95   12.70
   1   2   4  503.85   13.40
   1   2   4  502.75   12.90
   1   2   4  496.25   12.90
   1   2   4  500.75   12.90
   1   2   4  493.65   13.30
   1   2   4  515.95   13.80
   1   2   4  489.95   13.00
   1   2   4  501.95   12.80
   1   2   4  508.25   13.50
  -2  -2  -4  455.25   12.10
  -2  -2  -4  464.55   12.90
  -2  -2  -4  476.95   11.50
  -2  -2  -4  455.65   11.30
  -2  -2  -4  455.45   11.70
  -2  -2  -4  473.45   11.80
   2   2   4  453.35   12.70
   2   2   4  467.95   12.90
   2   2   4  374.26   12.50
   2   2   4  454.45   13.10
   2   2   4  463.95   13.60
   2   2   4  456.95   13.70
  -3  -2  -4 2057.59   46.30
  -3  -2  -4 2066.39   46.40
  -3  -2  -4 2027.40   44.90
  -3  -2  -4 1996.70   43.70
  -3  -2  -4 1988.30   44.20
   3   2   4 2018.60   48.00
   3   2   4 2051.39   46.60
   3   2   4 1981.20   47.70
  -4  -2  -4  167.78    7.70
  -4  -2  -4  175.78    7.90
   4   2   4  171.48    8.80
   4   2   4  167.68    9.10
   4   2   4  162.18    7.80
   5   2   4  297.27   10.60
   5   2   4  280.37    9.50
   5   2   4  291.67   11.00
   5   2   4  304.87    9.80
   5   2   4  306.27   11.30
   5   2   4  301.57   11.00
   5   2   4  308.27   10.10
   5   2   4  315.07   10.30
   6   2   4  238.28    8.40
   6   2   4  256.77    8.90
   6   2   4  253.17    9.70
   6   2   4  245.38    9.60
   6   2   4  245.58    8.60
   6   2   4  238.58    9.70
   6   2   4  258.97    8.70
   6   2   4  254.47    9.30
   7   2   4    1.30    0.80
   7   2   4    0.40    0.70
   7   2   4   -0.80    0.50
   7   2   4    1.10    0.70
   7   2   4    0.20    0.80
   7   2   4    1.20    1.00
   7   2   4    0.50    0.80
   7   2   4    1.10    0.90
   9  -3  -4    6.70    1.60
   9  -3  -4   10.30    1.90
  -9   3   4   11.30    2.00
  -9   3   4    9.60    1.90
  -9   3   4    8.50    1.80
   8  -3  -4   93.49    5.50
   8  -3  -4   84.49    5.20
   8  -3  -4   89.89    5.10
  -8   3   4   93.29    5.50
  -8   3   4   87.89    5.40
  -8   3   4   94.99    5.70
   7  -3  -4  107.79    5.70
   7  -3  -4  108.19    5.60
   7  -3  -4  102.39    5.60
  -7   3   4   97.49    5.80
  -7   3   4  101.69    6.10
  -7   3   4  103.89    5.80
  -7   3   4  101.09    6.00
   6  -3  -4  616.94   16.80
   6  -3  -4  603.44   20.30
   6  -3  -4  621.84   17.00
   6  -3  -4  614.04   16.70
  -6   3   4  610.74   17.20
  -6   3   4  659.73   19.40
  -6   3   4  620.84   17.70
   5  -3  -4  788.62   20.70
   5  -3  -4  824.12   21.30
  -5   3   4  837.42   21.30
  -5   3   4  773.42   21.10
  -5   3   4  763.42   21.30
   4  -3  -4  131.29    5.30
   4  -3  -4  135.29    5.00
   4  -3  -4  128.79    5.10
   4  -3  -4  135.69    5.30
  -4   3   4  134.49    6.20
  -4   3   4  130.89    5.50
  -4   3   4  131.89    5.70
  -4   3   4  135.79    5.80
   3  -3  -4  962.90   22.30
   3  -3  -4  960.10   22.40
   3  -3  -4  952.70   22.50
   3  -3  -4  955.20   21.50
  -3   3   4  942.01   22.80
  -3   3   4  978.20   23.10
  -3   3   4  982.70   23.90
  -3   3   4  910.01   23.10
   2  -3  -4 1206.68   27.60
   2  -3  -4 1255.07   26.90
   2  -3  -4 1209.58   28.00
   2  -3  -4 1261.27   27.80
  -2   3   4 1268.67   28.40
  -2   3   4 1234.78   29.20
  -2   3   4 1246.28   28.90
  -2   3   4 1231.18   29.10
  -2   3   4 1214.08   28.10
   1  -3  -4   95.19    4.00
   1  -3  -4   93.09    3.90
   1  -3  -4  102.49    3.70
  -1   3   4   98.89    4.70
  -1   3   4   98.29    4.00
  -1   3   4   95.99    4.60
  -1   3   4   94.19    4.40
  -1   3   4   97.09    4.20
  -1   3   4   90.29    4.50
   0  -3  -4  243.18    8.00
   0  -3  -4  243.08    6.80
   0  -3  -4  245.48    7.60
   0   3   4  248.58    8.00
   0   3   4  232.78    8.30
   0   3   4  239.28    7.10
   0   3   4  239.98    7.30
   0   3   4  243.28    8.00
   0   3   4  248.98    8.20
   0   3   4  246.08    8.40
  -1  -3  -4  169.18    5.80
  -1  -3  -4  162.78    5.70
  -1  -3  -4  157.48    5.90
   1   3   4  165.98    6.10
   1   3   4  159.88    6.80
   1   3   4  169.38    6.70
   1   3   4  157.58    6.50
   1   3   4  157.18    6.70
   1   3   4  163.48    5.90
   1   3   4  154.78    6.40
  -2  -3  -4  525.05   14.60
  -2  -3  -4  544.75   14.80
   2   3   4  519.25   15.80
   2   3   4  541.05   16.00
   2   3   4  541.65   16.50
   2   3   4  568.04   16.20
  -3  -3  -4  569.64   16.80
  -3  -3  -4  566.64   16.20
  -3  -3  -4  568.44   16.20
   3   3   4  537.85   17.40
   3   3   4  567.34   17.30
   3   3   4  543.65   18.00
   4   3   4  865.01   22.80
   4   3   4  824.02   20.70
   4   3   4  815.62   22.70
   4   3   4  801.12   22.20
   4   3   4  820.62   22.20
   4   3   4  810.12   20.90
   4   3   4  849.12   21.90
   4   3   4  840.92   21.40
   5   3   4  191.78    8.30
   5   3   4  178.48    6.90
   5   3   4  122.39    7.10
   5   3   4  187.28    8.00
   5   3   4  189.58    8.30
   5   3   4  181.08    7.60
   5   3   4  182.38    7.00
   5   3   4  175.38    7.10
   6   3   4  489.75   13.30
   6   3   4  471.85   13.50
   6   3   4  465.45   13.90
   6   3   4  498.35   14.40
   6   3   4  496.95   14.60
   6   3   4  469.05   13.30
   6   3   4  488.55   14.70
   7   3   4    0.90    0.70
   7   3   4    1.20    0.90
   7   3   4    0.80    0.80
   7   3   4    0.60    0.60
   7   3   4    0.70    0.70
   7   3   4    0.00    0.50
   7   3   4    0.60    0.60
   9  -4  -4  181.38    6.80
   9  -4  -4  174.48    6.90
  -9   4   4  175.58    7.30
  -9   4   4  170.18    6.80
   8  -4  -4   91.29    5.10
   8  -4  -4   89.59    5.20
   8  -4  -4   87.19    5.00
  -8   4   4   95.79    5.40
  -8   4   4   92.79    5.70
  -8   4   4   90.19    5.70
   7  -4  -4  462.25   14.10
   7  -4  -4  481.25   14.40
   7  -4  -4  447.06   13.80
  -7   4   4  483.35   14.60
  -7   4   4  458.95   15.00
  -7   4   4  460.95   15.40
   6  -4  -4  203.58    7.50
   6  -4  -4  192.78    7.40
   6  -4  -4  193.38    7.20
  -6   4   4  201.78    8.70
  -6   4   4  190.78    8.20
  -6   4   4  199.78    7.90
   5  -4  -4  559.84   15.90
   5  -4  -4  545.35   15.50
  -5   4   4  564.44   17.10
  -5   4   4  539.65   16.30
  -5   4   4  543.95   16.20
   4  -4  -4   88.19    4.20
   4  -4  -4   93.29    4.50
   4  -4  -4   82.99    3.90
   4  -4  -4   86.29    4.20
  -4   4   4   90.39    4.90
  -4   4   4   95.19    5.40
  -4   4   4   93.49    4.80
  -4   4   4   88.49    4.80
   3  -4  -4  127.89    5.10
   3  -4  -4  130.29    5.10
   3  -4  -4  127.79    4.60
   3  -4  -4  131.29    5.30
  -3   4   4  132.99    5.80
  -3   4   4  132.89    5.80
  -3   4   4  133.89    5.40
  -3   4   4  129.69    6.20
  -3   4   4  133.89    6.10
   2  -4  -4  283.77    8.10
   2  -4  -4  281.17    8.70
   2  -4  -4  298.37    8.70
   2  -4  -4  288.07    9.10
  -2   4   4  298.77   10.00
  -2   4   4  292.57    9.90
  -2   4   4  284.87    9.10
  -2   4   4  293.97   10.00
   1  -4  -4  101.59    4.70
   1  -4  -4  108.39    4.40
   1  -4  -4  105.99    4.80
  -1   4   4  101.29    4.50
  -1   4   4  108.49    5.40
  -1   4   4  102.89    5.20
  -1   4   4  104.69    5.20
  -1   4   4  105.79    5.50
   0  -4  -4  541.25   15.30
   0  -4  -4  529.25   14.60
   0  -4  -4  561.24   13.60
   0   4   4  536.55   15.30
   0   4   4  532.95   14.90
   0   4   4  536.25   15.90
   0   4   4  524.75   15.20
   0   4   4  525.65   15.80
  -1  -4  -4  205.38    6.80
  -1  -4  -4  192.98    7.00
  -1  -4  -4  201.68    8.00
   1   4   4  200.28    8.30
   1   4   4  201.58    8.20
   1   4   4  213.48    8.80
  -2  -4  -4  204.08    7.90
  -2  -4  -4  206.28    9.00
  -2  -4  -4  197.48    7.60
   2   4   4  196.18    9.20
   2   4   4  198.58    9.00
   2   4   4  197.48    8.80
  -3  -4  -4   57.69    4.30
   3   4   4   52.69    5.00
   3   4   4   72.09    6.60
   3   4   4   68.99    4.40
   3   4   4   54.09    3.60
   3   4   4   62.99    4.00
   3   4   4   59.69    5.00
   3   4   4   60.59    5.10
   3   4   4   56.69    4.90
   3   4   4   69.99    7.00
   4   4   4  888.61   23.80
   4   4   4  893.61   22.80
   4   4   4  920.51   24.70
   4   4   4  906.31   24.20
   4   4   4  894.31   24.10
   4   4   4  922.91   23.40
   4   4   4  890.71   22.50
   5   4   4  133.29    5.70
   5   4   4  141.19    6.30
   5   4   4  147.69    6.80
   5   4   4  147.39    6.90
   5   4   4  145.59    7.00
   5   4   4  134.79    6.70
   5   4   4  137.99    6.00
   6   4   4   10.90    1.80
   6   4   4    7.60    1.70
   6   4   4    8.50    1.40
   6   4   4    8.70    1.60
   6   4   4    7.20    1.60
   6   4   4   11.40    1.80
   9  -5  -4   29.60    3.00
   9  -5  -4   29.70    2.90
  -9   5   4   32.40    3.50
  -9   5   4   32.20    3.30
  -9   5   4   31.90    3.20
   8  -5  -4  267.07    9.60
   8  -5  -4  287.27    9.90
  -8   5   4  279.27   10.00
  -8   5   4  265.07   10.60
  -8   5   4  280.37   10.70
   7  -5  -4  317.27   10.50
   7  -5  -4  304.97   10.40
   7  -5  -4  311.97   10.70
  -7   5   4  316.97   12.20
  -7   5   4  315.87   11.60
  -7   5   4  304.97   10.90
   6  -5  -4  225.28    8.20
   6  -5  -4  244.08    8.20
   6  -5  -4  234.48    8.10
  -6   5   4  222.08    8.60
  -6   5   4  231.88    9.90
  -6   5   4  242.98    9.50
  -6   5   4  217.98    9.20
   5  -5  -4   37.40    3.80
   5  -5  -4   38.20    3.70
  -5   5   4   31.70    3.90
  -5   5   4   35.70    4.60
   4  -5  -4   11.60    1.90
   4  -5  -4    9.40    1.80
   4  -5  -4    7.40    1.60
  -4   5   4    6.20    1.90
  -4   5   4    8.50    2.10
  -4   5   4    8.00    1.90
   3  -5  -4 2423.26   51.49
   3  -5  -4 2331.07   51.09
   3  -5  -4 2271.87   51.49
   3  -5  -4 2208.78   50.29
  -3   5   4 2324.57   52.09
  -3   5   4 2284.17   53.29
  -3   5   4 2359.76   53.09
  -3   5   4 2315.17   53.69
   2  -5  -4    2.90    1.00
   2  -5  -4    5.50    1.40
   2  -5  -4    9.10    1.90
   2  -5  -4    5.40    1.40
  -2   5   4    7.80    2.00
  -2   5   4    4.50    1.50
  -2   5   4    3.60    1.40
  -2   5   4    5.70    1.50
   1  -5  -4  101.09    5.10
   1  -5  -4   86.59    4.40
   1  -5  -4   98.99    5.10
  -1   5   4   87.99    5.20
  -1   5   4   92.49    5.60
  -1   5   4   86.29    5.30
  -1   5   4   98.49    5.60
   0  -5  -4  103.89    5.30
   0  -5  -4  108.29    5.90
   0   5   4   99.59    6.10
   0   5   4  107.39    5.80
   0   5   4  101.19    6.10
  -1  -5  -4  126.99    6.60
  -1  -5  -4  139.99    7.30
  -1  -5  -4  123.79    5.70
   1   5   4  129.49    7.20
   1   5   4  113.79    6.60
   1   5   4  125.09    6.90
  -2  -5  -4  441.36   15.10
  -2  -5  -4  424.96   13.40
   2   5   4  387.96   18.00
   2   5   4  404.36   13.40
   2   5   4  417.96   13.70
   2   5   4  401.46   13.00
   2   5   4  429.76   15.30
   2   5   4  424.56   15.00
   3   5   4   82.49    6.40
   3   5   4   92.49    6.70
   3   5   4   75.99    4.20
   3   5   4   81.79    4.90
   3   5   4   79.79    4.70
   3   5   4   76.69    4.90
   3   5   4   82.59    5.00
   4   5   4  368.66   12.40
   4   5   4  364.76   11.60
   4   5   4  362.26   12.10
   4   5   4  375.06   12.40
   4   5   4  373.36   11.30
   4   5   4  352.76   12.50
   5   5   4  280.47    9.20
   5   5   4  281.67    9.40
   5   5   4  280.57    8.50
   5   5   4  271.87    9.40
   5   5   4  271.77    8.70
   5   5   4  288.57    9.80
   5   5   4  285.17    9.70
   6   5   4   58.49    3.10
   6   5   4   58.29    2.60
   6   5   4   61.19    2.80
   6   5   4   59.39    3.00
   6   5   4   61.29    2.90
   6   5   4   68.49    3.10
   6   5   4   59.79    3.00
   9  -6  -4    0.20    0.80
   9  -6  -4    0.50    0.70
  -9   6   4    0.30    1.00
  -9   6   4   -0.20    1.00
  -9   6   4    0.70    1.00
   8  -6  -4  388.96   11.60
   8  -6  -4  371.36   11.80
  -8   6   4  364.46   13.10
  -8   6   4  364.26   12.60
   7  -6  -4  263.77    9.20
   7  -6  -4  280.37    9.70
   7  -6  -4  269.07    9.30
  -7   6   4  252.77   10.90
  -7   6   4  256.67   10.30
  -7   6   4  262.77   10.40
   6  -6  -4    1.80    1.10
   6  -6  -4    4.20    1.30
  -6   6   4    2.70    1.50
  -6   6   4    2.20    1.50
  -6   6   4    2.50    1.10
  -6   6   4    3.90    1.90
   5  -6  -4  589.04   15.10
  -5   6   4  576.84   17.10
  -5   6   4  562.54   17.30
  -5   6   4  561.84   17.10
  -5   6   4  583.74   15.30
  -5   6   4  583.24   15.40
  -5   6   4  593.94   18.00
   4  -6  -4   41.80    4.00
   4  -6  -4   48.00    4.40
   4  -6  -4   36.00    3.50
  -4   6   4   40.10    4.90
  -4   6   4   40.30    4.40
  -4   6   4   42.40    4.50
  -4   6   4   43.70    4.90
   3  -6  -4    0.70    0.80
   3  -6  -4    1.20    0.90
   3  -6  -4    0.10    0.70
   3  -6  -4    0.60    0.80
  -3   6   4    1.00    1.30
  -3   6   4    5.20    2.00
  -3   6   4    2.60    1.30
  -3   6   4    1.60    1.20
   2  -6  -4  132.89    6.60
   2  -6  -4  129.09    5.70
   2  -6  -4  136.39    6.30
   2  -6  -4  134.99    6.10
  -2   6   4  136.99    7.30
  -2   6   4  135.59    7.30
  -2   6   4  126.59    7.20
   1  -6  -4  152.48    6.60
   1  -6  -4  158.08    7.20
   1  -6  -4  147.99    7.00
  -1   6   4  159.18    7.60
  -1   6   4  140.59    7.50
  -1   6   4  156.88    8.00
  -1   6   4  140.69    7.90
   0  -6  -4 1469.95   35.50
   0  -6  -4 1473.15   36.50
   0  -6  -4 1511.45   36.50
   0   6   4 1426.26   37.50
   0   6   4 1403.66   36.10
   0   6   4 1427.16   37.60
   1   6   4    1.00    1.10
   1   6   4    1.90    1.20
   1   6   4    1.60    1.20
   1   6   4    3.20    1.40
   1   6   4    1.90    1.00
   1   6   4    0.90    1.10
   1   6   4   -0.30    0.90
   1   6   4    2.00    1.60
   1   6   4    1.50    1.10
   2   6   4   64.79    5.20
   2   6   4   77.39    6.20
   2   6   4   66.99    5.40
   2   6   4   68.99    5.30
   2   6   4   61.39    5.30
   2   6   4   73.49    5.70
   2   6   4   61.39    5.50
   3   6   4  645.04   18.40
   3   6   4  655.43   17.80
   3   6   4  666.43   18.10
   3   6   4  637.24   18.30
   3   6   4  645.84   18.90
   3   6   4  656.63   19.00
   4   6   4  471.35   13.40
   4   6   4  477.65   14.30
   4   6   4  470.25   14.00
   4   6   4  467.15   14.00
   4   6   4  495.05   14.50
   4   6   4  491.25   14.00
   5   6   4   27.10    2.50
   5   6   4   29.30    2.30
   5   6   4   25.10    2.50
   5   6   4   24.60    2.30
   5   6   4   24.00    2.50
   5   6   4   28.40    2.60
   9  -7  -4  661.13   15.90
   9  -7  -4  619.74   16.00
  -9   7   4  658.83   17.10
  -9   7   4  611.34   16.50
   8  -7  -4   26.30    2.80
   8  -7  -4   31.90    3.20
  -8   7   4   28.30    3.50
  -8   7   4   28.70    3.50
  -8   7   4   35.80    4.20
   7  -7  -4   67.49    4.00
   7  -7  -4   67.69    4.00
   7  -7  -4   69.19    4.10
  -7   7   4   63.69    5.50
  -7   7   4   69.79    6.10
  -7   7   4   66.69    5.80
   6  -7  -4  493.75   14.10
   6  -7  -4  499.15   13.80
  -6   7   4  496.95   16.70
  -6   7   4  514.55   13.90
  -6   7   4  475.05   15.50
  -6   7   4  498.65   16.30
   5  -7  -4   15.30    2.10
  -5   7   4   13.80    2.80
  -5   7   4   15.30    2.80
  -5   7   4   12.90    1.90
  -5   7   4   12.10    2.70
  -5   7   4   14.20    2.10
  -5   7   4   11.30    2.50
  -5   7   4   14.90    2.20
  -4   7   4  826.92   20.20
  -4   7   4  825.42   20.20
  -4   7   4  856.51   23.10
  -4   7   4  812.42   20.60
  -4   7   4  834.62   23.30
  -4   7   4  798.72   21.90
  -4   7   4  783.32   21.50
  -4   7   4  833.62   20.30
  -4   7   4  852.51   23.10
  -4   7   4  804.12   22.80
  -4   7   4  813.72   20.60
   3  -7  -4  390.56   13.60
   3  -7  -4  385.56   12.90
   3  -7  -4  379.46   16.80
  -3   7   4  401.36   17.50
  -3   7   4  380.16   11.50
  -3   7   4  394.26   14.80
  -3   7   4  388.36   11.60
  -3   7   4  379.56   11.80
  -3   7   4  378.66   12.90
  -3   7   4  390.36   14.50
  -3   7   4  379.86   11.40
  -3   7   4  395.56   13.30
  -3   7   4  380.26   13.40
   2  -7  -4  209.48    9.30
   2  -7  -4  205.48    8.60
   2  -7  -4  216.08    8.80
  -2   7   4  210.58    8.00
  -2   7   4  218.28    9.50
  -2   7   4  203.38    8.30
  -2   7   4  211.38   10.00
  -2   7   4  222.48    9.10
  -2   7   4  200.78    7.80
  -2   7   4  204.08    9.50
  -2   7   4  210.28   10.10
  -2   7   4  208.58    9.10
  -2   7   4  217.78   10.40
   1  -7  -4    1.80    1.20
  -1   7   4    1.70    1.10
  -1   7   4    1.60    1.50
  -1   7   4    1.00    1.10
  -1   7   4    1.80    1.10
  -1   7   4    3.10    1.20
  -1   7   4    4.60    1.70
  -1   7   4    0.30    1.00
  -1   7   4    1.20    1.10
  -1   7   4    1.70    1.00
   0   7   4  106.49    5.60
   0   7   4  109.19    5.90
   0   7   4  117.69    6.30
   0   7   4  113.19    6.50
   0   7   4  104.49    5.60
   0   7   4  103.89    5.30
   0   7   4  106.89    5.80
   0   7   4   98.69    5.00
   1   7   4  112.39    6.40
   1   7   4  103.89    5.30
   1   7   4  113.09    6.10
   1   7   4  109.09    5.60
   1   7   4  101.69    5.30
   1   7   4  106.49    5.90
   1   7   4  100.59    5.50
   1   7   4  103.49    5.80
   2   7   4   28.00    3.60
   2   7   4   22.60    3.10
   2   7   4   25.30    3.10
   2   7   4   21.70    2.90
   2   7   4   18.90    2.90
   2   7   4   17.00    2.80
   2   7   4   20.90    2.80
   3   7   4   68.99    4.20
   3   7   4   73.19    4.50
   3   7   4   67.99    4.20
   3   7   4   73.79    4.50
   3   7   4   52.69    4.20
   3   7   4   65.79    4.90
   3   7   4   74.99    4.10
   4   7   4   36.80    3.00
   4   7   4   34.90    3.00
   4   7   4   44.00    3.40
   4   7   4   44.30    3.50
   4   7   4   36.60    2.80
   4   7   4   37.20    3.10
   9  -8  -4  387.46    9.80
   9  -8  -4  351.46    9.80
  -9   8   4  373.16   10.80
   8  -8  -4   45.00    3.60
   8  -8  -4   43.10    3.20
  -8   8   4   43.70    3.90
  -8   8   4   46.40    4.10
  -8   8   4   44.00    4.40
   7  -8  -4   76.99    4.20
   7  -8  -4   67.19    3.80
  -7   8   4   75.99    6.50
  -7   8   4   68.59    5.80
  -7   8   4   71.59    5.50
   6  -8  -4  463.95   13.40
   6  -8  -4  463.45   13.10
   6  -8  -4  486.65   14.90
  -6   8   4  476.35   13.10
  -6   8   4  477.65   15.70
  -6   8   4  446.16   14.90
  -6   8   4  467.25   16.00
   5  -8  -4  141.79    5.60
   5  -8  -4  145.29    5.90
  -5   8   4  151.88    7.60
  -5   8   4  159.98    7.90
  -5   8   4  156.98    7.90
  -5   8   4  141.49    7.90
  -5   8   4  141.99    5.60
  -5   8   4  157.28    6.20
  -5   8   4  152.28    6.20
   4  -8  -4   43.90    3.30
  -4   8   4   37.50    3.40
  -4   8   4   41.60    3.40
  -4   8   4   51.89    4.20
  -4   8   4   51.19    4.70
  -4   8   4   49.20    5.20
  -4   8   4   41.40    4.30
  -4   8   4   39.90    4.60
  -4   8   4   47.70    5.10
  -4   8   4   41.30    3.50
  -4   8   4   47.40    3.70
  -3   8   4  172.68    8.30
  -3   8   4  165.88    6.30
  -3   8   4  168.28    6.60
  -3   8   4  175.08    8.10
  -3   8   4  173.98    8.00
  -3   8   4  165.28    8.30
  -3   8   4  180.88    7.00
  -3   8   4  168.08    6.70
  -3   8   4  169.58    6.80
  -3   8   4  158.38    6.80
  -3   8   4  173.68    8.10
  -2   8   4   87.29    5.70
  -2   8   4   89.79    4.50
  -2   8   4   95.69    4.90
  -2   8   4   97.49    5.30
  -2   8   4   98.39    6.00
  -2   8   4   91.29    5.80
  -2   8   4   95.29    5.10
  -2   8   4  101.99    5.20
  -2   8   4   96.29    5.10
  -2   8   4   97.69    6.20
  -1   8   4 1041.90   26.40
  -1   8   4 1062.89   25.90
  -1   8   4 1055.89   26.40
  -1   8   4 1026.10   27.60
  -1   8   4 1004.50   26.10
  -1   8   4 1007.00   25.00
  -1   8   4 1035.80   27.60
  -1   8   4 1035.30   28.00
  -1   8   4 1050.79   26.50
   0   8   4  112.99    6.10
   0   8   4  108.69    5.90
   0   8   4  119.29    6.80
   0   8   4  111.89    6.00
   0   8   4  111.19    5.80
   0   8   4  111.49    5.60
   0   8   4  125.49    6.60
   0   8   4  120.19    5.50
   1   8   4  289.97    9.90
   1   8   4  282.37    9.50
   1   8   4  284.17   10.50
   1   8   4  290.17   10.30
   1   8   4  269.27    9.80
   1   8   4  295.67   10.80
   1   8   4  289.47   10.40
   2   8   4    2.70    1.20
   2   8   4    1.70    1.20
   2   8   4    2.20    1.20
   2   8   4    1.00    0.90
   2   8   4   -1.70    0.80
   2   8   4    1.30    0.90
   2   8   4    1.20    0.90
   3   8   4   61.29    3.60
   3   8   4   61.99    3.30
   3   8   4   69.69    3.60
   3   8   4   58.49    3.30
   3   8   4   59.79    3.30
   3   8   4   57.29    3.10
   8  -9  -4   74.39    3.40
   8  -9  -4   67.29    3.40
  -8   9   4   61.89    4.10
  -8   9   4   69.59    4.00
   7  -9  -4  241.68    8.00
   7  -9  -4  258.37    7.90
  -7   9   4  231.18    8.70
  -7   9   4  236.78    9.50
  -7   9   4  253.97    9.60
   6  -9  -4  299.47    9.50
   6  -9  -4  303.77    9.30
   6  -9  -4  304.57    9.50
  -6   9   4  304.17   10.50
  -6   9   4  306.67   11.30
  -6   9   4  312.77    9.30
  -6   9   4  284.07   10.90
  -6   9   4  293.87   11.30
   5  -9  -4  145.59    5.60
   5  -9  -4  157.88    6.10
  -5   9   4  153.68    6.80
  -5   9   4  158.58    5.70
  -5   9   4  158.68    7.70
  -5   9   4  158.28    6.20
  -5   9   4  159.88    6.30
  -5   9   4  149.99    7.60
  -5   9   4  164.58    7.90
   4  -9  -4  106.59    4.60
  -4   9   4  100.59    6.20
  -4   9   4  108.29    4.80
  -4   9   4  107.99    6.40
  -4   9   4  106.79    5.00
  -4   9   4   98.09    4.90
  -4   9   4  107.09    5.70
  -4   9   4  115.99    4.90
  -4   9   4  103.79    6.40
  -4   9   4  108.79    4.90
  -4   9   4   99.79    5.80
  -3   9   4  479.75   13.60
  -3   9   4  471.35   13.30
  -3   9   4  482.65   13.80
  -3   9   4  470.65   13.50
  -3   9   4  484.65   15.50
  -3   9   4  467.35   15.10
  -3   9   4  459.95   12.90
  -3   9   4  458.95   15.70
  -3   9   4  480.15   15.60
  -3   9   4  466.15   13.50
  -2   9   4  398.56   11.60
  -2   9   4  411.26   13.90
  -2   9   4  417.06   12.50
  -2   9   4  411.26   12.10
  -2   9   4  420.56   12.60
  -2   9   4  350.06   13.10
  -2   9   4  419.76   12.50
  -2   9   4  403.16   13.90
  -2   9   4  395.66   12.50
  -2   9   4  393.86   14.00
  -1   9   4   98.29    5.20
  -1   9   4   91.99    5.70
  -1   9   4   89.49    5.10
  -1   9   4   94.99    5.10
  -1   9   4   82.59    4.80
  -1   9   4   95.69    4.80
  -1   9   4   89.89    5.60
  -1   9   4   88.09    4.50
  -1   9   4   94.29    5.90
   0   9   4  147.79    6.80
   0   9   4  141.39    6.50
   0   9   4  151.28    6.00
   0   9   4  146.69    6.60
   0   9   4  140.69    6.30
   0   9   4  146.59    7.20
   0   9   4  144.29    6.20
   0   9   4  150.88    6.60
   1   9   4  110.29    5.20
   1   9   4  100.89    4.80
   1   9   4   94.49    4.90
   1   9   4   95.19    4.60
   1   9   4  100.99    4.50
   1   9   4   98.49    5.20
   2   9   4  130.79    5.30
   2   9   4  140.29    5.40
   2   9   4  131.69    5.10
   2   9   4  132.29    4.90
   2   9   4  138.69    5.10
   2   9   4  133.49    4.80
   2   9   4  130.99    4.80
   7 -10  -4   37.60    2.70
   7 -10  -4   34.50    2.60
  -7  10   4   34.30    3.30
  -7  10   4   35.10    3.30
  -7  10   4   35.70    3.20
   6 -10  -4  551.34   13.90
   6 -10  -4  528.95   14.00
  -6  10   4  532.95   13.60
  -6  10   4  539.25   14.90
  -6  10   4  547.45   15.80
  -6  10   4  531.45   15.80
   5 -10  -4   93.59    3.90
   5 -10  -4   95.79    4.30
  -5  10   4   99.19    5.70
  -5  10   4   99.69    5.60
  -5  10   4  104.19    4.50
  -5  10   4   93.79    5.50
  -5  10   4   91.89    4.80
  -5  10   4   95.59    4.30
   4 -10  -4   10.10    1.50
  -4  10   4    8.40    1.50
  -4  10   4    7.10    2.10
  -4  10   4    6.40    1.30
  -4  10   4    7.10    2.00
  -4  10   4    8.70    1.80
  -4  10   4    5.90    1.70
  -4  10   4    0.60    1.10
  -4  10   4   11.60    1.80
  -4  10   4    8.70    1.50
  -4  10   4   11.60    1.80
  -3  10   4    6.00    1.40
  -3  10   4    5.20    1.80
  -3  10   4    9.40    1.70
  -3  10   4    7.30    1.50
  -3  10   4    9.30    1.70
  -3  10   4    9.90    2.40
  -3  10   4    6.00    1.80
  -3  10   4    8.30    1.60
  -3  10   4    9.40    2.10
  -2  10   4  283.67    8.90
  -2  10   4  297.77   10.80
  -2  10   4  304.37    9.60
  -2  10   4  316.47    9.70
  -2  10   4  307.97    9.70
  -2  10   4  299.47    9.40
  -2  10   4  308.57   10.90
  -2  10   4  314.17   11.10
  -2  10   4  310.97    9.80
  -1  10   4  254.87    8.40
  -1  10   4  245.08    8.10
  -1  10   4  246.48    9.10
  -1  10   4  250.37    9.40
  -1  10   4  250.67    8.40
  -1  10   4  249.18    8.40
  -1  10   4  257.97    8.60
  -1  10   4  244.58    7.70
   0  10   4  665.43   16.90
   0  10   4  659.93   16.60
   0  10   4  656.83   17.60
   0  10   4  656.53   17.00
   0  10   4  673.53   16.90
   0  10   4  657.23   16.10
   0  10   4  678.03   17.10
   0  10   4  651.43   16.70
   1  10   4  196.48    6.40
   1  10   4  207.38    6.20
   1  10   4  205.68    6.40
   1  10   4  202.18    6.40
   1  10   4  201.58    5.90
   1  10   4  203.08    6.50
   1  10   4  200.78    6.20
   6 -11  -4   23.50    2.00
   6 -11  -4   24.80    1.90
  -6  11   4   22.40    2.50
  -6  11   4   23.60    2.20
  -6  11   4   18.70    2.20
   5 -11  -4   59.99    2.80
  -5  11   4   61.79    3.70
  -5  11   4   50.79    4.10
  -5  11   4   53.19    3.40
  -5  11   4   55.99    2.70
  -5  11   4   57.09    3.10
   4 -11  -4  112.09    4.20
   4 -11  -4  105.69    3.90
  -4  11   4  108.39    4.20
  -4  11   4  111.69    5.40
  -4  11   4  108.39    4.60
  -4  11   4  106.79    3.90
  -4  11   4  104.39    4.80
  -4  11   4  109.49    3.90
  -4  11   4  112.89    4.40
  -4  11   4  107.29    5.30
   3 -11  -4  499.05   12.60
  -3  11   4  534.65   13.10
  -3  11   4  517.75   13.00
  -3  11   4  524.95   14.10
  -3  11   4  517.15   14.80
  -3  11   4  529.95   14.50
  -3  11   4  522.85   13.40
  -3  11   4  549.45   13.40
  -3  11   4  501.15   13.10
  -2  11   4    2.10    0.80
  -2  11   4    2.70    0.90
  -2  11   4    1.20    0.90
  -2  11   4    0.90    0.70
  -2  11   4    1.50    0.90
  -2  11   4    2.90    0.90
  -2  11   4    1.10    0.70
  -2  11   4    1.40    0.90
  -1  11   4    5.50    1.10
  -1  11   4    6.50    1.30
  -1  11   4    4.90    0.90
  -1  11   4    6.40    1.10
  -1  11   4    5.60    1.30
  -1  11   4    5.40    0.90
  -1  11   4    5.60    1.10
  -1  11   4    5.90    1.10
  -1  12  -5   52.09    2.90
  -1  12  -5   56.29    3.00
   1 -12   5   50.79    2.40
  -2  12  -5   77.19    3.80
  -2  12  -5   87.79    4.10
  -2  12  -5   81.29    3.90
   2 -12   5   77.19    3.20
   2 -12   5   82.79    3.40
   2 -12   5   82.79    3.00
  -3  12  -5   32.20    2.90
  -3  12  -5   33.70    2.90
   3 -12   5   32.40    1.80
   3 -12   5   34.90    2.20
  -4  12  -5    0.10    0.80
  -4  12  -5    1.30    0.90
   4 -12   5   -0.40    0.50
   4 -12   5    1.00    0.50
   1  11  -5   53.59    2.80
   1  11  -5   56.79    2.80
   1  11  -5   49.20    3.20
  -1 -11   5   55.79    2.60
  -1 -11   5   51.59    2.50
   0  11  -5  435.06   11.00
   0  11  -5  453.75   11.90
   0  11  -5  466.35   13.60
   0  11  -5  428.06   12.70
   0 -11   5  426.86   11.60
   0 -11   5  458.45   11.70
  -1  11  -5  419.66   12.60
  -1  11  -5  423.36   13.20
  -1  11  -5  412.36   13.00
   1 -11   5  414.96   11.40
   1 -11   5  425.76   11.60
  -2  11  -5   50.39    4.50
  -2  11  -5   56.49    4.70
  -2  11  -5   59.69    4.90
   2 -11   5   61.89    3.40
   2 -11   5   53.19    2.80
   2 -11   5   52.79    3.10
  -3  11  -5  114.69    5.40
  -3  11  -5  109.69    5.80
  -3  11  -5  113.09    5.70
   3 -11   5  109.39    4.70
   3 -11   5  111.39    4.40
   3 -11   5  119.39    5.00
  -4  11  -5   42.10    4.10
  -4  11  -5   43.50    3.90
  -4  11  -5   39.80    3.60
   4 -11   5   41.00    2.50
   4 -11   5   44.10    2.70
   4 -11   5   49.30    3.00
  -5  11  -5   10.20    1.90
  -5  11  -5   16.10    2.40
   5 -11   5   11.80    1.70
   5 -11   5   12.80    1.50
  -6  11  -5  114.49    4.70
  -6  11  -5  122.49    5.00
   6 -11   5  113.69    4.10
   6 -11   5  121.59    4.50
   2  10  -5   76.69    3.80
   2  10  -5   78.29    3.50
   2  10  -5   74.99    3.00
   2  10  -5   74.59    3.90
   2  10  -5   74.59    4.20
  -2 -10   5   74.59    3.50
  -2 -10   5   69.59    3.40
   1  10  -5    4.30    1.30
   1  10  -5    6.30    2.10
   1  10  -5    7.10    1.40
   1  10  -5    8.30    1.40
   1  10  -5    6.60    1.70
   1  10  -5    4.50    1.40
  -1 -10   5    5.30    1.40
  -1 -10   5    7.30    1.50
   0  10  -5   -0.30    0.80
   0  10  -5   -0.20    1.00
   0  10  -5    1.50    0.80
   0  10  -5    1.60    1.20
   0 -10   5    0.30    0.80
   0 -10   5    1.50    0.80
  -1  10  -5  382.06   11.80
  -1  10  -5  392.66   11.00
  -1  10  -5  393.46   13.00
  -1  10  -5  366.76   13.00
  -1  10  -5  372.06   13.40
   1 -10   5  402.46   11.80
   1 -10   5  374.66   11.50
  -2  10  -5  205.58    8.90
  -2  10  -5  191.58    8.70
  -2  10  -5  207.98    8.90
   2 -10   5  205.28    7.50
   2 -10   5  199.68    7.50
  -3  10  -5  242.48    9.90
  -3  10  -5  236.28    9.00
  -3  10  -5  234.48    9.50
   3 -10   5  243.78    8.40
   3 -10   5  243.08    7.90
   3 -10   5  235.08    8.30
  -4  10  -5  556.94   17.30
  -4  10  -5  580.04   16.70
  -4  10  -5  574.84   16.70
   4 -10   5  584.94   15.10
   4 -10   5  601.74   16.00
   4 -10   5  589.84   15.70
  -5  10  -5  470.55   14.00
  -5  10  -5  451.35   13.60
  -5  10  -5  453.65   14.20
   5 -10   5  472.65   13.30
   5 -10   5  449.86   12.40
   5 -10   5  463.85   12.90
  -6  10  -5   19.80    2.60
  -6  10  -5   16.20    2.30
   6 -10   5   18.70    2.40
   6 -10   5   14.40    1.80
  -7  10  -5  435.16   11.60
  -7  10  -5  426.46   11.90
   7 -10   5  446.76   11.60
   7 -10   5  434.86   11.20
   4   9  -5  246.98    7.30
   4   9  -5  270.77    7.60
   3   9  -5    6.60    1.60
   3   9  -5    5.60    1.30
   3   9  -5    8.10    1.60
   3   9  -5    7.50    1.70
   3   9  -5    8.50    1.30
   3   9  -5    7.70    1.70
   3   9  -5    6.10    1.30
  -3  -9   5    5.20    1.20
   2   9  -5  123.39    5.90
   2   9  -5  120.59    5.00
   2   9  -5  122.59    5.50
   2   9  -5  111.39    5.50
   2   9  -5  125.39    6.60
   2   9  -5  118.89    5.90
   2   9  -5  123.69    5.40
  -2  -9   5  113.59    5.30
   1   9  -5   15.70    2.40
   1   9  -5   21.60    3.50
   1   9  -5   19.10    2.90
   1   9  -5   19.60    2.40
   1   9  -5   16.40    2.70
   1   9  -5   16.00    2.80
  -1  -9   5   15.40    2.40
   0   9  -5    4.90    2.00
   0   9  -5    3.90    1.70
   0   9  -5   -0.60    0.80
   0   9  -5    6.00    1.60
   0   9  -5    3.80    1.50
   0   9  -5    5.50    1.40
   0  -9   5    6.30    1.60
   0  -9   5    4.80    1.40
  -1   9  -5  722.33   20.50
  -1   9  -5  701.93   19.20
  -1   9  -5  703.83   18.90
  -1   9  -5  688.93   20.80
  -1   9  -5  716.63   20.30
  -1   9  -5  693.53   18.00
   1  -9   5  708.83   18.60
   1  -9   5  694.83   18.60
  -2   9  -5  882.01   24.50
  -2   9  -5  920.41   24.80
  -2   9  -5  901.71   23.60
  -2   9  -5  902.61   25.00
  -2   9  -5  906.21   22.20
   2  -9   5  939.51   23.20
   2  -9   5  909.11   22.90
  -3   9  -5   42.40    4.50
  -3   9  -5   40.80    4.60
  -3   9  -5   41.00    4.20
   3  -9   5   42.90    3.80
   3  -9   5   48.90    3.70
   3  -9   5   47.90    4.00
  -4   9  -5  241.58    9.40
  -4   9  -5  240.78    9.00
  -4   9  -5  230.78    9.60
   4  -9   5  243.08    8.60
   4  -9   5  247.18    8.80
   4  -9   5  235.38    8.00
  -5   9  -5   13.40    2.30
  -5   9  -5   15.30    2.70
  -5   9  -5   21.60    3.00
   5  -9   5   17.00    2.50
   5  -9   5   16.90    2.60
   5  -9   5   12.50    1.90
  -6   9  -5  128.29    6.10
  -6   9  -5  136.29    6.30
   6  -9   5  131.59    5.90
   6  -9   5  125.09    5.50
   6  -9   5  134.59    5.50
  -7   9  -5   37.60    3.20
  -7   9  -5   41.80    3.70
  -7   9  -5   40.00    3.50
   7  -9   5   34.40    3.10
   7  -9   5   41.50    3.20
   4   8  -5   -0.50    0.70
   4   8  -5   -0.10    0.60
   4   8  -5    0.60    0.80
   4   8  -5    1.00    0.90
   4   8  -5    1.60    0.80
   4   8  -5    0.10    0.90
  -4  -8   5    2.30    0.90
  -4  -8   5    1.70    1.00
   3   8  -5  206.18    7.80
   3   8  -5  210.28    7.20
   3   8  -5  223.38    8.60
   3   8  -5  202.58    8.30
   3   8  -5  205.78    8.80
   3   8  -5  208.88    8.60
   3   8  -5  219.38    7.90
   3   8  -5  214.88    8.00
  -3  -8   5  200.48    7.70
   2   8  -5   46.50    4.40
   2   8  -5   43.90    3.70
   2   8  -5   55.29    5.00
   2   8  -5   40.50    4.40
   2   8  -5   43.10    4.80
   2   8  -5   44.40    4.00
   2   8  -5   36.50    3.80
   1   8  -5    8.70    2.00
   1   8  -5   17.40    3.20
   1   8  -5    4.10    1.50
   1   8  -5    3.60    1.60
   1   8  -5    3.80    1.50
   1   8  -5    5.10    1.40
   1   8  -5    4.20    1.50
  -1  -8   5    4.10    1.40
   0   8  -5   61.69    4.10
   0   8  -5   73.29    4.40
   0   8  -5   67.29    5.50
   0   8  -5   65.79    3.80
   0   8  -5   70.99    6.30
   0   8  -5   76.19    4.90
   0   8  -5   74.59    5.70
   0  -8   5   71.89    4.30
  -1   8  -5   46.40    4.50
  -1   8  -5   58.19    5.60
  -1   8  -5   50.49    3.80
  -1   8  -5   40.10    3.80
  -1   8  -5   51.99    4.90
   1  -8   5   52.09    4.30
   1  -8   5   48.40    4.20
  -2   8  -5  292.27   11.00
  -2   8  -5  299.27   10.60
  -2   8  -5  304.17   10.70
  -2   8  -5  294.27    9.90
  -2   8  -5  282.67    9.00
   2  -8   5  273.27   11.00
   2  -8   5  300.97    9.80
   2  -8   5  290.97    9.70
  -3   8  -5    1.20    0.90
  -3   8  -5    7.80    1.80
  -3   8  -5    7.10    1.90
  -3   8  -5    5.70    1.80
   3  -8   5    6.60    1.60
   3  -8   5    6.30    1.50
   3  -8   5    6.20    1.40
  -4   8  -5  253.67    9.20
  -4   8  -5  255.77    9.70
  -4   8  -5  245.68    8.90
   4  -8   5  236.58    8.70
   4  -8   5  242.78    8.10
   4  -8   5  224.38    8.60
  -5   8  -5  322.77   11.50
  -5   8  -5  335.27   11.30
  -5   8  -5  326.67   11.30
   5  -8   5  351.66   11.20
   5  -8   5  335.67   10.40
   5  -8   5  341.27   11.30
  -6   8  -5  100.09    5.30
  -6   8  -5   90.29    5.10
  -6   8  -5   87.09    5.00
   6  -8   5   89.39    5.00
   6  -8   5   82.39    4.50
   6  -8   5   87.29    4.70
  -7   8  -5   85.59    4.70
  -7   8  -5   89.29    4.90
   7  -8   5   88.79    4.70
   7  -8   5   86.09    4.40
   7  -8   5   79.49    4.20
  -8   8  -5  179.88    6.30
  -8   8  -5  179.78    6.60
   8  -8   5  178.88    6.10
   8  -8   5  191.78    6.50
   5   7  -5  227.98    8.20
   5   7  -5  218.78    7.50
   5   7  -5  236.28    8.30
   5   7  -5  225.98    7.50
   5   7  -5  224.98    7.10
   5   7  -5  228.88    7.30
  -5  -7   5  222.98    7.60
   4   7  -5   13.50    2.60
   4   7  -5   13.00    2.10
   4   7  -5   12.60    2.00
   4   7  -5   12.70    2.10
   4   7  -5   13.00    2.40
   4   7  -5   13.80    2.40
   4   7  -5   14.70    2.60
   4   7  -5   11.70    1.90
  -4  -7   5   10.40    2.00
   3   7  -5  715.93   19.80
   3   7  -5  676.43   19.50
   3   7  -5  709.33   20.40
   3   7  -5  707.43   18.40
   3   7  -5  705.53   20.60
   3   7  -5  688.53   19.00
   3   7  -5  706.53   20.40
   3   7  -5  736.53   19.20
   3   7  -5  704.83   19.00
  -3  -7   5  698.03   19.20
   2   7  -5   98.09    5.60
   2   7  -5   95.59    5.80
   2   7  -5  103.89    5.00
   2   7  -5   95.89    6.00
   2   7  -5  103.79    5.30
   2   7  -5   86.59    6.50
   2   7  -5  101.79    5.20
   2   7  -5  102.89    5.40
  -2  -7   5   96.39    5.30
   1   7  -5    4.10    1.40
   1   7  -5    6.00    1.70
   1   7  -5    3.50    1.60
   1   7  -5    4.30    1.50
   1   7  -5    4.20    1.30
   1   7  -5    4.00    1.70
   1   7  -5    6.00    1.60
   0   7  -5 2329.37   56.49
   0   7  -5 2499.25   59.59
   0   7  -5 2418.76   54.79
   0   7  -5 2265.27   53.69
   0   7  -5 2418.26   55.99
   0   7  -5 2562.84   58.79
   0   7  -5 2467.45   55.89
   0  -7   5 2470.05   55.59
   0  -7   5 2446.86   56.39
   0  -7   5 2390.96   56.29
  -1   7  -5  544.25   17.60
  -1   7  -5  525.75   16.00
   1  -7   5  504.15   15.40
   1  -7   5  519.95   15.60
  -2   7  -5  186.88    9.00
  -2   7  -5  186.08    7.40
  -2   7  -5  183.58    8.00
   2  -7   5  182.28    7.50
   2  -7   5  178.98    7.60
  -3   7  -5    0.20    0.80
  -3   7  -5   -0.30    0.90
  -3   7  -5    0.80    0.90
  -3   7  -5   -0.10    0.90
   3  -7   5    0.50    0.90
   3  -7   5    3.90    1.50
   3  -7   5    0.90    1.00
   3  -7   5    0.50    0.70
  -4   7  -5   40.20    3.70
  -4   7  -5   41.90    4.00
  -4   7  -5   41.80    4.00
   4  -7   5   46.30    3.60
   4  -7   5   41.50    3.90
   4  -7   5   49.99    4.20
  -5   7  -5    7.10    1.80
  -5   7  -5    9.30    2.00
  -5   7  -5    5.80    1.60
   5  -7   5    8.00    1.70
   5  -7   5    8.50    1.80
   5  -7   5    7.00    1.80
  -6   7  -5  166.68    7.20
  -6   7  -5  176.48    7.40
  -6   7  -5  175.58    7.20
   6  -7   5  167.78    7.20
   6  -7   5  172.78    7.50
   6  -7   5  165.78    6.80
   6  -7   5  171.78    6.40
  -7   7  -5  389.76   11.90
  -7   7  -5  397.46   12.40
  -7   7  -5  410.96   12.80
   7  -7   5  412.06   12.80
   7  -7   5  405.66   12.20
   7  -7   5  406.76   12.20
  -8   7  -5    1.80    1.10
  -8   7  -5    0.30    0.80
  -8   7  -5    1.10    0.90
   8  -7   5    1.00    0.80
   8  -7   5    0.60    0.80
   6   6  -5  722.53   18.20
   6   6  -5  694.63   16.60
   6   6  -5  692.23   17.60
   6   6  -5  703.03   17.90
   6   6  -5  720.43   17.00
  -6  -6   5  665.83   17.30
  -6  -6   5  706.03   17.50
   5   6  -5   18.40    3.00
   5   6  -5   13.30    2.10
   5   6  -5   15.30    2.20
   5   6  -5   15.10    2.30
   5   6  -5   16.00    2.30
   5   6  -5   17.20    2.80
   5   6  -5   16.20    2.60
   5   6  -5   17.20    2.30
  -5  -6   5   16.90    2.60
   4   6  -5    4.00    1.40
   4   6  -5    3.60    1.50
   4   6  -5    3.20    1.20
   4   6  -5    3.40    1.50
   4   6  -5    5.90    1.90
   4   6  -5    2.80    1.50
   4   6  -5    5.40    1.60
   4   6  -5    5.00    1.80
   4   6  -5    1.80    1.10
  -4  -6   5    3.20    1.50
   3   6  -5  858.71   25.80
   3   6  -5  901.11   23.10
   3   6  -5  881.21   22.80
   3   6  -5  920.91   23.70
   3   6  -5  888.61   22.80
   3   6  -5  897.01   24.40
   3   6  -5  855.91   23.60
   3   6  -5  883.91   24.50
   3   6  -5  898.11   23.00
   3   6  -5  906.51   24.50
   2   6  -5  213.18    8.80
   2   6  -5  211.08    8.30
   2   6  -5  211.28    8.80
   2   6  -5  215.78    8.00
   2   6  -5  211.98    8.00
   2   6  -5  209.48    7.90
   2   6  -5  214.58    9.20
   2   6  -5  222.58   10.20
  -2  -6   5  217.78    9.30
   1   6  -5   97.09    5.90
   1   6  -5   97.89    6.60
   1   6  -5   92.69    6.10
  -1  -6   5   97.19    5.40
  -1  -6   5   98.19    5.80
  -1  -6   5   91.59    5.30
   0   6  -5  271.37   10.60
   0   6  -5  256.67   10.60
   0   6  -5  256.57    9.10
   0  -6   5  254.67    9.30
   0  -6   5  251.07    9.10
   0  -6   5  253.77    9.70
  -1   6  -5 1518.55   36.50
  -1   6  -5 1432.96   34.60
   1  -6   5 1412.46   35.30
   1  -6   5 1494.35   34.40
   1  -6   5 1476.05   34.70
  -2   6  -5  786.52   20.40
  -2   6  -5  853.61   21.50
  -2   6  -5  857.51   22.50
   2  -6   5  802.02   21.90
   2  -6   5  827.92   21.30
   2  -6   5  803.62   21.10
  -3   6  -5 1088.59   26.70
  -3   6  -5 1138.49   27.50
   3  -6   5 1041.70   27.00
   3  -6   5 1112.59   27.40
  -4   6  -5  293.77   10.40
  -4   6  -5  304.47    9.50
  -4   6  -5  299.37   10.60
   4  -6   5  325.77   11.20
   4  -6   5  285.37   10.70
  -5   6  -5  413.56   12.40
  -5   6  -5  402.56   12.40
   5  -6   5  410.06   11.60
   5  -6   5  415.66   12.20
   5  -6   5  416.36   12.20
   5  -6   5  428.76   13.10
   5  -6   5  427.86   13.00
  -6   6  -5   17.40    2.50
   6  -6   5   11.90    2.10
   6  -6   5   16.10    2.20
   6  -6   5   13.40    2.40
   6  -6   5   13.10    2.40
  -7   6  -5  494.85   14.40
  -7   6  -5  520.65   14.90
   7  -6   5  482.25   13.00
   7  -6   5  491.65   14.50
   7  -6   5  492.15   15.00
   7  -6   5  500.05   14.50
   7  -6   5  487.85   13.60
  -8   6  -5  342.07   10.40
  -8   6  -5  360.56   10.90
   8  -6   5  336.57   10.00
   8  -6   5  359.96   11.00
   8  -6   5  342.67   10.60
   7   5  -5  132.09    4.80
   7   5  -5  121.79    4.70
   7   5  -5  121.29    5.00
  -7  -5   5  127.09    4.70
  -7  -5   5  123.29    4.70
   6   5  -5  584.24   16.50
   6   5  -5  550.44   15.00
   6   5  -5  599.54   16.60
   6   5  -5  577.94   15.40
   6   5  -5  616.64   17.30
   6   5  -5  587.14   15.40
  -6  -5   5  585.84   16.30
   5   5  -5  609.24   16.40
   5   5  -5  572.54   16.40
   5   5  -5  602.44   16.80
   5   5  -5  582.24   18.30
   5   5  -5  605.84   16.70
   5   5  -5  579.64   16.90
   5   5  -5  612.84   18.10
   5   5  -5  582.64   16.40
   5   5  -5  618.84   18.20
  -5  -5   5  610.14   17.70
   4   5  -5  778.42   21.70
   4   5  -5  761.82   22.10
   4   5  -5  774.12   20.20
   4   5  -5  777.42   20.40
   4   5  -5  749.33   20.30
   4   5  -5  752.92   21.50
   4   5  -5  768.42   20.20
   4   5  -5  768.32   20.90
  -4  -5   5  753.72   21.20
   3   5  -5  681.83   19.80
   3   5  -5  670.23   18.30
   3   5  -5  688.73   18.80
   3   5  -5  668.43   19.30
   3   5  -5  709.13   21.00
   3   5  -5  744.63   23.70
   3   5  -5  700.73   18.40
   3   5  -5  677.53   19.80
   3   5  -5  696.33   18.40
   2   5  -5   75.49    8.30
   2   5  -5   71.29    5.10
   2   5  -5   76.39    5.60
   2   5  -5   67.79    5.00
  -2  -5   5   73.89    4.70
  -2  -5   5   74.09    4.90
  -2  -5   5   65.89    4.30
   1   5  -5  235.78    9.80
   1   5  -5  229.18    9.20
   1   5  -5  241.78    7.90
   1   5  -5  223.08    8.90
  -1  -5   5  220.78    8.30
  -1  -5   5  240.58    9.10
  -1  -5   5  232.68    8.40
  -1  -5   5  207.28   12.40
   0   5  -5  362.66   11.60
   0   5  -5  343.47   11.80
   0   5  -5  355.76   10.40
   0  -5   5  344.67   10.50
   0  -5   5  325.87   11.00
   0  -5   5  340.67   10.50
  -1   5  -5 1956.00   44.40
  -1   5  -5 1931.71   43.50
  -1   5  -5 1978.90   44.80
  -1   5  -5 1926.51   42.70
   1  -5   5 1938.11   43.40
   1  -5   5 1954.50   43.80
   1  -5   5 1951.20   44.70
  -2   5  -5   95.19    4.30
  -2   5  -5   90.59    4.80
  -2   5  -5   95.19    4.50
   2  -5   5   89.99    4.30
   2  -5   5   97.59    4.70
   2  -5   5   91.29    5.00
  -3   5  -5  456.75   13.10
  -3   5  -5  466.25   12.20
  -3   5  -5  470.25   13.20
   3  -5   5  481.45   13.80
   3  -5   5  479.25   14.40
   3  -5   5  467.05   13.50
  -4   5  -5  938.41   23.80
  -4   5  -5  979.30   23.90
  -4   5  -5  922.41   22.70
   4  -5   5  941.31   24.60
   4  -5   5  957.90   24.60
   4  -5   5  921.81   24.70
  -5   5  -5   76.19    4.00
   5  -5   5   78.29    4.60
   5  -5   5   71.99    3.80
   5  -5   5   76.59    4.50
   5  -5   5   78.09    4.20
   5  -5   5   80.59    4.30
   5  -5   5   73.29    4.50
  -6   5  -5 1836.52   41.20
   6  -5   5 1817.52   40.70
   6  -5   5 1807.12   40.00
   6  -5   5 1790.92   42.30
   6  -5   5 1844.82   41.30
   6  -5   5 1677.93   41.30
   6  -5   5 1814.02   42.80
   6  -5   5 1783.52   41.80
  -7   5  -5  230.88    8.80
  -7   5  -5  228.68    8.30
   7  -5   5  217.58    8.60
   7  -5   5  223.68    7.60
   7  -5   5  240.08    8.10
   7  -5   5  242.98    9.50
   7  -5   5  230.18    8.90
  -8   5  -5  366.06   10.90
  -8   5  -5  372.76   10.90
   8  -5   5  364.46   11.00
   8  -5   5  329.07   10.40
   8  -5   5  354.06    9.90
   8  -5   5  355.86   11.30
   7   4  -5  231.28    7.60
   7   4  -5  247.88    9.00
   7   4  -5  242.18    8.20
   7   4  -5  254.17    7.50
   7   4  -5  264.27    8.80
  -7  -4   5  258.57    8.70
   6   4  -5  262.87    9.10
   6   4  -5  247.18    9.60
   6   4  -5  236.78    9.60
   6   4  -5  234.08    8.40
   6   4  -5  247.18   10.10
   6   4  -5  249.28    8.30
   6   4  -5  242.48    8.70
  -6  -4   5  238.78    9.50
   5   4  -5  365.26   12.70
   5   4  -5  349.37   12.40
   5   4  -5  344.47   11.00
   5   4  -5  348.37   11.30
   5   4  -5  329.87   11.00
   5   4  -5  331.47   11.60
   5   4  -5  346.77   12.90
   5   4  -5  366.66   11.70
   4   4  -5 1052.59   26.50
   4   4  -5 1094.39   26.80
   4   4  -5 1069.79   28.40
   4   4  -5 1079.09   28.10
   4   4  -5 1116.09   26.60
   4   4  -5 1089.59   27.90
   4   4  -5 1107.39   27.10
   3   4  -5  483.65   15.10
   3   4  -5  484.85   16.00
   3   4  -5  458.25   16.10
   3   4  -5  473.45   15.60
  -3  -4   5  490.55   14.40
  -3  -4   5  463.05   16.10
  -3  -4   5  477.45   15.20
   2   4  -5  233.38    8.90
   2   4  -5  227.68    9.00
   2   4  -5  240.88    9.60
   2   4  -5  226.78    8.80
  -2  -4   5  235.08    8.40
  -2  -4   5  230.08    8.20
  -2  -4   5  224.58    9.40
  -2  -4   5  248.58    9.00
   1   4  -5    9.90    2.00
   1   4  -5   10.80    1.60
   1   4  -5   11.00    1.90
   1   4  -5   10.20    2.00
  -1  -4   5    9.30    1.90
  -1  -4   5    9.70    1.80
  -1  -4   5    8.90    1.50
  -1  -4   5    9.80    1.60
   0   4  -5  845.02   20.80
   0   4  -5  822.12   18.70
   0   4  -5  823.42   19.70
   0   4  -5  824.32   19.60
   0   4  -5  768.62   20.40
   0  -4   5  812.42   19.60
   0  -4   5  807.52   19.70
   0  -4   5  831.02   20.70
   0  -4   5  793.52   21.20
  -1   4  -5   92.99    4.50
  -1   4  -5   90.89    3.20
  -1   4  -5   97.19    4.10
  -1   4  -5   89.49    4.20
  -1   4  -5   90.29    3.80
   1  -4   5   93.49    3.90
   1  -4   5   98.29    5.10
   1  -4   5   91.29    4.60
   1  -4   5   98.89    4.30
  -2   4  -5  888.61   20.70
  -2   4  -5  911.51   20.30
  -2   4  -5  879.51   21.60
  -2   4  -5  910.81   21.10
  -2   4  -5  894.41   21.30
  -2   4  -5  882.61   20.40
  -2   4  -5  910.71   21.40
   2  -4   5  875.01   21.30
   2  -4   5  917.81   23.10
   2  -4   5  902.21   21.80
   2  -4   5  873.31   22.60
  -3   4  -5  240.58    7.30
  -3   4  -5  233.28    7.60
  -3   4  -5  243.68    7.90
  -3   4  -5  241.38    7.30
  -3   4  -5  239.08    6.90
  -3   4  -5  228.58    7.50
   3  -4   5  216.48    8.60
   3  -4   5  235.18    8.80
   3  -4   5  233.08    8.10
   3  -4   5  249.97    8.40
  -4   4  -5 1627.14   36.60
  -4   4  -5 1651.83   37.30
  -4   4  -5 1639.94   37.20
  -4   4  -5 1704.43   38.00
  -4   4  -5 1675.13   38.00
   4  -4   5 1687.13   39.20
   4  -4   5 1635.24   39.20
   4  -4   5 1623.04   39.40
  -5   4  -5   44.70    3.30
  -5   4  -5   42.30    3.90
   5  -4   5   35.60    3.70
   5  -4   5   41.80    5.90
   5  -4   5   40.70    3.30
   5  -4   5   39.50    3.70
   5  -4   5   33.80    3.60
   5  -4   5   40.00    4.40
   5  -4   5   35.50    5.10
   5  -4   5   43.30    3.60
   5  -4   5   36.40    3.10
  -6   4  -5  230.18    8.20
   6  -4   5  233.88    8.10
   6  -4   5  235.08    8.90
   6  -4   5  242.88    9.40
   6  -4   5  243.98    9.60
   6  -4   5  235.28    8.40
   6  -4   5  239.78    9.00
   6  -4   5  244.18    8.30
   6  -4   5  248.08    8.00
   6  -4   5  238.48    8.40
  -7   4  -5    8.00    1.80
   7  -4   5    7.50    1.60
   7  -4   5    6.20    1.90
   7  -4   5   10.40    2.00
   7  -4   5   14.70    2.60
   7  -4   5    0.30    0.90
   7  -4   5    7.10    1.50
   7  -4   5    8.90    2.00
   7  -4   5    5.50    1.40
   7  -4   5    7.90    1.60
  -8   4  -5   41.90    3.50
  -8   4  -5   35.90    3.20
   8  -4   5   40.00    3.80
   8  -4   5   39.10    2.60
   8  -4   5   39.70    3.60
   8  -4   5   35.70    3.20
   8  -4   5   35.80    2.80
   8   3  -5   18.80    2.20
   8   3  -5   16.20    2.00
  -8  -3   5   16.30    1.90
  -8  -3   5   15.80    1.60
   7   3  -5   13.10    2.40
   7   3  -5   12.40    2.30
   7   3  -5   16.20    2.40
   7   3  -5   13.70    2.50
   7   3  -5   18.10    2.40
   7   3  -5   13.50    1.90
  -7  -3   5   14.30    2.50
  -7  -3   5   14.50    2.60
   6   3  -5  447.16   15.30
   6   3  -5  501.45   14.30
   6   3  -5  479.85   15.90
   6   3  -5  479.65   15.10
   6   3  -5  472.75   14.70
   6   3  -5  494.95   13.80
  -6  -3   5  505.25   15.50
   5   3  -5   10.20    2.00
   5   3  -5    8.30    1.90
   5   3  -5    9.60    2.30
   5   3  -5    8.90    2.30
   5   3  -5    8.30    2.00
   5   3  -5    9.90    2.40
   5   3  -5    7.80    1.70
   5   3  -5    4.70    1.70
  -5  -3   5    8.80    2.10
   4   3  -5  428.76   15.00
   4   3  -5  412.66   15.10
   4   3  -5  430.46   15.10
  -4  -3   5  438.36   13.30
  -4  -3   5  438.26   15.80
  -4  -3   5  431.06   14.30
   3   3  -5  380.26   12.90
   3   3  -5  402.06   13.30
   3   3  -5  408.86   12.60
   3   3  -5  412.56   13.50
  -3  -3   5  406.16   13.90
  -3  -3   5  391.16   12.70
  -3  -3   5  393.86   11.80
   2   3  -5  158.18    6.40
   2   3  -5  152.08    6.50
   2   3  -5  170.48    6.50
   2   3  -5  171.88    7.00
  -2  -3   5  158.38    7.20
  -2  -3   5  161.68    6.50
  -2  -3   5  150.68    5.90
  -2  -3   5  152.48    5.70
  -2  -3   5  154.18    5.90
   1   3  -5 1742.73   39.20
   1   3  -5 1730.63   38.10
   1   3  -5 1717.93   39.20
   1   3  -5 1748.43   37.80
   1   3  -5 1687.13   38.50
  -1  -3   5 1690.03   37.80
  -1  -3   5 1690.83   40.00
  -1  -3   5 1832.62   38.20
  -1  -3   5 1685.73   38.10
  -1  -3   5 1775.42   39.20
   0   3  -5   14.50    1.60
   0   3  -5   11.70    1.60
   0   3  -5   13.80    1.50
   0   3  -5   14.40    2.00
   0   3  -5   14.00    1.30
   0  -3   5   15.00    1.50
   0  -3   5   11.30    2.00
   0  -3   5   14.80    1.80
   0  -3   5   10.50    1.40
   0  -3   5   13.00    1.80
  -1   3  -5  604.94   14.40
  -1   3  -5  575.84   14.20
  -1   3  -5  552.34   14.60
  -1   3  -5  583.44   13.70
   1  -3   5  575.54   15.30
   1  -3   5  591.04   14.40
   1  -3   5  567.24   14.30
   1  -3   5  559.34   16.00
   1  -3   5  592.04   14.00
  -2   3  -5  255.27    7.70
  -2   3  -5  259.37    7.30
  -2   3  -5  262.27    7.60
  -2   3  -5  247.98    7.60
   2  -3   5  251.37    8.70
   2  -3   5  252.07    8.00
   2  -3   5  255.67    7.70
   2  -3   5  260.17    9.20
  -3   3  -5  102.89    4.10
  -3   3  -5  103.79    4.60
  -3   3  -5  100.89    4.00
  -3   3  -5  107.99    4.50
  -3   3  -5   97.89    4.30
  -3   3  -5   98.29    4.10
   3  -3   5  100.19    4.80
   3  -3   5  106.89    4.80
   3  -3   5   99.49    5.30
   3  -3   5  110.39    5.50
  -4   3  -5  721.13   17.90
  -4   3  -5  685.43   17.30
  -4   3  -5  666.53   18.10
  -4   3  -5  680.13   17.00
  -4   3  -5  685.43   17.60
   4  -3   5  683.73   19.20
   4  -3   5  717.43   19.70
   4  -3   5  719.53   19.40
  -5   3  -5  589.04   16.20
  -5   3  -5  586.54   17.80
  -5   3  -5  619.04   16.00
   5  -3   5  545.75   19.10
   5  -3   5  613.14   18.30
   5  -3   5  571.14   16.90
   5  -3   5  591.14   18.60
   5  -3   5  622.04   18.10
   6  -3   5  168.58    6.60
   6  -3   5  166.88    7.50
   6  -3   5  164.28    6.60
   6  -3   5  182.48    6.60
   6  -3   5  161.18    6.60
   6  -3   5  175.08    7.20
   6  -3   5  169.58    6.90
   6  -3   5  167.48    7.90
   6  -3   5  174.58    7.70
   6  -3   5  166.38    6.50
  -7   3  -5  333.47   10.60
   7  -3   5  332.57   11.50
   7  -3   5  325.57   10.30
   7  -3   5  337.67   10.20
   7  -3   5  345.27   10.30
   7  -3   5  318.27   11.20
   7  -3   5  327.77   10.60
   7  -3   5  331.07   10.20
   7  -3   5  335.47   10.20
   7  -3   5  339.17   11.90
  -8   3  -5  408.36   11.60
   8  -3   5  398.36   10.90
   8  -3   5  397.76   11.00
   8  -3   5  406.76   11.70
   8  -3   5  415.26   11.10
   8  -3   5  410.56   11.40
   8  -3   5  410.36   12.20
   8  -3   5  379.46   10.60
   8  -3   5  433.66   12.70
   8   2  -5  247.58    8.50
   8   2  -5  249.48    7.80
   8   2  -5  234.28    8.50
  -8  -2   5  241.78    8.40
  -8  -2   5  246.68    8.50
   7   2  -5  815.82   22.50
   7   2  -5  833.02   21.50
   7   2  -5  821.32   21.60
   7   2  -5  810.82   20.60
   7   2  -5  805.52   22.70
  -7  -2   5  785.92   22.10
   6   2  -5  309.17   10.60
   6   2  -5  274.77   10.00
   6   2  -5  292.37    9.30
   6   2  -5  274.67   11.00
   6   2  -5  264.97   10.20
   6   2  -5  266.67    9.30
   6   2  -5  248.58   10.50
  -6  -2   5  265.67   10.50
   5   2  -5  521.25   15.20
   5   2  -5  555.44   18.50
   5   2  -5  533.35   15.10
   5   2  -5  542.65   15.70
   5   2  -5  541.75   16.30
   5   2  -5  531.35   20.60
   5   2  -5  518.05   14.60
   5   2  -5  531.15   16.30
  -5  -2   5  542.55   16.20
   4   2  -5    9.20    2.20
   4   2  -5   13.90    2.60
   4   2  -5    9.80    2.20
  -4  -2   5   12.20    2.70
  -4  -2   5   12.60    2.30
  -4  -2   5    8.20    1.90
   3   2  -5  390.86   11.60
   3   2  -5  380.36   12.10
   3   2  -5  406.26   12.20
   3   2  -5  386.56   12.30
  -3  -2   5  390.46   11.00
  -3  -2   5  394.46   11.90
  -3  -2   5  365.26   11.30
  -3  -2   5  383.86   13.00
   2   2  -5 1830.72   41.20
   2   2  -5 1939.91   41.20
   2   2  -5 1821.52   39.70
   2   2  -5 1860.71   41.30
   2   2  -5 1919.81   41.80
  -2  -2   5 1858.51   42.60
  -2  -2   5 1852.01   40.30
  -2  -2   5 1819.32   41.30
  -2  -2   5 1774.12   40.90
  -2  -2   5 1827.22   40.40
   1   2  -5   17.10    1.30
   1   2  -5   15.70    1.80
   1   2  -5   15.90    1.60
   1   2  -5   19.00    1.80
   1   2  -5   15.10    1.80
  -1  -2   5   16.10    2.30
  -1  -2   5   18.20    2.00
  -1  -2   5   13.60    1.70
  -1  -2   5   16.00    1.60
  -1  -2   5   18.40    1.60
   0   2  -5 1643.34   37.00
   0   2  -5 1743.13   37.10
   0   2  -5 1704.43   37.10
   0   2  -5 1731.53   37.60
   0  -2   5 1729.83   36.20
   0  -2   5 1788.32   38.00
   0  -2   5 1658.33   36.80
   0  -2   5 1711.33   39.10
   0  -2   5 1703.23   36.90
   0  -2   5 1668.83   37.60
  -1   2  -5   11.70    1.50
  -1   2  -5   13.80    1.50
  -1   2  -5   15.90    1.70
  -1   2  -5   11.00    1.30
   1  -2   5   18.60    1.30
   1  -2   5   12.90    2.10
   1  -2   5   11.80    1.70
   1  -2   5   12.70    1.50
   1  -2   5   12.30    1.70
  -2   2  -5  736.53   17.40
  -2   2  -5  710.43   17.30
  -2   2  -5  759.92   17.80
   2  -2   5  729.13   18.00
   2  -2   5  727.73   17.60
   2  -2   5  735.23   18.00
   2  -2   5  735.63   19.70
   2  -2   5  746.03   18.80
  -3   2  -5 3251.87   68.59
  -3   2  -5 3203.68   69.09
  -3   2  -5 3191.78   69.49
  -3   2  -5 3237.28   70.09
  -3   2  -5 3279.57   69.39
  -3   2  -5 3166.68   68.79
   3  -2   5 3321.07   71.09
   3  -2   5 3288.57   70.39
   3  -2   5 3232.68   70.49
   3  -2   5 3272.87   71.69
  -4   2  -5   63.19    3.30
  -4   2  -5   66.29    3.40
  -4   2  -5   62.29    3.40
  -4   2  -5   64.39    3.60
  -4   2  -5   69.99    4.00
   4  -2   5   64.39    4.40
   4  -2   5   62.49    4.40
   4  -2   5   60.69    4.30
  -5   2  -5   10.10    2.00
  -5   2  -5   12.80    2.00
  -5   2  -5    9.90    2.30
   5  -2   5   12.30    2.70
   5  -2   5    9.60    2.30
   5  -2   5    8.00    1.50
   5  -2   5    8.50    2.10
   5  -2   5   10.30    2.30
   5  -2   5    8.30    2.20
   5  -2   5   10.10    2.20
   5  -2   5   10.90    2.00
   6  -2   5    1.80    1.30
   6  -2   5    0.30    0.90
   6  -2   5    2.60    1.10
   6  -2   5    2.70    1.40
   6  -2   5    1.70    0.90
   6  -2   5    4.50    1.30
   6  -2   5    3.90    1.70
   6  -2   5    3.80    1.40
   6  -2   5    2.10    0.90
   6  -2   5    5.00    1.50
   6  -2   5    3.40    1.20
   7  -2   5   46.30    3.80
   7  -2   5   48.80    4.00
   7  -2   5   45.40    4.20
   7  -2   5   46.40    3.60
   7  -2   5   39.40    3.40
   7  -2   5   45.50    3.50
   7  -2   5   50.29    5.00
   7  -2   5   53.19    4.20
   7  -2   5   45.40    4.60
  -8   2  -5  130.19    5.10
   8  -2   5  128.39    4.70
   8  -2   5  124.19    4.80
   8  -2   5  129.39    5.70
   8  -2   5  117.89    5.40
   8  -2   5  122.79    4.80
   8  -2   5  124.29    5.00
   8  -2   5  118.99    4.70
   8  -2   5  120.99    5.20
   8   1  -5  384.16   12.20
   8   1  -5  398.16   12.30
   8   1  -5  377.16   11.30
   8   1  -5  359.66   10.40
  -8  -1   5  397.26   12.30
  -8  -1   5  347.97   11.00
  -8  -1   5  384.26   11.90
   7   1  -5 1359.86   33.40
   7   1  -5 1380.76   32.60
   7   1  -5 1398.66   33.90
   7   1  -5 1388.56   35.10
   7   1  -5 1381.46   35.00
  -7  -1   5 1431.86   33.80
  -7  -1   5 1395.06   34.70
   6   1  -5  708.53   19.40
   6   1  -5  685.63   20.20
   6   1  -5  717.83   19.80
   6   1  -5  701.23   18.50
   6   1  -5  723.33   20.60
   6   1  -5  712.23   19.60
  -6  -1   5  715.93   20.50
  -6  -1   5  732.03   19.70
   5   1  -5 2876.61   66.29
   5   1  -5 2923.51   66.89
   5   1  -5 2850.71   65.99
  -5  -1   5 2930.81   65.29
  -5  -1   5 2862.61   67.59
  -5  -1   5 2893.01   64.89
   4   1  -5 1528.95   37.50
   4   1  -5 1624.54   37.70
   4   1  -5 1589.04   37.70
  -4  -1   5 1556.54   38.90
  -4  -1   5 1570.04   37.10
  -4  -1   5 1607.64   36.90
   3   1  -5   40.50    3.00
   3   1  -5   36.30    2.50
   3   1  -5   42.90    2.80
   3   1  -5   34.20    2.70
   3   1  -5   39.10    2.80
  -3  -1   5   40.60    2.90
  -3  -1   5   41.40    2.30
  -3  -1   5   43.20    2.70
  -3  -1   5   42.00    2.90
  -3  -1   5   41.00    3.40
   2   1  -5 1353.36   30.50
   2   1  -5 1384.66   30.70
   2   1  -5 1334.97   30.30
   2   1  -5 1341.17   29.60
   2   1  -5 1378.16   30.20
  -2  -1   5 1382.06   30.60
  -2  -1   5 1360.96   32.00
  -2  -1   5 1339.57   29.70
  -2  -1   5 1358.66   29.50
  -2  -1   5 1434.06   30.30
  -2  -1   5 1268.87   30.60
   1   1  -5   10.90    1.10
   1   1  -5   12.80    1.60
   1   1  -5    8.40    1.20
   1   1  -5    8.60    1.20
  -1  -1   5    8.10    1.20
  -1  -1   5    8.80    1.50
  -1  -1   5    8.30    0.90
  -1  -1   5    7.90    1.50
  -1  -1   5    9.10    1.30
   0   1  -5 2164.08   46.10
   0   1  -5 2138.99   45.90
   0   1  -5 2138.49   45.40
   0   1  -5 2180.28   46.20
   0  -1   5 2144.49   45.40
   0  -1   5 2152.58   46.50
   0  -1   5 2145.89   47.80
   0  -1   5 2106.49   46.10
   0  -1   5 2158.38   46.70
  -1   1  -5  585.04   14.30
  -1   1  -5  580.14   13.90
  -1   1  -5  570.94   13.70
   1  -1   5  576.14   13.50
   1  -1   5  573.74   15.80
   1  -1   5  575.24   14.80
   1  -1   5  571.84   13.90
   1  -1   5  583.14   14.70
   1  -1   5  586.14   14.20
  -2   1  -5 1339.97   29.20
  -2   1  -5 1296.47   28.90
  -2   1  -5 1313.67   29.50
   2  -1   5 1299.47   31.40
   2  -1   5 1313.77   30.00
   2  -1   5 1281.87   30.50
   2  -1   5 1300.67   29.60
   2  -1   5 1291.87   29.80
  -3   1  -5  125.79    5.10
  -3   1  -5  124.99    4.70
  -3   1  -5  129.29    5.50
  -3   1  -5  123.19    4.90
  -3   1  -5  127.29    4.80
   3  -1   5  125.99    5.90
   3  -1   5  127.69    6.20
   3  -1   5  127.69    5.70
   3  -1   5  119.09    5.60
  -4   1  -5  388.06   10.60
  -4   1  -5  372.16   11.50
  -4   1  -5  378.76   11.10
  -4   1  -5  367.76   10.40
  -4   1  -5  359.76   12.40
   4  -1   5  376.86   12.50
   4  -1   5  359.46   12.60
   4  -1   5  368.46   12.40
  -5   1  -5 1241.18   29.40
   5  -1   5 1245.78   30.10
   5  -1   5 1261.97   30.70
   5  -1   5 1230.68   28.90
   5  -1   5 1270.27   29.80
   5  -1   5 1236.98   30.70
   5  -1   5 1279.87   30.40
   5  -1   5 1250.47   29.70
   5  -1   5 1235.28   29.00
   5  -1   5 1258.17   31.30
   6  -1   5  597.64   17.10
   6  -1   5  639.44   18.60
   6  -1   5  618.34   18.10
   6  -1   5  589.44   16.00
   6  -1   5  633.34   16.90
   6  -1   5  607.54   16.10
   6  -1   5  643.84   18.00
   6  -1   5  599.44   16.80
   7  -1   5  566.24   16.00
   7  -1   5  594.84   17.10
   7  -1   5  565.94   16.50
   7  -1   5  565.04   15.50
   7  -1   5  607.34   15.40
   7  -1   5  571.54   15.70
   7  -1   5  561.84   15.50
   7  -1   5  598.74   15.10
   7  -1   5  579.84   17.20
   8  -1   5   29.70    2.50
   8  -1   5   32.10    2.50
   8  -1   5   28.70    2.40
   8  -1   5   35.20    3.10
   8  -1   5   34.00    2.80
   8  -1   5   30.30    2.60
   8  -1   5   31.40    2.50
   8  -1   5   32.30    3.20
   9   0  -5   42.50    2.50
   9   0  -5   44.00    3.50
   9   0  -5   31.80    2.70
  -9   0   5   38.60    2.90
  -9   0   5   39.00    3.20
  -9   0   5   35.20    2.80
   8   0  -5  573.54   16.60
   8   0  -5  637.84   18.00
   8   0  -5  599.94   17.60
  -8   0   5  614.24   17.10
  -8   0   5  610.34   16.90
  -8   0   5  633.34   17.90
   7   0  -5   27.30    3.80
   7   0  -5   27.20    3.50
   7   0  -5   26.50    3.20
   7   0  -5   27.10    3.70
  -7   0   5   24.90    3.60
  -7   0   5   31.70    3.80
   6   0  -5  912.51   23.10
   6   0  -5  910.11   24.10
   6   0  -5  875.91   22.90
   6   0  -5  929.01   24.20
   6   0  -5  869.21   23.30
  -6   0   5  901.91   23.50
   5   0  -5 1031.70   27.20
   5   0  -5 1055.59   27.70
   5   0  -5 1055.19   27.10
  -5   0   5 1023.40   28.50
  -5   0   5 1047.10   26.90
   4   0  -5  958.80   23.30
   4   0  -5  887.81   23.40
   4   0  -5  911.21   23.10
  -4   0   5  955.60   24.80
  -4   0   5  963.80   23.40
  -4   0   5  845.82   22.30
  -4   0   5  923.21   22.50
   3   0  -5 6003.80  123.39
   3   0  -5 5874.71  123.19
   3   0  -5 5934.31  123.69
   3   0  -5 5794.52  123.29
  -3   0   5 5742.23  122.89
  -3   0   5 5968.40  124.09
  -3   0   5 5909.71  125.29
  -3   0   5 5715.03  123.29
  -3   0   5 6111.39  123.19
   2   0  -5  876.51   20.30
   2   0  -5  874.11   19.50
   2   0  -5  859.91   19.80
   2   0  -5  881.31   20.20
   2   0  -5  869.31   19.80
  -2   0   5  852.81   20.30
  -2   0   5  870.71   20.50
  -2   0   5  861.41   20.00
  -2   0   5  879.91   20.90
  -2   0   5  860.41   21.60
   1   0  -5 3649.63   75.69
   1   0  -5 3618.54   76.39
   1   0  -5 3700.63   76.89
   1   0  -5 3638.74   76.59
  -1   0   5 3719.13   76.69
  -1   0   5 3675.23   78.29
  -1   0   5 3582.94   77.29
  -1   0   5 3577.64   77.09
  -1   0   5 3710.53   77.09
   0   0  -5    4.50    0.90
   0   0  -5    4.10    0.90
   0   0  -5    6.90    0.90
   0   0   5    4.20    1.00
   0   0   5    3.90    1.20
   0   0   5    5.80    1.30
   0   0   5    5.20    0.80
   0   0   5    4.90    1.10
   0   0   5    3.90    1.00
  -1   0  -5   38.80    2.20
  -1   0  -5   42.00    2.10
  -1   0  -5   40.00    2.50
   1   0   5   39.50    2.30
   1   0   5   43.90    2.50
   1   0   5   41.10    2.60
   1   0   5   36.80    3.00
   1   0   5   39.50    2.60
   1   0   5   37.60    2.10
  -2   0  -5 8030.90  163.48
  -2   0  -5 7813.52  162.98
  -2   0  -5 7890.81  163.88
   2   0   5 7923.41  164.38
   2   0   5 7994.20  165.88
   2   0   5 7686.13  163.98
   2   0   5 7703.43  164.28
   2   0   5 7998.80  164.28
   2   0   5 7971.80  164.88
  -3   0  -5   28.20    2.70
  -3   0  -5   26.80    2.10
  -3   0  -5   30.40    3.00
  -3   0  -5   27.90    2.40
  -3   0  -5   31.30    2.50
   3   0   5   31.10    3.30
   3   0   5   29.40    3.20
   3   0   5   26.60    3.30
   3   0   5   28.10    3.40
   3   0   5   32.00    3.40
  -4   0  -5   44.60    3.80
  -4   0  -5   47.00    2.90
  -4   0  -5   48.40    3.40
  -4   0  -5   47.90    3.10
  -4   0  -5   45.30    2.80
   4   0   5   42.70    4.70
   4   0   5   46.60    4.60
   4   0   5   47.80    3.90
   5   0   5  392.26   12.40
   5   0   5  390.66   11.10
   5   0   5  399.06   12.80
   5   0   5  397.06   11.20
   5   0   5  398.76   13.20
   5   0   5  371.06   12.70
   5   0   5  398.26   13.00
   5   0   5  392.26   12.00
   5   0   5  406.76   11.90
   5   0   5  402.36   12.20
   6   0   5    0.20    0.60
   6   0   5    0.30    1.10
   6   0   5    2.50    1.10
   6   0   5    2.40    1.10
   6   0   5    8.20    2.10
   6   0   5    2.10    1.20
   6   0   5    4.00    1.70
   6   0   5    4.90    1.30
   6   0   5    3.30    1.40
   6   0   5    0.40    0.90
   7   0   5  212.18    7.60
   7   0   5  211.48    8.60
   7   0   5  221.48    7.50
   7   0   5  218.68    7.70
   7   0   5  228.88    7.70
   7   0   5  202.58    8.10
   7   0   5  226.48    8.30
   7   0   5  214.88    8.40
   7   0   5  223.38    7.30
  -8   0  -5  464.65   11.90
   8   0   5  483.55   12.00
   8   0   5  464.35   12.10
   8   0   5  495.75   12.40
   8   0   5  494.35   12.30
   8   0   5  469.25   12.20
   8   0   5  486.05   12.90
   8   0   5  482.55   12.00
   8   0   5  489.95   12.70
   9  -1  -5   52.39    3.90
   9  -1  -5   45.90    3.60
   9  -1  -5   49.50    2.90
  -9   1   5   39.20    3.50
  -9   1   5   46.90    3.70
   8  -1  -5    2.40    1.20
   8  -1  -5    5.00    1.60
   8  -1  -5    1.40    1.20
  -8   1   5    2.90    1.50
  -8   1   5    5.00    1.80
  -8   1   5    3.90    1.50
   7  -1  -5   73.99    5.70
   7  -1  -5   60.39    5.50
   7  -1  -5   64.39    5.50
   7  -1  -5   61.99    4.00
  -7   1   5   60.59    5.60
  -7   1   5   69.29    5.70
  -7   1   5   65.09    5.60
   6  -1  -5  503.65   14.40
   6  -1  -5  495.55   14.20
   6  -1  -5  501.55   15.00
   6  -1  -5  473.05   14.40
   6  -1  -5  505.25   15.00
  -6   1   5  509.95   15.10
  -6   1   5  510.65   15.00
   5  -1  -5  874.01   23.50
   5  -1  -5  904.51   23.30
   5  -1  -5  891.51   23.80
  -5   1   5  895.91   25.00
  -5   1   5  924.01   23.90
  -5   1   5  886.91   23.10
   4  -1  -5  388.26   11.30
   4  -1  -5  382.16   11.30
   4  -1  -5  369.66   11.30
  -4   1   5  373.16   12.40
  -4   1   5  391.06   11.80
  -4   1   5  373.86   11.40
   3  -1  -5  648.54   16.00
   3  -1  -5  649.24   16.20
   3  -1  -5  650.23   16.10
   3  -1  -5  670.93   16.00
  -3   1   5  668.93   17.60
  -3   1   5  651.73   16.90
  -3   1   5  637.14   16.70
  -3   1   5  666.33   16.80
   2  -1  -5 3294.77   70.49
   2  -1  -5 3350.66   69.79
   2  -1  -5 3382.86   69.39
   2  -1  -5 3396.46   70.29
  -2   1   5 3371.56   71.69
  -2   1   5 3195.98   71.09
  -2   1   5 3169.98   70.29
  -2   1   5 3381.06   71.09
  -2   1   5 3377.36   70.99
   1  -1  -5 3532.95   76.19
   1  -1  -5 3714.13   76.89
   1  -1  -5 3722.83   77.39
  -1   1   5 3738.43   77.69
  -1   1   5 3686.33   77.99
  -1   1   5 3585.14   76.39
  -1   1   5 3621.84   78.29
  -1   1   5 3726.33   77.89
  -1   1   5 3667.83   77.49
   0  -1  -5 1204.68   25.50
   0  -1  -5 1137.99   26.30
   0  -1  -5 1139.29   25.70
   0   1   5 1187.68   26.90
   0   1   5 1155.98   27.50
   0   1   5 1181.78   26.90
   0   1   5 1137.29   26.00
   0   1   5 1168.38   26.50
   0   1   5 1182.28   26.60
  -1  -1  -5  945.61   21.90
  -1  -1  -5  964.60   21.90
  -1  -1  -5  954.20   21.50
   1   1   5  938.81   22.50
   1   1   5  950.20   22.30
   1   1   5  920.11   23.40
   1   1   5  954.50   22.10
   1   1   5  937.61   22.60
   1   1   5  960.20   21.70
   1   1   5  965.50   22.20
   1   1   5  944.81   22.00
   1   1   5  987.30   22.60
  -2  -1  -5  509.25   12.40
  -2  -1  -5  506.15   13.00
  -2  -1  -5  479.75   12.60
   2   1   5  509.75   13.90
   2   1   5  487.65   13.50
   2   1   5  462.55   13.60
   2   1   5  501.45   14.00
   2   1   5  490.45   14.30
  -3  -1  -5  535.25   13.90
  -3  -1  -5  575.44   16.20
  -3  -1  -5  557.64   13.90
  -3  -1  -5  541.05   15.00
  -3  -1  -5  561.34   14.50
   3   1   5  536.35   15.80
   3   1   5  537.85   16.30
   3   1   5  544.95   15.90
   3   1   5  570.04   16.60
  -4  -1  -5  663.23   19.30
  -4  -1  -5  667.03   16.60
  -4  -1  -5  662.53   17.90
  -4  -1  -5  677.63   17.30
   4   1   5  651.03   19.20
   4   1   5  621.24   20.00
   5   1   5 1288.27   31.70
   5   1   5 1257.07   31.50
   5   1   5 1259.37   29.20
   5   1   5 1283.47   32.10
   5   1   5 1283.67   30.80
   5   1   5 1253.77   31.60
   5   1   5 1235.98   30.40
   5   1   5 1292.77   30.40
   5   1   5 1270.07   30.00
   6   1   5  262.57    9.20
   6   1   5  257.87    8.90
   6   1   5  248.08    8.90
   6   1   5  267.97    8.10
   6   1   5  255.67    9.80
   6   1   5  250.47    9.50
   6   1   5  251.97   10.10
   6   1   5  254.77    9.80
   6   1   5  250.47    8.60
   7   1   5   25.20    3.00
   7   1   5   23.00    2.50
   7   1   5   21.40    2.70
   7   1   5   23.60    2.40
   7   1   5   22.40    2.40
   7   1   5   25.30    2.70
   7   1   5   24.20    2.50
   7   1   5   23.60    2.90
   9  -2  -5    9.20    1.90
   9  -2  -5   12.60    2.10
   9  -2  -5   11.50    1.90
  -9   2   5    9.30    1.80
  -9   2   5    9.20    1.80
   8  -2  -5  133.39    6.60
   8  -2  -5  125.19    6.60
   8  -2  -5  134.99    6.40
  -8   2   5  129.69    6.60
  -8   2   5  140.99    6.90
  -8   2   5  140.19    6.70
   7  -2  -5   -0.40    1.10
   7  -2  -5   -0.50    0.80
   7  -2  -5    1.10    1.10
  -7   2   5    0.10    1.10
  -7   2   5    0.00    1.00
  -7   2   5    2.60    1.50
   6  -2  -5   12.90    2.10
   6  -2  -5   16.80    2.60
   6  -2  -5   13.80    2.40
   6  -2  -5   16.00    2.60
  -6   2   5   15.50    2.80
  -6   2   5   17.60    3.00
  -6   2   5   14.10    3.30
  -6   2   5   16.50    3.20
  -6   2   5   17.90    2.80
   5  -2  -5   92.69    5.20
   5  -2  -5   89.79    4.80
   5  -2  -5   97.49    5.10
  -5   2   5  102.09    5.50
  -5   2   5   95.69    5.80
  -5   2   5   96.89    5.30
   4  -2  -5  443.66   12.30
   4  -2  -5  442.26   12.40
   4  -2  -5  440.16   12.20
  -4   2   5  418.06   13.00
  -4   2   5  434.26   13.10
  -4   2   5  433.16   12.90
  -4   2   5  440.96   13.50
   3  -2  -5  249.68    7.40
   3  -2  -5  244.28    7.70
   3  -2  -5  239.48    7.50
   3  -2  -5  240.28    7.20
  -3   2   5  240.68    8.20
  -3   2   5  242.68    8.40
  -3   2   5  241.58    8.50
  -3   2   5  251.17    8.30
  -3   2   5  246.88    7.80
   2  -2  -5 1850.51   40.40
   2  -2  -5 1831.92   40.80
   2  -2  -5 1853.11   39.80
   2  -2  -5 1823.42   39.50
  -2   2   5 1837.52   41.10
  -2   2   5 1889.91   41.10
  -2   2   5 1903.91   41.80
  -2   2   5 1803.92   41.00
  -2   2   5 1784.42   40.80
   1  -2  -5 1136.59   24.40
   1  -2  -5 1041.50   24.40
   1  -2  -5 1104.49   25.00
  -1   2   5 1083.39   25.70
  -1   2   5 1099.19   25.60
  -1   2   5 1117.09   25.80
  -1   2   5 1099.09   26.20
  -1   2   5 1108.99   25.90
  -1   2   5 1100.59   25.60
   0  -2  -5  246.38    7.60
   0  -2  -5  253.37    7.40
   0  -2  -5  253.57    7.50
   0  -2  -5  259.47    7.20
   0   2   5  258.47    8.10
   0   2   5  252.47    7.90
   0   2   5  243.98    8.10
   0   2   5  252.67    7.10
   0   2   5  254.57    8.10
   0   2   5  251.47    7.80
   0   2   5  251.47    8.20
   1   2   5 4706.13  100.69
   1   2   5 4693.83  100.09
   1   2   5 4717.03  100.89
   1   2   5 4744.63  100.29
   1   2   5 4794.82  100.39
   1   2   5 4692.03  100.69
   1   2   5 4775.72  100.49
   1   2   5 4789.92  100.69
   1   2   5 4733.93  100.09
   1   2   5 4834.12  100.29
   1   2   5 4759.42  100.69
   1   2   5 4883.41  101.19
  -2  -2  -5    1.30    0.70
  -2  -2  -5    1.00    0.60
  -2  -2  -5    1.40    0.60
  -2  -2  -5    1.10    0.70
  -2  -2  -5    1.90    0.70
   2   2   5    2.00    1.10
   2   2   5    0.60    0.60
   2   2   5    0.20    0.60
   2   2   5    0.20    0.80
  -3  -2  -5    9.60    1.40
  -3  -2  -5    9.40    1.70
  -3  -2  -5   10.90    2.20
  -3  -2  -5   12.50    2.30
  -3  -2  -5   10.50    1.60
   3   2   5    8.60    2.10
   3   2   5    8.50    2.30
   3   2   5    9.70    2.10
   4   2   5   18.70    2.90
   4   2   5   19.40    2.40
   4   2   5   18.30    2.30
   4   2   5   21.80    2.70
   4   2   5   21.60    4.10
   4   2   5   20.50    3.00
   4   2   5   22.10    3.10
   4   2   5   19.60    3.10
   4   2   5   22.40    2.90
   5   2   5  179.68    7.80
   5   2   5  180.68    8.10
   5   2   5  170.58    6.60
   5   2   5  157.48    7.60
   5   2   5  172.58    7.60
   5   2   5  165.18    6.80
   5   2   5  173.88    6.90
   5   2   5  170.08    7.10
   6   2   5  101.89    4.70
   6   2   5  104.49    5.30
   6   2   5   92.39    4.80
   6   2   5   97.29    4.80
   6   2   5   91.49    5.30
   6   2   5   96.69    4.70
   6   2   5   98.99    5.60
   6   2   5   89.09    5.20
   7   2   5   49.80    3.00
   7   2   5   49.10    3.20
   7   2   5   54.59    2.90
   7   2   5   49.90    2.80
   7   2   5   48.40    2.80
   7   2   5   49.70    3.00
   7   2   5   44.80    3.40
   7   2   5   49.90    2.80
   9  -3  -5   53.29    4.20
   9  -3  -5   49.80    3.90
   9  -3  -5   51.29    3.80
  -9   3   5   49.00    3.90
  -9   3   5   53.49    3.60
  -9   3   5   55.39    4.30
   8  -3  -5  765.42   20.80
   8  -3  -5  792.02   21.30
   8  -3  -5  822.92   21.70
  -8   3   5  817.62   21.80
  -8   3   5  796.42   21.60
  -8   3   5  753.32   21.70
   7  -3  -5   25.20    3.20
   7  -3  -5   25.50    3.30
   7  -3  -5   35.10    3.70
  -7   3   5   25.90    3.40
  -7   3   5   32.60    4.00
  -7   3   5   25.80    3.60
  -7   3   5   30.10    4.10
   6  -3  -5  106.89    5.10
   6  -3  -5  100.59    4.80
   6  -3  -5  120.79    5.60
   6  -3  -5  105.29    5.30
  -6   3   5  122.39    6.30
  -6   3   5  119.29    6.50
  -6   3   5  111.49    5.90
  -6   3   5  118.49    6.00
   5  -3  -5 1976.10   45.00
   5  -3  -5 1918.91   44.20
   5  -3  -5 1958.00   44.70
  -5   3   5 1935.11   45.60
  -5   3   5 2009.20   45.60
  -5   3   5 1853.91   47.90
   4  -3  -5  892.41   21.40
   4  -3  -5  880.41   21.40
   4  -3  -5  869.11   21.40
  -4   3   5  833.02   21.60
  -4   3   5  880.41   23.00
  -4   3   5  866.01   22.40
  -4   3   5  892.01   22.60
   3  -3  -5  468.45   12.20
   3  -3  -5  450.85   12.70
   3  -3  -5  447.46   12.40
   3  -3  -5  451.75   12.00
  -3   3   5  425.16   12.90
  -3   3   5  437.96   12.80
  -3   3   5  456.15   13.10
  -3   3   5  463.95   13.70
   2  -3  -5  335.07    9.40
   2  -3  -5  352.06    9.60
   2  -3  -5  354.06   10.00
  -2   3   5  359.86   11.30
  -2   3   5  344.77   10.60
  -2   3   5  340.97   10.30
  -2   3   5  362.36   11.00
  -2   3   5  339.27   10.50
   1  -3  -5  365.86   10.10
   1  -3  -5  368.46   10.50
   1  -3  -5  365.96   10.20
  -1   3   5  365.96   10.50
  -1   3   5  368.66   11.20
  -1   3   5  355.16   10.60
  -1   3   5  366.26   11.40
  -1   3   5  366.66   11.20
   0  -3  -5   13.00    1.70
   0  -3  -5   15.60    1.60
   0  -3  -5   12.10    1.80
   0  -3  -5   13.10    1.90
   0   3   5   13.80    2.20
   0   3   5   13.40    2.10
   0   3   5   11.30    1.90
   0   3   5   13.00    1.80
   0   3   5   13.00    2.00
   0   3   5   13.10    1.90
  -1  -3  -5  520.25   13.90
   1   3   5  536.95   15.10
   1   3   5  534.85   14.50
   1   3   5  541.95   15.50
   1   3   5  533.35   15.30
   1   3   5  525.75   15.00
   1   3   5  545.85   14.50
  -2  -3  -5  155.88    6.40
  -2  -3  -5  149.88    6.30
   2   3   5  150.68    7.10
   2   3   5  155.68    7.00
   2   3   5  148.59    7.30
  -3  -3  -5  430.86   14.10
  -3  -3  -5  462.35   13.90
  -3  -3  -5  435.56   13.70
   3   3   5  403.16   14.70
   3   3   5  430.16   15.40
   4   3   5 1514.85   37.10
   4   3   5 1567.44   37.50
   4   3   5 1521.05   36.50
   4   3   5 1591.54   36.20
   4   3   5 1482.95   35.40
   4   3   5 1553.04   35.70
   4   3   5 1534.95   37.00
   5   3   5  120.79    6.30
   5   3   5  126.09    5.80
   5   3   5  128.59    6.40
   5   3   5  120.99    6.50
   5   3   5  131.29    5.60
   5   3   5  131.99    6.20
   5   3   5  122.89    5.50
   6   3   5   14.30    2.20
   6   3   5   15.10    2.20
   6   3   5   15.50    2.40
   6   3   5   19.50    2.30
   6   3   5   17.20    2.50
   6   3   5   14.40    2.00
   7   3   5    6.20    1.00
   7   3   5    5.50    1.00
   7   3   5    5.60    1.00
   7   3   5    5.00    1.00
   7   3   5    6.70    1.10
   7   3   5    5.90    1.10
   9  -4  -5  405.36   12.00
   9  -4  -5  406.76   11.50
   9  -4  -5  393.86   11.50
  -9   4   5  399.76   12.30
  -9   4   5  384.46   11.80
   8  -4  -5  186.78    7.70
   8  -4  -5  191.58    7.90
   8  -4  -5  179.38    7.40
  -8   4   5  205.58    8.70
  -8   4   5  186.88    8.10
  -8   4   5  188.98    8.50
   7  -4  -5  128.29    6.00
   7  -4  -5  131.19    6.20
   7  -4  -5  116.09    6.10
  -7   4   5  139.09    6.80
  -7   4   5  136.29    7.10
  -7   4   5  126.39    7.10
   6  -4  -5   61.09    4.40
   6  -4  -5   63.29    4.80
   6  -4  -5   64.69    3.90
  -6   4   5   60.49    5.40
  -6   4   5   61.99    5.10
  -6   4   5   58.49    5.60
  -6   4   5   58.19    3.30
   5  -4  -5 1410.76   33.80
   5  -4  -5 1422.46   33.50
   5  -4  -5 1414.46   34.00
  -5   4   5 1370.36   34.70
  -5   4   5 1455.55   35.30
  -5   4   5 1422.26   35.70
   4  -4  -5 1022.50   24.60
   4  -4  -5 1002.60   24.50
   4  -4  -5 1019.80   24.70
   4  -4  -5 1040.80   25.10
  -4   4   5 1004.40   26.00
  -4   4   5 1023.80   26.80
  -4   4   5 1030.50   25.80
  -4   4   5  975.40   25.60
   3  -4  -5   22.40    2.40
   3  -4  -5   20.30    2.40
   3  -4  -5   17.00    2.10
  -3   4   5   19.90    2.80
  -3   4   5   20.40    2.60
  -3   4   5   16.50    2.70
  -3   4   5   18.90    2.60
  -3   4   5   20.40    2.60
   2  -4  -5 2325.77   50.29
   2  -4  -5 2310.07   50.89
   2  -4  -5 2281.27   50.19
   2  -4  -5 2281.87   50.79
  -2   4   5 2249.57   52.49
  -2   4   5 2290.07   51.39
  -2   4   5 2327.17   52.19
  -2   4   5 2294.57   51.99
   1  -4  -5    9.80    1.50
   1  -4  -5    8.50    1.60
   1  -4  -5   10.60    1.80
  -1   4   5    8.10    1.60
  -1   4   5   11.20    2.20
  -1   4   5    7.90    1.90
  -1   4   5    8.00    1.90
   0  -4  -5   13.00    2.20
   0  -4  -5   12.00    1.90
   0  -4  -5   12.60    2.10
   0   4   5   11.30    2.20
   0   4   5   12.30    2.30
   0   4   5    8.70    2.00
   0   4   5   11.40    2.20
  -1  -4  -5  225.58    8.70
  -1  -4  -5  224.38    9.10
  -1  -4  -5  201.88    7.50
   1   4   5  227.18    9.00
   1   4   5  223.68    9.20
   1   4   5  232.18    9.10
  -2  -4  -5  164.08    7.10
  -2  -4  -5  165.48    7.90
   2   4   5  158.48    8.30
   2   4   5  161.68    7.80
   3   4   5  530.85   16.00
   3   4   5  546.55   15.00
   3   4   5  539.15   16.20
   3   4   5  567.54   16.30
   3   4   5  550.34   15.60
   3   4   5  550.34   15.90
   4   4   5  549.65   16.40
   4   4   5  567.24   16.50
   4   4   5  565.74   15.20
   4   4   5  544.45   15.40
   4   4   5  556.04   15.90
   4   4   5  543.85   16.70
   5   4   5  277.17    8.80
   5   4   5  280.97    9.80
   5   4   5  282.47    9.80
   5   4   5  265.77    9.30
   5   4   5  283.97   10.10
   5   4   5  273.27    9.00
   6   4   5    4.10    1.10
   6   4   5    4.50    1.10
   6   4   5    3.00    1.00
   6   4   5    4.80    1.00
   6   4   5    2.70    0.90
   6   4   5    4.20    1.20
   6   4   5    3.60    1.10
   9  -5  -5  515.95   14.20
   9  -5  -5  506.35   13.50
  -9   5   5  515.75   14.70
  -9   5   5  507.75   14.00
  -9   5   5  481.65   14.10
   8  -5  -5    4.60    1.40
   8  -5  -5    5.40    1.60
   8  -5  -5    6.20    1.70
  -8   5   5    3.10    1.80
  -8   5   5    3.00    1.50
  -8   5   5    5.80    2.00
   7  -5  -5    2.70    1.20
   7  -5  -5    0.80    0.90
   7  -5  -5    1.20    0.90
  -7   5   5    4.40    1.90
  -7   5   5   -0.40    1.20
  -7   5   5    1.20    1.50
   6  -5  -5  575.64   15.20
   6  -5  -5  567.44   15.60
  -6   5   5  563.34   15.20
  -6   5   5  590.54   18.10
  -6   5   5  568.24   17.20
  -6   5   5  492.15   15.90
  -6   5   5  559.54   17.10
   5  -5  -5  751.42   20.00
   5  -5  -5  724.13   19.70
  -5   5   5  752.12   22.20
  -5   5   5  702.13   21.10
   4  -5  -5  251.47    8.90
   4  -5  -5  246.38    8.80
   4  -5  -5  241.68    9.10
   4  -5  -5  241.88    8.60
  -4   5   5  237.58    9.50
  -4   5   5  244.58    9.80
  -4   5   5  242.18   10.30
   3  -5  -5  148.19    6.00
   3  -5  -5  151.78    6.10
   3  -5  -5  144.89    6.30
  -3   5   5  149.49    7.50
  -3   5   5  159.38    7.50
  -3   5   5  149.59    7.00
  -3   5   5  146.89    7.10
   2  -5  -5  515.35   14.30
   2  -5  -5  495.95   14.70
   2  -5  -5  524.55   14.30
  -2   5   5  510.15   14.90
  -2   5   5  494.75   15.80
  -2   5   5  530.25   16.10
  -2   5   5  490.55   16.00
   1  -5  -5   33.10    3.50
   1  -5  -5   29.30    2.90
   1  -5  -5   30.90    3.40
  -1   5   5   27.10    3.50
  -1   5   5   32.80    3.90
  -1   5   5   33.00    3.90
   0  -5  -5  691.63   19.30
   0  -5  -5  755.72   20.20
   0  -5  -5  743.13   20.30
   0   5   5  700.83   20.90
   0   5   5  732.63   20.40
   0   5   5  700.13   21.00
  -1  -5  -5  973.60   25.70
  -1  -5  -5  978.20   26.50
   1   5   5  950.20   26.80
   1   5   5  957.40   26.30
   2   5   5  384.06   12.60
   2   5   5  390.46   12.40
   2   5   5  361.66   12.00
   2   5   5  372.46   12.50
   2   5   5  394.16   12.10
   2   5   5  384.46   12.20
   3   5   5  286.07   10.20
   3   5   5  294.27   10.60
   3   5   5  286.57   10.30
   3   5   5  274.67   10.50
   3   5   5  291.17    9.90
   4   5   5    3.20    1.40
   4   5   5    3.10    1.30
   4   5   5    0.60    0.90
   4   5   5    1.00    1.20
   4   5   5   11.20    2.30
   4   5   5    1.50    1.00
   5   5   5   28.00    3.00
   5   5   5   23.60    2.70
   5   5   5   26.40    2.50
   5   5   5   24.90    2.60
   5   5   5   27.00    2.80
   9  -6  -5   30.20    2.60
   9  -6  -5   32.70    3.00
  -9   6   5   33.00    3.40
  -9   6   5   25.60    2.70
  -9   6   5   28.00    3.00
   8  -6  -5  111.69    5.30
   8  -6  -5  111.09    5.50
   8  -6  -5   97.59    4.90
  -8   6   5  111.69    6.60
  -8   6   5  103.59    6.10
   7  -6  -5  107.19    5.50
   7  -6  -5  111.49    5.40
   7  -6  -5  103.89    5.20
  -7   6   5  101.19    6.20
  -7   6   5  105.99    6.70
  -7   6   5  113.69    6.30
   6  -6  -5  196.88    7.50
   6  -6  -5  204.98    7.30
  -6   6   5  197.88    8.80
  -6   6   5  200.58    9.00
  -6   6   5  180.78    9.00
  -6   6   5  194.78    7.30
   5  -6  -5  647.34   16.40
  -5   6   5  659.03   16.80
  -5   6   5  617.14   18.90
  -5   6   5  633.74   16.10
  -5   6   5  655.33   16.70
  -5   6   5  615.04   18.50
  -5   6   5  609.34   18.50
  -5   6   5  660.83   19.60
   4  -6  -5   43.90    4.10
   4  -6  -5   42.50    4.10
   4  -6  -5   47.00    3.60
  -4   6   5   39.60    4.90
  -4   6   5   42.90    5.00
  -4   6   5   44.50    4.80
   3  -6  -5  478.05   14.00
   3  -6  -5  467.15   13.80
   3  -6  -5  457.65   14.30
  -3   6   5  464.25   16.30
  -3   6   5  450.55   15.40
  -3   6   5  485.15   15.20
  -3   6   5  479.15   16.10
   2  -6  -5  564.34   15.90
   2  -6  -5  528.55   16.30
   2  -6  -5  566.34   16.00
  -2   6   5  541.35   17.70
  -2   6   5  543.95   17.70
  -2   6   5  545.15   17.70
   1  -6  -5   58.19    4.20
   1  -6  -5   57.69    4.30
  -1   6   5   46.90    5.10
  -1   6   5   43.10    5.20
  -1   6   5   59.99    5.80
   0  -6  -5  168.78    8.00
   0  -6  -5  163.48    7.80
   0   6   5  160.28    8.50
   0   6   5  149.88    8.30
   0   6   5  156.78    7.90
   1   6   5  120.29    6.20
   1   6   5  115.69    5.50
   1   6   5  126.69    5.90
   1   6   5  122.39    5.80
   1   6   5  118.19    6.10
   1   6   5  124.09    6.10
   1   6   5  118.99    6.30
   2   6   5  202.98    8.60
   2   6   5  204.78    8.10
   2   6   5  204.38    8.20
   2   6   5  201.38    8.00
   2   6   5  196.68    8.20
   2   6   5  200.78    8.50
   3   6   5   12.10    2.40
   3   6   5   12.10    2.40
   3   6   5   11.00    2.20
   3   6   5   10.60    2.10
   3   6   5   11.20    2.20
   4   6   5   64.39    3.90
   4   6   5   67.99    3.90
   4   6   5   66.69    3.70
   4   6   5   72.59    4.20
   4   6   5   69.19    4.00
   5   6   5  130.99    4.80
   5   6   5  134.29    4.70
   5   6   5  124.29    4.20
   5   6   5  137.79    4.60
   5   6   5  135.39    4.70
   9  -7  -5   89.69    3.70
   9  -7  -5   80.59    3.80
  -9   7   5   86.29    4.50
  -9   7   5   74.29    4.10
   8  -7  -5   67.59    3.80
   8  -7  -5   67.69    3.80
   8  -7  -5   70.19    4.00
  -8   7   5   71.49    5.90
  -8   7   5   61.19    4.80
  -8   7   5   63.39    5.10
   7  -7  -5   33.10    3.30
   7  -7  -5   31.50    3.00
   7  -7  -5   32.60    3.30
  -7   7   5   34.10    4.50
  -7   7   5   27.60    3.70
  -7   7   5   34.30    4.10
   6  -7  -5  714.63   18.60
   6  -7  -5  732.03   19.00
  -6   7   5  722.73   18.70
  -6   7   5  725.03   20.60
  -6   7   5  727.23   21.40
  -6   7   5  725.93   22.00
   5  -7  -5   57.19    4.10
  -5   7   5   49.30    5.10
  -5   7   5   52.69    5.20
  -5   7   5   59.09    5.50
  -5   7   5   52.99    5.70
  -5   7   5   51.09    3.90
  -5   7   5   54.59    3.20
  -5   7   5   57.29    3.60
  -4   7   5   28.10    2.80
  -4   7   5   29.30    3.10
  -4   7   5   25.20    2.60
  -4   7   5   26.60    3.30
  -4   7   5   24.80    3.20
  -4   7   5   32.70    4.50
  -4   7   5   20.70    3.30
  -4   7   5   25.10    3.70
  -4   7   5   26.80    2.70
  -4   7   5   23.30    3.60
  -4   7   5   25.00    2.80
  -3   7   5  516.45   14.30
  -3   7   5  495.05   16.10
  -3   7   5  502.65   14.10
  -3   7   5  523.05   16.20
  -3   7   5  521.95   16.20
  -3   7   5  514.55   15.70
  -3   7   5  501.25   15.70
  -3   7   5  519.05   14.00
  -3   7   5  517.95   14.30
  -3   7   5  510.15   14.40
  -2   7   5   35.10    3.50
  -2   7   5   37.00    3.60
  -2   7   5   38.80    4.30
  -2   7   5   39.20    3.80
  -2   7   5   41.10    3.70
  -2   7   5   46.00    3.80
  -2   7   5   38.90    4.40
  -2   7   5   31.70    4.00
  -2   7   5   34.50    4.20
  -2   7   5   40.60    4.50
  -1   7   5  367.76   11.70
  -1   7   5  364.86   11.20
  -1   7   5  360.26   12.60
  -1   7   5  376.36   11.80
  -1   7   5  357.76   12.30
  -1   7   5  369.96   12.80
  -1   7   5  352.46   12.70
  -1   7   5  349.77   11.70
  -1   7   5  372.56   11.90
   0   7   5 1097.79   27.60
   0   7   5 1102.19   27.90
   0   7   5 1112.49   27.40
   0   7   5 1052.29   26.00
   0   7   5 1074.19   28.30
   0   7   5 1059.89   27.00
   0   7   5 1038.00   26.40
   0   7   5 1064.29   26.80
   1   7   5  393.26   12.70
   1   7   5  365.86   11.90
   1   7   5  386.56   12.20
   1   7   5  377.06   12.70
   1   7   5  386.96   12.60
   1   7   5  385.66   13.00
   1   7   5  375.76   11.70
   2   7   5   81.19    4.60
   2   7   5   89.19    5.10
   2   7   5   93.19    5.10
   2   7   5   89.69    5.20
   2   7   5   88.09    4.90
   3   7   5   11.10    1.90
   3   7   5   10.70    2.00
   3   7   5   16.10    2.30
   3   7   5   12.10    2.00
   3   7   5   10.60    1.90
   4   7   5   22.40    2.20
   4   7   5   18.60    2.10
   4   7   5   20.20    2.00
   4   7   5   18.80    1.90
   8  -8  -5  558.44   14.80
   8  -8  -5  561.84   14.40
  -8   8   5  539.25   15.20
  -8   8   5  555.54   15.50
  -8   8   5  554.14   16.30
   7  -8  -5  356.06   10.80
   7  -8  -5  342.07   10.40
   7  -8  -5  343.07   10.50
  -7   8   5  359.76   13.00
  -7   8   5  361.36   12.50
  -7   8   5  359.16   11.60
   6  -8  -5  356.26   10.80
   6  -8  -5  332.17   10.20
  -6   8   5  337.97   13.00
  -6   8   5  332.87   10.30
  -6   8   5  341.97   12.20
  -6   8   5  351.16   12.60
   5  -8  -5  185.28    6.80
  -5   8   5  185.08    8.80
  -5   8   5  181.88    7.00
  -5   8   5  192.78    6.60
  -5   8   5  188.68    8.80
  -5   8   5  193.18    7.10
  -5   8   5  180.38    8.40
  -5   8   5  188.48    9.20
  -5   8   5  169.38    8.80
  -4   8   5  192.88    6.90
  -4   8   5  182.98    8.60
  -4   8   5  182.98    6.70
  -4   8   5  187.18    8.80
  -4   8   5  179.48    8.50
  -4   8   5  179.18    6.60
  -4   8   5  163.78    7.70
  -4   8   5  174.58    7.00
  -4   8   5  180.08    7.70
  -4   8   5  177.58    6.90
  -3   8   5  492.25   16.30
  -3   8   5  497.45   14.10
  -3   8   5  476.65   14.00
  -3   8   5  496.35   16.10
  -3   8   5  470.55   15.30
  -3   8   5  511.25   16.30
  -3   8   5  508.85   13.90
  -3   8   5  488.85   14.00
  -3   8   5  493.75   15.70
  -3   8   5  505.95   14.30
  -2   8   5  500.45   16.00
  -2   8   5  496.05   14.50
  -2   8   5  510.05   14.20
  -2   8   5  511.65   16.20
  -2   8   5  504.85   14.80
  -2   8   5  489.35   15.90
  -2   8   5  507.75   14.60
  -2   8   5  487.45   16.20
  -2   8   5  487.15   14.50
  -1   8   5  330.27   11.00
  -1   8   5  329.57   12.20
  -1   8   5  329.07   11.20
  -1   8   5  326.07   12.10
  -1   8   5  327.77   11.10
  -1   8   5  335.57   11.20
  -1   8   5  324.37   10.50
  -1   8   5  324.37   11.90
   0   8   5  318.97   11.20
   0   8   5  315.77   11.60
   0   8   5  307.67   10.50
   0   8   5  318.87   10.40
   0   8   5  298.57    9.80
   0   8   5  311.77   10.80
   0   8   5  304.27   10.80
   0   8   5  315.77   10.80
   1   8   5   58.69    4.90
   1   8   5   58.79    4.60
   1   8   5   59.49    5.20
   1   8   5   62.49    4.70
   1   8   5   57.79    4.80
   1   8   5   60.49    4.40
   1   8   5   66.89    5.10
   2   8   5   71.29    3.90
   2   8   5   67.69    4.00
   2   8   5   65.69    4.10
   2   8   5   70.89    3.70
   2   8   5   70.89    4.00
   3   8   5   35.40    2.60
   3   8   5   38.70    3.00
   3   8   5   35.30    2.30
   3   8   5   39.30    3.00
   3   8   5   40.60    2.90
   8  -9  -5   38.60    2.40
   8  -9  -5   34.10    2.50
  -8   9   5   36.40    3.50
  -8   9   5   38.40    3.20
   7  -9  -5  163.68    5.80
   7  -9  -5  160.28    6.00
   7  -9  -5  160.88    5.80
  -7   9   5  166.88    7.30
  -7   9   5  151.08    6.50
  -7   9   5  161.48    7.40
   6  -9  -5  154.48    5.80
   6  -9  -5  152.48    6.10
  -6   9   5  159.48    7.50
  -6   9   5  161.98    7.80
  -6   9   5  164.78    6.00
  -6   9   5  153.78    7.50
  -6   9   5  153.48    6.80
   5  -9  -5  190.58    6.90
  -5   9   5  196.48    8.60
  -5   9   5  194.38    7.10
  -5   9   5  188.98    8.80
  -5   9   5  198.88    7.70
  -5   9   5  193.78    6.60
  -5   9   5  211.28    7.30
  -5   9   5  188.28    8.70
  -4   9   5  405.66   11.50
  -4   9   5  400.96   11.40
  -4   9   5  396.96   13.80
  -4   9   5  392.46   13.90
  -4   9   5  373.16   12.80
  -4   9   5  396.26   13.90
  -4   9   5  389.36   11.40
  -4   9   5  415.76   12.70
  -4   9   5  396.96   11.80
  -4   9   5  395.66   11.80
  -3   9   5  106.89    5.20
  -3   9   5   92.19    4.50
  -3   9   5  107.89    5.10
  -3   9   5  108.79    6.10
  -3   9   5  101.49    6.20
  -3   9   5  104.79    5.10
  -3   9   5  110.89    6.60
  -3   9   5  107.89    5.20
  -3   9   5   98.09    5.80
  -2   9   5   67.89    4.00
  -2   9   5   64.09    5.50
  -2   9   5   77.59    4.40
  -2   9   5   60.59    5.40
  -2   9   5   48.00    5.00
  -2   9   5   66.99    3.90
  -2   9   5   72.29    4.30
  -2   9   5   71.89    4.20
  -2   9   5   78.39    6.50
  -1   9   5  808.72   21.50
  -1   9   5  863.21   22.80
  -1   9   5  823.82   21.50
  -1   9   5  828.52   21.40
  -1   9   5  834.12   21.10
  -1   9   5  825.82   21.80
  -1   9   5  844.62   22.60
  -1   9   5  846.12   23.00
   0   9   5  397.36   12.00
   0   9   5  407.86   12.90
   0   9   5  398.66   11.90
   0   9   5  392.36   11.60
   0   9   5  416.56   12.40
   0   9   5  404.86   12.10
   0   9   5  381.36   11.20
   0   9   5  389.26   12.30
   1   9   5  227.98    7.70
   1   9   5  234.78    7.60
   1   9   5  238.08    7.50
   1   9   5  230.08    7.90
   1   9   5  227.58    7.20
   1   9   5  224.88    7.80
   2   9   5  303.77    8.30
   2   9   5  308.17    8.30
   2   9   5  302.67    8.60
   2   9   5  292.37    8.50
   2   9   5  290.87    8.00
   7 -10  -5   77.39    3.30
   7 -10  -5   90.19    3.60
   7 -10  -5   84.99    3.60
  -7  10   5   83.89    4.10
  -7  10   5   79.59    4.20
  -7  10   5   87.09    4.50
   6 -10  -5  116.29    4.60
   6 -10  -5  114.99    4.70
  -6  10   5  120.99    5.90
  -6  10   5  126.09    5.90
  -6  10   5  118.39    4.50
  -6  10   5  107.99    5.00
   5 -10  -5   67.39    3.40
  -5  10   5   66.39    4.40
  -5  10   5   65.59    3.10
  -5  10   5   70.09    3.60
  -5  10   5   57.69    3.60
  -5  10   5   62.59    5.10
  -5  10   5   64.39    3.40
  -5  10   5   74.89    4.70
  -4  10   5  683.63   18.80
  -4  10   5  674.43   16.70
  -4  10   5  628.84   17.40
  -4  10   5  660.73   16.60
  -4  10   5  643.44   18.60
  -4  10   5  640.74   16.20
  -4  10   5  649.64   17.90
  -4  10   5  625.14   16.10
  -3  10   5  357.76   10.50
  -3  10   5  360.36   11.70
  -3  10   5  355.76   12.30
  -3  10   5  365.46   10.40
  -3  10   5  373.16   10.80
  -3  10   5  368.06   11.90
  -3  10   5  365.26   10.80
  -3  10   5  356.36   10.50
  -3  10   5  360.16   12.10
  -2  10   5    1.00    1.10
  -2  10   5    2.70    1.00
  -2  10   5    3.90    1.20
  -2  10   5   -0.20    0.50
  -2  10   5    1.90    0.90
  -2  10   5    4.10    1.50
  -2  10   5    1.80    0.90
  -2  10   5    3.20    1.10
  -2  10   5    4.00    1.50
  -1  10   5    1.80    0.90
  -1  10   5    0.20    0.90
  -1  10   5   -0.10    0.50
  -1  10   5    1.50    0.80
  -1  10   5    0.60    0.80
  -1  10   5   -0.10    0.70
  -1  10   5    0.30    0.60
  -1  10   5    1.30    0.90
  -1  10   5    0.80    0.90
   0  10   5  107.59    4.50
   0  10   5  107.89    4.40
   0  10   5  104.99    3.90
   0  10   5  108.89    4.50
   0  10   5  109.29    4.80
   0  10   5  107.19    4.50
   0  10   5  109.49    4.30
   1  10   5   76.79    3.20
   1  10   5   76.69    3.10
   1  10   5   72.79    3.10
   1  10   5   70.99    2.90
   1  10   5   70.39    2.90
   6 -11  -5   54.89    2.60
   6 -11  -5   58.59    2.60
  -6  11   5   51.09    3.00
  -6  11   5   58.49    2.90
  -6  11   5   58.89    3.30
   5 -11  -5   11.00    1.30
  -5  11   5   12.40    1.90
  -5  11   5   11.60    1.40
  -5  11   5   11.20    1.90
  -5  11   5   11.70    1.60
  -5  11   5   10.40    1.80
   4 -11  -5  130.19    4.50
  -4  11   5  132.89    4.40
  -4  11   5  139.59    4.80
  -4  11   5  137.59    5.30
  -4  11   5  133.89    4.80
  -4  11   5  131.09    5.00
  -4  11   5  145.59    5.90
  -4  11   5  127.69    5.60
  -4  11   5  131.69    4.30
  -3  11   5    1.80    0.70
  -3  11   5    1.20    0.60
  -3  11   5    1.50    0.70
  -3  11   5    2.20    1.00
  -3  11   5    1.60    0.80
  -3  11   5    1.40    1.00
  -3  11   5    2.40    1.00
  -3  11   5    3.10    0.90
  -3  11   5    1.40    1.00
  -2  11   5  106.89    4.00
  -2  11   5  109.19    4.60
  -2  11   5  109.39    4.20
  -2  11   5  102.49    3.80
  -2  11   5  112.19    4.70
  -2  11   5  108.59    4.00
  -2  11   5  108.89    4.10
  -2  11   5  102.09    4.50
  -1  11   5  248.18    7.00
  -1  11   5  257.47    7.10
  -1  11   5  255.87    7.30
  -1  11   5  255.97    7.60
  -1  11   5  252.77    7.00
  -1  11   5  267.47    7.10
  -1  11   5  245.98    6.80
  -2  12  -6  106.49    4.40
  -2  12  -6  103.69    4.40
   2 -12   6  108.79    4.30
   2 -12   6  113.29    4.00
  -3  12  -6   48.00    2.80
  -3  12  -6   46.30    3.00
   3 -12   6   47.60    2.50
  -4  12  -6    6.10    1.30
   4 -12   6    4.40    0.90
   1  11  -6  142.29    4.70
   1  11  -6  135.19    5.40
  -1 -11   6  145.39    4.70
  -1 -11   6  132.29    4.40
   0  11  -6    8.70    1.60
   0  11  -6    9.50    1.50
   0  11  -6    7.90    1.80
   0 -11   6    9.50    1.40
   0 -11   6    8.00    1.30
  -1  11  -6    9.90    2.00
  -1  11  -6    9.00    1.90
  -1  11  -6    7.20    1.70
   1 -11   6    9.50    1.30
   1 -11   6    7.70    1.30
   1 -11   6   10.80    1.60
  -2  11  -6  340.37   11.20
  -2  11  -6  354.96   11.60
  -2  11  -6  360.46   11.60
   2 -11   6  350.26    9.50
   2 -11   6  375.16   10.30
   2 -11   6  358.86   10.30
  -3  11  -6   64.29    4.10
  -3  11  -6   65.39    4.30
  -3  11  -6   64.59    3.80
   3 -11   6   70.39    3.70
   3 -11   6   71.29    3.20
   3 -11   6   73.49    3.70
  -4  11  -6  136.49    5.90
  -4  11  -6  157.38    6.60
  -4  11  -6  136.79    7.60
   4 -11   6  149.19    5.60
   4 -11   6  135.69    4.90
   4 -11   6  141.09    5.30
  -5  11  -6   98.79    4.70
  -5  11  -6  106.29    4.90
   5 -11   6  106.19    4.40
   5 -11   6   97.79    3.90
   5 -11   6   98.99    4.00
  -6  11  -6    1.00    0.80
   6 -11   6    0.40    0.60
   6 -11   6    1.50    0.70
   2  10  -6    7.00    1.40
   2  10  -6    4.50    1.50
   2  10  -6    7.60    1.30
  -2 -10   6    7.70    1.30
  -2 -10   6    6.10    1.10
   1  10  -6  685.53   19.20
   1  10  -6  639.74   16.80
   1  10  -6  685.23   18.30
   1  10  -6  639.34   20.70
   1  10  -6  721.03   17.90
  -1 -10   6  677.83   17.20
  -1 -10   6  710.23   17.40
   0  10  -6  169.38    7.90
   0  10  -6  160.28    5.70
   0  10  -6  156.88    6.50
   0  10  -6  167.78    7.50
   0 -10   6  165.48    6.30
   0 -10   6  157.18    6.20
   0 -10   6  166.78    6.50
  -1  10  -6  669.23   20.00
  -1  10  -6  663.03   19.30
  -1  10  -6  701.13   19.90
  -1  10  -6  706.03   17.10
   1 -10   6  693.13   18.00
   1 -10   6  705.13   18.20
   1 -10   6  704.33   17.90
  -2  10  -6   94.89    5.70
  -2  10  -6   91.89    5.70
  -2  10  -6   83.79    5.40
   2 -10   6  100.29    4.80
   2 -10   6   91.69    4.10
   2 -10   6   97.89    4.80
  -3  10  -6   22.30    3.00
  -3  10  -6   25.20    3.40
  -3  10  -6   26.30    3.60
   3 -10   6   26.50    2.50
   3 -10   6   30.70    3.10
   3 -10   6   25.40    2.80
  -4  10  -6  538.65   16.40
  -4  10  -6  539.05   15.70
   4 -10   6  544.25   15.10
   4 -10   6  559.74   15.00
   4 -10   6  539.55   14.10
  -5  10  -6  138.99    6.10
  -5  10  -6  144.99    6.30
  -5  10  -6  143.99    6.50
   5 -10   6  134.49    5.20
   5 -10   6  148.79    6.00
   5 -10   6  132.59    5.60
  -6  10  -6    5.00    1.40
  -6  10  -6    3.10    1.20
   6 -10   6    5.70    1.30
   6 -10   6    3.90    1.10
   6 -10   6    4.80    1.10
  -7  10  -6   58.99    3.10
   7 -10   6   55.39    2.60
   7 -10   6   62.99    3.00
   3   9  -6    6.80    1.50
   3   9  -6    9.10    1.60
   3   9  -6    6.80    1.50
   3   9  -6    8.60    1.80
   3   9  -6   10.10    1.50
  -3  -9   6    9.10    1.60
   2   9  -6  460.25   14.80
   2   9  -6  438.26   13.50
   2   9  -6  463.65   13.00
   2   9  -6  489.55   14.00
  -2  -9   6  440.26   13.00
   1   9  -6  105.09    5.20
   1   9  -6  115.29    6.60
   1   9  -6  109.99    4.70
   1   9  -6  108.79    5.60
   1   9  -6   99.99    5.60
   1   9  -6  101.09    5.70
  -1  -9   6  105.99    5.20
  -1  -9   6  107.09    5.30
   0   9  -6  553.74   17.20
   0   9  -6  588.54   15.10
   0   9  -6  579.24   16.60
   0   9  -6  554.34   15.90
   0   9  -6  572.54   18.10
   0  -9   6  582.34   16.20
   0  -9   6  578.14   16.10
  -1   9  -6  609.24   18.00
  -1   9  -6  623.74   18.30
  -1   9  -6  600.24   18.70
  -1   9  -6  605.84   15.80
   1  -9   6  616.44   16.80
   1  -9   6  604.24   16.80
   1  -9   6  601.84   16.80
  -2   9  -6  407.26   13.90
  -2   9  -6  405.36   13.60
  -2   9  -6  396.36   12.60
  -2   9  -6  414.56   13.70
   2  -9   6  401.36   12.30
   2  -9   6  416.96   12.40
   2  -9   6  396.06   12.30
  -3   9  -6  112.19    6.00
  -3   9  -6  108.49    6.20
  -3   9  -6  113.99    5.80
   3  -9   6  112.99    4.80
   3  -9   6  105.69    5.20
   3  -9   6  106.29    5.30
  -4   9  -6   16.40    2.50
  -4   9  -6   15.30    2.60
  -4   9  -6   13.10    2.60
   4  -9   6   10.70    2.00
   4  -9   6   16.60    2.20
   4  -9   6   13.20    2.30
  -5   9  -6  364.46   11.60
  -5   9  -6  352.36   12.00
  -5   9  -6  362.36   11.90
   5  -9   6  358.76   11.30
   5  -9   6  345.97   10.40
   5  -9   6  368.56   11.50
  -6   9  -6  706.23   18.90
  -6   9  -6  729.03   19.00
   6  -9   6  732.73   18.90
   6  -9   6  697.93   17.90
   6  -9   6  700.23   18.30
  -7   9  -6   64.59    3.80
  -7   9  -6   68.49    3.70
  -7   9  -6   66.29    3.60
   7  -9   6   72.39    4.40
   7  -9   6   64.59    3.30
   7  -9   6   73.59    3.80
   4   8  -6  131.49    5.00
   4   8  -6  122.29    4.70
   4   8  -6  123.19    5.30
   4   8  -6  127.29    5.60
   4   8  -6  122.49    5.40
  -4  -8   6  125.19    5.20
  -4  -8   6  122.69    5.20
   3   8  -6   87.19    5.20
   3   8  -6   88.59    5.00
   3   8  -6   97.79    4.70
   3   8  -6   92.19    4.70
   3   8  -6   97.99    5.60
   3   8  -6   96.39    5.20
  -3  -8   6   94.49    5.00
  -3  -8   6   90.19    4.80
   2   8  -6  806.92   21.30
   2   8  -6  813.32   22.20
   2   8  -6  822.92   22.00
   2   8  -6  802.82   23.10
   2   8  -6  823.02   21.20
  -2  -8   6  802.42   21.40
  -2  -8   6  796.82   21.40
   1   8  -6   76.89    5.80
   1   8  -6   80.89    4.60
   1   8  -6   79.09    4.70
   1   8  -6   78.89    6.80
   1   8  -6   86.79    5.30
   1   8  -6   78.59    5.00
  -1  -8   6   77.49    4.70
   0   8  -6  522.65   15.90
   0   8  -6  508.65   16.60
   0   8  -6  518.55   15.50
   0   8  -6  482.25   15.00
   0   8  -6  498.85   13.90
   0   8  -6  525.85   15.00
   0  -8   6  540.35   15.20
   0  -8   6  520.15   15.00
  -1   8  -6   24.40    3.30
  -1   8  -6   29.10    2.80
  -1   8  -6   25.90    3.80
  -1   8  -6   27.50    3.50
   1  -8   6   28.20    3.20
   1  -8   6   27.50    3.00
  -2   8  -6    6.20    1.90
  -2   8  -6    9.00    2.00
  -2   8  -6    9.50    2.10
   2  -8   6   10.20    1.80
   2  -8   6    9.90    1.90
   2  -8   6    8.10    1.90
  -3   8  -6   16.70    2.80
  -3   8  -6   19.50    3.00
  -3   8  -6   14.60    2.30
   3  -8   6   15.90    2.30
   3  -8   6   20.00    2.80
   3  -8   6   13.20    2.10
   3  -8   6   17.20    2.20
  -4   8  -6  119.19    5.70
  -4   8  -6  125.09    6.40
  -4   8  -6  120.19    5.90
   4  -8   6  124.09    5.90
   4  -8   6  127.69    5.90
   4  -8   6  131.29    5.30
  -5   8  -6    7.40    1.80
  -5   8  -6    8.10    1.90
  -5   8  -6    5.30    1.80
   5  -8   6    5.80    1.40
   5  -8   6    5.30    1.50
   5  -8   6    5.50    1.50
  -6   8  -6   69.09    4.30
  -6   8  -6   66.19    4.20
  -6   8  -6   75.79    4.50
   6  -8   6   69.49    3.90
   6  -8   6   73.19    4.30
   6  -8   6   69.79    4.30
  -7   8  -6  109.69    5.20
  -7   8  -6  102.39    5.10
   7  -8   6  112.89    5.30
   7  -8   6  105.99    4.80
   7  -8   6  105.49    4.70
  -8   8  -6  585.14   14.30
  -8   8  -6  573.74   14.60
   8  -8   6  584.54   14.50
   8  -8   6  552.04   14.00
   5   7  -6    3.30    1.20
   5   7  -6    2.30    0.80
   5   7  -6    3.30    1.20
   5   7  -6    2.10    1.00
   5   7  -6    3.00    1.20
  -5  -7   6    2.50    1.00
  -5  -7   6    2.90    0.90
   4   7  -6    0.90    0.90
   4   7  -6    0.50    1.10
   4   7  -6    1.00    1.00
   4   7  -6    1.00    0.80
   4   7  -6   -0.10    0.80
   4   7  -6    0.60    0.90
   4   7  -6    0.50    1.10
  -4  -7   6    0.60    0.90
   3   7  -6   20.90    3.30
   3   7  -6   25.30    3.00
   3   7  -6   21.40    2.80
   3   7  -6   17.50    2.90
   3   7  -6   22.30    2.70
   3   7  -6   28.90    3.80
   3   7  -6   24.70    3.40
  -3  -7   6   20.00    2.90
   2   7  -6  477.55   14.00
   2   7  -6  455.25   14.50
   2   7  -6  446.06   14.70
   2   7  -6  472.25   15.50
   2   7  -6  446.96   13.80
  -2  -7   6  466.85   14.20
   1   7  -6  217.28    8.10
   1   7  -6  231.88    8.30
   1   7  -6  213.88    8.70
   1   7  -6  226.98    8.70
   1   7  -6  215.48    9.20
   1   7  -6  211.28    8.60
  -1  -7   6  216.28    8.40
  -1  -7   6  221.38    8.50
   0   7  -6 1320.07   31.60
   0   7  -6 1258.17   30.90
   0   7  -6 1375.76   35.70
   0   7  -6 1284.27   32.50
   0   7  -6 1292.57   31.00
   0   7  -6 1262.37   31.00
   0   7  -6 1290.97   31.40
   0  -7   6 1315.87   34.80
   0  -7   6 1298.77   31.20
  -1   7  -6  362.06   12.90
  -1   7  -6  377.06   12.00
  -1   7  -6  392.96   12.50
  -1   7  -6  396.26   14.40
  -1   7  -6  381.36   11.90
   1  -7   6  392.56   13.60
   1  -7   6  408.26   15.20
   1  -7   6  370.16   11.40
   1  -7   6  372.46   12.20
  -2   7  -6  383.06   11.30
  -2   7  -6  378.36   11.80
  -2   7  -6  395.26   14.00
  -2   7  -6  377.86   12.50
  -2   7  -6  379.26   12.00
   2  -7   6  366.96   11.10
   2  -7   6  376.46   12.20
   2  -7   6  374.76   11.40
  -3   7  -6  234.68    8.60
  -3   7  -6  245.88    8.20
  -3   7  -6  244.58    8.30
  -3   7  -6  235.68    8.70
   3  -7   6  244.98    8.40
   3  -7   6  229.58    8.20
   3  -7   6  229.38    7.50
   3  -7   6  217.28    8.30
  -4   7  -6   72.79    4.20
  -4   7  -6   73.09    4.40
  -4   7  -6   67.49    4.00
   4  -7   6   65.49    4.20
   4  -7   6   62.59    3.60
   4  -7   6   67.29    3.80
   4  -7   6   70.79    4.30
   4  -7   6   67.99    4.20
  -5   7  -6  567.64   15.80
  -5   7  -6  565.34   15.90
   5  -7   6  547.55   16.20
   5  -7   6  558.44   16.20
   5  -7   6  559.04   15.30
  -6   7  -6    0.60    1.00
  -6   7  -6    0.20    0.90
  -6   7  -6    1.80    1.10
   6  -7   6    0.50    0.70
   6  -7   6    1.30    1.10
   6  -7   6    0.90    0.90
   6  -7   6    0.00    0.80
  -7   7  -6   45.50    3.60
  -7   7  -6   52.19    4.20
  -7   7  -6   54.19    4.20
   7  -7   6   43.10    3.60
   7  -7   6   40.90    3.60
   7  -7   6   48.30    4.20
  -8   7  -6  281.57    8.70
  -8   7  -6  278.17    8.20
  -8   7  -6  261.37    8.00
   8  -7   6  258.07    8.10
   8  -7   6  264.47    7.70
   8  -7   6  274.57    8.60
   6   6  -6  151.58    6.10
   6   6  -6  166.98    5.20
   6   6  -6  167.58    5.80
   6   6  -6  160.38    6.30
  -6  -6   6  173.58    6.10
  -6  -6   6  155.38    5.80
   5   6  -6   15.10    2.10
   5   6  -6   16.30    2.80
   5   6  -6   17.20    2.60
   5   6  -6   17.20    2.60
   5   6  -6   21.20    2.60
   5   6  -6   14.60    2.60
  -5  -6   6   17.80    2.70
  -5  -6   6   16.30    2.50
   4   6  -6  490.35   15.00
   4   6  -6  494.45   14.00
   4   6  -6  456.25   13.80
   4   6  -6  491.25   14.20
   4   6  -6  502.15   15.00
   4   6  -6  455.05   15.40
   4   6  -6  497.35   15.70
  -4  -6   6  476.65   14.90
  -4  -6   6  489.45   15.00
   3   6  -6  697.33   19.20
   3   6  -6  670.13   19.80
   3   6  -6  676.93   18.30
   3   6  -6  673.13   19.70
   3   6  -6  638.24   18.20
   3   6  -6  702.03   18.60
   3   6  -6  704.13   19.90
  -3  -6   6  677.13   19.10
   2   6  -6    7.00    1.70
   2   6  -6    8.30    1.80
   2   6  -6    8.20    2.00
   2   6  -6    8.50    1.80
   2   6  -6    7.20    1.90
   2   6  -6    6.70    1.60
   2   6  -6   15.80    2.60
  -2  -6   6    8.90    2.00
   1   6  -6 1361.36   36.10
   1   6  -6 1381.56   35.80
  -1  -6   6 1290.77   33.30
  -1  -6   6 1438.26   35.00
   0   6  -6   61.89    5.00
   0   6  -6   58.89    3.90
   0   6  -6   71.29    5.20
   0  -6   6   69.09    4.80
   0  -6   6   62.19    4.00
   0  -6   6   60.99    4.10
  -1   6  -6  318.77   11.80
  -1   6  -6  304.27   10.20
   1  -6   6  305.77   10.40
   1  -6   6  308.37   10.00
   1  -6   6  324.27   11.40
  -2   6  -6  403.56   12.10
  -2   6  -6  415.76   12.70
  -2   6  -6  404.06   13.50
   2  -6   6  407.16   12.40
   2  -6   6  426.46   13.70
   2  -6   6  412.46   12.90
  -3   6  -6  684.13   18.70
  -3   6  -6  689.43   19.20
   3  -6   6  720.23   20.30
   3  -6   6  686.03   19.00
   3  -6   6  729.03   19.60
  -4   6  -6  264.17   10.30
  -4   6  -6  240.88    8.60
  -4   6  -6  246.68    8.40
   4  -6   6  256.87    8.30
   4  -6   6  256.77    8.20
   4  -6   6  252.17    8.10
   4  -6   6  244.08    8.90
   4  -6   6  258.27    9.00
   4  -6   6  238.88    8.90
  -5   6  -6  140.29    6.00
  -5   6  -6  130.09    5.70
   5  -6   6  120.39    5.90
   5  -6   6  125.09    5.70
   5  -6   6  137.09    5.80
   5  -6   6  126.59    5.30
   5  -6   6  129.39    6.30
   5  -6   6  131.79    6.30
  -6   6  -6  799.92   20.80
   6  -6   6  798.42   21.00
   6  -6   6  794.52   20.80
   6  -6   6  826.42   20.10
   6  -6   6  823.12   22.00
   6  -6   6  770.42   21.60
  -7   6  -6 1733.03   39.90
  -7   6  -6 1776.42   40.30
   7  -6   6 1676.13   40.20
   7  -6   6 1740.43   39.20
   7  -6   6 1732.03   40.20
   7  -6   6 1766.32   41.10
   7  -6   6 1729.93   38.40
  -8   6  -6  203.58    7.10
  -8   6  -6  228.88    7.60
   8  -6   6  205.38    7.20
   8  -6   6  219.38    7.60
   8  -6   6  216.78    7.00
   7   5  -6  259.37    7.90
   7   5  -6  253.67    7.50
  -7  -5   6  247.68    7.50
  -7  -5   6  249.48    7.40
   6   5  -6   93.49    4.30
   6   5  -6   84.79    4.70
   6   5  -6   86.39    5.20
   6   5  -6   84.99    4.10
   6   5  -6   88.89    5.00
  -6  -5   6   89.09    4.90
  -6  -5   6   89.49    4.70
   5   5  -6  747.83   20.70
   5   5  -6  714.63   20.30
   5   5  -6  708.13   19.00
   5   5  -6  721.63   19.70
   5   5  -6  689.43   20.80
   5   5  -6  742.23   18.90
  -5  -5   6  729.53   20.40
   4   5  -6  110.69    5.80
   4   5  -6  105.49    5.20
   4   5  -6  106.39    5.30
   4   5  -6  105.09    6.10
   4   5  -6  107.59    6.40
   4   5  -6  110.69    6.20
   4   5  -6  111.09    5.60
  -4  -5   6  112.79    6.20
   3   5  -6  255.07    9.90
   3   5  -6  264.27    9.00
   3   5  -6  269.87    9.40
   3   5  -6  260.37    9.50
   3   5  -6  264.47   10.20
   3   5  -6  275.67   10.10
   3   5  -6  269.37    9.10
  -3  -5   6  250.17    9.70
   2   5  -6   41.70    5.10
   2   5  -6   40.40    4.70
   2   5  -6   44.00    4.80
  -2  -5   6   38.00    4.40
  -2  -5   6   41.30    4.90
  -2  -5   6   42.90    4.20
   1   5  -6 1582.44   39.00
   1   5  -6 1622.34   39.80
   1   5  -6 1627.24   36.90
  -1  -5   6 1659.03   37.70
  -1  -5   6 1637.04   38.90
  -1  -5   6 1547.45   39.50
   0   5  -6  167.58    7.50
   0   5  -6  165.28    6.30
   0   5  -6  170.98    7.40
   0  -5   6  161.18    7.60
   0  -5   6  162.58    6.50
   0  -5   6  173.58    6.40
   0  -5   6  170.68    7.40
  -1   5  -6  460.25   12.40
  -1   5  -6  461.35   13.20
  -1   5  -6  466.85   14.10
   1  -5   6  489.25   14.40
   1  -5   6  463.85   12.90
   1  -5   6  460.25   13.40
  -2   5  -6  228.08    8.70
  -2   5  -6  242.38    8.00
  -2   5  -6  259.07    8.50
   2  -5   6  264.87    9.60
   2  -5   6  240.98    8.60
   2  -5   6  243.48    8.20
  -3   5  -6  930.11   23.00
  -3   5  -6  900.81   21.70
  -3   5  -6  894.11   22.80
   3  -5   6  913.61   24.50
   3  -5   6  962.20   24.00
   3  -5   6  917.11   23.40
  -4   5  -6  823.62   21.20
  -4   5  -6  876.61   22.40
   4  -5   6  858.41   23.20
   4  -5   6  882.61   23.90
   4  -5   6  890.01   23.60
  -5   5  -6  993.70   24.10
   5  -5   6  995.80   23.50
   5  -5   6 1000.40   23.90
   5  -5   6  995.80   24.70
   5  -5   6 1019.30   25.70
   5  -5   6  988.20   25.60
   5  -5   6  992.90   25.30
   5  -5   6 1009.10   24.00
   5  -5   6  982.20   24.30
  -6   5  -6 1359.76   32.40
   6  -5   6 1363.46   32.50
   6  -5   6 1351.96   33.00
   6  -5   6 1442.86   34.30
   6  -5   6 1374.26   31.90
   6  -5   6 1326.47   33.50
   6  -5   6 1382.16   31.40
   6  -5   6 1403.66   33.30
  -7   5  -6  629.74   16.40
  -7   5  -6  619.04   17.00
   7  -5   6  585.94   17.00
   7  -5   6  610.34   16.10
   7  -5   6  611.74   17.90
   7  -5   6  615.34   15.80
   7  -5   6  635.44   16.50
   7  -5   6  585.34   17.10
  -8   5  -6  193.18    6.80
  -8   5  -6  192.18    6.80
   8  -5   6  189.28    6.10
   8  -5   6  193.18    6.80
   8  -5   6  205.38    7.50
   8  -5   6  179.18    6.80
   7   4  -6   12.30    2.20
   7   4  -6    9.30    1.70
   7   4  -6   11.20    1.50
   7   4  -6   11.10    2.00
  -7  -4   6   10.10    1.70
  -7  -4   6   11.30    2.00
   6   4  -6    0.40    0.90
   6   4  -6    7.40    2.00
   6   4  -6    3.20    1.60
   6   4  -6    5.70    1.60
   6   4  -6    5.90    2.00
   6   4  -6    6.00    1.40
  -6  -4   6    6.10    1.90
  -6  -4   6    6.80    2.00
   5   4  -6  488.05   14.30
   5   4  -6  486.65   15.30
   5   4  -6  473.15   13.70
   5   4  -6  483.45   14.40
   5   4  -6  462.75   13.90
   5   4  -6  471.15   15.70
   5   4  -6  474.55   15.30
  -5  -4   6  485.95   17.40
  -5  -4   6  485.65   15.40
   4   4  -6 2467.35   55.39
   4   4  -6 2442.06   54.79
   4   4  -6 2396.66   56.29
   4   4  -6 2463.95   57.09
   4   4  -6 2549.44   55.59
   4   4  -6 2517.95   56.59
   4   4  -6 2492.15   54.99
  -4  -4   6 2450.95   56.59
   3   4  -6   52.49    5.60
   3   4  -6   50.49    4.10
   3   4  -6   48.50    5.40
  -3  -4   6   58.19    5.10
  -3  -4   6   51.49    5.10
  -3  -4   6   55.99    3.90
   2   4  -6  481.85   15.10
   2   4  -6  496.15   15.10
   2   4  -6  502.45   15.80
  -2  -4   6  495.35   15.20
  -2  -4   6  496.95   16.30
  -2  -4   6  477.75   13.90
   1   4  -6  210.58    7.50
   1   4  -6  190.08    7.90
   1   4  -6  196.38    6.60
   1   4  -6  190.68    7.70
  -1  -4   6  179.88    8.20
  -1  -4   6  191.68    7.00
  -1  -4   6  197.08    7.80
   0   4  -6  105.69    4.50
   0   4  -6  109.79    5.30
   0   4  -6  105.29    5.10
   0   4  -6  109.59    4.10
   0  -4   6  101.09    4.50
   0  -4   6  107.39    5.80
   0  -4   6  107.39    5.30
   0  -4   6  103.69    4.20
  -1   4  -6 1971.80   43.70
  -1   4  -6 2044.20   44.10
  -1   4  -6 1956.60   42.70
  -1   4  -6 1996.30   44.90
   1  -4   6 1949.10   43.60
   1  -4   6 1985.40   44.20
   1  -4   6 2029.40   43.70
   1  -4   6 2013.40   45.60
   1  -4   6 1987.60   46.50
  -2   4  -6  748.73   18.60
  -2   4  -6  761.32   18.80
  -2   4  -6  757.72   18.80
  -2   4  -6  763.92   18.40
  -2   4  -6  754.02   17.90
  -2   4  -6  742.33   17.80
  -2   4  -6  712.53   18.90
   2  -4   6  802.32   20.60
   2  -4   6  737.53   20.90
   2  -4   6  753.62   19.20
   2  -4   6  775.32   18.80
  -3   4  -6    3.30    1.00
  -3   4  -6    2.60    1.00
  -3   4  -6    2.70    0.80
  -3   4  -6    3.00    1.00
  -3   4  -6    5.20    1.10
  -3   4  -6    2.30    1.00
   3  -4   6    4.20    1.50
   3  -4   6    2.50    1.20
   3  -4   6    1.60    0.90
  -4   4  -6  290.77    9.40
  -4   4  -6  277.07    8.80
  -4   4  -6  267.67    9.30
  -4   4  -6  282.17    9.00
  -4   4  -6  270.97    8.40
   4  -4   6  292.27   10.50
   4  -4   6  280.57   10.60
   4  -4   6  276.87   10.40
   4  -4   6  270.17   10.50
   5  -4   6  846.02   21.30
   5  -4   6  869.81   20.70
   5  -4   6  807.42   21.40
   5  -4   6  864.81   22.70
   5  -4   6  867.01   21.90
   5  -4   6  849.32   21.30
   5  -4   6  852.61   22.50
   5  -4   6  850.11   21.10
   5  -4   6  837.12   20.80
   5  -4   6  856.61   21.90
   5  -4   6  852.41   22.30
  -6   4  -6 2188.78   49.10
   6  -4   6 2214.98   49.10
   6  -4   6 2225.08   49.40
   6  -4   6 2166.08   49.10
   6  -4   6 2177.98   49.50
   6  -4   6 2270.47   50.59
   6  -4   6 2234.18   49.10
   6  -4   6 2168.38   48.60
   6  -4   6 2210.58   51.29
   6  -4   6 2197.88   50.99
   6  -4   6 2187.38   50.29
  -7   4  -6  540.45   15.30
   7  -4   6  554.84   14.70
   7  -4   6  522.85   15.10
   7  -4   6  539.45   14.50
   7  -4   6  568.04   14.90
   7  -4   6  553.34   16.10
   7  -4   6  555.14   14.60
   7  -4   6  543.25   16.50
   7  -4   6  545.95   14.50
   7  -4   6  532.85   15.90
  -8   4  -6  236.28    7.60
  -8   4  -6  239.48    7.80
   8  -4   6  227.18    7.10
   8  -4   6  226.48    7.20
   8  -4   6  227.78    7.90
   8  -4   6  240.98    8.40
   8  -4   6  237.08    7.10
   8  -4   6  237.98    7.80
   8   3  -6   21.10    2.30
   8   3  -6   22.50    2.20
  -8  -3   6   21.80    2.20
  -8  -3   6   19.90    1.90
   7   3  -6   13.00    2.40
   7   3  -6   18.80    2.90
   7   3  -6   17.00    2.50
   7   3  -6   13.30    1.80
  -7  -3   6   15.40    2.50
  -7  -3   6   16.40    2.60
   6   3  -6  532.15   16.40
   6   3  -6  558.24   17.00
   6   3  -6  557.44   15.20
   6   3  -6  526.35   15.40
   6   3  -6  535.85   17.20
  -6  -3   6  572.24   17.00
  -6  -3   6  540.15   16.80
   5   3  -6 1094.29   28.70
   5   3  -6 1133.89   29.30
   5   3  -6 1129.99   27.00
   5   3  -6 1082.39   28.40
   5   3  -6 1106.39   27.30
   5   3  -6 1116.59   27.30
  -5  -3   6 1101.29   28.70
   4   3  -6  116.59    6.80
   4   3  -6  103.09    6.60
  -4  -3   6  103.69    6.20
  -4  -3   6  112.29    7.40
   3   3  -6  262.97   10.30
   3   3  -6  262.37    9.60
   3   3  -6  276.17   10.20
  -3  -3   6  260.97   11.00
  -3  -3   6  249.68    9.60
  -3  -3   6  255.57    8.80
   2   3  -6   60.99    4.10
   2   3  -6   56.09    3.70
   2   3  -6   61.99    3.90
  -2  -3   6   54.09    3.20
  -2  -3   6   56.49    3.80
  -2  -3   6   66.69    4.70
  -2  -3   6   57.09    3.50
   1   3  -6 2286.77   48.90
   1   3  -6 2274.37   49.80
   1   3  -6 2205.18   48.30
   1   3  -6 2215.88   49.70
  -1  -3   6 2273.27   51.29
  -1  -3   6 2268.07   49.00
  -1  -3   6 2177.98   49.70
  -1  -3   6 2146.59   48.40
   0   3  -6   20.90    2.00
   0   3  -6   20.00    1.80
   0   3  -6   17.00    1.80
   0   3  -6   21.40    2.30
   0   3  -6   20.60    2.40
   0  -3   6   18.40    2.30
   0  -3   6   19.20    2.00
   0  -3   6   18.90    1.40
   0  -3   6   22.60    2.40
   0  -3   6   18.40    2.70
  -1   3  -6   55.79    3.20
  -1   3  -6   54.79    3.00
  -1   3  -6   57.39    2.80
   1  -3   6   55.59    3.10
   1  -3   6   64.99    2.90
   1  -3   6   60.39    4.20
   1  -3   6   58.39    3.60
   1  -3   6   59.99    3.30
  -2   3  -6  335.77    9.50
  -2   3  -6  357.96   10.20
  -2   3  -6  345.17    9.70
  -2   3  -6  366.56   10.00
   2  -3   6  358.56   10.50
   2  -3   6  354.36    9.90
   2  -3   6  351.46   11.30
   2  -3   6  340.67   11.90
   2  -3   6  341.37   10.20
  -3   3  -6  172.28    6.20
  -3   3  -6  194.18    6.90
  -3   3  -6  181.28    6.50
  -3   3  -6  182.38    7.00
  -3   3  -6  177.18    6.10
  -3   3  -6  186.28    6.30
   3  -3   6  183.58    7.80
   3  -3   6  184.48    7.10
   3  -3   6  187.88    7.30
   3  -3   6  191.08    8.20
  -4   3  -6    0.90    0.80
  -4   3  -6    0.30    0.60
  -4   3  -6    0.40    0.80
  -4   3  -6    0.10    0.70
  -4   3  -6    1.30    0.80
   4  -3   6    0.40    0.80
   4  -3   6    1.90    1.20
   4  -3   6    2.00    1.20
   4  -3   6    0.80    1.00
   5  -3   6   19.60    2.70
   5  -3   6   15.70    2.10
   5  -3   6   17.70    2.30
   5  -3   6   17.10    2.40
   5  -3   6   13.90    2.40
   5  -3   6   19.10    3.00
   5  -3   6   14.80    2.50
   5  -3   6   21.50    2.40
   5  -3   6   17.20    2.70
   5  -3   6   19.30    2.70
   5  -3   6   17.90    2.30
   6  -3   6  403.46   11.70
   6  -3   6  381.36   11.30
   6  -3   6  390.36   11.30
   6  -3   6  386.96   11.80
   6  -3   6  389.26   12.70
   6  -3   6  374.06   12.00
   6  -3   6  373.06   12.80
   6  -3   6  386.26   11.70
   6  -3   6  380.46   13.30
   6  -3   6  368.36   12.20
  -7   3  -6   25.50    2.90
   7  -3   6   26.50    2.70
   7  -3   6   27.30    2.70
   7  -3   6   24.40    2.70
   7  -3   6   24.00    3.10
   7  -3   6   28.00    2.90
   7  -3   6   24.60    2.50
   7  -3   6   27.90    3.10
   7  -3   6   21.80    3.10
   7  -3   6   27.60    3.20
  -8   3  -6   62.49    3.40
   8  -3   6   63.99    3.10
   8  -3   6   71.79    4.00
   8  -3   6   58.59    3.60
   8  -3   6   63.39    3.30
   8  -3   6   58.79    3.00
   8  -3   6   63.39    3.50
   8  -3   6   60.59    3.10
   8  -3   6   59.49    2.90
   8   2  -6   19.80    2.60
   8   2  -6   23.70    2.60
  -8  -2   6   19.30    2.50
  -8  -2   6   20.60    2.10
  -8  -2   6   21.30    2.70
   7   2  -6  275.07    9.10
   7   2  -6  288.27   10.10
   7   2  -6  270.17   10.40
   7   2  -6  294.87   11.00
  -7  -2   6  277.77   10.60
  -7  -2   6  291.67   10.60
   6   2  -6    8.00    2.10
   6   2  -6   12.40    2.10
   6   2  -6    9.90    2.30
   6   2  -6    8.80    2.40
  -6  -2   6   11.10    2.60
   5   2  -6 1963.20   47.10
   5   2  -6 2036.10   45.40
   5   2  -6 2026.00   45.40
   5   2  -6 1985.40   46.80
   5   2  -6 2048.40   46.50
   5   2  -6 1972.20   46.00
  -5  -2   6 2006.70   47.10
   4   2  -6  304.17   11.70
   4   2  -6  303.77   11.20
   4   2  -6  289.97   11.20
  -4  -2   6  280.37   10.50
  -4  -2   6  294.17   12.20
  -4  -2   6  285.47   10.50
   3   2  -6   29.40    3.20
   3   2  -6   30.70    3.50
   3   2  -6   31.90    3.40
   3   2  -6   29.50    3.30
  -3  -2   6   25.40    3.00
  -3  -2   6   28.90    3.20
  -3  -2   6   35.30    4.20
   2   2  -6   23.00    1.70
   2   2  -6   21.90    2.50
   2   2  -6   18.30    2.20
   2   2  -6   22.90    2.70
  -2  -2   6   20.90    2.50
  -2  -2   6   20.10    1.90
  -2  -2   6   23.40    2.60
  -2  -2   6   18.20    2.80
   1   2  -6  251.67    7.50
   1   2  -6  258.57    8.00
   1   2  -6  258.27    7.40
   1   2  -6  252.67    7.40
   1   2  -6  271.67    8.40
  -1  -2   6  249.38    8.30
  -1  -2   6  264.37    7.50
  -1  -2   6  265.07    9.40
  -1  -2   6  249.48    8.20
  -1  -2   6  262.27    7.30
   0   2  -6  241.78    7.20
   0   2  -6  236.48    7.00
   0   2  -6  236.78    7.20
   0   2  -6  237.58    7.40
   0  -2   6  225.28    7.60
   0  -2   6  233.08    7.10
   0  -2   6  246.68    8.00
   0  -2   6  228.58    6.80
   0  -2   6  244.18    8.90
  -1   2  -6 1180.18   26.40
  -1   2  -6 1161.58   26.60
  -1   2  -6 1148.29   26.30
  -1   2  -6 1155.98   26.40
   1  -2   6 1173.08   27.10
   1  -2   6 1197.68   29.10
   1  -2   6 1134.29   26.30
   1  -2   6 1147.69   27.50
   1  -2   6 1118.29   25.50
  -2   2  -6   16.20    1.90
  -2   2  -6   14.40    1.70
  -2   2  -6   14.40    1.90
   2  -2   6   15.50    2.00
   2  -2   6   15.50    1.90
   2  -2   6   14.50    2.50
   2  -2   6   17.90    2.30
   2  -2   6   16.00    2.30
  -3   2  -6   24.40    2.60
  -3   2  -6   30.00    2.80
  -3   2  -6   20.90    2.10
  -3   2  -6   25.00    2.40
  -3   2  -6   25.10    2.80
  -3   2  -6   27.10    2.50
   3  -2   6   24.90    3.00
   3  -2   6   23.60    2.80
   3  -2   6   24.70    3.40
   3  -2   6   24.70    3.10
  -4   2  -6  264.57    8.50
  -4   2  -6  269.17    9.00
  -4   2  -6  281.87    8.60
  -4   2  -6  270.67    8.80
  -4   2  -6  268.57    9.50
   4  -2   6  258.47   10.20
   4  -2   6  272.37   10.50
   4  -2   6  294.57   10.80
   5  -2   6   38.60    3.80
   5  -2   6   40.00    4.20
   5  -2   6   38.40    3.70
   5  -2   6   38.50    3.40
   5  -2   6   40.70    4.30
   5  -2   6   43.20    3.50
   5  -2   6   43.50    3.40
   5  -2   6   36.30    3.80
   5  -2   6   34.00    3.70
   5  -2   6   35.20    3.50
   6  -2   6  203.38    8.70
   6  -2   6  193.38    7.00
   6  -2   6  197.68    7.50
   6  -2   6  185.18    7.80
   6  -2   6  196.58    7.60
   6  -2   6  205.68    8.40
   6  -2   6  188.98    8.30
   6  -2   6  184.88    7.00
   6  -2   6  195.28    7.40
   6  -2   6  192.08    7.00
   7  -2   6   95.79    4.70
   7  -2   6  106.29    4.60
   7  -2   6  103.19    5.00
   7  -2   6  101.09    5.40
   7  -2   6  107.79    4.90
   7  -2   6  100.19    4.80
   7  -2   6  102.69    5.80
   7  -2   6   98.29    5.40
   7  -2   6  102.49    4.60
  -8   2  -6    2.90    1.00
   8  -2   6    2.00    0.90
   8  -2   6    2.50    1.10
   8  -2   6    3.00    0.90
   8  -2   6    3.80    1.00
   8  -2   6    4.50    1.20
   8  -2   6    4.40    1.00
   8  -2   6    2.90    0.80
   8  -2   6    3.50    1.10
   8   1  -6  530.35   15.60
   8   1  -6  541.95   15.50
  -8  -1   6  549.74   15.30
  -8  -1   6  562.64   15.90
  -8  -1   6  507.55   14.50
   7   1  -6 1642.64   39.20
   7   1  -6 1630.84   40.10
   7   1  -6 1598.84   38.60
   7   1  -6 1668.43   37.90
   7   1  -6 1676.03   40.40
  -7  -1   6 1672.63   39.20
  -7  -1   6 1663.63   40.30
  -7  -1   6 1631.34   39.60
   6   1  -6   23.20    3.40
   6   1  -6   16.30    2.60
   6   1  -6   17.60    2.80
   6   1  -6   15.70    2.90
   6   1  -6   20.10    2.60
  -6  -1   6   18.00    3.10
  -6  -1   6   16.20    2.80
   5   1  -6  443.06   15.20
   5   1  -6  444.16   15.10
   5   1  -6  467.85   15.60
  -5  -1   6  436.96   14.70
  -5  -1   6  432.16   14.00
  -5  -1   6  429.96   16.30
   4   1  -6 1170.38   29.80
   4   1  -6 1199.38   29.60
   4   1  -6 1118.39   29.50
  -4  -1   6 1213.58   29.70
  -4  -1   6 1243.88   31.70
  -4  -1   6 1178.68   28.90
   3   1  -6  525.25   14.30
   3   1  -6  542.75   14.20
   3   1  -6  510.35   14.60
   3   1  -6  510.95   14.20
  -3  -1   6  517.15   14.30
  -3  -1   6  528.75   16.00
  -3  -1   6  512.95   14.80
  -3  -1   6  533.65   14.00
   2   1  -6 6720.93  141.29
   2   1  -6 6821.42  142.39
   2   1  -6 6593.54  141.69
   2   1  -6 6868.21  142.29
  -2  -1   6 6938.31  144.39
  -2  -1   6 6800.72  141.59
  -2  -1   6 6665.23  142.69
  -2  -1   6 6975.20  142.49
  -2  -1   6 6968.70  142.09
   1   1  -6  922.01   20.40
   1   1  -6  911.41   21.20
   1   1  -6  908.71   21.10
   1   1  -6  971.90   21.80
  -1  -1   6  895.21   21.40
  -1  -1   6  922.01   21.70
  -1  -1   6  905.21   20.30
  -1  -1   6  885.61   23.20
  -1  -1   6  909.51   22.20
   0   1  -6 2681.63   56.49
   0   1  -6 2663.63   56.69
   0   1  -6 2652.13   55.89
   0   1  -6 2674.23   56.89
   0  -1   6 2603.74   56.89
   0  -1   6 2622.24   55.79
   0  -1   6 2697.83   57.39
   0  -1   6 2626.54   57.69
   0  -1   6 2594.34   58.89
  -1   1  -6  123.49    4.80
  -1   1  -6  120.39    4.40
  -1   1  -6  120.59    4.50
   1  -1   6  123.99    6.00
   1  -1   6  124.39    4.80
   1  -1   6  119.79    5.10
   1  -1   6  113.79    5.00
   1  -1   6  116.49    4.10
   1  -1   6  113.49    4.40
  -2   1  -6 3448.95   74.09
  -2   1  -6 3643.54   74.49
  -2   1  -6 3480.85   74.79
   2  -1   6 3323.67   74.79
   2  -1   6 3524.25   75.39
   2  -1   6 3609.14   77.49
   2  -1   6 3557.34   76.09
   2  -1   6 3418.06   74.69
  -3   1  -6 1369.96   30.80
  -3   1  -6 1341.17   31.00
  -3   1  -6 1345.07   30.80
  -3   1  -6 1375.36   32.10
  -3   1  -6 1376.16   31.50
   3  -1   6 1321.17   32.40
   3  -1   6 1347.07   33.60
   3  -1   6 1358.36   32.50
   3  -1   6 1289.67   32.70
  -4   1  -6   19.90    3.00
  -4   1  -6   26.80    3.20
  -4   1  -6   28.90    3.00
  -4   1  -6   28.60    2.70
  -4   1  -6   22.70    2.40
   4  -1   6   22.10    3.20
   4  -1   6   19.60    3.20
   4  -1   6   24.00    3.40
   5  -1   6  861.51   22.00
   5  -1   6  874.21   21.50
   5  -1   6  839.52   22.90
   5  -1   6  828.02   21.60
   5  -1   6  869.71   20.90
   5  -1   6  832.12   22.40
   5  -1   6  862.81   20.90
   5  -1   6  813.92   21.90
   5  -1   6  840.82   22.30
   5  -1   6  813.62   20.80
   6  -1   6   11.90    2.60
   6  -1   6   12.60    2.20
   6  -1   6   11.50    2.30
   6  -1   6   10.90    1.90
   6  -1   6   11.40    2.20
   6  -1   6   12.40    2.40
   6  -1   6   12.00    2.00
   6  -1   6   10.20    1.70
   6  -1   6   14.90    2.00
   7  -1   6  168.08    6.40
   7  -1   6  154.98    5.80
   7  -1   6  161.58    6.90
   7  -1   6  160.68    7.10
   7  -1   6  167.08    6.00
   7  -1   6  167.08    7.50
   7  -1   6  170.88    6.70
   7  -1   6  159.28    6.30
   7  -1   6  176.08    6.50
   8  -1   6  303.17    8.10
   8  -1   6  306.67    8.30
   8  -1   6  293.17    8.40
   8  -1   6  310.67    8.40
   8  -1   6  279.77    8.00
   8  -1   6  292.77    8.70
   8  -1   6  286.07    9.00
   8  -1   6  307.47    8.60
   9   0  -6    0.60    0.90
   9   0  -6    0.90    0.70
  -9   0   6    1.60    1.10
  -9   0   6    1.70    1.10
  -9   0   6    1.40    0.90
   8   0  -6  461.45   13.60
   8   0  -6  482.65   14.90
   8   0  -6  478.35   14.80
  -8   0   6  506.05   14.40
  -8   0   6  493.35   14.40
  -8   0   6  495.85   15.10
   7   0  -6  305.27   11.50
   7   0  -6  315.97   10.80
   7   0  -6  321.87   11.80
  -7   0   6  314.57   11.30
  -7   0   6  321.37   11.90
   6   0  -6 1833.52   43.40
   6   0  -6 1883.71   43.70
   6   0  -6 1883.41   44.60
   6   0  -6 1887.61   44.50
  -6   0   6 1922.51   44.30
  -6   0   6 1909.21   45.10
   5   0  -6 1708.33   41.40
   5   0  -6 1646.04   40.90
   5   0  -6 1693.93   41.00
  -5   0   6 1803.82   41.40
  -5   0   6 1638.34   42.80
   4   0  -6 5380.66  116.29
   4   0  -6 5417.46  116.19
   4   0  -6 5679.83  116.29
  -4   0   6 5406.86  118.29
  -4   0   6 5178.38  115.49
  -4   0   6 5653.23  116.79
   3   0  -6  832.92   20.40
   3   0  -6  835.72   20.20
   3   0  -6  845.02   20.90
   3   0  -6  816.62   20.50
  -3   0   6  826.82   20.30
  -3   0   6  872.71   21.60
  -3   0   6  862.41   21.00
  -3   0   6  860.31   22.70
  -3   0   6  852.31   20.50
   2   0  -6  954.60   22.70
   2   0  -6  939.31   21.90
   2   0  -6  953.40   22.20
   2   0  -6  973.90   22.50
  -2   0   6  981.70   24.60
  -2   0   6 1001.50   23.50
  -2   0   6  954.30   22.40
  -2   0   6  989.50   23.00
  -2   0   6  933.11   22.80
   1   0  -6 4077.29   87.79
   1   0  -6 4100.19   87.49
   1   0  -6 4266.47   86.79
   1   0  -6 4358.66   88.29
  -1   0   6 4148.58   89.99
  -1   0   6 4229.78   87.99
  -1   0   6 4162.48   88.59
  -1   0   6 4134.19   88.49
  -1   0   6 4157.88   88.99
   0   0  -6 1379.96   30.20
   0   0  -6 1397.26   31.00
   0   0  -6 1335.57   30.90
   0   0   6 1429.66   31.80
   0   0   6 1401.96   31.30
   0   0   6 1345.57   30.00
   0   0   6 1397.96   32.00
   0   0   6 1415.46   31.50
   0   0   6 1390.06   33.10
  -1   0  -6  827.92   19.70
  -1   0  -6  830.52   19.50
  -1   0  -6  845.22   20.30
   1   0   6  850.11   20.70
   1   0   6  812.92   20.50
   1   0   6  839.92   20.20
   1   0   6  837.12   19.70
   1   0   6  830.72   22.10
  -2   0  -6  474.55   12.50
  -2   0  -6  471.85   12.90
  -2   0  -6  465.75   12.10
   2   0   6  471.45   13.10
   2   0   6  470.15   14.60
   2   0   6  461.75   13.10
   2   0   6  464.65   13.20
   2   0   6  475.65   13.60
  -3   0  -6 1698.33   38.20
  -3   0  -6 1662.13   36.80
  -3   0  -6 1601.14   37.00
  -3   0  -6 1710.53   37.50
  -3   0  -6 1679.23   36.70
   3   0   6 1623.94   38.90
   3   0   6 1561.74   38.30
   3   0   6 1569.94   39.40
   3   0   6 1643.34   39.00
  -4   0  -6  251.37    8.10
  -4   0  -6  260.07    8.30
  -4   0  -6  265.07    9.30
  -4   0  -6  261.47    8.80
  -4   0  -6  262.37   10.50
   4   0   6  250.87   10.20
   4   0   6  259.97   10.80
   4   0   6  246.78   10.00
   5   0   6  852.81   20.80
   5   0   6  857.81   23.40
   5   0   6  865.81   22.70
   5   0   6  830.72   21.80
   5   0   6  832.42   21.70
   5   0   6  855.61   21.60
   5   0   6  842.42   20.80
   5   0   6  853.71   22.70
   5   0   6  839.92   22.30
   6   0   6 1047.40   27.40
   6   0   6 1086.29   26.20
   6   0   6 1068.29   25.30
   6   0   6 1065.99   28.10
   6   0   6 1107.99   26.90
   6   0   6 1051.89   27.50
   6   0   6 1061.09   26.40
   6   0   6 1092.39   26.20
   7   0   6  130.89    5.20
   7   0   6  138.09    5.40
   7   0   6  130.39    5.40
   7   0   6  133.49    5.90
   7   0   6  126.19    4.90
   7   0   6  134.49    5.80
   7   0   6  124.59    5.30
   7   0   6  129.29    6.20
   8   0   6   64.09    2.90
   8   0   6   68.49    2.80
   8   0   6   63.89    3.80
   8   0   6   67.39    2.80
   8   0   6   66.29    2.90
   8   0   6   62.29    2.80
   8   0   6   63.89    3.10
   9  -1  -6   -0.50    0.70
   9  -1  -6    0.30    0.80
  -9   1   6    1.00    0.90
  -9   1   6   -0.40    0.90
   8  -1  -6    3.30    1.30
   8  -1  -6    3.90    1.50
   8  -1  -6    3.40    1.40
  -8   1   6    3.70    1.50
  -8   1   6    3.00    1.40
  -8   1   6    0.50    1.00
   7  -1  -6   45.20    4.60
   7  -1  -6   50.79    4.60
   7  -1  -6   48.90    4.40
   7  -1  -6   50.19    5.10
  -7   1   6   62.19    5.50
  -7   1   6   47.90    5.00
  -7   1   6   60.19    5.40
   6  -1  -6   24.20    3.10
   6  -1  -6   21.90    2.80
   6  -1  -6   20.50    2.80
   6  -1  -6   21.70    2.80
  -6   1   6   20.10    3.00
  -6   1   6   27.00    3.50
  -6   1   6   21.20    3.20
   5  -1  -6    9.90    2.00
   5  -1  -6    9.40    2.00
   5  -1  -6    8.80    2.20
  -5   1   6   11.40    2.60
  -5   1   6    9.60    2.20
  -5   1   6    9.10    2.50
   4  -1  -6 3299.37   74.09
   4  -1  -6 3385.96   74.39
   4  -1  -6 3510.85   74.19
  -4   1   6 3452.25   74.79
  -4   1   6 3401.16   76.39
  -4   1   6 3508.05   75.39
   3  -1  -6 5106.69  108.59
   3  -1  -6 5154.78  109.19
   3  -1  -6 5306.77  108.49
   3  -1  -6 5152.78  109.19
   3  -1  -6 5115.89  108.59
  -3   1   6 5174.08  110.39
  -3   1   6 5148.19  111.09
  -3   1   6 5183.88  109.99
  -3   1   6 5316.87  110.09
   2  -1  -6  464.95   12.40
   2  -1  -6  459.95   11.50
   2  -1  -6  475.25   12.10
  -2   1   6  447.26   13.50
  -2   1   6  455.05   12.90
  -2   1   6  465.35   12.40
  -2   1   6  461.75   13.00
  -2   1   6  487.75   13.00
   1  -1  -6 1855.81   40.40
   1  -1  -6 1827.72   39.80
   1  -1  -6 1761.92   38.90
  -1   1   6 1861.11   40.50
  -1   1   6 1856.41   41.10
  -1   1   6 1772.72   40.90
  -1   1   6 1834.82   41.70
  -1   1   6 1797.52   39.40
  -1   1   6 1839.72   40.80
   0  -1  -6 1485.75   33.70
   0  -1  -6 1457.45   32.90
   0  -1  -6 1526.45   32.30
   0   1   6 1515.05   34.50
   0   1   6 1539.55   33.60
   0   1   6 1484.95   34.10
   0   1   6 1520.75   34.40
   0   1   6 1500.35   35.30
  -1  -1  -6 2496.05   51.89
  -1  -1  -6 2509.05   52.69
  -1  -1  -6 2431.56   52.59
   1   1   6 2362.06   52.49
   1   1   6 2414.16   52.59
   1   1   6 2443.76   53.09
   1   1   6 2393.66   53.49
   1   1   6 2483.15   54.89
   1   1   6 2356.86   53.09
  -2  -1  -6   13.60    1.80
  -2  -1  -6   14.60    2.00
  -2  -1  -6   15.50    1.80
   2   1   6   15.20    2.30
   2   1   6   14.70    2.20
   2   1   6   12.80    2.00
   2   1   6   16.00    2.70
  -3  -1  -6    2.10    0.90
  -3  -1  -6    1.30    0.70
  -3  -1  -6    2.80    1.20
  -3  -1  -6    2.80    1.10
  -3  -1  -6    3.20    0.90
   3   1   6    1.10    0.80
   3   1   6    1.20    1.00
   3   1   6   -0.50    0.80
  -4  -1  -6  228.38    7.50
  -4  -1  -6  215.98    7.90
  -4  -1  -6  219.18    8.50
   4   1   6  219.68   10.10
   4   1   6  214.18    8.40
   4   1   6  222.68    7.90
   4   1   6  215.08    8.10
   4   1   6  213.78    7.70
   4   1   6  219.08    7.60
   4   1   6  204.98    8.60
   4   1   6  207.08    7.90
   5   1   6   83.29    4.70
   5   1   6   78.79    3.90
   5   1   6   65.09    5.80
   5   1   6   80.19    4.60
   5   1   6   85.29    4.50
   5   1   6   72.59    5.80
   5   1   6   81.69    5.00
   5   1   6   80.79    4.40
   6   1   6    5.50    1.30
   6   1   6    4.00    1.30
   6   1   6    4.90    1.30
   6   1   6    5.20    1.50
   6   1   6    2.30    1.00
   6   1   6    0.60    1.00
   6   1   6    5.80    1.90
   6   1   6    5.70    1.70
   6   1   6    3.70    1.50
   7   1   6  513.95   13.10
   7   1   6  487.85   13.10
   7   1   6  506.95   13.20
   7   1   6  483.75   13.60
   7   1   6  501.95   13.80
   7   1   6  506.15   14.20
   7   1   6  517.45   13.40
   9  -2  -6   54.49    3.40
   9  -2  -6   52.99    3.10
   9  -2  -6   53.09    4.10
  -9   2   6   53.69    4.10
  -9   2   6   48.70    4.00
   8  -2  -6   70.09    5.70
   8  -2  -6   66.79    5.40
   8  -2  -6   72.09    5.20
  -8   2   6   73.49    5.70
  -8   2   6   74.69    5.80
  -8   2   6   59.09    5.10
   7  -2  -6    4.20    1.50
   7  -2  -6   -0.30    0.80
   7  -2  -6    6.90    1.80
   7  -2  -6    4.00    1.60
  -7   2   6    5.20    1.80
  -7   2   6    1.00    1.30
  -7   2   6    2.00    1.40
   6  -2  -6   66.09    4.20
   6  -2  -6   70.09    5.40
   6  -2  -6   64.29    4.70
  -6   2   6   75.39    6.10
  -6   2   6   66.59    5.50
  -6   2   6   73.39    5.90
   5  -2  -6 1103.19   27.00
   5  -2  -6 1056.19   26.80
   5  -2  -6 1061.19   27.00
  -5   2   6 1052.09   28.50
  -5   2   6 1102.79   27.60
  -5   2   6 1034.60   27.70
   4  -2  -6  884.11   21.70
   4  -2  -6  867.21   21.80
   4  -2  -6  898.31   21.80
   4  -2  -6  863.11   22.00
  -4   2   6  836.42   22.80
  -4   2   6  894.21   23.70
  -4   2   6  925.11   23.00
  -4   2   6  914.11   23.40
   3  -2  -6   45.90    2.50
   3  -2  -6   42.70    2.90
   3  -2  -6   45.90    2.70
   3  -2  -6   43.60    2.80
  -3   2   6   45.40    3.50
  -3   2   6   47.40    4.00
  -3   2   6   45.40    3.50
  -3   2   6   44.40    3.00
  -3   2   6   36.70    3.50
   2  -2  -6  331.07    9.40
   2  -2  -6  305.97    8.70
   2  -2  -6  319.57    8.40
   2  -2  -6  309.67    9.60
  -2   2   6  320.87    9.80
  -2   2   6  319.17   10.00
  -2   2   6  302.97   10.10
  -2   2   6  322.77   10.10
  -2   2   6  325.17   10.50
   1  -2  -6  994.50   23.40
   1  -2  -6 1045.80   24.80
   1  -2  -6 1040.10   23.10
   1  -2  -6 1054.49   24.20
  -1   2   6 1021.20   25.30
  -1   2   6 1047.50   25.50
  -1   2   6 1061.29   25.20
  -1   2   6 1047.50   25.00
  -1   2   6 1038.80   25.00
   0  -2  -6  323.97    9.50
   0  -2  -6  336.27    9.20
   0  -2  -6  341.17    9.30
   0   2   6  339.47   10.50
   0   2   6  342.67   10.70
   0   2   6  346.37   10.20
   0   2   6  333.67   10.20
   0   2   6  321.87   10.20
   0   2   6  336.67    9.20
  -1  -2  -6   79.69    4.00
  -1  -2  -6   81.19    3.80
   1   2   6   78.89    4.20
   1   2   6   77.79    3.80
   1   2   6   81.49    4.00
   1   2   6   78.99    4.50
   1   2   6   80.99    4.10
   1   2   6   80.09    4.20
  -2  -2  -6  230.98    7.20
  -2  -2  -6  231.88    8.20
  -2  -2  -6  225.18    7.80
  -2  -2  -6  226.68    7.40
  -2  -2  -6  229.08    7.70
   2   2   6  239.28    8.40
   2   2   6  237.88    8.50
   2   2   6  230.18    8.80
   2   2   6  239.78    8.90
  -3  -2  -6 1178.98   30.10
  -3  -2  -6 1218.58   28.80
  -3  -2  -6 1199.48   28.10
  -3  -2  -6 1194.38   27.40
   3   2   6 1203.88   31.00
   3   2   6 1158.38   29.90
   4   2   6   87.29    5.40
   4   2   6   95.09    4.90
   4   2   6   99.09    5.30
   4   2   6   96.89    4.80
   4   2   6  100.79    4.90
   4   2   6   89.79    4.60
   4   2   6   84.79    5.10
   5   2   6   96.09    5.40
   5   2   6   92.29    5.70
   5   2   6   94.49    4.80
   5   2   6   91.89    4.60
   5   2   6   89.89    4.70
   5   2   6   88.59    4.90
   5   2   6   98.59    5.60
   6   2   6   60.79    4.70
   6   2   6   52.79    3.30
   6   2   6   62.49    3.70
   6   2   6   51.29    4.50
   6   2   6   67.39    4.10
   6   2   6   64.49    3.60
   6   2   6   59.09    3.40
   7   2   6   35.40    2.70
   7   2   6   39.30    2.30
   7   2   6   35.00    2.80
   7   2   6   34.10    2.90
   7   2   6   36.30    2.30
   7   2   6   42.90    2.30
   7   2   6   34.50    2.20
   9  -3  -6    0.80    1.00
   9  -3  -6    1.00    0.90
   9  -3  -6   -0.30    0.90
  -9   3   6    2.40    1.20
  -9   3   6    0.60    1.00
  -9   3   6    0.70    1.10
   8  -3  -6  195.98    7.60
   8  -3  -6  185.58    7.90
   8  -3  -6  203.08    8.20
  -8   3   6  198.58    8.40
  -8   3   6  190.48    8.60
  -8   3   6  198.78    8.30
   7  -3  -6   15.60    2.60
   7  -3  -6   15.60    2.60
   7  -3  -6   16.20    2.60
  -7   3   6   15.20    3.00
  -7   3   6   20.60    3.20
  -7   3   6   13.60    2.70
  -7   3   6   18.00    3.10
   6  -3  -6   41.20    3.50
   6  -3  -6   53.79    4.50
   6  -3  -6   45.60    3.90
   6  -3  -6   39.60    3.80
  -6   3   6   39.00    4.60
  -6   3   6   40.70    4.30
  -6   3   6   44.70    4.40
  -6   3   6   40.00    4.50
   5  -3  -6 1412.76   34.10
   5  -3  -6 1453.45   34.50
   5  -3  -6 1402.26   34.30
  -5   3   6 1393.76   35.50
  -5   3   6 1480.15   35.60
   4  -3  -6   53.19    3.40
   4  -3  -6   50.39    3.20
   4  -3  -6   55.29    3.40
   4  -3  -6   49.20    3.30
  -4   3   6   55.49    4.30
  -4   3   6   62.19    4.20
  -4   3   6   50.89    3.50
  -4   3   6   52.19    4.70
   3  -3  -6  327.77   10.40
   3  -3  -6  342.47    9.80
   3  -3  -6  336.27   10.10
   3  -3  -6  317.97    9.40
  -3   3   6  332.37   10.70
  -3   3   6  323.77   10.90
  -3   3   6  346.27   11.60
  -3   3   6  316.87   10.70
   2  -3  -6  443.36   12.10
   2  -3  -6  427.16   11.50
   2  -3  -6  421.26   12.70
   2  -3  -6  422.16   11.20
  -2   3   6  416.96   12.60
  -2   3   6  445.16   13.60
  -2   3   6  432.06   12.80
  -2   3   6  444.16   13.10
   1  -3  -6 2348.67   50.09
   1  -3  -6 2311.17   50.19
   1  -3  -6 2302.27   50.79
  -1   3   6 2271.17   52.19
  -1   3   6 2319.37   51.29
  -1   3   6 2351.66   51.89
  -1   3   6 2301.17   51.89
  -1   3   6 2251.37   51.29
   0  -3  -6 1917.21   42.20
   0  -3  -6 1926.51   43.60
   0  -3  -6 1794.92   41.50
   0  -3  -6 1898.71   41.90
   0   3   6 1848.12   42.50
   0   3   6 1827.52   41.80
   0   3   6 1837.22   41.90
   0   3   6 1855.71   42.90
   0   3   6 1847.52   42.90
  -1  -3  -6  152.18    6.60
  -1  -3  -6  141.49    6.20
   1   3   6  147.99    6.10
   1   3   6  148.69    6.50
   1   3   6  144.49    6.30
  -2  -3  -6  459.65   13.50
  -2  -3  -6  461.65   13.80
   2   3   6  449.56   14.60
  -3  -3  -6  352.96   13.70
   3   3   6  308.87   12.80
   3   3   6  311.17   10.00
   3   3   6  296.47   10.20
   3   3   6  311.27    9.80
   3   3   6  319.37   11.00
   3   3   6  306.87   10.80
   4   3   6  178.88    7.60
   4   3   6  165.78    6.90
   4   3   6  175.68    6.80
   4   3   6  176.08    7.80
   4   3   6  166.98    7.30
   4   3   6  173.38    6.60
   5   3   6  108.79    5.90
   5   3   6  107.79    5.60
   5   3   6  110.69    5.20
   5   3   6  116.39    5.70
   5   3   6  106.49    5.00
   5   3   6  111.59    5.00
   6   3   6  209.28    6.80
   6   3   6  208.78    6.90
   6   3   6  211.08    7.00
   6   3   6  205.78    7.20
   6   3   6  213.58    7.40
   6   3   6  211.98    7.80
   9  -4  -6  364.26   11.00
   9  -4  -6  350.76   10.20
   9  -4  -6  345.37   10.50
  -9   4   6  380.36   11.50
  -9   4   6  350.46   11.00
   8  -4  -6  231.48    8.90
   8  -4  -6  240.88    8.90
   8  -4  -6  228.88    8.40
  -8   4   6  237.18    9.60
  -8   4   6  238.78    9.30
  -8   4   6  245.38   10.00
   7  -4  -6  804.12   21.60
   7  -4  -6  796.32   20.80
   7  -4  -6  789.02   21.20
  -7   4   6  814.52   23.00
  -7   4   6  819.32   22.20
  -7   4   6  800.62   23.20
   6  -4  -6 1518.65   35.90
   6  -4  -6 1525.55   36.20
   6  -4  -6 1600.84   36.50
  -6   4   6 1556.14   35.30
  -6   4   6 1586.04   37.70
  -6   4   6 1571.94   39.00
  -6   4   6 1539.55   38.30
   5  -4  -6  120.39    5.90
   5  -4  -6  116.49    5.80
   5  -4  -6  116.19    5.80
  -5   4   6  118.89    6.60
  -5   4   6  125.09    6.80
  -5   4   6  126.39    7.20
   4  -4  -6  915.51   23.20
   4  -4  -6  920.51   22.60
   4  -4  -6  887.71   22.70
   4  -4  -6  915.81   22.50
  -4   4   6  873.81   24.10
  -4   4   6  936.31   25.30
  -4   4   6  885.51   23.70
  -4   4   6  897.41   23.90
   3  -4  -6 1253.77   28.80
   3  -4  -6 1221.08   29.40
   3  -4  -6 1203.68   30.00
   3  -4  -6 1194.88   28.50
  -3   4   6 1197.38   30.40
  -3   4   6 1227.08   29.90
  -3   4   6 1274.47   30.70
  -3   4   6 1233.58   31.50
   2  -4  -6  811.02   20.40
   2  -4  -6  738.03   19.20
   2  -4  -6  806.92   19.70
  -2   4   6  806.32   21.60
  -2   4   6  760.12   20.70
  -2   4   6  796.22   22.00
  -2   4   6  809.82   21.40
   1  -4  -6   88.39    4.50
   1  -4  -6   97.09    4.60
   1  -4  -6   94.49    4.80
  -1   4   6   90.89    4.80
  -1   4   6   95.59    5.50
  -1   4   6   80.69    5.00
  -1   4   6   96.59    5.40
   0  -4  -6  137.99    6.30
   0  -4  -6  145.39    6.30
   0   4   6  145.19    6.80
   0   4   6  133.69    6.40
   0   4   6  157.88    7.10
  -1  -4  -6   78.39    5.80
  -1  -4  -6   81.39    4.80
  -1  -4  -6   70.99    4.90
   1   4   6   74.89    4.90
   1   4   6   73.19    4.80
  -2  -4  -6 2125.59   51.09
  -2  -4  -6 2023.20   54.99
   3   4   6  544.85   15.30
   3   4   6  533.35   15.90
   3   4   6  513.05   15.40
   4   4   6  149.19    6.60
   4   4   6  156.98    6.40
   4   4   6  152.08    7.10
   4   4   6  160.98    7.00
   5   4   6  104.99    5.00
   5   4   6  107.09    4.60
   5   4   6  105.99    5.40
   5   4   6  102.79    4.70
   5   4   6  112.59    5.30
   6   4   6   71.69    3.30
   6   4   6   69.59    3.30
   6   4   6   70.99    3.00
   6   4   6   72.29    3.10
   6   4   6   72.79    3.50
   9  -5  -6    8.20    1.60
   9  -5  -6    7.80    1.50
   9  -5  -6    7.90    1.50
  -9   5   6    7.60    1.90
  -9   5   6    7.70    1.80
  -9   5   6    9.60    1.80
   8  -5  -6   14.40    2.30
   8  -5  -6   13.10    2.20
   8  -5  -6   14.50    2.20
  -8   5   6   11.20    2.30
  -8   5   6   14.20    2.70
  -8   5   6   18.10    3.20
   7  -5  -6  805.22   21.40
   7  -5  -6  815.42   21.30
   7  -5  -6  802.22   20.80
  -7   5   6  801.02   22.00
  -7   5   6  815.42   23.20
  -7   5   6  814.52   23.80
   6  -5  -6  730.93   18.80
   6  -5  -6  679.53   17.90
  -6   5   6  711.73   21.40
  -6   5   6  686.03   20.10
  -6   5   6  689.23   17.60
  -6   5   6  734.93   20.90
   5  -5  -6   32.50    3.60
   5  -5  -6   38.60    4.20
  -5   5   6   37.20    4.50
  -5   5   6   33.80    2.90
  -5   5   6   27.80    3.80
  -5   5   6   27.20    2.70
  -5   5   6   34.70    4.30
   4  -5  -6 2948.61   65.39
   4  -5  -6 2972.60   65.49
   4  -5  -6 2916.91   65.79
   4  -5  -6 2981.40   66.49
  -4   5   6 2874.81   67.49
  -4   5   6 3107.09   69.29
  -4   5   6 3005.30   67.49
   3  -5  -6  198.78    7.90
   3  -5  -6  210.38    7.60
   3  -5  -6  201.58    7.40
  -3   5   6  200.78    8.70
  -3   5   6  199.78    8.60
  -3   5   6  206.68    9.10
  -3   5   6  185.78    9.10
   2  -5  -6 1371.56   31.90
   2  -5  -6 1372.06   32.80
   2  -5  -6 1352.96   31.90
  -2   5   6 1367.86   33.10
  -2   5   6 1375.66   34.20
  -2   5   6 1289.87   34.30
  -2   5   6 1319.27   34.10
   1  -5  -6  226.78    8.50
   1  -5  -6  219.68    8.40
   1  -5  -6  225.68    8.80
  -1   5   6  216.38    9.30
  -1   5   6  221.08    9.50
  -1   5   6  203.78    9.00
   0  -5  -6  728.53   19.70
   0  -5  -6  722.23   19.80
   0   5   6  662.73   20.40
   0   5   6  684.43   19.90
  -1  -5  -6  783.62   21.80
  -1  -5  -6  771.12   22.30
   1   5   6  750.02   22.30
   2   5   6 4084.09   89.19
   2   5   6 4111.79   88.69
   4   5   6   89.09    4.80
   4   5   6   71.29    5.20
   4   5   6   77.99    4.30
   4   5   6   82.89    4.60
   5   5   6   46.90    2.70
   5   5   6   44.30    3.40
   5   5   6   56.59    3.10
   5   5   6   52.79    2.90
   5   5   6   50.39    3.10
   9  -6  -6  622.44   16.00
   9  -6  -6  605.44   15.50
   9  -6  -6  626.74   15.40
  -9   6   6  648.64   16.80
  -9   6   6  638.44   16.90
   8  -6  -6    1.10    0.80
   8  -6  -6    0.80    0.90
   8  -6  -6    1.00    0.90
  -8   6   6    0.90    1.40
  -8   6   6    0.10    1.10
  -8   6   6    1.60    1.40
   7  -6  -6   45.30    4.00
   7  -6  -6   50.59    4.10
   7  -6  -6   48.30    4.10
  -7   6   6   40.30    4.90
  -7   6   6   53.89    5.20
  -7   6   6   45.10    4.90
   6  -6  -6   41.40    3.60
   6  -6  -6   57.49    3.40
  -6   6   6   50.99    3.10
  -6   6   6   49.80    5.80
  -6   6   6   49.90    4.00
  -6   6   6   51.59    5.30
  -6   6   6   45.60    4.90
  -6   6   6   53.59    6.20
   5  -6  -6   41.00    3.40
  -5   6   6   39.10    4.50
  -5   6   6   47.40    3.90
  -5   6   6   37.30    3.30
  -5   6   6   47.50    3.50
  -5   6   6   40.80    4.70
  -5   6   6   46.10    4.90
  -5   6   6   39.30    3.20
  -5   6   6   37.50    4.80
   4  -6  -6  148.29    7.40
   4  -6  -6  132.49    7.00
  -4   6   6  147.09    5.70
  -4   6   6  130.09    8.00
  -4   6   6  133.89    9.40
  -4   6   6  121.69    6.60
  -4   6   6  129.89    5.60
  -4   6   6  139.09    5.40
  -4   6   6  141.09    5.60
  -4   6   6  127.69    6.80
  -4   6   6  161.58    7.50
  -4   6   6  143.09    7.60
  -4   6   6  137.19    6.60
  -4   6   6  132.69    7.30
   3  -6  -6 1404.26   35.40
   3  -6  -6 1512.75   35.10
   3  -6  -6 1493.05   35.00
  -3   6   6 1401.86   38.00
  -3   6   6 1493.25   36.60
  -3   6   6 1475.25   37.70
  -3   6   6 1469.65   37.20
   2  -6  -6    4.50    1.50
   2  -6  -6    4.80    1.50
   2  -6  -6    3.50    1.40
  -2   6   6    2.10    1.60
  -2   6   6    6.40    2.20
  -2   6   6    1.50    1.30
   1  -6  -6    2.60    1.30
   1  -6  -6    1.30    1.00
   1  -6  -6    1.30    1.20
  -1   6   6    3.30    1.60
  -1   6   6    3.30    1.70
  -1   6   6    1.30    1.60
   0   6   6    7.10    1.80
   0   6   6    8.00    1.80
   0   6   6    6.90    2.10
   0   6   6    7.20    1.70
   0   6   6   12.90    2.50
   0   6   6    5.40    1.50
   0   6   6    6.10    1.80
   0   6   6    4.70    1.80
   1   6   6 1039.30   25.30
   1   6   6 1018.70   26.00
   1   6   6 1006.70   25.30
   1   6   6 1006.40   25.80
   1   6   6 1009.60   25.70
   3   6   6   60.09    4.50
   3   6   6   61.39    4.70
   4   6   6   10.80    1.70
   4   6   6    8.10    1.60
   4   6   6    8.90    1.60
   9  -7  -6   10.80    1.50
   9  -7  -6    9.90    1.50
  -9   7   6    8.50    1.60
  -9   7   6   10.60    1.80
   8  -7  -6  375.86   11.10
   8  -7  -6  360.96   10.70
   8  -7  -6  357.96   10.50
  -8   7   6  352.26   11.90
  -8   7   6  398.66   12.90
  -8   7   6  343.77   11.30
   7  -7  -6   82.99    4.30
   7  -7  -6   87.19    4.60
   7  -7  -6   82.29    4.40
  -7   7   6   80.79    6.80
  -7   7   6   76.29    6.20
  -7   7   6   86.89    5.60
   6  -7  -6  130.49    5.50
   6  -7  -6  132.89    5.70
  -6   7   6  133.49    7.70
  -6   7   6  117.09    6.50
  -6   7   6  125.59    7.10
  -6   7   6   90.69    7.30
  -6   7   6  130.89    5.60
   5  -7  -6  403.16   11.50
  -5   7   6  393.26   14.10
  -5   7   6  387.46   11.80
  -5   7   6  407.26   14.90
  -5   7   6  407.96   13.50
  -5   7   6  409.86   14.10
  -5   7   6  407.76   11.30
  -5   7   6  419.66   11.60
  -5   7   6  413.56   12.10
  -4   7   6   10.60    1.80
  -4   7   6   13.60    2.50
  -4   7   6    9.40    2.80
  -4   7   6   12.30    1.90
  -4   7   6    9.70    1.70
  -4   7   6   13.00    1.90
  -4   7   6   11.80    1.90
  -4   7   6    6.40    2.10
  -4   7   6   10.80    2.10
  -4   7   6   12.00    2.60
  -4   7   6   13.60    2.90
  -3   7   6  254.67   10.40
  -3   7   6  258.67    8.60
  -3   7   6  254.87    8.60
  -3   7   6  248.68    9.70
  -3   7   6  248.08    8.70
  -3   7   6  253.97   10.30
  -3   7   6  254.07    8.70
  -3   7   6  260.07   10.50
  -3   7   6  239.88    8.10
  -3   7   6  250.77    9.70
  -2   7   6   43.70    4.60
  -2   7   6   46.30    4.00
  -2   7   6   45.20    4.90
  -2   7   6   50.39    5.10
  -2   7   6   44.90    3.80
  -2   7   6   58.59    5.50
  -2   7   6   45.30    4.00
  -2   7   6   53.99    5.10
  -2   7   6   46.20    3.80
  -2   7   6   48.30    4.20
  -1   7   6  294.37   10.10
  -1   7   6  300.87   10.00
  -1   7   6  288.47   11.00
  -1   7   6  301.67   10.10
  -1   7   6  287.67   10.80
  -1   7   6  298.17   10.20
  -1   7   6  284.17    9.50
  -1   7   6  289.67   11.00
  -1   7   6  269.47   10.60
   0   7   6 1234.28   31.60
   0   7   6 1241.78   30.00
   0   7   6 1271.97   30.80
   0   7   6 1252.77   31.20
   0   7   6 1265.27   30.40
   0   7   6 1233.78   30.60
   0   7   6 1245.18   30.90
   1   7   6 1785.72   41.60
   1   7   6 1771.42   41.10
   1   7   6 1721.63   41.00
   1   7   6 1733.73   40.50
   1   7   6 1782.22   40.60
   2   7   6   74.99    4.50
   2   7   6   72.39    4.20
   2   7   6   76.59    4.50
   3   7   6   14.80    2.00
   3   7   6   15.30    2.00
   3   7   6   10.80    1.90
   4   7   6   76.39    3.40
   4   7   6   70.99    2.90
   8  -8  -6   30.10    2.50
   8  -8  -6   28.10    2.70
   8  -8  -6   30.60    2.60
  -8   8   6   24.70    2.90
  -8   8   6   28.10    3.30
  -8   8   6   31.30    3.20
   7  -8  -6   85.59    4.30
   7  -8  -6   85.79    4.10
   7  -8  -6   88.59    4.40
  -7   8   6   81.39    4.80
  -7   8   6   88.59    5.80
  -7   8   6   86.99    5.40
   6  -8  -6  202.08    7.40
   6  -8  -6  200.78    7.10
  -6   8   6  214.78    9.70
  -6   8   6  209.38    6.80
  -6   8   6  193.48    8.60
  -6   8   6  181.48    7.00
  -6   8   6  202.28    9.10
   5  -8  -6  118.49    5.00
  -5   8   6  114.99    5.30
  -5   8   6  124.09    5.90
  -5   8   6  116.59    6.90
  -5   8   6  122.99    5.10
  -5   8   6  122.49    6.90
  -5   8   6  111.39    6.30
  -5   8   6  120.19    7.20
  -5   8   6  117.19    4.90
  -5   8   6  113.69    5.30
  -4   8   6  333.57   10.40
  -4   8   6  355.06   12.00
  -4   8   6  320.67   12.50
  -4   8   6  351.86   10.90
  -4   8   6  363.16   13.20
  -4   8   6  347.47   10.80
  -4   8   6  332.57   12.50
  -4   8   6  352.56   10.40
  -4   8   6  345.47   10.40
  -4   8   6  349.07   11.60
  -3   8   6   69.19    4.10
  -3   8   6   55.69    5.40
  -3   8   6   66.99    3.70
  -3   8   6   53.19    4.90
  -3   8   6   64.99    3.90
  -3   8   6   56.09    5.10
  -3   8   6   60.79    3.80
  -3   8   6   65.09    5.90
  -3   8   6   64.79    3.90
  -3   8   6   73.59    6.30
  -2   8   6   14.40    3.00
  -2   8   6   12.40    2.10
  -2   8   6   17.00    2.50
  -2   8   6   14.20    2.10
  -2   8   6   14.90    2.90
  -2   8   6   13.10    2.60
  -2   8   6   16.40    2.40
  -2   8   6   17.00    2.90
  -2   8   6   18.60    2.50
  -1   8   6   10.80    2.20
  -1   8   6   16.00    2.80
  -1   8   6    9.90    2.40
  -1   8   6   13.50    2.30
  -1   8   6   12.10    2.20
  -1   8   6   13.30    2.30
  -1   8   6   13.00    2.10
  -1   8   6   16.40    3.10
   0   8   6  509.25   14.70
   0   8   6  494.45   14.40
   0   8   6  498.25   14.90
   0   8   6  518.15   15.60
   0   8   6  512.95   15.30
   0   8   6  499.75   14.30
   0   8   6  519.85   15.00
   1   8   6  359.96   11.30
   1   8   6  361.86   10.80
   1   8   6  362.66   11.10
   1   8   6  366.66   11.50
   1   8   6  359.76   10.90
   2   8   6  314.47    9.30
   2   8   6  314.97    9.20
   2   8   6  316.57    9.60
   2   8   6  306.97    9.50
   3   8   6   15.80    1.60
   3   8   6   13.90    1.40
   3   8   6   14.20    1.60
   8  -9  -6   59.59    3.00
   8  -9  -6   64.59    2.80
  -8   9   6   60.99    3.40
  -8   9   6   58.49    3.60
   7  -9  -6  699.63   17.40
   7  -9  -6  705.23   17.20
   7  -9  -6  708.33   17.70
  -7   9   6  700.03   19.60
  -7   9   6  744.23   19.50
  -7   9   6  718.73   18.40
   6  -9  -6  411.36   11.50
   6  -9  -6  445.36   12.00
  -6   9   6  431.36   13.90
  -6   9   6  431.76   13.60
  -6   9   6  409.96   12.50
  -6   9   6  419.16   14.00
  -6   9   6  414.56   11.70
  -6   9   6  409.26   11.00
   5  -9  -6  195.68    6.70
  -5   9   6  189.48    6.40
  -5   9   6  193.48    8.30
  -5   9   6  187.18    7.40
  -5   9   6  196.28    6.60
  -5   9   6  203.78    8.80
  -5   9   6  198.08    7.00
  -5   9   6  201.58    7.80
  -5   9   6  202.28    8.90
  -5   9   6  192.58    7.00
  -4   9   6  141.69    6.60
  -4   9   6  153.68    6.10
  -4   9   6  140.39    5.70
  -4   9   6  142.79    7.40
  -4   9   6  155.98    7.70
  -4   9   6  145.99    5.60
  -4   9   6  150.88    5.80
  -4   9   6  151.78    6.90
  -4   9   6  146.89    7.40
  -4   9   6  145.59    6.00
  -3   9   6  810.32   22.30
  -3   9   6  753.62   21.20
  -3   9   6  790.82   19.90
  -3   9   6  784.62   22.20
  -3   9   6  771.52   19.50
  -3   9   6  764.42   21.40
  -3   9   6  792.02   20.00
  -3   9   6  804.22   20.30
  -3   9   6  769.82   19.80
  -2   9   6   14.30    2.10
  -2   9   6   15.60    2.20
  -2   9   6   17.30    2.30
  -2   9   6   14.80    2.60
  -2   9   6   16.10    2.30
  -2   9   6   16.10    2.70
  -2   9   6    8.40    2.10
  -2   9   6   11.10    2.50
  -2   9   6   17.60    2.30
  -1   9   6  234.28    9.20
  -1   9   6  237.98    9.20
  -1   9   6  244.58    8.10
  -1   9   6  251.37    8.60
  -1   9   6  248.38    8.50
  -1   9   6  245.18    9.20
  -1   9   6  239.98    8.60
  -1   9   6  247.48    8.40
   0   9   6   -0.40    0.60
   0   9   6    5.40    1.30
   0   9   6    3.10    1.20
   0   9   6    3.00    1.00
   0   9   6    2.30    1.00
   0   9   6    3.50    1.20
   0   9   6    3.60    1.20
   1   9   6   26.40    2.50
   1   9   6   28.60    2.70
   1   9   6   27.20    2.40
   1   9   6   25.40    2.40
   1   9   6   27.60    2.40
   2   9   6    0.40    0.80
   2   9   6    0.80    0.60
   2   9   6    0.80    0.60
   7 -10  -6   20.70    1.90
   7 -10  -6   21.70    1.80
   7 -10  -6   24.20    1.90
  -7  10   6   21.90    2.40
  -7  10   6   24.50    2.30
  -7  10   6   18.60    2.30
   6 -10  -6  270.17    7.90
   6 -10  -6  259.67    7.60
  -6  10   6  264.77    7.70
  -6  10   6  268.37    9.10
  -6  10   6  259.17    8.30
  -6  10   6  263.77    9.30
   5 -10  -6    7.70    1.30
  -5  10   6    6.90    1.40
  -5  10   6    9.40    2.10
  -5  10   6    9.10    1.90
  -5  10   6    6.10    1.50
  -5  10   6    6.90    1.80
  -5  10   6    7.80    1.20
  -5  10   6    6.30    1.30
  -5  10   6    7.10    1.40
  -4  10   6   36.10    3.50
  -4  10   6   39.90    4.10
  -4  10   6   33.50    2.70
  -4  10   6   35.10    3.20
  -4  10   6   36.40    3.00
  -4  10   6   34.10    3.70
  -4  10   6   36.00    2.70
  -4  10   6   40.90    3.10
  -3  10   6   98.99    4.40
  -3  10   6   96.59    5.30
  -3  10   6   99.69    4.20
  -3  10   6  105.69    4.60
  -3  10   6  105.49    5.60
  -3  10   6   99.49    5.10
  -3  10   6   96.19    4.30
  -3  10   6   94.79    4.30
  -3  10   6   95.19    5.00
  -2  10   6  318.37    9.20
  -2  10   6  309.57    9.40
  -2  10   6  310.57    9.20
  -2  10   6  305.77    8.80
  -2  10   6  300.97   10.00
  -2  10   6  308.67   10.10
  -2  10   6  300.57    9.20
  -2  10   6  313.07   10.30
  -1  10   6  118.69    4.40
  -1  10   6  111.69    5.10
  -1  10   6  113.09    4.50
  -1  10   6  112.79    4.60
  -1  10   6  112.19    4.60
  -1  10   6  114.29    4.70
  -1  10   6  113.79    5.00
   0  10   6  101.79    4.00
   0  10   6   96.29    3.80
   0  10   6  101.39    4.20
   0  10   6  100.69    3.70
   0  10   6  101.69    3.90
   0  10   6   96.29    3.80
   5 -11  -6    6.40    0.90
   5 -11  -6    8.60    1.10
  -5  11   6    6.30    1.00
  -5  11   6    6.80    1.00
  -5  11   6    7.70    1.20
  -5  11   6    7.70    1.50
  -5  11   6    6.20    1.70
  -5  11   6    7.60    1.40
   4 -11  -6  678.33   15.90
  -4  11   6  684.33   17.40
  -4  11   6  708.73   16.00
  -4  11   6  700.13   15.80
  -4  11   6  697.03   16.90
  -4  11   6  676.13   17.30
  -4  11   6  705.63   16.30
  -4  11   6  681.53   16.30
  -4  11   6  687.73   16.50
  -3  11   6   16.30    1.80
  -3  11   6   14.80    1.90
  -3  11   6    7.20    1.50
  -3  11   6   18.20    1.80
  -3  11   6   15.70    1.50
  -3  11   6   13.60    1.40
  -3  11   6   15.10    1.60
  -3  11   6   13.80    1.80
  -2  11   6    4.90    1.10
  -2  11   6    4.40    0.90
  -2  11   6    5.10    1.10
  -2  11   6    4.30    0.90
  -2  11   6    5.40    0.90
  -2  11   6    3.70    0.90
  -2  11   6    4.20    0.90
  -2  11   6    4.70    0.90
   1  11  -7  309.27    9.20
  -1 -11   7  315.57    8.20
   0  11  -7  212.48    7.50
   0  11  -7  232.28    7.90
   0 -11   7  211.88    6.50
   0 -11   7  221.68    6.70
  -1  11  -7  229.68    8.30
  -1  11  -7  222.18    7.90
  -1  11  -7  242.98    8.40
   1 -11   7  239.98    7.40
   1 -11   7  232.28    7.30
  -2  11  -7  286.67    9.90
  -2  11  -7  265.37   10.50
  -2  11  -7  302.67   10.00
   2 -11   7  295.77    8.80
   2 -11   7  315.17    9.00
  -3  11  -7   31.20    3.40
  -3  11  -7   32.10    3.10
   3 -11   7   28.20    2.50
   3 -11   7   26.80    2.50
  -4  11  -7    0.90    0.80
  -4  11  -7    0.40    1.00
   4 -11   7    0.70    0.60
   4 -11   7    0.70    0.60
   4 -11   7    0.30    0.70
  -5  11  -7   47.30    3.00
  -5  11  -7   48.90    3.10
   5 -11   7   47.70    2.30
   5 -11   7   52.59    2.80
   5 -11   7   45.60    2.50
   2  10  -7   17.40    1.90
   2  10  -7   17.80    2.20
   2  10  -7   18.30    2.00
  -2 -10   7   16.40    1.60
  -2 -10   7   15.90    1.80
  -2 -10   7   16.00    1.70
   1  10  -7  132.59    5.50
   1  10  -7  136.39    6.40
   1  10  -7  124.19    5.70
  -1 -10   7  122.39    5.10
  -1 -10   7  128.69    5.00
  -1 -10   7  127.99    5.20
   0  10  -7   20.80    3.20
   0  10  -7   17.90    2.80
   0  10  -7   15.60    2.20
   0 -10   7   18.30    2.30
   0 -10   7   14.90    2.00
   0 -10   7   21.80    2.50
  -1  10  -7  208.88    8.60
  -1  10  -7  210.48    8.50
  -1  10  -7  198.08    8.70
   1 -10   7  209.38    7.60
   1 -10   7  228.98    7.90
   1 -10   7  224.78    7.60
  -2  10  -7  326.37   11.30
  -2  10  -7  320.97   11.10
  -2  10  -7  303.27   11.10
   2 -10   7  307.17    9.90
   2 -10   7  316.87    9.90
   2 -10   7  311.07   10.00
  -3  10  -7  216.78    8.80
  -3  10  -7  205.28    8.00
  -3  10  -7  212.08    8.50
   3 -10   7  206.38    7.60
   3 -10   7  210.48    7.70
  -4  10  -7  500.85   14.80
  -4  10  -7  524.15   15.50
   4 -10   7  510.75   14.10
   4 -10   7  509.55   14.20
  -5  10  -7    7.30    1.80
  -5  10  -7    5.70    1.50
  -5  10  -7    7.00    1.60
   5 -10   7    7.60    1.60
   5 -10   7    6.60    1.40
   5 -10   7    9.50    1.50
  -6  10  -7  429.46   12.30
  -6  10  -7  463.15   12.50
   6 -10   7  450.75   11.60
   6 -10   7  455.15   11.90
   6 -10   7  468.65   12.40
   3   9  -7  354.66   10.40
   3   9  -7  348.37    9.40
   3   9  -7  366.66   10.50
   3   9  -7  354.56   10.90
  -3  -9   7  344.37    9.90
  -3  -9   7  363.86   10.20
   2   9  -7  473.35   13.60
   2   9  -7  441.06   12.50
   2   9  -7  431.96   13.10
   2   9  -7  455.75   14.40
  -2  -9   7  461.15   12.80
  -2  -9   7  462.35   13.00
   1   9  -7  421.46   14.20
   1   9  -7  395.46   12.80
   1   9  -7  406.36   12.10
   1   9  -7  424.26   13.20
  -1  -9   7  420.56   12.50
  -1  -9   7  407.06   12.40
   0   9  -7  614.74   18.20
   0   9  -7  621.04   19.00
   0   9  -7  633.34   17.50
   0  -9   7  626.14   17.30
   0  -9   7  641.44   17.20
  -1   9  -7  305.47   11.20
  -1   9  -7  317.27   11.20
  -1   9  -7  295.97   11.60
   1  -9   7  300.97   10.20
   1  -9   7  310.47   10.00
   1  -9   7  308.87   10.20
  -2   9  -7   31.60    3.90
  -2   9  -7   31.20    3.80
  -2   9  -7   35.60    3.70
  -2   9  -7   33.70    5.00
   2  -9   7   37.30    3.60
   2  -9   7   36.60    3.50
   2  -9   7   43.20    3.90
  -3   9  -7  203.78    8.10
  -3   9  -7  211.88    8.80
  -3   9  -7  192.28    8.30
   3  -9   7  204.28    7.80
   3  -9   7  200.38    7.70
   3  -9   7  211.98    8.00
  -4   9  -7 1084.89   27.60
  -4   9  -7 1060.99   26.80
  -4   9  -7 1038.30   26.30
   4  -9   7 1083.39   26.50
   4  -9   7 1073.89   26.50
  -5   9  -7   -0.50    0.70
  -5   9  -7    1.00    1.10
  -5   9  -7    0.10    0.90
   5  -9   7    0.40    0.80
   5  -9   7    0.60    0.70
   5  -9   7    0.80    0.80
  -6   9  -7    0.30    0.80
  -6   9  -7    2.70    1.10
  -6   9  -7    2.00    1.10
   6  -9   7    2.10    0.90
   6  -9   7    2.80    1.10
   6  -9   7    1.80    1.00
  -7   9  -7  267.57    8.30
  -7   9  -7  249.68    7.90
  -7   9  -7  278.07    7.90
   7  -9   7  278.47    8.30
   7  -9   7  254.37    7.60
   7  -9   7  274.87    7.70
   4   8  -7   83.19    4.20
   4   8  -7   78.69    4.00
   4   8  -7   90.09    4.50
  -4  -8   7   83.19    4.00
  -4  -8   7   83.89    4.00
   3   8  -7  232.98    8.60
   3   8  -7  224.38    7.60
   3   8  -7  215.38    8.90
   3   8  -7  220.98    8.60
   3   8  -7  230.38    7.90
  -3  -8   7  239.58    8.30
  -3  -8   7  206.18    8.00
   2   8  -7   45.20    4.00
   2   8  -7   51.59    5.30
   2   8  -7   36.10    3.90
   2   8  -7   40.30    4.20
   2   8  -7   48.40    4.10
  -2  -8   7   42.10    4.00
  -2  -8   7   53.29    4.60
   1   8  -7  268.17   10.90
   1   8  -7  277.67    9.40
   1   8  -7  275.77   10.20
   1   8  -7  259.87    9.90
  -1  -8   7  277.77    9.90
  -1  -8   7  270.67    9.70
   0   8  -7 1730.73   40.50
   0   8  -7 1703.13   42.10
   0   8  -7 1764.12   40.00
   0   8  -7 1756.12   40.60
   0  -8   7 1741.23   40.40
   0  -8   7 1667.53   40.10
  -1   8  -7  640.14   18.70
  -1   8  -7  627.64   17.60
  -1   8  -7  604.74   17.90
   1  -8   7  608.24   17.30
   1  -8   7  632.24   17.10
   1  -8   7  604.94   16.70
  -2   8  -7   75.09    4.80
  -2   8  -7   84.99    5.00
  -2   8  -7   83.79    4.50
   2  -8   7   83.89    4.50
   2  -8   7   83.69    4.80
   2  -8   7   85.89    4.70
  -3   8  -7  846.92   22.10
  -3   8  -7  840.02   21.50
  -3   8  -7  791.92   21.80
   3  -8   7  829.72   21.60
   3  -8   7  842.02   21.40
   3  -8   7  791.52   21.50
  -4   8  -7   17.00    2.50
  -4   8  -7   17.30    2.50
  -4   8  -7   17.00    2.70
   4  -8   7   21.50    3.00
   4  -8   7   15.50    2.50
   4  -8   7   19.80    2.70
  -5   8  -7   92.19    5.10
  -5   8  -7  102.69    5.50
  -5   8  -7  101.39    5.10
   5  -8   7   94.09    4.70
   5  -8   7  107.99    5.40
   5  -8   7   96.29    5.30
  -6   8  -7  138.89    6.10
  -6   8  -7  137.29    6.20
  -6   8  -7  141.09    6.10
   6  -8   7  136.59    5.70
   6  -8   7  138.49    6.30
   6  -8   7  129.59    6.00
  -7   8  -7  204.08    7.10
  -7   8  -7  186.58    7.00
   7  -8   7  200.98    7.20
   7  -8   7  188.68    6.60
   7  -8   7  200.48    6.80
   5   7  -7    7.10    1.10
   5   7  -7   11.00    1.80
   5   7  -7    7.10    1.50
   5   7  -7    8.90    1.70
  -5  -7   7   10.00    1.70
   4   7  -7   82.79    4.30
   4   7  -7   91.29    5.20
   4   7  -7   92.89    5.10
   4   7  -7   97.39    5.10
  -4  -7   7   87.69    4.90
  -4  -7   7   89.69    4.70
   3   7  -7  319.87   10.10
   3   7  -7  331.27   11.80
   3   7  -7  302.67   11.00
   3   7  -7  334.37   11.40
   3   7  -7  315.77   10.30
   3   7  -7  308.87   11.40
  -3  -7   7  290.37   10.80
   2   7  -7 1775.22   41.00
   2   7  -7 1679.13   39.60
   2   7  -7 1690.03   39.30
   2   7  -7 1767.12   40.20
   2   7  -7 1674.03   41.60
   2   7  -7 1639.94   40.30
  -2  -7   7 1686.73   40.20
  -2  -7   7 1692.93   40.40
   1   7  -7  225.48    8.30
   1   7  -7  214.98    9.20
   1   7  -7  225.48    8.30
   1   7  -7  226.78    8.70
   1   7  -7  224.48    8.70
  -1  -7   7  222.68    8.60
  -1  -7   7  225.88    8.80
   0   7  -7  283.07    9.60
   0   7  -7  271.37    9.70
   0   7  -7  279.97    9.40
   0   7  -7  282.87    9.90
   0   7  -7  281.77   10.50
   0  -7   7  278.37   10.00
   0  -7   7  270.97    9.30
   0  -7   7  286.47    9.80
  -1   7  -7    1.70    1.30
  -1   7  -7    3.80    1.30
  -1   7  -7    1.60    1.00
  -1   7  -7    4.20    1.40
   1  -7   7    0.70    0.80
   1  -7   7    2.40    1.10
   1  -7   7    1.50    1.00
  -2   7  -7   97.19    4.60
  -2   7  -7   95.79    5.00
  -2   7  -7  100.19    5.20
   2  -7   7   95.29    4.60
   2  -7   7   88.19    4.90
   2  -7   7   86.79    4.70
  -3   7  -7  670.03   17.90
  -3   7  -7  670.93   17.40
  -3   7  -7  623.84   16.90
   3  -7   7  637.74   17.60
   3  -7   7  639.34   17.40
   3  -7   7  646.64   17.80
  -4   7  -7   21.40    2.60
  -4   7  -7   13.20    2.20
  -4   7  -7   18.40    2.70
   4  -7   7   27.40    2.80
   4  -7   7   13.00    2.20
   4  -7   7   13.80    2.40
   4  -7   7   10.10    2.00
  -5   7  -7  266.27    9.30
  -5   7  -7  268.87    9.30
   5  -7   7  266.97    8.90
   5  -7   7  255.97    9.70
   5  -7   7  279.27    9.50
   5  -7   7  269.87    9.80
   5  -7   7  261.07    8.90
  -6   7  -7    1.90    1.10
  -6   7  -7    0.20    0.90
  -6   7  -7    0.00    0.70
   6  -7   7    1.00    1.00
   6  -7   7    1.80    1.00
   6  -7   7    0.60    0.90
   6  -7   7    0.10    0.90
   6  -7   7    1.40    0.80
  -7   7  -7   88.69    4.10
  -7   7  -7   90.09    4.50
  -7   7  -7   85.89    4.50
   7  -7   7   86.49    4.50
   7  -7   7   90.09    4.40
   7  -7   7   80.99    4.60
  -8   7  -7   91.29    3.70
  -8   7  -7   90.29    4.00
   8  -7   7   94.69    3.70
   8  -7   7   95.29    3.80
   8  -7   7   92.99    4.10
   6   6  -7  276.17    8.50
   6   6  -7  258.97    8.30
   6   6  -7  253.57    7.50
  -6  -6   7  261.07    8.10
  -6  -6   7  279.17    8.30
  -6  -6   7  249.48    7.60
   5   6  -7    9.00    1.80
   5   6  -7    6.50    1.40
   5   6  -7    8.10    1.90
   5   6  -7    7.40    1.80
  -5  -6   7    6.40    1.70
  -5  -6   7    8.10    1.90
   4   6  -7  370.76   11.20
   4   6  -7  373.76   11.60
   4   6  -7  350.86   12.60
   4   6  -7  362.06   12.10
   4   6  -7  361.06   12.70
  -4  -6   7  366.86   12.50
  -4  -6   7  363.16   12.20
   3   6  -7   57.49    5.40
   3   6  -7   60.89    3.90
   3   6  -7   57.49    5.30
   3   6  -7   62.89    5.80
   3   6  -7   70.79    5.70
   3   6  -7   55.79    4.50
  -3  -6   7   56.49    5.10
  -3  -6   7   56.49    5.20
   2   6  -7  392.46   13.10
   2   6  -7  387.06   12.00
   2   6  -7  373.06   11.90
   2   6  -7  388.46   12.80
   2   6  -7  381.36   12.30
  -2  -6   7  402.96   12.80
   1   6  -7 1127.59   30.80
   1   6  -7 1219.78   30.90
   1   6  -7 1274.77   32.80
   1   6  -7 1145.19   29.50
   1   6  -7 1174.78   32.00
  -1  -6   7 1110.99   29.50
  -1  -6   7 1219.38   31.50
  -1  -6   7 1207.08   28.90
   0   6  -7 1017.90   26.20
   0   6  -7 1085.09   28.70
   0  -6   7 1067.19   26.90
   0  -6   7 1065.69   28.40
  -1   6  -7 1020.10   26.60
  -1   6  -7  944.51   24.50
   1  -6   7  948.01   24.60
   1  -6   7  947.91   26.00
  -2   6  -7  344.47   14.20
  -2   6  -7  332.47   11.20
  -2   6  -7  339.17   10.70
   2  -6   7  337.87   11.50
   2  -6   7  329.97   10.80
   2  -6   7  361.16   12.80
  -3   6  -7  850.91   20.70
  -3   6  -7  834.42   22.00
  -3   6  -7  802.92   21.70
   3  -6   7  787.82   21.00
   3  -6   7  823.62   22.10
   3  -6   7  820.62   23.50
   3  -6   7  851.71   23.60
   3  -6   7  832.42   22.80
   3  -6   7  843.12   21.80
  -4   6  -7  219.28    7.90
  -4   6  -7  211.78    7.60
   4  -6   7  211.88    7.40
   4  -6   7  211.88    7.40
   4  -6   7  216.48    8.30
   4  -6   7  203.88    8.10
   4  -6   7  213.88    8.20
  -5   6  -7  215.78    7.90
  -5   6  -7  198.18    7.70
   5  -6   7  222.78    7.50
   5  -6   7  215.48    7.90
   5  -6   7  233.88    8.90
   5  -6   7  233.38    8.80
   5  -6   7  210.48    7.80
   5  -6   7  195.88    8.10
  -6   6  -7  690.93   18.40
   6  -6   7  699.13   19.40
   6  -6   7  688.93   17.60
   6  -6   7  698.93   18.60
   6  -6   7  664.23   18.40
   6  -6   7  705.43   19.60
   6  -6   7  695.03   18.20
  -7   6  -7   95.59    4.80
  -7   6  -7  100.89    5.00
   7  -6   7  106.99    4.20
   7  -6   7  100.49    5.10
   7  -6   7   98.09    4.90
   7  -6   7  103.89    4.60
   7  -6   7  107.89    5.60
   7  -6   7   99.49    4.60
  -8   6  -7  295.07    8.80
  -8   6  -7  306.37    9.10
   8  -6   7  313.07    8.80
   8  -6   7  299.27    8.80
   8  -6   7  331.47    9.60
   7   5  -7  146.79    5.20
   7   5  -7  153.98    5.30
  -7  -5   7  146.29    5.00
  -7  -5   7  138.79    6.30
   6   5  -7    9.00    1.90
   6   5  -7    3.10    1.20
   6   5  -7   12.30    2.30
   6   5  -7    8.30    1.90
   6   5  -7   11.70    1.80
  -6  -5   7    8.20    1.70
  -6  -5   7    7.90    1.80
   5   5  -7   20.90    2.60
   5   5  -7   17.60    2.50
   5   5  -7   21.90    3.10
   5   5  -7   21.10    3.20
   5   5  -7   20.30    3.10
   5   5  -7   19.10    2.70
  -5  -5   7   17.80    3.00
  -5  -5   7   17.50    2.70
   4   5  -7   89.09    5.10
   4   5  -7   78.19    6.50
   4   5  -7   80.69    4.60
   4   5  -7   92.79    5.60
   4   5  -7   80.09    4.40
  -4  -5   7   79.89    5.30
   3   5  -7 4507.55   95.89
   3   5  -7 4390.66   97.39
   3   5  -7 4541.95   97.49
   3   5  -7 4602.74   96.19
   3   5  -7 4442.86   97.69
   3   5  -7 4497.05   96.79
  -3  -5   7 4428.26   97.19
  -3  -5   7 4463.95   97.69
   2   5  -7   40.10    5.00
   2   5  -7   38.90    4.60
  -2  -5   7   41.40    4.10
  -2  -5   7   46.20    5.60
  -2  -5   7   43.10    4.70
   1   5  -7    9.50    1.80
   1   5  -7   12.80    2.70
   1   5  -7   10.20    2.40
  -1  -5   7    8.70    1.80
  -1  -5   7    9.50    2.20
  -1  -5   7    9.90    2.50
   0   5  -7  171.08    7.60
   0   5  -7  157.98    7.30
   0   5  -7  162.88    6.50
   0  -5   7  160.28    6.60
   0  -5   7  143.09    7.70
   0  -5   7  166.88    7.60
  -1   5  -7  457.75   13.10
  -1   5  -7  476.45   14.30
  -1   5  -7  463.05   12.60
   1  -5   7  447.36   13.30
   1  -5   7  480.85   14.80
   1  -5   7  421.06   14.90
  -2   5  -7  262.67    8.90
  -2   5  -7  266.77    9.70
  -2   5  -7  284.37    9.40
   2  -5   7  293.67   10.90
   2  -5   7  260.97    8.90
   2  -5   7  272.17    9.60
  -3   5  -7  890.41   22.80
  -3   5  -7  917.01   23.00
  -3   5  -7  886.71   21.70
   3  -5   7  921.31   23.20
   3  -5   7  913.21   25.00
   3  -5   7  907.21   23.80
   4  -5   7  338.37   11.20
   4  -5   7  364.96   13.70
   4  -5   7  334.57   11.60
   4  -5   7  346.57   10.30
   4  -5   7  334.87   10.10
   4  -5   7  336.77   11.20
   4  -5   7  355.26   13.00
   4  -5   7  352.46   10.60
   4  -5   7  351.46   11.10
  -5   5  -7    0.70    0.90
   5  -5   7    2.90    1.00
   5  -5   7    1.30    1.00
   5  -5   7    0.00    0.80
   5  -5   7    0.30    1.00
   5  -5   7    2.00    1.00
   5  -5   7    0.20    0.70
   5  -5   7    0.80    0.90
   5  -5   7    0.40    0.80
   5  -5   7    1.50    0.90
  -6   5  -7  896.71   22.40
   6  -5   7  899.71   22.00
   6  -5   7  904.11   22.50
   6  -5   7  882.21   23.70
   6  -5   7  884.61   23.10
   6  -5   7  907.11   21.50
   6  -5   7  876.81   22.90
   6  -5   7  860.41   23.80
   6  -5   7  884.91   22.40
  -7   5  -7  269.27    9.10
  -7   5  -7  266.77    8.70
   7  -5   7  252.77    9.80
   7  -5   7  282.97    8.60
   7  -5   7  288.47    9.60
   7  -5   7  259.87    8.10
   7  -5   7  266.17    8.80
   7  -5   7  276.17    9.40
  -8   5  -7  230.08    7.30
  -8   5  -7  226.98    7.30
   8  -5   7  234.48    6.70
   8  -5   7  232.88    7.30
   8  -5   7  231.78    7.80
   8  -5   7  221.68    7.20
   7   4  -7  131.59    5.60
   7   4  -7  151.78    6.20
   7   4  -7  133.99    5.40
  -7  -4   7  133.59    5.40
  -7  -4   7  141.69    6.00
   6   4  -7  107.69    5.90
   6   4  -7  113.99    6.40
   6   4  -7  114.89    5.90
   6   4  -7  117.39    5.10
  -6  -4   7  116.49    6.10
  -6  -4   7  117.69    6.20
  -6  -4   7  119.09    5.80
   5   4  -7  244.08    8.50
   5   4  -7  222.98    9.30
   5   4  -7  236.98    8.90
   5   4  -7  240.78    9.10
   5   4  -7  223.98    9.70
   5   4  -7  233.88    9.50
  -5  -4   7  242.18    9.80
  -5  -4   7  241.98    9.90
   4   4  -7  103.59    5.40
   4   4  -7  100.89    5.80
   4   4  -7   95.89    5.40
   4   4  -7  107.19    6.10
   4   4  -7  101.59    5.40
   4   4  -7   97.59    5.00
  -4  -4   7  112.39    6.20
   3   4  -7  187.88    9.30
   3   4  -7  187.48    8.60
   3   4  -7  194.08    9.10
  -3  -4   7  175.28    8.60
  -3  -4   7  183.58    7.60
  -3  -4   7  199.18   10.20
   2   4  -7  261.57   10.10
   2   4  -7  269.37   10.00
   2   4  -7  277.17   10.60
  -2  -4   7  277.67    9.30
  -2  -4   7  263.27   11.30
  -2  -4   7  271.67   10.40
   1   4  -7  122.79    6.10
   1   4  -7  119.49    6.00
   1   4  -7  121.29    5.10
  -1  -4   7  126.39    5.30
  -1  -4   7  122.49    6.90
  -1  -4   7  122.69    6.20
   0   4  -7 6781.72  141.49
   0   4  -7 6714.33  139.39
   0   4  -7 6376.86  140.89
   0   4  -7 6475.25  139.99
   0  -4   7 6780.12  143.59
   0  -4   7 6667.43  140.29
   0  -4   7 7029.80  142.29
  -1   4  -7 1107.69   25.40
  -1   4  -7 1039.10   25.90
  -1   4  -7 1028.30   23.90
  -1   4  -7 1032.30   24.80
   1  -4   7 1029.30   25.30
   1  -4   7 1081.19   26.90
   1  -4   7 1086.59   25.20
   1  -4   7 1020.00   27.90
  -2   4  -7   21.30    2.50
  -2   4  -7   27.80    2.50
  -2   4  -7   27.40    3.60
  -2   4  -7   28.10    2.80
   2  -4   7   28.20    3.70
   2  -4   7   29.10    3.10
   2  -4   7   30.30    2.90
   2  -4   7   26.80    3.70
  -3   4  -7    1.90    0.80
  -3   4  -7    2.40    1.10
  -3   4  -7    2.50    0.90
  -3   4  -7    2.00    0.90
  -3   4  -7    1.50    0.90
  -3   4  -7    3.40    1.10
   3  -4   7    3.00    1.20
   3  -4   7    3.00    1.40
   3  -4   7    2.40    1.20
   3  -4   7    2.90    1.50
  -4   4  -7  404.26   12.10
  -4   4  -7  427.76   12.00
  -4   4  -7  452.85   13.10
  -4   4  -7  412.46   12.40
  -4   4  -7  425.06   13.10
   4  -4   7  440.96   14.80
   4  -4   7  420.16   14.00
   4  -4   7  440.26   14.40
   4  -4   7  437.46   14.70
   5  -4   7  501.65   14.70
   5  -4   7  519.55   14.30
   5  -4   7  493.65   15.20
   5  -4   7  530.65   14.10
   5  -4   7  498.05   14.50
   5  -4   7  502.75   13.70
   5  -4   7  515.95   13.80
   5  -4   7  489.25   15.40
   5  -4   7  511.55   15.60
   5  -4   7  508.15   14.90
   5  -4   7  515.95   14.30
  -6   4  -7   13.80    2.00
   6  -4   7   10.40    2.20
   6  -4   7   19.00    2.50
   6  -4   7   12.80    2.40
   6  -4   7   13.80    2.20
   6  -4   7   12.60    2.00
   6  -4   7   10.60    2.40
   6  -4   7   16.80    2.70
   6  -4   7   13.20    2.00
   6  -4   7   13.50    2.00
   6  -4   7   16.20    2.20
  -7   4  -7    0.40    0.90
   7  -4   7    0.70    0.80
   7  -4   7   -0.10    0.70
   7  -4   7    0.40    0.70
   7  -4   7    0.90    0.80
   7  -4   7   -0.10    0.90
   7  -4   7    0.40    0.70
   7  -4   7    2.20    1.10
   7  -4   7   -0.20    0.80
   7  -4   7    1.30    0.90
  -8   4  -7   56.19    3.10
  -8   4  -7   55.49    3.00
   8  -4   7   55.89    2.70
   8  -4   7   55.89    2.70
   8  -4   7   57.49    3.20
   8  -4   7   50.49    3.30
   8  -4   7   51.49    3.10
   8  -4   7   54.89    2.70
   8   3  -7   61.89    3.30
  -8  -3   7   59.09    3.20
   7   3  -7   12.10    2.40
   7   3  -7   12.10    2.20
   7   3  -7   15.60    2.50
  -7  -3   7   16.00    2.60
  -7  -3   7   17.00    2.60
  -7  -3   7   16.40    2.30
   6   3  -7   11.70    2.50
   6   3  -7    9.40    1.80
   6   3  -7    9.10    1.90
   6   3  -7    8.10    2.10
   6   3  -7    6.60    2.00
  -6  -3   7   10.50    2.50
  -6  -3   7    7.30    2.10
   5   3  -7   18.30    3.10
   5   3  -7   13.20    2.50
   5   3  -7   22.70    3.00
   5   3  -7   19.50    2.60
   5   3  -7   17.30    3.10
   5   3  -7   21.00    2.70
  -5  -3   7   18.80    3.10
  -5  -3   7   26.40    3.80
   4   3  -7 2315.07   52.19
   4   3  -7 2412.86   55.69
   4   3  -7 2298.47   52.99
   4   3  -7 2306.97   60.69
   4   3  -7 2323.67   52.09
  -4  -3   7 2440.36   63.19
  -4  -3   7 2321.37   53.79
  -4  -3   7 2306.27   54.99
   3   3  -7  244.78    9.70
   3   3  -7  241.78    9.40
   3   3  -7  253.87   10.20
  -3  -3   7  250.27   11.10
  -3  -3   7  244.08    9.70
   2   3  -7  159.88    7.00
   2   3  -7  173.68    7.40
   2   3  -7  167.98    6.90
  -2  -3   7  169.98    6.20
  -2  -3   7  165.68    7.20
  -2  -3   7  168.88    8.20
  -2  -3   7  152.48    6.70
   1   3  -7   33.20    2.30
   1   3  -7   31.70    3.20
   1   3  -7   34.90    2.90
  -1  -3   7   34.80    4.10
  -1  -3   7   27.50    3.10
  -1  -3   7   42.20    3.70
  -1  -3   7   31.50    2.30
   0   3  -7    6.90    1.30
   0   3  -7    5.30    1.10
   0   3  -7    5.10    1.30
   0   3  -7    4.70    1.10
   0   3  -7    5.90    1.30
   0  -3   7    5.80    1.20
   0  -3   7    5.40    1.40
   0  -3   7    6.10    1.50
   0  -3   7    5.60    1.90
  -1   3  -7   16.40    2.10
  -1   3  -7   18.20    2.10
  -1   3  -7   11.90    1.60
  -1   3  -7   17.00    2.20
   1  -3   7   21.90    2.90
   1  -3   7   12.40    2.50
   1  -3   7   18.50    2.10
   1  -3   7   14.10    2.10
  -2   3  -7   75.59    4.00
  -2   3  -7   72.79    3.60
  -2   3  -7   74.99    3.80
   2  -3   7   76.59    4.10
   2  -3   7   73.69    5.20
   2  -3   7   80.09    4.80
   2  -3   7   77.79    4.20
  -3   3  -7   65.29    3.60
  -3   3  -7   80.49    4.30
  -3   3  -7   73.59    4.40
  -3   3  -7   67.19    3.70
  -3   3  -7   72.89    4.10
  -3   3  -7   74.49    3.80
   3  -3   7   76.89    5.00
   3  -3   7   74.39    4.40
   3  -3   7   74.89    5.20
   3  -3   7   72.09    4.40
  -4   3  -7  516.25   14.50
  -4   3  -7  529.75   15.00
  -4   3  -7  548.75   15.10
  -4   3  -7  526.95   15.60
  -4   3  -7  511.95   14.20
   4  -3   7  571.34   17.50
   4  -3   7  538.25   16.70
   4  -3   7  548.65   17.20
   4  -3   7  521.85   16.60
   5  -3   7    7.10    1.60
   5  -3   7    5.70    1.30
   5  -3   7    6.50    1.70
   5  -3   7    8.60    1.90
   5  -3   7    4.90    1.30
   5  -3   7    5.40    1.80
   5  -3   7    5.80    1.70
   5  -3   7    5.60    1.60
   5  -3   7    6.60    1.60
   5  -3   7    4.90    1.60
   5  -3   7    8.90    1.70
   6  -3   7   34.00    3.30
   6  -3   7   29.50    3.30
   6  -3   7   26.50    3.10
   6  -3   7   27.90    3.80
   6  -3   7   26.80    2.90
   6  -3   7   32.00    3.00
   6  -3   7   33.60    3.80
   6  -3   7   27.00    2.70
   6  -3   7   30.30    3.10
   6  -3   7   32.60    3.80
   7  -3   7   48.80    4.50
   7  -3   7   54.49    3.30
   7  -3   7   47.90    3.00
   7  -3   7   43.60    3.70
   7  -3   7   48.20    3.10
   7  -3   7   51.89    3.20
   7  -3   7   52.19    3.10
   7  -3   7   56.59    4.70
   7  -3   7   47.90    4.20
  -8   3  -7   32.10    2.60
   8  -3   7   27.80    2.70
   8  -3   7   28.30    2.20
   8  -3   7   27.00    1.90
   8  -3   7   28.90    2.30
   8  -3   7   35.00    2.20
   8  -3   7   31.80    1.90
   8  -3   7   25.70    2.40
   8  -3   7   26.40    2.40
   8   2  -7   73.39    3.70
   8   2  -7   70.29    4.10
   8   2  -7   79.09    4.00
  -8  -2   7   60.79    3.20
  -8  -2   7   78.39    4.10
  -8  -2   7   71.99    4.10
   7   2  -7  267.07   10.00
   7   2  -7  277.87    9.80
   7   2  -7  277.87   10.60
  -7  -2   7  273.87   10.50
  -7  -2   7  267.07   10.10
   6   2  -7   22.90    3.60
   6   2  -7   24.30    3.50
   6   2  -7   23.00    3.30
   6   2  -7   28.20    3.10
  -6  -2   7   27.60    3.70
  -6  -2   7   19.40    3.30
   5   2  -7   23.10    3.40
   5   2  -7   23.70    2.90
   5   2  -7   22.10    3.20
   5   2  -7   25.20    3.20
   5   2  -7   23.50    2.90
  -5  -2   7   21.50    3.30
  -5  -2   7   24.90    3.60
   4   2  -7  172.48    8.30
   4   2  -7  178.28    8.20
  -4  -2   7  173.78    9.30
  -4  -2   7  181.38    8.10
  -4  -2   7  164.88    7.80
   3   2  -7   20.90    2.90
   3   2  -7   15.60    2.40
   3   2  -7   18.10    2.70
  -3  -2   7   16.80    2.60
  -3  -2   7   14.30    2.90
  -3  -2   7   16.40    2.50
   2   2  -7   22.90    2.50
   2   2  -7   28.10    3.10
   2   2  -7   24.20    2.80
   2   2  -7   25.70    2.40
  -2  -2   7   27.10    3.30
  -2  -2   7   27.10    2.90
  -2  -2   7   25.50    3.00
  -2  -2   7   25.10    3.50
   1   2  -7 9140.69  192.18
   1   2  -7 9010.40  191.98
  -1  -2   7 9650.93  195.78
  -1  -2   7 8978.40  193.38
  -1  -2   7 9451.85  191.68
  -1  -2   7 9375.66  193.58
  -1  -2   7 9353.06  192.18
   0   2  -7  201.98    7.00
   0   2  -7  222.88    6.80
   0   2  -7  222.18    7.40
   0   2  -7  216.58    7.00
   0  -2   7  223.58    9.00
   0  -2   7  215.28    6.60
   0  -2   7  212.78    7.80
   0  -2   7  205.08    6.90
   0  -2   7  206.98    7.60
  -1   2  -7 1106.49   26.10
  -1   2  -7 1141.19   26.10
  -1   2  -7 1126.49   26.10
  -1   2  -7 1126.49   26.40
   1  -2   7 1122.89   29.00
   1  -2   7 1121.39   27.00
   1  -2   7 1110.99   27.50
   1  -2   7 1104.29   26.00
  -2   2  -7  384.56   11.00
  -2   2  -7  401.06   11.50
  -2   2  -7  384.76   11.00
   2  -2   7  375.76   12.40
   2  -2   7  381.26   11.50
   2  -2   7  401.76   13.70
   2  -2   7  396.26   11.80
  -3   2  -7  295.47    9.70
  -3   2  -7  283.97   10.10
  -3   2  -7  286.87    9.70
  -3   2  -7  307.67    9.30
  -3   2  -7  304.17    9.20
  -3   2  -7  297.27    9.50
   3  -2   7  309.37   11.00
   3  -2   7  309.97   10.40
   3  -2   7  309.17   11.70
   3  -2   7  287.47   10.40
  -4   2  -7   13.00    2.20
  -4   2  -7   10.70    1.80
  -4   2  -7   15.60    2.60
  -4   2  -7   10.90    1.90
  -4   2  -7   11.40    1.80
   4  -2   7   10.20    2.40
   4  -2   7   11.80    2.50
   4  -2   7   15.20    2.80
   4  -2   7   15.70    3.10
   5  -2   7  316.67   11.10
   5  -2   7  326.57   10.20
   5  -2   7  320.07    9.90
   5  -2   7  335.17   11.60
   5  -2   7  317.27   11.00
   5  -2   7  321.57   10.90
   5  -2   7  322.67   10.20
   5  -2   7  339.47   11.80
   5  -2   7  340.17   10.90
   5  -2   7  333.27   10.70
   6  -2   7   86.89    4.40
   6  -2   7   84.99    4.30
   6  -2   7   90.09    4.50
   6  -2   7   86.09    4.70
   6  -2   7   85.49    6.30
   6  -2   7   89.49    4.70
   6  -2   7   88.69    5.00
   6  -2   7   87.89    4.80
   6  -2   7   90.09    5.30
   6  -2   7   91.19    5.70
   7  -2   7  163.58    6.20
   7  -2   7  169.78    7.40
   7  -2   7  170.98    6.20
   7  -2   7  149.09    6.20
   7  -2   7  164.88    5.80
   7  -2   7  158.08    6.10
   7  -2   7  161.18    6.80
   7  -2   7  156.88    5.80
   7  -2   7  164.38    6.90
  -8   2  -7   43.60    2.40
   8  -2   7   40.10    2.80
   8  -2   7   36.30    3.00
   8  -2   7   42.70    2.50
   8  -2   7   40.60    2.20
   8  -2   7   43.10    2.30
   8  -2   7   41.20    2.20
   8  -2   7   41.40    2.40
   8  -2   7   40.80    2.30
   8   1  -7   17.70    2.30
   8   1  -7   16.00    2.40
   8   1  -7   20.40    2.80
  -8  -1   7   17.40    2.40
  -8  -1   7   14.60    2.30
  -8  -1   7   13.00    2.40
   7   1  -7  363.46   11.90
   7   1  -7  362.96   12.50
   7   1  -7  352.46   12.50
  -7  -1   7  348.07   11.90
  -7  -1   7  352.56   12.30
  -7  -1   7  352.16   12.80
   6   1  -7  994.30   25.70
   6   1  -7  998.60   26.20
   6   1  -7  970.90   24.50
   6   1  -7  982.30   26.50
  -6  -1   7 1022.80   27.10
  -6  -1   7 1007.90   26.50
  -6  -1   7 1002.00   26.10
   5   1  -7 1076.39   27.60
   5   1  -7 1083.59   26.90
   5   1  -7 1108.39   26.40
  -5  -1   7 1082.69   27.50
  -5  -1   7 1105.29   27.80
  -5  -1   7 1127.19   29.20
  -5  -1   7 1034.20   28.00
   4   1  -7  977.20   24.90
   4   1  -7  938.01   25.20
  -4  -1   7  981.00   25.30
  -4  -1   7  939.91   24.40
  -4  -1   7  917.71   27.00
   3   1  -7  872.41   21.70
   3   1  -7  892.71   22.30
   3   1  -7  855.11   21.90
  -3  -1   7  871.41   21.50
  -3  -1   7  856.11   21.90
  -3  -1   7  859.41   24.20
  -3  -1   7  852.21   22.50
   2   1  -7  103.09    4.20
   2   1  -7   91.59    4.00
   2   1  -7   95.09    4.40
   2   1  -7   95.99    4.60
  -2  -1   7   99.89    5.00
  -2  -1   7   90.39    4.40
  -2  -1   7   93.19    4.60
  -2  -1   7   95.09    5.50
   1   1  -7   47.20    2.80
   1   1  -7   50.49    3.00
   1   1  -7   52.39    2.90
   1   1  -7   48.70    3.00
  -1  -1   7   49.10    3.20
  -1  -1   7   53.89    3.60
  -1  -1   7   50.39    4.00
  -1  -1   7   51.29    3.10
   0   1  -7 1694.73   37.40
   0   1  -7 1670.03   36.60
   0   1  -7 1697.93   37.70
   0   1  -7 1627.34   37.80
   0  -1   7 1723.43   37.90
   0  -1   7 1741.03   38.80
   0  -1   7 1661.33   36.60
   0  -1   7 1689.93   40.30
   0  -1   7 1649.63   38.20
  -1   1  -7  771.42   19.10
  -1   1  -7  789.22   19.80
  -1   1  -7  798.62   19.40
   1  -1   7  790.22   19.20
   1  -1   7  822.02   20.50
   1  -1   7  805.52   22.10
   1  -1   7  830.42   19.80
   1  -1   7  775.62   20.40
  -2   1  -7  504.45   13.40
  -2   1  -7  507.25   13.80
  -2   1  -7  480.55   13.10
   2  -1   7  493.55   13.90
   2  -1   7  486.05   15.80
   2  -1   7  502.05   14.20
   2  -1   7  493.25   14.70
  -3   1  -7  496.85   13.80
  -3   1  -7  510.55   13.60
  -3   1  -7  492.35   14.10
  -3   1  -7  514.65   13.60
  -3   1  -7  489.05   14.70
   3  -1   7  476.75   14.80
   3  -1   7  484.55   15.40
   3  -1   7  477.75   14.70
   3  -1   7  507.45   16.30
  -4   1  -7  230.88    7.90
  -4   1  -7  232.48    9.00
  -4   1  -7  239.28    8.00
  -4   1  -7  229.58    8.40
  -4   1  -7  210.08    9.60
   4  -1   7  226.08    9.70
   4  -1   7  238.68   10.10
   4  -1   7  237.68    9.70
   5  -1   7  696.93   17.80
   5  -1   7  687.63   19.50
   5  -1   7  684.33   18.60
   5  -1   7  664.53   17.70
   5  -1   7  679.73   18.90
   5  -1   7  673.43   19.10
   5  -1   7  706.43   18.50
   5  -1   7  689.73   19.80
   5  -1   7  697.53   18.80
   5  -1   7  704.83   17.80
   6  -1   7  237.98    8.60
   6  -1   7  244.48    8.60
   6  -1   7  249.88    8.60
   6  -1   7  246.28    9.90
   6  -1   7  252.97    9.70
   6  -1   7  255.27    9.50
   6  -1   7  238.88    9.00
   6  -1   7  242.28    8.00
   6  -1   7  246.28    8.10
   7  -1   7    2.80    1.00
   7  -1   7    3.20    1.10
   7  -1   7    3.00    1.20
   7  -1   7    2.20    1.20
   7  -1   7    4.00    1.10
   7  -1   7    2.40    1.00
   7  -1   7    2.20    1.00
   7  -1   7    2.20    0.80
   7  -1   7    4.60    1.30
   8  -1   7  121.89    4.10
   8  -1   7  113.49    4.10
   8  -1   7  115.99    4.50
   8  -1   7  123.89    4.00
   8  -1   7  115.59    4.20
   8  -1   7  121.09    3.90
   9   0  -7   89.79    3.90
   9   0  -7   85.99    3.90
  -9   0   7   85.79    4.10
   8   0  -7  176.38    7.60
   8   0  -7  188.48    7.90
  -8   0   7  191.78    7.50
  -8   0   7  185.28    7.50
  -8   0   7  189.38    8.10
   7   0  -7   57.59    5.20
   7   0  -7   59.59    5.40
   7   0  -7   62.09    5.10
  -7   0   7   60.89    5.40
  -7   0   7   53.69    5.00
  -7   0   7   60.69    5.80
   6   0  -7  500.15   15.60
   6   0  -7  510.35   15.00
   6   0  -7  505.85   15.70
  -6   0   7  502.65   16.30
  -6   0   7  514.35   15.80
  -6   0   7  525.55   15.80
   5   0  -7  687.53   19.90
   5   0  -7  673.93   20.00
  -5   0   7  699.93   20.50
  -5   0   7  662.23   21.70
   4   0  -7 1378.66   33.20
   4   0  -7 1331.47   32.10
   4   0  -7 1384.36   32.80
  -4   0   7 1432.26   34.00
  -4   0   7 1280.77   32.60
  -4   0   7 1372.46   35.30
   3   0  -7  899.01   22.10
   3   0  -7  939.11   22.90
   3   0  -7  919.41   21.70
   3   0  -7  896.81   22.60
  -3   0   7  929.81   22.50
  -3   0   7  971.80   23.90
  -3   0   7  913.71   24.90
  -3   0   7  873.71   22.80
   2   0  -7 8833.62  187.38
  -2   0   7 9255.77  189.08
  -2   0   7 8758.92  188.08
  -2   0   7 9060.79  190.28
  -2   0   7 9176.68  188.38
  -2   0   7 9161.38  187.68
   1   0  -7 1929.81   42.80
   1   0  -7 2009.80   41.90
   1   0  -7 1983.00   43.60
   1   0  -7 1915.31   43.20
  -1   0   7 1956.20   43.90
  -1   0   7 1908.31   45.60
  -1   0   7 2015.00   44.60
  -1   0   7 1960.50   43.40
  -1   0   7 2009.50   44.10
   0   0  -7  108.49    4.60
   0   0  -7  114.49    4.10
   0   0  -7  122.69    4.80
   0   0   7  111.89    6.00
   0   0   7  113.69    4.90
   0   0   7  114.19    5.10
   0   0   7  109.19    5.30
   0   0   7  113.59    5.00
   0   0   7  108.69    3.90
  -1   0  -7 4387.46   90.29
  -1   0  -7 4193.68   89.39
  -1   0  -7 4190.78   89.19
   1   0   7 4224.98   90.69
   1   0   7 4312.07   90.09
   1   0   7 4184.28   90.49
   1   0   7 4081.09   89.19
   1   0   7 4211.18   92.69
  -2   0  -7  914.91   22.20
  -2   0  -7  857.71   21.20
  -2   0  -7  912.61   21.70
   2   0   7  849.81   22.40
   2   0   7  899.41   23.00
   2   0   7  876.01   24.20
   2   0   7  884.11   22.30
  -3   0  -7   35.90    3.10
  -3   0  -7   33.20    3.50
  -3   0  -7   31.40    3.20
  -3   0  -7   38.20    2.90
  -3   0  -7   35.60    3.00
   3   0   7   31.30    4.00
   3   0   7   43.80    4.40
   3   0   7   36.10    4.00
  -4   0  -7  125.39    5.30
   4   0   7  123.39    5.60
   4   0   7  122.69    5.20
   4   0   7  116.09    5.20
   4   0   7  115.09    7.10
   4   0   7  121.09    5.80
   4   0   7  113.49    5.60
   4   0   7  114.69    5.90
   4   0   7  119.99    5.80
   4   0   7  113.19    6.10
   5   0   7  405.46   12.60
   5   0   7  406.76   12.40
   5   0   7  419.66   13.90
   5   0   7  416.16   12.50
   5   0   7  402.66   11.60
   5   0   7  416.16   13.00
   5   0   7  412.46   13.30
   5   0   7  399.06   11.60
   6   0   7  149.29    6.40
   6   0   7  156.08    6.30
   6   0   7  148.69    6.50
   6   0   7  160.98    7.40
   6   0   7  143.59    6.80
   6   0   7  162.78    7.10
   6   0   7  156.18    6.20
   6   0   7  152.18    5.70
   7   0   7   96.79    4.20
   7   0   7   94.99    3.90
   7   0   7   99.29    4.70
   7   0   7  104.79    4.50
   7   0   7   96.09    4.30
   7   0   7   97.29    4.60
   7   0   7   97.99    4.90
   7   0   7  102.49    4.30
   9  -1  -7   13.70    2.00
   9  -1  -7   10.30    1.70
  -9   1   7   11.50    1.90
  -9   1   7   11.00    1.90
   8  -1  -7   97.09    5.40
   8  -1  -7  105.79    5.70
  -8   1   7   96.89    5.80
  -8   1   7   99.39    5.50
   7  -1  -7  420.86   13.10
   7  -1  -7  418.06   13.90
   7  -1  -7  421.46   13.90
  -7   1   7  425.16   14.20
  -7   1   7  436.96   14.50
  -7   1   7  429.36   14.10
   6  -1  -7   89.29    5.20
   6  -1  -7   87.39    4.80
   6  -1  -7   91.19    5.20
  -6   1   7   88.19    5.40
  -6   1   7   93.49    5.80
  -6   1   7   95.59    5.90
  -6   1   7   90.99    5.60
   5  -1  -7 1063.19   27.50
   5  -1  -7 1022.30   27.40
  -5   1   7 1102.69   28.70
  -5   1   7 1088.79   29.90
  -5   1   7 1040.60   27.60
   4  -1  -7    4.90    1.30
   4  -1  -7    4.70    1.40
   4  -1  -7    4.10    1.20
  -4   1   7    4.60    1.70
  -4   1   7    4.40    1.50
  -4   1   7    4.60    1.60
   3  -1  -7  489.95   13.70
   3  -1  -7  515.35   13.70
   3  -1  -7  489.25   13.00
   3  -1  -7  490.75   13.20
  -3   1   7  504.75   14.70
  -3   1   7  504.55   14.50
  -3   1   7  466.45   14.10
  -3   1   7  483.05   15.30
   2  -1  -7 5380.56  110.59
   2  -1  -7 5354.86  111.19
   2  -1  -7 5139.79  109.69
   2  -1  -7 5069.69  110.69
  -2   1   7 5283.37  111.99
  -2   1   7 5412.06  111.89
  -2   1   7 5275.97  112.09
  -2   1   7 5182.38  112.99
   1  -1  -7 2054.49   44.00
   1  -1  -7 2062.69   45.60
   1  -1  -7 2038.00   44.80
   1  -1  -7 2051.69   45.60
  -1   1   7 2018.70   44.70
  -1   1   7 2032.50   47.50
  -1   1   7 2078.99   46.40
  -1   1   7 2074.09   46.70
  -1   1   7 2114.69   46.20
   0  -1  -7  112.39    4.40
   0  -1  -7  111.29    4.90
   0  -1  -7  121.59    5.00
   0   1   7  119.69    5.20
   0   1   7  111.19    5.90
   0   1   7  124.19    5.50
   0   1   7  109.39    5.30
   0   1   7  106.39    4.70
  -1  -1  -7   32.50    3.20
  -1  -1  -7   31.80    2.40
  -1  -1  -7   30.10    2.30
  -1  -1  -7   36.20    2.80
   1   1   7   28.80    2.90
   1   1   7   31.10    2.90
   1   1   7   30.70    3.10
   1   1   7   28.10    3.10
   1   1   7   30.20    3.60
  -2  -1  -7  389.06   11.50
  -2  -1  -7  393.86   11.20
  -2  -1  -7  369.16   10.90
   2   1   7  368.86   12.80
   2   1   7  391.26   11.80
   2   1   7  376.16   11.80
   2   1   7  377.66   12.10
  -3  -1  -7   81.69    4.00
  -3  -1  -7   82.69    4.50
  -3  -1  -7   83.49    4.80
  -3  -1  -7   81.99    4.10
   3   1   7   80.19    5.00
   3   1   7   86.39    5.30
   4   1   7  579.44   15.70
   4   1   7  621.44   17.10
   4   1   7  625.94   16.80
   4   1   7  602.54   17.70
   4   1   7  610.24   17.40
   4   1   7  628.04   16.50
   4   1   7  600.54   15.80
   4   1   7  609.74   16.90
   5   1   7  565.64   16.00
   5   1   7  613.44   17.80
   5   1   7  592.54   16.70
   5   1   7  591.74   16.50
   5   1   7  603.64   17.30
   5   1   7  588.14   15.30
   5   1   7  596.04   16.30
   6   1   7    7.10    1.80
   6   1   7    8.50    1.50
   6   1   7    9.40    1.70
   6   1   7    8.00    1.70
   6   1   7    7.10    1.30
   6   1   7    9.30    2.00
   6   1   7   10.20    2.00
   6   1   7    6.20    1.70
   7   1   7   61.79    3.00
   7   1   7   68.89    3.60
   7   1   7   64.69    3.30
   7   1   7   59.09    3.10
   7   1   7   65.59    3.10
   7   1   7   63.99    3.10
   7   1   7   63.39    3.30
   9  -2  -7   10.30    1.80
   9  -2  -7    7.70    1.60
  -9   2   7    8.70    1.80
  -9   2   7    5.20    1.40
   8  -2  -7   -1.00    0.80
   8  -2  -7    4.10    1.50
   8  -2  -7    2.40    1.40
  -8   2   7    3.90    1.80
  -8   2   7    6.00    1.90
  -8   2   7    6.80    1.70
   7  -2  -7    5.60    1.70
   7  -2  -7    6.40    1.60
   7  -2  -7    4.60    1.70
  -7   2   7    3.30    1.50
  -7   2   7    2.60    1.50
  -7   2   7    1.90    1.50
   6  -2  -7  590.94   17.00
   6  -2  -7  609.84   17.00
   6  -2  -7  590.04   16.30
  -6   2   7  622.64   18.00
  -6   2   7  593.64   18.10
  -6   2   7  597.04   17.90
   5  -2  -7 1904.41   44.80
   5  -2  -7 1877.11   45.00
  -5   2   7 1909.31   46.60
  -5   2   7 2048.10   46.40
   4  -2  -7  201.58    7.70
   4  -2  -7  221.18    7.60
   4  -2  -7  190.18    7.20
   4  -2  -7  211.58    7.70
  -4   2   7  180.48    8.70
  -4   2   7  208.08    8.70
  -4   2   7  223.98    8.80
  -4   2   7  204.88    8.50
   3  -2  -7  240.98    7.40
   3  -2  -7  251.17    7.80
   3  -2  -7  239.48    8.40
   3  -2  -7  237.38    8.10
  -3   2   7  241.38    9.30
  -3   2   7  255.97    9.30
  -3   2   7  239.78    8.40
  -3   2   7  244.18    9.50
  -3   2   7  248.88    9.20
   2  -2  -7 2709.33   59.59
   2  -2  -7 2891.91   60.59
   2  -2  -7 2718.03   61.09
  -2   2   7 2712.23   61.79
  -2   2   7 2925.11   61.49
  -2   2   7 2785.62   61.69
  -2   2   7 2748.53   62.29
  -2   2   7 2826.22   62.29
   1  -2  -7  535.05   14.50
   1  -2  -7  520.85   13.60
   1  -2  -7  498.15   12.80
  -1   2   7  531.65   15.10
  -1   2   7  515.15   14.60
  -1   2   7  492.65   14.70
  -1   2   7  510.35   15.20
  -1   2   7  511.65   14.40
   0  -2  -7 2138.19   47.00
   0  -2  -7 2146.79   45.30
   0  -2  -7 2005.00   45.80
   0   2   7 2079.39   47.50
   0   2   7 2086.59   47.00
   0   2   7 2088.59   47.90
   0   2   7 2088.29   47.40
   0   2   7 2078.39   46.90
  -1  -2  -7 1032.60   26.40
  -1  -2  -7 1089.69   26.40
  -1  -2  -7 1114.79   25.90
   1   2   7 1124.59   28.00
   1   2   7 1136.19   27.20
   1   2   7 1111.99   26.60
   1   2   7 1147.59   26.90
  -2  -2  -7   12.80    2.10
  -2  -2  -7   12.70    1.90
  -2  -2  -7   14.80    1.90
  -2  -2  -7   13.30    2.00
   2   2   7   11.10    2.10
   2   2   7   14.70    2.60
   2   2   7   16.50    2.60
  -3  -2  -7   24.40    3.00
  -3  -2  -7   31.10    3.80
  -3  -2  -7   27.80    2.70
  -3  -2  -7   26.90    2.90
   3   2   7   28.00    3.70
   4   2   7  112.29    5.80
   4   2   7  116.39    5.40
   4   2   7  112.39    5.20
   4   2   7  106.09    6.00
   4   2   7  115.99    5.60
   4   2   7  107.09    5.20
   5   2   7   34.60    3.90
   5   2   7   29.60    3.10
   5   2   7   33.10    3.10
   5   2   7   36.10    3.40
   5   2   7   36.70    3.80
   5   2   7   39.00    3.40
   6   2   7   78.79    4.50
   6   2   7   82.89    4.30
   6   2   7   83.29    4.00
   6   2   7   83.99    4.40
   6   2   7   84.79    4.20
   6   2   7   88.99    4.00
   6   2   7   88.09    4.10
   7   2   7   11.30    1.50
   7   2   7    9.80    1.20
   7   2   7   10.80    1.30
   7   2   7   12.10    1.30
   7   2   7   11.60    1.40
   9  -3  -7  286.17    9.10
   9  -3  -7  309.87    9.50
  -9   3   7  295.97    9.40
  -9   3   7  279.77    9.40
  -9   3   7  290.97    9.30
   8  -3  -7  886.71   23.20
   8  -3  -7  889.31   23.20
  -8   3   7  891.81   23.60
  -8   3   7  851.81   23.80
  -8   3   7  887.91   23.50
   7  -3  -7  381.56   12.70
   7  -3  -7  386.66   12.00
   7  -3  -7  415.36   13.20
  -7   3   7  399.16   13.60
  -7   3   7  399.66   14.10
  -7   3   7  400.86   14.00
  -7   3   7  397.46   13.60
   6  -3  -7  447.46   13.20
   6  -3  -7  436.46   13.00
   6  -3  -7  433.16   12.40
  -6   3   7  337.47   13.20
  -6   3   7  452.45   15.10
  -6   3   7  443.16   14.10
  -6   3   7  447.56   14.70
   5  -3  -7   58.49    4.10
   5  -3  -7   56.59    4.10
   5  -3  -7   56.29    4.10
  -5   3   7   57.99    5.70
  -5   3   7   54.29    5.50
   4  -3  -7   18.70    2.50
   4  -3  -7   16.70    2.50
   4  -3  -7   16.90    2.30
   4  -3  -7   17.50    2.40
  -4   3   7   18.10    3.20
  -4   3   7   14.90    2.70
  -4   3   7   20.90    3.30
  -4   3   7   16.10    2.50
   3  -3  -7 1488.85   34.00
   3  -3  -7 1415.36   34.30
   3  -3  -7 1490.25   33.30
   3  -3  -7 1381.86   32.60
  -3   3   7 1446.36   35.20
  -3   3   7 1420.86   35.30
  -3   3   7 1478.45   34.70
  -3   3   7 1507.65   36.20
   2  -3  -7   77.89    3.80
   2  -3  -7   76.19    3.50
   2  -3  -7   80.69    4.60
   2  -3  -7   86.09    4.30
  -2   3   7   83.29    5.20
  -2   3   7   77.89    4.80
  -2   3   7   82.69    4.80
  -2   3   7   78.09    4.70
   1  -3  -7    8.70    1.40
   1  -3  -7   11.60    2.20
   1  -3  -7   12.80    2.00
  -1   3   7   10.60    2.20
  -1   3   7   11.20    2.10
  -1   3   7    8.50    1.80
  -1   3   7    7.80    1.70
   0  -3  -7  166.28    6.40
   0  -3  -7  151.88    6.00
   0  -3  -7  159.48    6.90
   0   3   7  164.58    6.70
   0   3   7  163.28    7.20
   0   3   7  164.48    6.90
   0   3   7  156.18    6.50
  -1  -3  -7  450.35   13.30
  -1  -3  -7  476.05   13.90
   1   3   7  478.75   14.20
   3   3   7   33.80    3.60
   3   3   7   32.30    3.30
   3   3   7   36.00    3.50
   4   3   7 1260.27   29.60
   4   3   7 1258.17   30.60
   4   3   7 1250.47   31.20
   4   3   7 1220.68   29.90
   5   3   7   52.19    3.20
   5   3   7   55.89    3.30
   5   3   7   51.59    3.30
   5   3   7   49.00    4.00
   5   3   7   51.19    4.50
   6   3   7  127.39    4.70
   6   3   7  127.19    4.60
   6   3   7  130.19    5.30
   6   3   7  128.09    4.90
   6   3   7  123.09    4.90
   6   3   7  122.59    4.60
   9  -4  -7  236.88    8.00
   9  -4  -7  248.78    8.20
  -9   4   7  236.78    8.30
  -9   4   7  256.47    8.70
   8  -4  -7   32.70    3.50
   8  -4  -7   31.30    3.30
   8  -4  -7   28.90    3.30
  -8   4   7   38.40    4.10
  -8   4   7   32.90    4.00
  -8   4   7   31.50    3.90
   7  -4  -7  403.26   12.90
   7  -4  -7  409.16   12.80
   7  -4  -7  399.96   12.00
  -7   4   7  407.56   14.40
  -7   4   7  406.96   14.50
  -7   4   7  413.26   13.70
   6  -4  -7 4286.27   92.79
   6  -4  -7 4344.97   92.99
  -6   4   7 4344.47   94.39
  -6   4   7 4349.67   91.79
  -6   4   7 4261.07   95.49
  -6   4   7 4299.37   96.19
   5  -4  -7 1548.05   37.10
   5  -4  -7 1527.05   35.90
   5  -4  -7 1578.14   37.00
  -5   4   7 1563.84   39.00
  -5   4   7 1494.25   35.30
  -5   4   7 1545.65   35.00
  -5   4   7 1562.04   38.20
  -5   4   7 1520.95   38.80
  -5   4   7 1603.84   39.80
   4  -4  -7 1427.76   33.50
   4  -4  -7 1404.36   33.30
   4  -4  -7 1368.46   33.80
   4  -4  -7 1412.26   34.40
  -4   4   7 1454.45   35.50
  -4   4   7 1426.16   34.80
  -4   4   7 1428.26   35.80
  -4   4   7 1467.65   36.80
   3  -4  -7 1002.30   23.80
   3  -4  -7  960.60   24.30
   3  -4  -7  908.41   23.10
   3  -4  -7  913.11   24.70
  -3   4   7 1001.00   25.60
  -3   4   7  990.20   26.70
  -3   4   7  963.30   25.60
  -3   4   7  973.80   25.40
   2  -4  -7  303.17    9.50
   2  -4  -7  338.17   10.70
   2  -4  -7  328.97   11.40
   2  -4  -7  334.97   10.00
  -2   4   7  326.57   11.60
  -2   4   7  321.97   11.30
  -2   4   7  326.47   12.10
   1  -4  -7 1319.87   30.90
   1  -4  -7 1303.07   30.10
   1  -4  -7 1215.68   29.80
  -1   4   7 1269.47   32.40
  -1   4   7 1271.87   31.90
  -1   4   7 1292.17   31.30
  -1   4   7 1271.17   32.00
   0  -4  -7  746.43   19.90
   0  -4  -7  772.12   20.40
   0   4   7  759.02   21.20
   0   4   7  766.12   21.20
   0   4   7  760.62   21.00
  -1  -4  -7  467.55   15.80
   3   4   7    0.00    0.80
   3   4   7    0.60    0.80
   5   4   7   47.20    3.80
   5   4   7   42.70    3.30
   5   4   7   41.40    2.70
   9  -5  -7  232.58    7.70
   9  -5  -7  219.68    7.40
  -9   5   7  225.18    7.60
  -9   5   7  231.88    8.20
   8  -5  -7  825.42   20.80
   8  -5  -7  828.22   21.50
   8  -5  -7  834.22   21.60
  -8   5   7  821.32   23.10
  -8   5   7  827.12   22.20
  -8   5   7  903.61   23.40
   7  -5  -7   22.90    2.90
   7  -5  -7   32.30    3.30
   7  -5  -7   28.40    3.20
  -7   5   7   23.00    3.70
  -7   5   7   25.70    4.00
  -7   5   7   20.70    3.20
   6  -5  -7  142.39    6.10
   6  -5  -7  135.79    6.00
  -6   5   7  138.59    5.60
  -6   5   7  149.79    7.80
  -6   5   7  132.19    7.80
  -6   5   7  138.69    7.30
   5  -5  -7  447.06   12.40
  -5   5   7  434.56   12.50
  -5   5   7  447.16   15.50
  -5   5   7  442.26   14.80
  -5   5   7  450.35   14.30
  -5   5   7  438.56   12.10
  -5   5   7  406.96   14.40
  -5   5   7  439.16   11.80
   4  -5  -7 1397.46   34.70
   4  -5  -7 1494.05   34.40
   4  -5  -7 1477.65   35.70
   4  -5  -7 1442.76   34.30
  -4   5   7 1360.26   36.60
  -4   5   7 1474.85   36.40
  -4   5   7 1452.45   37.90
   3  -5  -7  408.46   14.00
   3  -5  -7  417.06   13.40
   3  -5  -7  429.56   12.60
   3  -5  -7  469.55   13.10
  -3   5   7  408.26   15.20
  -3   5   7  439.26   14.80
  -3   5   7  422.86   14.40
   2  -5  -7 3029.60   66.09
   2  -5  -7 3034.10   64.99
   2  -5  -7 2876.61   64.49
  -2   5   7 2994.50   67.39
  -2   5   7 2826.92   67.99
  -2   5   7 2846.42   67.39
  -2   5   7 3072.99   66.89
   1  -5  -7  133.39    6.20
   1  -5  -7  138.69    6.60
   1  -5  -7  143.19    7.40
  -1   5   7  135.29    7.40
  -1   5   7  129.49    7.00
  -1   5   7  125.09    7.10
   0  -5  -7    8.80    2.10
   0  -5  -7    8.60    2.00
   0   5   7    8.80    2.40
   0   5   7   10.40    2.70
   1   5   7   -0.10    1.20
   3   5   7   -0.30    0.70
   3   5   7   -0.70    0.80
   4   5   7   -0.30    0.70
   4   5   7    0.60    0.80
   4   5   7    0.20    0.80
   5   5   7    0.50    0.70
   5   5   7    0.00    0.60
   5   5   7    0.20    0.60
   9  -6  -7   18.10    2.00
   9  -6  -7   18.20    2.10
  -9   6   7   22.60    2.50
  -9   6   7    7.00    2.20
  -9   6   7   19.10    2.40
   8  -6  -7  398.56   11.60
   8  -6  -7  396.06   12.10
   8  -6  -7  433.76   12.40
  -8   6   7  425.86   13.90
  -8   6   7  404.36   13.40
   7  -6  -7  401.66   12.30
   7  -6  -7  406.86   12.30
   7  -6  -7  398.36   11.70
  -7   6   7  388.46   13.30
  -7   6   7  383.66   13.70
  -7   6   7  378.36   14.20
   6  -6  -7  356.26   11.20
   6  -6  -7  349.77   10.60
  -6   6   7  355.96   12.40
  -6   6   7  362.26   11.20
  -6   6   7  355.36   13.10
  -6   6   7  364.76   10.60
  -6   6   7  351.16   13.80
  -6   6   7  371.96   13.40
  -5   6   7  861.21   23.70
  -5   6   7  908.81   21.70
  -5   6   7  903.71   22.50
  -5   6   7  914.61   25.30
  -5   6   7  922.41   25.30
  -5   6   7  880.91   22.10
  -5   6   7  922.21   24.80
  -5   6   7  919.51   22.00
  -5   6   7  896.71   26.00
  -4   6   7  107.19    4.80
  -4   6   7  104.59    4.70
  -4   6   7  111.19    6.90
  -4   6   7  108.99    6.30
  -4   6   7  104.99    6.10
  -4   6   7  111.29    5.00
  -4   6   7  109.79    5.50
  -4   6   7  107.79    5.00
  -4   6   7  108.39    5.60
  -4   6   7  104.29    6.30
   3  -6  -7  737.83   19.60
  -3   6   7  715.73   19.50
  -3   6   7  716.83   20.80
  -3   6   7  727.53   18.40
  -3   6   7  719.03   19.80
  -3   6   7  718.03   20.80
  -3   6   7  701.43   18.30
  -3   6   7  714.03   18.30
  -3   6   7  717.43   21.40
  -3   6   7  708.43   21.50
  -3   6   7  736.33   18.70
  -3   6   7  708.23   20.40
   2  -6  -7 1548.45   36.30
  -2   6   7 1447.96   34.00
  -2   6   7 1445.46   36.10
  -2   6   7 1453.45   34.20
  -2   6   7 1450.05   34.10
  -2   6   7 1470.25   35.60
  -2   6   7 1475.45   36.40
  -2   6   7 1461.65   33.90
  -2   6   7 1416.46   35.90
  -2   6   7 1483.15   35.60
  -1   6   7  682.13   18.70
  -1   6   7  676.63   18.40
  -1   6   7  697.63   19.60
  -1   6   7  717.63   20.00
  -1   6   7  706.53   19.60
  -1   6   7  696.43   18.30
  -1   6   7  720.63   20.00
  -1   6   7  707.43   18.60
   0   6   7  145.99    7.00
   0   6   7  163.18    6.80
   0   6   7  165.58    6.90
   0   6   7  157.58    6.80
   0   6   7  159.78    6.60
   0   6   7  164.48    7.30
   0   6   7  160.28    7.30
   2   6   7    0.20    0.80
   2   6   7   -0.30    0.80
   2   6   7   -0.20    0.70
   3   6   7   -0.80    0.70
   4   6   7    0.20    0.90
   9  -7  -7  458.75   11.70
  -9   7   7  441.26   12.10
  -9   7   7  462.15   12.40
   8  -7  -7   -0.10    0.80
   8  -7  -7    1.80    0.80
   8  -7  -7    1.10    0.90
  -8   7   7    0.60    1.10
  -8   7   7   -0.70    1.10
  -8   7   7    2.10    1.30
   7  -7  -7   26.50    2.80
   7  -7  -7   30.80    3.20
   7  -7  -7   31.30    3.00
  -7   7   7   28.10    3.60
  -7   7   7   32.00    4.40
  -7   7   7   26.10    3.70
   6  -7  -7   58.09    4.40
   6  -7  -7   57.59    3.40
  -6   7   7   51.59    4.00
  -6   7   7   47.40    5.50
  -6   7   7   52.09    5.40
  -6   7   7   55.09    3.20
  -6   7   7   55.69    5.20
  -6   7   7   57.59    5.70
   5  -7  -7    2.20    1.10
  -5   7   7    4.40    1.30
  -5   7   7    2.70    1.80
  -5   7   7    2.90    1.80
  -5   7   7    4.40    1.90
  -5   7   7    1.70    1.40
  -5   7   7    3.50    1.20
  -5   7   7    3.40    1.40
  -5   7   7    6.40    1.50
  -5   7   7    2.30    1.30
  -5   7   7    2.20    0.90
  -4   7   7    2.70    1.10
  -4   7   7    3.00    1.40
  -4   7   7    0.70    1.40
  -4   7   7    1.90    1.50
  -4   7   7    1.20    1.10
  -4   7   7    2.10    1.00
  -4   7   7    1.40    1.40
  -4   7   7    1.70    0.90
  -4   7   7    7.00    2.40
  -4   7   7    0.00    0.50
  -4   7   7    4.00    1.30
  -3   7   7   94.29    6.00
  -3   7   7   93.19    5.40
  -3   7   7   87.49    4.80
  -3   7   7   99.19    6.00
  -3   7   7   94.89    4.70
  -3   7   7   90.39    5.50
  -3   7   7  100.69    6.20
  -3   7   7   90.09    4.60
  -3   7   7   90.89    4.70
  -2   7   7  171.88    7.90
  -2   7   7  181.28    8.40
  -2   7   7  177.48    7.20
  -2   7   7  178.08    8.40
  -2   7   7  176.18    8.30
  -2   7   7  177.18    7.10
  -2   7   7  174.58    7.00
  -2   7   7  183.28    8.00
  -2   7   7  181.68    7.10
  -1   7   7    8.40    2.10
  -1   7   7   10.10    2.10
  -1   7   7    9.90    2.20
  -1   7   7   14.40    2.30
  -1   7   7   12.20    2.40
  -1   7   7   12.30    2.20
  -1   7   7   13.00    2.60
  -1   7   7    9.80    1.90
   0   7   7  758.92   20.50
   0   7   7  779.32   21.10
   0   7   7  753.22   19.70
   0   7   7  741.83   20.10
   0   7   7  745.83   20.00
   0   7   7  756.22   20.00
   1   7   7   20.20    2.70
   1   7   7   20.80    2.70
   1   7   7   16.40    2.40
   1   7   7   13.20    2.10
   2   7   7   -0.50    0.70
   2   7   7    1.00    0.80
   2   7   7   -0.90    0.60
   8  -8  -7  177.08    6.00
   8  -8  -7  161.18    5.40
   8  -8  -7  158.08    5.70
  -8   8   7  176.68    6.40
  -8   8   7  162.68    6.30
  -8   8   7  171.18    7.00
   7  -8  -7  156.98    5.90
   7  -8  -7  134.39    5.30
   7  -8  -7  145.79    5.70
  -7   8   7  123.19    5.80
  -7   8   7  146.99    6.90
  -7   8   7  146.99    7.30
   6  -8  -7  671.73   16.90
   6  -8  -7  678.03   17.60
  -6   8   7  686.33   16.80
  -6   8   7  627.34   19.00
  -6   8   7  689.53   17.50
  -6   8   7  683.63   19.90
  -6   8   7  673.53   22.50
  -6   8   7  678.73   20.50
   5  -8  -7    2.60    1.00
  -5   8   7    3.10    1.10
  -5   8   7    2.50    1.80
  -5   8   7    2.90    1.00
  -5   8   7    3.60    1.50
  -5   8   7   10.40    2.50
  -5   8   7    3.50    1.70
  -5   8   7    3.50    1.20
  -5   8   7    5.30    1.20
  -5   8   7    2.30    1.20
  -5   8   7    2.80    1.80
  -4   8   7  306.87    9.60
  -4   8   7  311.47   11.80
  -4   8   7  299.47    9.80
  -4   8   7  294.27   10.60
  -4   8   7  305.17   11.90
  -4   8   7  301.47    9.60
  -4   8   7  292.87   11.40
  -4   8   7  298.87   10.40
  -4   8   7  308.87    9.50
  -3   8   7  228.08    9.80
  -3   8   7  239.28   10.00
  -3   8   7  231.28    8.20
  -3   8   7  230.88    9.20
  -3   8   7  230.38    8.10
  -3   8   7  231.08    8.10
  -3   8   7  231.18    8.40
  -3   8   7  237.18   10.10
  -3   8   7  241.18    9.50
  -2   8   7   85.69    4.60
  -2   8   7   89.69    5.40
  -2   8   7   95.09    5.80
  -2   8   7   91.79    5.80
  -2   8   7   93.79    4.90
  -2   8   7   82.19    4.60
  -2   8   7   91.79    5.50
  -2   8   7   88.19    4.70
  -1   8   7    1.10    0.90
  -1   8   7    1.90    1.10
  -1   8   7    0.10    1.00
  -1   8   7    1.40    1.10
  -1   8   7    0.40    0.80
  -1   8   7    0.80    0.90
  -1   8   7    3.00    1.70
  -1   8   7   -0.10    0.80
   0   8   7   83.19    4.40
   0   8   7   73.79    4.60
   0   8   7   44.40    4.20
   0   8   7   72.99    4.30
   0   8   7   75.19    4.10
   0   8   7   78.49    4.20
   1   8   7   21.70    2.30
   1   8   7   17.90    2.40
   1   8   7   17.90    2.10
   1   8   7   20.40    2.40
   7  -9  -7    0.30    0.60
   7  -9  -7    0.30    0.70
   7  -9  -7    0.90    0.70
  -7   9   7    0.00    0.80
  -7   9   7    0.20    1.00
  -7   9   7    0.50    1.00
   6  -9  -7    1.30    0.80
   6  -9  -7    0.50    0.60
  -6   9   7    1.30    1.40
  -6   9   7    0.20    1.10
  -6   9   7    0.60    1.00
  -6   9   7    1.30    0.70
  -6   9   7    1.70    1.40
  -6   9   7    1.40    0.90
   5  -9  -7  655.03   16.30
  -5   9   7  655.63   16.50
  -5   9   7  628.34   19.10
  -5   9   7  661.83   16.20
  -5   9   7  704.23   19.30
  -5   9   7  651.23   16.80
  -5   9   7  658.43   17.00
  -5   9   7  687.13   17.10
  -5   9   7  669.03   18.50
  -5   9   7  641.54   17.30
  -4   9   7  109.29    4.80
  -4   9   7  122.09    6.40
  -4   9   7  120.09    5.20
  -4   9   7  118.39    6.40
  -4   9   7  112.69    5.70
  -4   9   7  110.89    5.50
  -4   9   7  114.89    6.40
  -4   9   7  114.69    5.00
  -4   9   7  112.79    4.90
  -3   9   7  330.97   10.30
  -3   9   7  327.27   10.10
  -3   9   7  327.67   11.20
  -3   9   7  319.97    9.90
  -3   9   7  350.26   12.10
  -3   9   7  340.27   11.90
  -3   9   7  327.67   11.20
  -3   9   7  330.37   10.10
  -2   9   7    2.40    1.30
  -2   9   7    2.30    1.00
  -2   9   7    2.30    1.30
  -2   9   7    0.90    1.10
  -2   9   7    4.30    1.20
  -2   9   7    1.00    1.00
  -2   9   7    1.20    1.20
  -2   9   7    0.60    0.80
  -2   9   7    2.80    1.10
  -1   9   7  208.48    7.30
  -1   9   7  213.48    7.50
  -1   9   7  204.18    7.20
  -1   9   7  211.38    7.90
  -1   9   7  200.88    7.20
  -1   9   7  215.28    8.10
   0   9   7  215.48    7.30
   0   9   7  232.38    7.40
   0   9   7  218.88    7.20
   0   9   7  228.68    7.90
   0   9   7  229.18    7.20
   1   9   7   55.19    2.50
   1   9   7   51.39    2.60
   1   9   7   48.20    2.60
   1   9   7   50.99    2.70
   7 -10  -7  163.28    5.10
  -7  10   7  151.18    5.60
   6 -10  -7   71.89    3.00
   6 -10  -7   74.49    3.30
  -6  10   7   72.29    3.90
  -6  10   7   64.29    3.90
  -6  10   7   71.59    3.50
  -6  10   7   71.79    2.80
   5 -10  -7  155.88    5.10
  -5  10   7  163.08    6.70
  -5  10   7  152.08    6.30
  -5  10   7  151.48    5.40
  -5  10   7  155.38    5.70
  -5  10   7  157.78    5.10
  -5  10   7  165.08    5.60
  -5  10   7  144.99    6.50
  -5  10   7  154.88    4.90
   4 -10  -7  473.85   12.30
  -4  10   7  500.15   13.50
  -4  10   7  511.65   13.10
  -4  10   7  495.65   12.70
  -4  10   7  516.25   14.50
  -4  10   7  506.35   13.80
  -4  10   7  502.45   12.60
  -4  10   7  497.95   12.90
  -4  10   7  477.35   14.40
  -3  10   7  125.59    4.70
  -3  10   7  117.89    5.50
  -3  10   7  117.79    5.20
  -3  10   7  115.69    4.60
  -3  10   7  107.99    4.50
  -3  10   7  113.09    4.70
  -3  10   7  127.89    5.50
  -3  10   7  107.39    5.40
  -3  10   7  115.09    4.20
  -2  10   7   23.80    2.30
  -2  10   7   25.00    2.30
  -2  10   7   23.10    2.60
  -2  10   7   29.20    2.80
  -2  10   7   23.20    2.20
  -2  10   7   21.20    1.90
  -2  10   7   24.70    2.30
  -2  10   7   25.00    2.70
  -1  10   7   83.29    3.50
  -1  10   7   76.89    3.50
  -1  10   7   75.59    3.10
  -1  10   7   81.89    3.70
  -1  10   7   84.89    3.50
  -1  10   7   80.09    3.40
  -1  10   7   76.39    3.80
   0  10   7    2.30    1.20
   0  10   7    1.40    0.60
   0  10   7    1.80    0.70
   0  10   7    1.40    0.60
   0  10   7    1.20    0.60
  -5  11   7   14.90    1.70
  -5  11   7   10.40    1.50
  -4  11   7   89.79    3.10
  -4  11   7   93.29    4.00
  -4  11   7   88.69    3.50
  -4  11   7   90.09    3.90
  -4  11   7   91.39    3.70
  -4  11   7   96.09    3.20
  -4  11   7   97.19    3.50
  -3  11   7    6.80    0.90
  -3  11   7    6.80    0.90
  -3  11   7    6.00    1.10
  -3  11   7    6.70    1.00
  -3  11   7    5.50    1.00
  -3  11   7    6.10    1.20
  -3  11   7    6.70    0.90
   0  11  -8   97.59    4.50
   0  11  -8   90.99    4.20
   0 -11   8   97.19    3.60
   0 -11   8   95.89    3.80
   0 -11   8   97.59    3.70
  -1  11  -8    9.20    1.70
  -1  11  -8    8.00    1.50
  -1  11  -8    5.70    1.40
   1 -11   8    5.30    1.20
   1 -11   8    7.10    1.20
  -2  11  -8   58.39    3.70
  -2  11  -8   59.39    3.70
   2 -11   8   60.09    3.20
   2 -11   8   58.99    3.20
  -3  11  -8  141.59    5.70
  -3  11  -8  132.69    5.30
   3 -11   8  133.59    5.10
   3 -11   8  140.59    5.20
  -4  11  -8   38.50    3.10
  -4  11  -8   42.60    3.60
   4 -11   8   39.70    2.50
   4 -11   8   40.50    2.50
  -5  11  -8  118.89    4.70
  -5  11  -8  117.09    5.30
   5 -11   8  126.39    4.40
   5 -11   8  117.59    5.10
   2  10  -8  539.15   13.40
   2  10  -8  532.75   14.40
  -2 -10   8  522.85   13.00
  -2 -10   8  532.05   13.20
   1  10  -8  380.86   11.50
   1  10  -8  413.06   12.60
   1  10  -8  386.86   11.00
  -1 -10   8  390.56   10.90
  -1 -10   8  394.06   10.40
  -1 -10   8  395.66   11.00
   0  10  -8  169.98    7.60
   0  10  -8  182.98    7.40
   0 -10   8  171.98    6.20
   0 -10   8  184.58    6.60
   0 -10   8  182.68    6.60
  -1  10  -8  220.48    9.00
  -1  10  -8  222.78    8.70
  -1  10  -8  252.17    9.10
   1 -10   8  223.08    7.80
   1 -10   8  245.28    8.10
   1 -10   8  225.58    7.60
  -2  10  -8  161.68    7.30
  -2  10  -8  172.08    7.40
   2 -10   8  159.88    6.30
   2 -10   8  178.38    6.70
   2 -10   8  170.78    6.50
  -3  10  -8    2.50    1.30
  -3  10  -8    1.20    1.20
  -3  10  -8    1.40    1.00
   3 -10   8    1.70    1.00
   3 -10   8    2.40    1.00
  -4  10  -8  232.78    8.40
  -4  10  -8  251.57    9.10
   4 -10   8  249.08    8.20
   4 -10   8  237.68    8.10
  -5  10  -8   -0.10    0.90
  -5  10  -8    2.80    1.10
  -5  10  -8    0.60    0.90
   5 -10   8    0.30    0.60
   5 -10   8    1.60    0.90
  -6  10  -8   57.99    3.10
  -6  10  -8   61.59    3.20
   6 -10   8   54.59    3.00
   6 -10   8   57.09    2.80
   3   9  -8    8.70    1.50
   3   9  -8   11.70    1.80
   3   9  -8    7.00    1.40
  -3  -9   8    6.10    1.30
  -3  -9   8    6.20    1.30
   2   9  -8   36.30    3.30
   2   9  -8   32.90    3.70
   2   9  -8   38.10    3.50
  -2  -9   8   33.00    2.90
  -2  -9   8   36.50    3.20
  -2  -9   8   38.70    3.30
   1   9  -8   16.00    2.40
   1   9  -8   14.80    2.80
   1   9  -8   17.80    2.70
  -1  -9   8   17.10    2.40
  -1  -9   8   15.70    2.20
   0   9  -8  136.59    6.30
   0   9  -8  143.29    7.40
   0   9  -8  152.18    7.10
   0  -9   8  149.59    6.10
   0  -9   8  142.89    6.40
   0  -9   8  155.18    6.40
  -1   9  -8  477.95   15.10
  -1   9  -8  505.15   15.50
  -1   9  -8  530.45   16.20
   1  -9   8  498.35   14.10
   1  -9   8  516.45   14.60
   1  -9   8  505.85   14.70
  -2   9  -8  461.55   14.60
  -2   9  -8  453.55   13.60
  -2   9  -8  481.05   14.70
   2  -9   8  456.85   13.70
   2  -9   8  482.85   13.90
   2  -9   8  466.35   13.40
  -3   9  -8  212.68    8.70
  -3   9  -8  220.48    8.60
  -3   9  -8  207.58    8.00
   3  -9   8  203.68    7.80
   3  -9   8  213.68    8.00
   3  -9   8  208.78    8.00
  -4   9  -8  245.88    9.50
  -4   9  -8  251.37    8.80
  -4   9  -8  252.37    9.00
   4  -9   8  248.38    8.90
   4  -9   8  264.17    8.80
   4  -9   8  247.48    8.80
  -5   9  -8   70.79    4.30
  -5   9  -8   66.89    4.00
  -5   9  -8   71.39    4.20
   5  -9   8   76.59    4.20
   5  -9   8   68.19    4.10
  -6   9  -8   81.59    4.20
  -6   9  -8   80.99    4.20
   6  -9   8   76.39    4.00
   6  -9   8   85.09    4.20
  -7   9  -8  254.37    7.50
   7  -9   8  235.28    7.30
   4   8  -8    1.60    0.90
   4   8  -8    0.40    0.80
   4   8  -8    4.30    1.30
  -4  -8   8    0.30    0.70
  -4  -8   8    0.60    0.80
  -4  -8   8   -0.40    0.70
   3   8  -8  261.37    9.40
   3   8  -8  271.97   10.00
   3   8  -8  292.07    9.70
  -3  -8   8  253.37    9.20
  -3  -8   8  273.87    8.80
  -3  -8   8  293.57    9.40
   2   8  -8  861.81   23.90
   2   8  -8  889.71   22.90
   2   8  -8  849.72   21.50
   2   8  -8  860.31   22.70
   2   8  -8  866.31   22.60
  -2  -8   8  841.52   22.00
  -2  -8   8  876.31   22.70
  -2  -8   8  892.91   22.70
   1   8  -8 1038.20   27.60
   1   8  -8 1008.40   26.30
   1   8  -8 1039.10   25.10
   1   8  -8 1002.10   25.90
  -1  -8   8 1023.10   25.90
  -1  -8   8 1031.30   26.20
  -1  -8   8 1016.40   25.60
   0   8  -8    3.60    1.40
   0   8  -8    4.70    1.60
   0   8  -8    4.00    1.60
   0   8  -8    5.10    1.90
   0  -8   8    3.20    1.30
   0  -8   8    4.70    1.40
   0  -8   8    4.20    1.50
  -1   8  -8  288.17   10.50
  -1   8  -8  291.97   11.00
  -1   8  -8  288.87   10.20
   1  -8   8  295.07   10.10
   1  -8   8  283.87    9.40
   1  -8   8  279.37    9.70
  -2   8  -8  107.49    5.70
  -2   8  -8  108.49    5.80
  -2   8  -8  107.19    5.20
   2  -8   8  107.09    5.20
   2  -8   8  108.79    5.60
   2  -8   8  100.79    5.20
  -3   8  -8  269.07    9.90
  -3   8  -8  283.37    9.60
  -3   8  -8  266.97    9.80
   3  -8   8  276.57    9.50
   3  -8   8  256.17    9.60
   3  -8   8  282.27    9.70
  -4   8  -8   19.20    2.60
  -4   8  -8   20.40    2.80
  -4   8  -8   21.60    3.10
   4  -8   8   25.50    3.20
   4  -8   8   14.80    2.30
   4  -8   8   16.00    2.50
  -5   8  -8  584.34   16.10
  -5   8  -8  577.24   16.30
  -5   8  -8  597.34   16.60
   5  -8   8  583.54   16.60
   5  -8   8  606.44   16.20
   5  -8   8  572.24   16.50
  -6   8  -8   56.19    3.60
  -6   8  -8   52.69    4.10
  -6   8  -8   53.99    3.50
   6  -8   8   59.09    3.80
   6  -8   8   55.99    4.40
  -7   8  -8    3.30    1.10
  -7   8  -8    4.50    1.20
   7  -8   8    3.20    1.00
   7  -8   8    1.20    0.70
   7  -8   8    3.30    1.00
   5   7  -8  181.78    6.30
   5   7  -8  177.68    6.30
   5   7  -8  190.58    6.80
  -5  -7   8  182.38    6.20
  -5  -7   8  188.88    6.60
   4   7  -8   83.09    4.90
   4   7  -8   84.89    4.90
   4   7  -8   86.19    4.70
   4   7  -8   87.09    4.10
   4   7  -8   79.89    4.60
  -4  -7   8   82.89    4.70
  -4  -7   8   87.89    4.60
   3   7  -8  285.27   10.30
   3   7  -8  267.77   10.30
   3   7  -8  290.27   10.90
   3   7  -8  285.97    9.40
  -3  -7   8  296.17   10.10
  -3  -7   8  267.67   10.20
   2   7  -8  453.35   13.40
   2   7  -8  446.76   14.00
   2   7  -8  448.46   14.30
   2   7  -8  435.16   14.80
  -2  -7   8  448.76   13.90
  -2  -7   8  475.15   14.60
   1   7  -8  440.16   13.70
   1   7  -8  444.96   14.60
   1   7  -8  459.45   15.00
   1   7  -8  439.76   13.70
  -1  -7   8  445.96   13.70
  -1  -7   8  454.85   14.20
   0   7  -8  615.94   17.20
   0   7  -8  591.84   17.80
   0   7  -8  602.74   16.70
   0  -7   8  613.94   16.70
   0  -7   8  615.34   17.10
   0  -7   8  595.54   17.30
  -1   7  -8  496.55   13.70
  -1   7  -8  526.55   14.90
  -1   7  -8  489.55   15.20
  -1   7  -8  495.25   14.50
   1  -7   8  510.75   15.10
   1  -7   8  505.55   14.80
   1  -7   8  510.95   14.40
   1  -7   8  490.75   13.80
  -2   7  -8  812.72   20.30
  -2   7  -8  817.52   21.20
  -2   7  -8  808.12   21.10
   2  -7   8  806.02   20.80
   2  -7   8  787.92   21.10
   2  -7   8  788.62   20.40
  -3   7  -8    0.30    0.90
  -3   7  -8    0.20    0.80
   3  -7   8    0.60    0.80
   3  -7   8    4.30    1.50
   3  -7   8    0.60    0.90
  -4   7  -8  225.48    8.20
  -4   7  -8  223.78    8.00
  -4   7  -8  227.18    8.50
   4  -7   8  217.58    7.60
   4  -7   8  222.38    8.60
   4  -7   8  228.28    8.60
   4  -7   8  227.88    8.70
  -5   7  -8  195.68    7.60
  -5   7  -8  197.48    7.50
   5  -7   8  185.68    7.80
   5  -7   8  195.38    7.80
   5  -7   8  191.68    8.00
   5  -7   8  187.98    7.10
  -6   7  -8   16.00    2.30
  -6   7  -8   18.20    2.40
  -6   7  -8   16.80    2.40
   6  -7   8   12.00    2.20
   6  -7   8   16.50    2.00
   6  -7   8   16.70    2.40
   6  -7   8   13.70    2.30
  -7   7  -8    6.70    1.40
  -7   7  -8    3.90    1.20
  -7   7  -8    4.80    1.10
   7  -7   8    3.40    1.10
   7  -7   8   -0.80    0.60
   7  -7   8    7.30    1.70
   6   6  -8   -0.40    0.70
   6   6  -8    1.40    0.90
   6   6  -8    0.90    0.70
  -6  -6   8    0.30    0.60
  -6  -6   8    0.90    0.80
   5   6  -8    5.80    1.60
   5   6  -8    8.80    2.00
   5   6  -8    4.60    1.40
  -5  -6   8    5.60    1.40
  -5  -6   8    6.40    1.60
  -5  -6   8    4.50    1.60
   4   6  -8  273.17   10.40
   4   6  -8  280.27    9.00
   4   6  -8  256.77   10.10
   4   6  -8  271.57    9.80
   4   6  -8  275.67   10.20
  -4  -6   8  256.57    9.90
  -4  -6   8  277.77   10.40
   3   6  -8  255.47   10.00
   3   6  -8  256.97    9.60
   3   6  -8  267.37    9.00
   3   6  -8  257.27   10.10
  -3  -6   8  262.27   10.20
  -3  -6   8  250.57    9.90
   2   6  -8 2070.89   45.70
   2   6  -8 2024.00   46.20
   2   6  -8 2054.99   47.20
   2   6  -8 1949.20   45.50
   2   6  -8 1948.91   46.40
  -2  -6   8 2009.20   48.00
  -2  -6   8 1984.30   46.60
  -2  -6   8 1962.60   46.10
   1   6  -8   59.39    5.20
   1   6  -8   71.89    5.40
   1   6  -8   64.29    4.00
  -1  -6   8   64.39    4.10
  -1  -6   8   65.89    5.40
   0   6  -8   55.09    4.30
   0   6  -8   53.59    3.90
   0   6  -8   58.79    4.80
   0  -6   8   54.39    4.50
   0  -6   8   61.39    6.00
   0  -6   8   54.69    4.10
  -1   6  -8  365.66   12.10
  -1   6  -8  393.96   13.70
   1  -6   8  393.86   13.80
   1  -6   8  352.36   12.20
  -2   6  -8  262.87    9.20
  -2   6  -8  273.07   11.70
  -2   6  -8  269.97    8.90
   2  -6   8  253.77    9.20
   2  -6   8  283.87   11.40
   2  -6   8  265.67   11.80
   2  -6   8  254.87    8.90
  -3   6  -8  219.48    7.90
   3  -6   8  220.28    7.40
   3  -6   8  213.18    7.50
   3  -6   8  213.38    7.90
   3  -6   8  224.08    8.50
   3  -6   8  215.38    8.20
   3  -6   8  216.38    8.50
  -4   6  -8  283.17    9.80
  -4   6  -8  300.17    9.60
   4  -6   8  301.37   10.50
   4  -6   8  311.37    9.60
   4  -6   8  286.27   10.20
   4  -6   8  309.67    9.60
   4  -6   8  302.07   10.30
   4  -6   8  305.37   10.60
  -5   6  -8   33.50    3.30
   5  -6   8   33.50    3.80
   5  -6   8   37.80    4.00
   5  -6   8   34.70    3.30
   5  -6   8   37.20    3.10
   5  -6   8   33.70    3.80
  -6   6  -8  373.56   11.30
   6  -6   8  347.07   11.30
   6  -6   8  369.46   12.20
   6  -6   8  379.26   12.20
   6  -6   8  371.96   11.10
   6  -6   8  353.36   10.50
  -7   6  -8  164.68    6.20
  -7   6  -8  180.58    6.60
   7  -6   8  157.88    5.50
   7  -6   8  168.18    5.90
   7  -6   8  169.58    6.10
   7  -6   8  169.48    6.70
   7  -6   8  167.98    6.90
  -8   6  -8   37.60    2.20
  -8   6  -8   38.00    2.40
   8  -6   8   38.60    2.20
   8  -6   8   37.20    2.50
   6   5  -8    1.90    1.10
   6   5  -8    5.30    1.40
   6   5  -8    5.30    1.50
  -6  -5   8    3.70    1.40
  -6  -5   8    4.20    1.30
  -6  -5   8    4.10    1.20
   5   5  -8  310.47   11.30
   5   5  -8  320.87   11.30
   5   5  -8  303.77   10.50
   5   5  -8  303.77    9.90
  -5  -5   8  299.47   11.20
  -5  -5   8  318.47   10.90
   4   5  -8  419.96   12.80
   4   5  -8  427.06   14.20
   4   5  -8  420.26   13.40
   4   5  -8  416.16   13.60
   4   5  -8  432.16   14.00
  -4  -5   8  417.46   14.30
  -4  -5   8  432.66   13.80
   3   5  -8  558.74   16.10
   3   5  -8  545.85   15.40
   3   5  -8  570.44   15.90
   3   5  -8  568.94   16.80
   3   5  -8  580.64   16.90
  -3  -5   8  567.74   16.80
  -3  -5   8  568.94   17.40
   2   5  -8  125.29    5.90
   2   5  -8  125.69    6.20
   2   5  -8  122.99    7.60
  -2  -5   8  125.39    6.20
  -2  -5   8  126.29    8.20
  -2  -5   8  135.29    6.40
   1   5  -8 1314.87   33.10
   1   5  -8 1261.47   30.40
   1   5  -8 1275.27   32.80
  -1  -5   8 1220.28   30.80
  -1  -5   8 1261.17   32.90
  -1  -5   8 1316.37   34.70
   0   5  -8  650.63   19.10
   0   5  -8  627.14   17.30
   0  -5   8  630.54   17.60
   0  -5   8  633.94   20.40
   0  -5   8  676.93   19.60
  -1   5  -8  782.62   20.60
  -1   5  -8  784.02   21.60
  -1   5  -8  799.02   19.90
   1  -5   8  783.02   22.30
   1  -5   8  775.92   20.80
   1  -5   8  819.12   23.50
  -2   5  -8  364.46   11.30
  -2   5  -8  350.76   11.00
   2  -5   8  349.87   15.10
   2  -5   8  327.57   11.50
   2  -5   8  366.76   13.20
  -3   5  -8 1826.62   41.70
  -3   5  -8 1744.43   41.50
  -3   5  -8 1833.72   40.30
   3  -5   8 1813.22   44.30
   3  -5   8 1753.22   42.70
   4  -5   8  356.56   10.70
   4  -5   8  343.07   11.70
   4  -5   8  359.56   10.50
   4  -5   8  342.57   11.60
   4  -5   8  366.96   11.80
   4  -5   8  359.06   11.70
   4  -5   8  363.76   11.00
  -5   5  -8   21.60    2.60
   5  -5   8   20.60    2.90
   5  -5   8   23.10    3.20
   5  -5   8   19.00    2.80
   5  -5   8   24.70    2.70
   5  -5   8   19.00    2.20
   5  -5   8   20.20    2.50
   5  -5   8   21.90    3.00
   5  -5   8   24.70    2.70
  -6   5  -8  286.17    9.50
   6  -5   8  296.37   10.70
   6  -5   8  294.87   10.20
   6  -5   8  296.27    9.80
   6  -5   8  293.07   10.80
   6  -5   8  297.27    8.90
   6  -5   8  293.87    9.30
   6  -5   8  297.87    9.20
   6  -5   8  297.37    9.60
  -7   5  -8  484.35   13.10
  -7   5  -8  511.25   13.80
   7  -5   8  449.66   13.00
   7  -5   8  498.45   13.40
   7  -5   8  470.85   13.00
   7  -5   8  479.65   14.40
   7  -5   8  521.05   13.10
   7  -5   8  494.15   12.70
   7  -5   8  525.25   14.40
  -8   5  -8    9.90    1.40
  -8   5  -8    8.30    1.40
   8  -5   8   11.00    1.50
   8  -5   8    9.10    1.10
   8  -5   8    7.50    1.40
   7   4  -8    8.40    1.60
   7   4  -8    4.90    1.30
  -7  -4   8    8.40    1.70
  -7  -4   8    7.30    1.40
   6   4  -8    0.40    0.90
   6   4  -8    0.50    1.00
   6   4  -8    0.70    1.10
  -6  -4   8    2.60    1.20
  -6  -4   8   -0.40    1.30
  -6  -4   8    0.10    1.00
   5   4  -8  581.94   17.50
   5   4  -8  588.24   17.90
   5   4  -8  598.44   16.10
   5   4  -8  582.94   16.70
  -5  -4   8  581.94   17.90
  -5  -4   8  586.54   17.20
  -5  -4   8  574.84   17.80
   4   4  -8  130.69    6.60
   4   4  -8  113.69    5.50
   4   4  -8  123.29    6.70
   4   4  -8  127.99    6.20
   4   4  -8  135.49    6.20
  -4  -4   8  141.19    7.10
  -4  -4   8  124.19    6.90
  -4  -4   8  119.09    6.30
   3   4  -8 1268.27   30.70
   3   4  -8 1318.67   31.40
   3   4  -8 1312.37   30.90
   3   4  -8 1274.37   31.30
   3   4  -8 1270.77   33.10
  -3  -4   8 1286.57   35.90
  -3  -4   8 1309.57   31.50
  -3  -4   8 1267.67   32.20
   2   4  -8  421.16   14.30
   2   4  -8  413.06   13.90
  -2  -4   8  443.46   16.10
  -2  -4   8  410.26   12.40
  -2  -4   8  397.26   14.00
   1   4  -8  246.38    9.50
   1   4  -8  233.98    8.10
   1   4  -8  240.28    9.40
  -1  -4   8  246.88   10.90
  -1  -4   8  230.78    9.50
  -1  -4   8  260.47    8.60
   0   4  -8  607.24   16.40
   0   4  -8  611.54   17.50
   0   4  -8  624.94   15.90
   0  -4   8  623.04   16.40
   0  -4   8  616.84   19.60
   0  -4   8  616.34   18.10
  -1   4  -8  282.17    9.30
  -1   4  -8  275.47    9.60
  -1   4  -8  273.67    8.90
   1  -4   8  277.87   11.50
   1  -4   8  274.37    9.30
   1  -4   8  292.97   10.70
   1  -4   8  253.77    9.00
  -2   4  -8 2827.82   61.99
  -2   4  -8 2820.02   62.19
  -2   4  -8 2861.71   61.19
   2  -4   8 2699.23   62.69
   2  -4   8 2820.12   65.79
   2  -4   8 2947.71   64.79
  -3   4  -8   31.10    2.90
  -3   4  -8   34.10    3.40
  -3   4  -8   31.80    3.60
  -3   4  -8   30.20    2.90
  -3   4  -8   29.80    3.10
  -3   4  -8   30.90    3.30
   3  -4   8   29.50    3.60
   3  -4   8   33.30    4.50
   3  -4   8   32.90    4.20
   4  -4   8  104.49    5.00
   4  -4   8  106.29    4.80
   4  -4   8  107.79    4.90
   4  -4   8   96.59    5.20
   4  -4   8  105.99    5.50
   4  -4   8   98.19    4.60
   4  -4   8  109.29    5.50
   4  -4   8  107.99    5.60
   4  -4   8   96.29    5.00
   4  -4   8  102.79    4.60
   4  -4   8   93.59    5.40
   5  -4   8 1965.30   44.40
   5  -4   8 1973.20   43.90
   5  -4   8 1949.51   43.80
   5  -4   8 2005.30   45.50
   5  -4   8 1981.20   44.10
   5  -4   8 1950.70   44.90
   5  -4   8 1945.21   45.80
   5  -4   8 1941.91   46.00
   5  -4   8 1930.11   46.10
   5  -4   8 1983.90   44.50
  -6   4  -8    2.90    1.10
   6  -4   8    3.40    1.40
   6  -4   8    2.40    1.30
   6  -4   8    2.80    1.20
   6  -4   8    2.40    1.30
   6  -4   8    2.40    1.00
   6  -4   8    2.20    1.00
   6  -4   8   -0.90    0.80
   6  -4   8    3.10    1.10
   6  -4   8    3.30    1.20
   6  -4   8    2.40    1.00
  -7   4  -8  142.49    5.80
   7  -4   8  132.19    5.20
   7  -4   8  148.09    5.50
   7  -4   8  136.79    5.30
   7  -4   8  140.49    6.50
   7  -4   8  158.78    6.60
   7  -4   8  141.09    5.80
   7  -4   8  149.69    5.50
   7  -4   8  153.08    5.40
  -8   4  -8  294.07    8.30
   8  -4   8  299.77    7.90
   8  -4   8  296.87    7.80
   8  -4   8  299.67    8.40
   8  -4   8  289.87    8.70
   8  -4   8  298.87    7.80
   7   3  -8    3.60    1.30
   7   3  -8    4.20    1.40
   7   3  -8    5.80    1.60
  -7  -3   8    4.30    1.30
  -7  -3   8    2.40    1.30
  -7  -3   8    3.70    1.50
   6   3  -8   20.60    3.20
   6   3  -8   18.90    3.00
   6   3  -8   15.30    2.40
   6   3  -8   13.00    2.50
  -6  -3   8   13.10    2.60
  -6  -3   8   14.50    2.80
  -6  -3   8   11.80    2.20
   5   3  -8   51.39    5.20
   5   3  -8   53.79    5.00
   5   3  -8   52.19    4.40
  -5  -3   8   50.89    5.00
  -5  -3   8   56.29    5.50
   4   3  -8   18.40    2.70
   4   3  -8   19.40    3.10
   4   3  -8   17.30    2.30
   4   3  -8   25.20    3.00
   4   3  -8   18.00    2.70
  -4  -3   8   14.50    2.80
  -4  -3   8   19.60    3.20
   3   3  -8   20.90    3.10
   3   3  -8   17.50    3.20
   3   3  -8   21.50    3.30
  -3  -3   8   17.80    3.60
  -3  -3   8   18.70    3.00
   2   3  -8  968.30   23.40
   2   3  -8 1012.30   25.70
   2   3  -8  991.80   25.50
  -2  -3   8 1028.60   28.10
  -2  -3   8  920.71   25.00
  -2  -3   8  979.60   25.70
   1   3  -8 2033.40   46.40
   1   3  -8 2095.19   47.60
   1   3  -8 2136.89   47.90
  -1  -3   8 2187.08   50.79
  -1  -3   8 2059.39   47.70
  -1  -3   8 2071.99   46.20
  -1  -3   8 2097.69   48.40
   0   3  -8  534.65   14.60
   0   3  -8  519.45   14.50
   0   3  -8  554.04   15.40
   0   3  -8  541.15   14.40
   0   3  -8  532.95   14.00
   0  -3   8  540.25   15.50
   0  -3   8  560.24   17.80
   0  -3   8  556.74   14.40
   0  -3   8  532.25   15.90
  -1   3  -8  241.88    8.10
  -1   3  -8  229.18    8.10
  -1   3  -8  230.18    8.20
  -1   3  -8  221.68    7.40
   1  -3   8  241.48    8.10
   1  -3   8  237.48    9.20
   1  -3   8  242.18    8.60
   1  -3   8  232.58   10.20
  -2   3  -8 1520.15   35.60
  -2   3  -8 1553.84   36.00
  -2   3  -8 1579.54   35.30
   2  -3   8 1576.64   39.40
   2  -3   8 1528.05   37.80
   2  -3   8 1541.75   36.30
   2  -3   8 1547.95   36.40
  -3   3  -8   49.40    3.80
  -3   3  -8   57.89    3.50
  -3   3  -8   48.90    3.20
  -3   3  -8   53.29    3.60
  -3   3  -8   53.89    3.70
  -3   3  -8   48.60    3.20
   3  -3   8   50.69    4.70
   3  -3   8   55.89    5.40
   3  -3   8   55.19    4.80
   4  -3   8  106.69    4.80
   4  -3   8  104.29    5.50
   4  -3   8  106.69    5.70
   4  -3   8  112.99    5.80
   4  -3   8  105.69    4.90
   4  -3   8  113.49    5.80
   4  -3   8  105.09    5.00
   4  -3   8  112.39    5.20
   4  -3   8  108.69    5.60
   4  -3   8  107.69    5.40
   4  -3   8  110.19    5.70
   5  -3   8   94.09    5.30
   5  -3   8  107.19    5.10
   5  -3   8  102.29    5.60
   5  -3   8  102.29    5.80
   5  -3   8  113.39    6.10
   5  -3   8   97.89    4.60
   5  -3   8   87.39    4.80
   5  -3   8   95.09    5.20
   5  -3   8   93.79    4.70
   5  -3   8  101.59    4.60
   6  -3   8    1.10    0.80
   6  -3   8    0.60    0.90
   6  -3   8    0.50    0.90
   6  -3   8    0.40    1.00
   6  -3   8    1.70    1.00
   6  -3   8    1.00    0.70
   6  -3   8    0.80    0.90
   6  -3   8    0.80    1.00
   6  -3   8    0.20    0.70
   6  -3   8    0.30    0.80
  -7   3  -8    4.80    1.20
   7  -3   8    6.70    1.50
   7  -3   8    8.30    1.50
   7  -3   8    8.00    1.70
   7  -3   8    8.50    1.90
   7  -3   8    5.80    1.20
   7  -3   8    6.80    1.30
   7  -3   8    7.00    1.30
   7  -3   8    0.40    0.90
   7  -3   8    5.30    1.20
  -8   3  -8   -0.30    0.60
   8  -3   8    0.20    0.80
   8  -3   8    0.20    0.60
   8  -3   8    0.10    0.40
   8  -3   8    0.80    0.50
   8  -3   8    0.60    0.50
   8  -3   8    0.10    0.70
   8   2  -8   10.40    1.80
   8   2  -8    9.00    1.60
   8   2  -8    7.50    1.40
  -8  -2   8    9.80    1.70
  -8  -2   8    8.60    1.70
   7   2  -8   11.90    2.30
   7   2  -8    9.00    2.00
   7   2  -8   11.00    2.40
  -7  -2   8    9.60    2.30
  -7  -2   8   11.30    2.40
  -7  -2   8   10.00    1.90
   6   2  -8  259.37    9.90
   6   2  -8  249.28   10.20
   6   2  -8  255.17    8.90
   6   2  -8  244.78    9.70
  -6  -2   8  251.47   10.60
  -6  -2   8  257.77   10.30
   5   2  -8   87.49    5.10
   5   2  -8   86.29    4.70
   5   2  -8   97.69    5.70
  -5  -2   8   70.49    5.90
  -5  -2   8   88.39    5.80
   4   2  -8  296.67   11.70
   4   2  -8  299.67   11.40
  -4  -2   8  285.57   13.00
  -4  -2   8  313.27   11.70
  -4  -2   8  295.27   11.20
   3   2  -8  207.58    8.40
   3   2  -8  216.38    8.50
   3   2  -8  220.38    9.00
  -3  -2   8  238.28   10.80
  -3  -2   8  225.58    9.00
  -3  -2   8  219.18    8.80
   2   2  -8    4.80    1.30
   2   2  -8   18.80    2.80
   2   2  -8   11.60    1.80
   2   2  -8    7.00    1.70
  -2  -2   8    7.60    1.70
  -2  -2   8    3.50    1.40
  -2  -2   8    5.20    1.80
   1   2  -8 1865.91   41.90
   1   2  -8 1951.50   43.00
   1   2  -8 1794.72   42.10
   1   2  -8 1842.72   41.80
  -1  -2   8 1928.81   45.80
  -1  -2   8 1863.41   43.30
  -1  -2   8 1927.91   43.60
  -1  -2   8 1853.01   41.90
   0   2  -8  246.18    8.40
   0   2  -8  245.28    7.70
   0   2  -8  258.17    8.20
   0   2  -8  248.98    8.30
   0  -2   8  254.27   10.50
   0  -2   8  241.58    7.50
   0  -2   8  239.18    8.90
   0  -2   8  249.48    9.00
   0  -2   8  246.58    8.10
  -1   2  -8 2125.79   48.70
  -1   2  -8 2142.49   48.50
  -1   2  -8 2204.48   49.10
  -1   2  -8 2207.28   48.70
   1  -2   8 2212.98   49.90
   1  -2   8 2248.48   48.60
   1  -2   8 2183.38   50.39
   1  -2   8 2257.27   52.49
  -2   2  -8  488.75   13.80
  -2   2  -8  483.35   13.40
  -2   2  -8  451.65   13.20
   2  -2   8  475.55   13.80
   2  -2   8  479.55   16.20
   2  -2   8  486.75   14.20
   2  -2   8  468.65   15.00
  -3   2  -8  121.79    6.20
  -3   2  -8  145.39    6.10
  -3   2  -8  132.29    6.10
  -3   2  -8  127.49    5.60
  -3   2  -8  125.69    5.50
   3  -2   8  123.89    6.80
   3  -2   8  141.09    7.70
   3  -2   8  126.19    6.50
  -4   2  -8  407.86   12.80
   4  -2   8  391.06   12.70
   4  -2   8  408.06   12.70
   4  -2   8  390.26   11.50
   4  -2   8  397.06   12.60
   4  -2   8  383.76   12.40
   4  -2   8  379.26   11.70
   4  -2   8  390.56   12.40
   4  -2   8  377.06   11.20
   4  -2   8  378.16   11.50
   4  -2   8  386.46   12.10
   5  -2   8   32.90    3.20
   5  -2   8   27.50    3.70
   5  -2   8   29.10    3.20
   5  -2   8   29.00    3.60
   5  -2   8   31.00    3.00
   5  -2   8   25.80    3.10
   5  -2   8   33.80    3.70
   5  -2   8   29.90    3.00
   5  -2   8   31.80    3.70
   6  -2   8   56.29    3.70
   6  -2   8   57.39    5.20
   6  -2   8   62.89    5.20
   6  -2   8   50.59    4.20
   6  -2   8   52.99    3.30
   6  -2   8   54.39    3.40
   6  -2   8   59.59    4.70
   6  -2   8   57.79    3.70
   6  -2   8   55.69    3.30
   7  -2   8  233.38    7.60
   7  -2   8  239.68    7.60
   7  -2   8  221.18    8.50
   7  -2   8  238.98    7.30
   7  -2   8  232.68    7.50
   7  -2   8  238.28    7.90
   7  -2   8  231.28    7.20
   7  -2   8  244.18    8.40
   8   1  -8  211.28    7.90
   8   1  -8  200.28    7.10
   8   1  -8  198.38    7.30
  -8  -1   8  218.18    8.10
  -8  -1   8  198.98    7.50
  -8  -1   8  192.88    7.00
   7   1  -8   49.80    4.70
   7   1  -8   38.30    3.90
   7   1  -8   42.50    4.50
  -7  -1   8   40.60    4.70
  -7  -1   8   41.20    4.20
  -7  -1   8   46.60    4.50
   6   1  -8   28.20    3.50
   6   1  -8   31.90    3.30
   6   1  -8   24.20    3.50
   6   1  -8   27.20    3.60
  -6  -1   8   23.70    3.70
  -6  -1   8   28.50    3.90
  -6  -1   8   26.90    3.60
   5   1  -8  141.19    5.90
   5   1  -8  133.69    6.60
   5   1  -8  137.39    6.30
  -5  -1   8  138.09    6.80
  -5  -1   8  141.59    7.00
  -5  -1   8  139.29    7.40
   4   1  -8  115.49    6.00
   4   1  -8  104.39    5.60
   4   1  -8  102.59    6.00
  -4  -1   8   97.99    6.90
  -4  -1   8  101.99    6.20
   3   1  -8  308.67   10.00
   3   1  -8  303.07   10.30
   3   1  -8  316.67   10.60
  -3  -1   8  300.27   11.00
  -3  -1   8  303.57   10.30
  -3  -1   8  289.27    9.90
  -3  -1   8  309.47   12.30
   2   1  -8  419.26   11.80
   2   1  -8  426.46   12.10
   2   1  -8  423.86   11.60
   2   1  -8  424.96   12.70
   2   1  -8  426.66   12.40
  -2  -1   8  427.86   12.70
  -2  -1   8  431.16   13.40
  -2  -1   8  421.76   12.40
  -2  -1   8  430.76   14.70
   1   1  -8 1274.37   29.00
   1   1  -8 1181.78   28.00
   1   1  -8 1187.68   28.50
   1   1  -8 1196.68   28.20
  -1  -1   8 1219.18   31.40
  -1  -1   8 1241.28   29.90
  -1  -1   8 1199.18   28.90
  -1  -1   8 1171.48   28.50
   0   1  -8  482.85   13.20
   0   1  -8  483.95   13.70
   0   1  -8  473.05   13.30
   0   1  -8  488.75   12.50
   0  -1   8  472.25   15.70
   0  -1   8  502.85   14.50
   0  -1   8  470.75   13.90
   0  -1   8  491.55   13.60
  -1   1  -8  700.13   17.90
  -1   1  -8  673.03   17.20
  -1   1  -8  646.24   16.90
   1  -1   8  639.94   18.20
   1  -1   8  698.93   17.60
   1  -1   8  658.23   20.20
   1  -1   8  647.34   16.90
   1  -1   8  694.53   18.50
  -2   1  -8 1415.36   32.50
  -2   1  -8 1339.67   31.60
  -2   1  -8 1367.86   31.80
   2  -1   8 1362.06   32.50
   2  -1   8 1337.27   35.10
   2  -1   8 1343.97   33.60
   2  -1   8 1402.66   33.10
  -3   1  -8 1168.38   26.80
  -3   1  -8 1149.29   28.40
  -3   1  -8 1100.39   26.50
  -3   1  -8 1126.59   27.50
  -3   1  -8 1125.39   27.20
   3  -1   8 1082.59   29.90
   3  -1   8 1040.30   28.90
   3  -1   8 1066.49   28.30
   4  -1   8  293.47   10.00
   4  -1   8  295.27   10.40
   4  -1   8  291.97   10.50
   4  -1   8  270.37   10.00
   4  -1   8  307.17   10.20
   4  -1   8  297.27    9.40
   4  -1   8  293.47   10.30
   4  -1   8  295.47    9.40
   4  -1   8  287.77    9.60
   5  -1   8    9.30    1.90
   5  -1   8   10.70    2.30
   5  -1   8    8.90    1.90
   5  -1   8    9.70    2.00
   5  -1   8   13.40    2.50
   5  -1   8    9.30    1.70
   5  -1   8   11.40    1.90
   5  -1   8   11.80    1.90
   5  -1   8   11.80    2.20
   6  -1   8  117.69    4.90
   6  -1   8  119.49    5.00
   6  -1   8  126.39    5.90
   6  -1   8  122.29    6.10
   6  -1   8  117.49    5.40
   6  -1   8  109.19    6.10
   6  -1   8  117.59    5.30
   6  -1   8  113.89    5.30
   7  -1   8    4.90    1.30
   7  -1   8    5.40    1.20
   7  -1   8    3.50    1.00
   7  -1   8    4.10    1.30
   7  -1   8    3.90    0.90
   7  -1   8   -0.30    0.80
   7  -1   8    5.30    1.10
   7  -1   8    2.70    1.00
   7  -1   8    4.60    1.20
   8   0  -8   10.10    1.90
   8   0  -8    6.70    1.70
   8   0  -8    4.40    1.50
  -8   0   8   10.00    2.10
  -8   0   8    8.70    1.90
  -8   0   8    9.90    2.10
   7   0  -8  301.97   10.70
   7   0  -8  289.17   10.20
   7   0  -8  284.77   10.90
  -7   0   8  292.17   10.90
  -7   0   8  274.07   10.40
  -7   0   8  288.17   11.40
   6   0  -8  468.65   13.90
   6   0  -8  469.45   14.70
   6   0  -8  423.46   12.90
   6   0  -8  435.06   14.10
  -6   0   8  449.56   14.70
  -6   0   8  466.25   14.70
  -6   0   8  460.55   15.50
   5   0  -8   38.50    3.40
   5   0  -8   38.00    3.90
   5   0  -8   33.80    3.40
  -5   0   8   35.50    4.10
  -5   0   8   33.30    4.20
  -5   0   8   39.10    4.20
   4   0  -8 1466.75   35.40
   4   0  -8 1459.15   36.00
   4   0  -8 1489.95   35.30
  -4   0   8 1499.45   35.80
  -4   0   8 1514.35   37.00
  -4   0   8 1475.65   38.70
   3   0  -8  123.69    5.00
   3   0  -8  119.29    5.60
   3   0  -8  123.39    5.30
   3   0  -8  127.79    5.80
  -3   0   8  127.09    6.40
  -3   0   8  123.39    6.00
  -3   0   8  115.59    6.80
  -3   0   8  117.19    5.50
   2   0  -8  855.61   21.30
   2   0  -8  871.71   21.90
   2   0  -8  862.31   20.40
   2   0  -8  889.81   21.50
  -2   0   8  890.11   22.40
  -2   0   8  867.91   22.10
  -2   0   8  901.61   23.10
  -2   0   8  817.42   21.30
  -2   0   8  877.41   24.20
   1   0  -8  954.40   22.80
   1   0  -8  977.60   23.60
   1   0  -8  935.91   23.20
  -1   0   8  984.60   24.80
  -1   0   8  987.60   24.20
  -1   0   8  941.21   25.90
  -1   0   8  960.40   23.90
  -1   0   8  956.90   23.40
   0   0  -8   52.59    3.20
   0   0  -8   52.39    3.50
   0   0  -8   52.59    3.20
   0   0  -8   50.49    2.70
   0   0   8   54.39    3.50
   0   0   8   47.90    4.30
   0   0   8   56.29    4.60
   0   0   8   52.59    3.50
  -1   0  -8 1994.00   44.30
  -1   0  -8 1886.41   43.10
  -1   0  -8 1946.01   43.40
   1   0   8 1947.21   44.50
   1   0   8 1970.40   46.90
   1   0   8 1933.71   44.10
   1   0   8 1891.61   44.70
  -2   0  -8    4.90    1.50
  -2   0  -8    3.20    1.10
  -2   0  -8    3.10    1.10
   2   0   8    4.60    1.60
   2   0   8    4.10    1.50
   2   0   8   11.80    2.10
   2   0   8    3.30    1.50
  -3   0  -8  141.09    6.20
  -3   0  -8  139.69    5.80
  -3   0  -8  138.09    6.70
  -3   0  -8  133.29    6.20
  -3   0  -8  153.08    6.00
   3   0   8  129.69    7.40
   3   0   8  128.09    6.70
   3   0   8  136.29    7.10
   4   0   8  896.71   23.50
   4   0   8  904.11   22.80
   4   0   8  892.71   23.10
   4   0   8  877.41   22.10
   4   0   8  936.91   23.30
   4   0   8  840.52   22.00
   4   0   8  893.21   22.10
   4   0   8  911.71   23.00
   4   0   8  871.61   23.60
   5   0   8  677.73   18.60
   5   0   8  713.83   20.20
   5   0   8  699.03   17.80
   5   0   8  716.33   19.10
   5   0   8  717.13   19.40
   5   0   8  716.83   18.90
   5   0   8  705.73   17.90
   5   0   8  695.13   19.70
   6   0   8   78.79    4.40
   6   0   8   79.89    4.10
   6   0   8   80.79    3.80
   6   0   8   74.99    4.80
   6   0   8   79.09    4.20
   6   0   8   77.29    4.10
   6   0   8   80.79    4.70
   7   0   8  272.47    8.70
   7   0   8  278.17    8.20
   7   0   8  299.47    8.20
   7   0   8  284.87    8.10
   7   0   8  280.17    7.70
   7   0   8  274.77    8.50
   7   0   8  285.27    8.30
   9  -1  -8  221.48    7.40
   9  -1  -8  231.18    7.20
  -9   1   8  219.58    7.60
  -9   1   8  234.48    7.40
   8  -1  -8   84.39    4.50
   8  -1  -8   87.29    5.10
   8  -1  -8   81.99    4.80
  -8   1   8   97.39    5.40
  -8   1   8   87.19    5.30
   7  -1  -8   29.80    3.70
   7  -1  -8   26.20    3.20
   7  -1  -8   29.40    3.80
  -7   1   8   28.20    4.00
  -7   1   8   30.90    4.00
  -7   1   8   29.00    4.10
   6  -1  -8  149.88    6.90
   6  -1  -8  162.48    7.20
   6  -1  -8  155.08    6.70
  -6   1   8  151.38    7.80
  -6   1   8  150.48    7.70
  -6   1   8  151.38    7.50
   5  -1  -8  607.44   18.30
   5  -1  -8  622.14   18.30
   5  -1  -8  599.04   19.20
   5  -1  -8  588.84   16.30
  -5   1   8  613.04   17.90
  -5   1   8  614.44   20.60
  -5   1   8  634.84   19.60
  -5   1   8  622.94   18.60
   4  -1  -8  733.93   19.70
   4  -1  -8  776.72   19.70
   4  -1  -8  735.23   20.20
  -4   1   8  740.33   21.30
  -4   1   8  752.72   20.90
  -4   1   8  718.23   22.20
   3  -1  -8  251.57    9.00
   3  -1  -8  270.47    9.00
   3  -1  -8  258.77    8.40
   3  -1  -8  265.37    8.60
  -3   1   8  258.67   10.70
  -3   1   8  260.77    9.60
  -3   1   8  246.18    9.40
  -3   1   8  254.47    9.90
   2  -1  -8 1029.10   24.20
   2  -1  -8  996.40   24.50
   2  -1  -8  999.40   24.80
   2  -1  -8  997.10   23.20
  -2   1   8  973.80   25.90
  -2   1   8 1007.70   25.50
  -2   1   8 1010.20   27.00
  -2   1   8 1039.40   25.60
   1  -1  -8 1211.18   29.10
   1  -1  -8 1247.58   29.30
   1  -1  -8 1205.28   27.10
   1  -1  -8 1219.68   28.30
  -1   1   8 1263.57   29.80
  -1   1   8 1220.08   31.30
  -1   1   8 1184.58   30.20
  -1   1   8 1276.67   30.20
   0  -1  -8  493.75   13.60
   0  -1  -8  464.75   12.50
   0  -1  -8  503.25   13.60
   0   1   8  468.45   13.90
   0   1   8  466.45   15.30
   0   1   8  462.05   13.20
   0   1   8  488.85   14.40
   0   1   8  475.35   14.60
  -1  -1  -8  123.69    5.30
  -1  -1  -8  105.89    5.00
  -1  -1  -8  123.39    5.80
   1   1   8  118.99    5.60
   1   1   8  119.69    6.60
   1   1   8  120.99    5.70
   1   1   8  110.79    5.80
  -2  -1  -8  745.13   19.30
  -2  -1  -8  715.93   18.60
   2   1   8  716.93   19.80
   2   1   8  693.63   19.40
   2   1   8  702.13   20.90
  -3  -1  -8   39.10    3.80
  -3  -1  -8   38.70    4.00
  -3  -1  -8   48.70    3.90
  -3  -1  -8   41.20    3.40
   3   1   8   42.70    4.70
   3   1   8   49.20    4.90
   4   1   8    1.10    1.00
   4   1   8    1.20    1.00
   4   1   8    0.80    1.00
   4   1   8    2.20    1.20
   4   1   8    1.60    1.00
   4   1   8    1.60    1.00
   4   1   8   -0.90    1.00
   4   1   8    0.90    1.10
   5   1   8   31.60    3.20
   5   1   8   35.20    3.00
   5   1   8   33.60    3.20
   5   1   8   28.60    3.10
   5   1   8   34.00    3.90
   5   1   8   30.80    3.30
   5   1   8   36.80    3.80
   6   1   8   38.30    3.80
   6   1   8   37.30    3.20
   6   1   8   42.40    2.80
   6   1   8   40.40    3.60
   6   1   8   38.70    2.30
   6   1   8   44.70    3.60
   6   1   8   41.00    3.30
   7   1   8   57.09    2.70
   7   1   8   54.79    2.70
   7   1   8   52.59    2.80
   7   1   8   57.49    2.60
   7   1   8   51.69    2.60
   7   1   8   56.09    2.60
   9  -2  -8    5.50    1.30
   9  -2  -8    5.10    1.30
  -9   2   8    5.50    1.40
  -9   2   8    4.70    1.40
   8  -2  -8  236.68    8.30
   8  -2  -8  236.08    8.90
   8  -2  -8  249.58    9.30
  -8   2   8  242.58    9.50
  -8   2   8  237.18    9.30
  -8   2   8  258.47    9.60
   7  -2  -8  825.92   22.50
   7  -2  -8  838.22   22.70
   7  -2  -8  837.92   21.90
  -7   2   8  895.61   23.70
  -7   2   8  849.52   23.70
  -7   2   8  805.62   23.40
   6  -2  -8   30.70    3.30
   6  -2  -8   25.00    3.20
   6  -2  -8   44.10    4.30
  -6   2   8   33.80    4.20
  -6   2   8   31.20    4.30
  -6   2   8   27.00    3.60
   5  -2  -8  181.38    8.10
   5  -2  -8  189.38    7.90
   5  -2  -8  200.88    8.20
  -5   2   8  172.28    8.90
  -5   2   8  189.18    9.00
  -5   2   8  182.58   10.10
  -5   2   8  201.58    8.40
   4  -2  -8   81.19    4.70
   4  -2  -8   74.89    4.50
   4  -2  -8   75.19    4.40
  -4   2   8   89.19    5.60
  -4   2   8   89.59    5.60
  -4   2   8   84.89    5.40
   3  -2  -8   57.59    3.60
   3  -2  -8   58.89    3.90
   3  -2  -8   57.49    3.30
  -3   2   8   61.39    4.50
  -3   2   8   59.09    5.30
  -3   2   8   53.09    4.80
   2  -2  -8  889.81   21.80
   2  -2  -8  888.31   22.60
   2  -2  -8  841.82   20.80
  -2   2   8  912.51   23.80
  -2   2   8  879.41   24.00
  -2   2   8  904.31   22.70
  -2   2   8  860.71   23.60
  -2   2   8  881.01   23.20
   1  -2  -8  446.86   11.70
   1  -2  -8  470.65   13.60
   1  -2  -8  459.65   12.70
  -1   2   8  451.65   13.80
  -1   2   8  429.76   14.20
  -1   2   8  458.05   14.30
  -1   2   8  463.65   14.30
   0  -2  -8 4755.12   99.99
   0  -2  -8 4489.25   98.59
   0  -2  -8 4816.52   99.99
   0   2   8 4681.93  100.89
   0   2   8 4604.64  100.19
   0   2   8 4638.84  100.69
   0   2   8 4657.33  101.49
  -1  -2  -8  214.78    8.20
  -1  -2  -8  234.58    8.30
  -1  -2  -8  239.18    8.90
   1   2   8  227.38    8.70
   1   2   8  231.28    8.60
   1   2   8  238.48    9.50
  -2  -2  -8    2.30    1.00
  -2  -2  -8    3.20    1.30
  -2  -2  -8    1.30    0.90
  -2  -2  -8    0.80    0.80
   2   2   8    4.30    1.50
   2   2   8    0.50    1.10
   3   2   8  241.58    8.30
   3   2   8  216.58    7.50
   3   2   8  213.28    7.90
   3   2   8  236.18    8.20
   3   2   8  225.28    8.20
   4   2   8   46.60    3.90
   4   2   8   44.30    4.20
   4   2   8   42.90    4.00
   4   2   8   45.90    3.80
   4   2   8   46.30    4.00
   5   2   8   84.29    4.70
   5   2   8   68.79    4.10
   5   2   8   70.49    4.00
   5   2   8   69.79    4.50
   5   2   8   79.19    4.10
   5   2   8   73.59    3.80
   6   2   8   38.40    3.30
   6   2   8   35.30    3.00
   6   2   8   35.50    2.40
   6   2   8   31.30    2.70
   6   2   8   38.80    2.40
   6   2   8   36.50    2.40
   9  -3  -8   24.70    2.50
   9  -3  -8   20.20    2.30
  -9   3   8   25.40    2.70
  -9   3   8   27.50    2.90
  -9   3   8   19.80    2.30
   8  -3  -8   30.80    3.50
   8  -3  -8   23.60    3.00
  -8   3   8   19.10    3.10
  -8   3   8   23.10    3.20
  -8   3   8   27.30    3.70
   7  -3  -8   60.29    5.00
   7  -3  -8   50.29    4.20
   7  -3  -8   73.99    5.90
  -7   3   8   62.79    6.00
  -7   3   8   60.89    5.70
  -7   3   8   65.39    5.90
   6  -3  -8 1057.69   25.60
   6  -3  -8 1041.40   26.20
   6  -3  -8 1064.19   26.10
  -6   3   8 1038.20   27.60
  -6   3   8 1045.60   28.30
  -6   3   8 1009.90   24.50
  -6   3   8 1047.00   28.40
   5  -3  -8  328.47   10.30
  -5   3   8  333.47    9.50
  -5   3   8  337.17    9.90
  -5   3   8  320.57   12.10
  -5   3   8  325.07   12.30
  -5   3   8  320.17   11.60
   4  -3  -8   49.99    3.50
   4  -3  -8   42.90    3.40
   4  -3  -8   43.90    3.50
  -4   3   8   47.20    5.10
  -4   3   8   45.90    4.90
  -4   3   8   46.00    5.00
   3  -3  -8  607.04   17.60
   3  -3  -8  634.44   17.10
   3  -3  -8  629.44   16.30
  -3   3   8  626.34   18.90
  -3   3   8  611.64   18.30
  -3   3   8  626.74   17.80
  -3   3   8  617.64   18.50
   2  -3  -8   31.30    3.20
   2  -3  -8   27.00    3.30
   2  -3  -8   30.00    2.80
  -2   3   8   30.30    4.00
  -2   3   8   24.30    3.30
  -2   3   8   28.90    3.50
  -2   3   8   31.80    3.80
   1  -3  -8  642.04   16.60
   1  -3  -8  681.73   18.60
   1  -3  -8  673.83   17.60
  -1   3   8  641.94   18.40
  -1   3   8  660.73   18.60
  -1   3   8  644.54   18.50
  -1   3   8  670.13   19.40
   0  -3  -8  477.35   13.70
   0  -3  -8  503.75   14.70
   0   3   8  462.95   14.90
   0   3   8  464.25   14.30
   0   3   8  478.75   14.40
   0   3   8  469.65   14.40
  -1  -3  -8   93.79    4.90
  -1  -3  -8   87.69    5.10
   1   3   8   79.19    4.60
   3   3   8    0.50    1.00
   5   3   8   24.20    2.90
   5   3   8   32.60    3.00
   5   3   8   33.80    3.10
   5   3   8   32.50    2.80
   6   3   8   12.10    1.40
   6   3   8   10.90    1.50
   6   3   8   12.70    1.50
   6   3   8   13.00    1.40
   6   3   8   10.80    1.30
   9  -4  -8  223.28    7.20
   9  -4  -8  207.18    7.10
  -9   4   8  206.08    7.50
  -9   4   8  204.08    7.30
   8  -4  -8  524.95   14.70
   8  -4  -8  499.25   14.60
  -8   4   8  529.65   16.10
  -8   4   8  509.75   15.40
  -8   4   8  459.25   15.00
   7  -4  -8  687.23   18.20
   7  -4  -8  679.93   18.90
   7  -4  -8  705.33   19.10
  -7   4   8  697.13   21.00
  -7   4   8  704.33   20.20
  -7   4   8  676.73   20.60
   6  -4  -8  795.62   21.10
   6  -4  -8  839.42   21.40
  -6   4   8  829.12   20.50
  -6   4   8  834.72   22.90
  -6   4   8  765.62   28.80
  -6   4   8  821.02   23.90
  -6   4   8  833.82   23.70
  -6   4   8  791.12   19.80
   5  -4  -8    1.00    0.80
  -5   4   8    0.60    0.80
  -5   4   8    0.80    0.80
  -5   4   8    0.50    1.30
  -5   4   8    0.90    1.50
  -5   4   8    2.20    1.80
  -5   4   8    0.50    0.80
  -5   4   8    0.40    1.60
   4  -4  -8  651.43   18.70
   4  -4  -8  662.63   17.90
   4  -4  -8  619.84   18.10
  -4   4   8  668.43   19.00
  -4   4   8  651.83   20.60
  -4   4   8  682.93   20.20
  -4   4   8  640.34   19.90
   3  -4  -8 2595.24   58.89
   3  -4  -8 2528.95   59.59
   3  -4  -8 2666.73   58.09
  -3   4   8 2611.54   60.39
  -3   4   8 2730.03   61.89
  -3   4   8 2517.95   60.29
  -3   4   8 2709.63   60.29
   2  -4  -8   67.69    3.80
   2  -4  -8   61.99    4.50
   2  -4  -8   66.59    4.20
  -2   4   8   71.99    5.00
  -2   4   8   66.39    6.20
  -2   4   8   64.69    4.70
   1  -4  -8 1600.84   36.80
   1  -4  -8 1631.64   37.90
   1  -4  -8 1604.74   38.90
  -1   4   8 1584.04   39.00
  -1   4   8 1580.84   38.50
  -1   4   8 1597.64   39.80
   0  -4  -8  123.79    6.00
   0  -4  -8  119.79    6.40
   0   4   8  118.29    6.40
   0   4   8  121.59    6.70
   4   4   8    1.10    1.00
   4   4   8   -0.30    0.70
   4   4   8    0.30    0.70
   5   4   8    2.20    0.90
   5   4   8   -0.60    0.50
   5   4   8    0.50    0.70
   9  -5  -8    0.40    0.70
   9  -5  -8    1.60    0.80
  -9   5   8    1.10    1.10
  -9   5   8    2.20    1.10
   8  -5  -8   27.10    3.00
   8  -5  -8   31.10    3.10
  -8   5   8   33.70    4.00
  -8   5   8   30.60    3.60
  -8   5   8   30.30    3.70
   7  -5  -8  151.48    6.10
   7  -5  -8  143.99    6.50
   7  -5  -8  148.49    6.50
  -7   5   8  156.28    7.40
  -7   5   8  150.38    7.90
  -7   5   8  138.69    7.90
   6  -5  -8  706.43   18.70
   6  -5  -8  690.23   18.50
  -6   5   8  715.43   21.80
  -6   5   8  714.03   20.60
  -6   5   8  696.03   17.40
  -6   5   8  691.93   17.90
  -6   5   8  694.63   21.20
   5  -5  -8  223.98    7.90
  -5   5   8  226.48    8.00
  -5   5   8  231.18    9.50
  -5   5   8  227.58   10.50
  -5   5   8  237.68   10.30
  -5   5   8  232.28    7.50
  -5   5   8  233.88    7.80
  -5   5   8  235.48   10.00
  -4   5   8 2508.85   58.89
  -4   5   8 2487.65   54.39
  -4   5   8 2471.15   57.79
  -4   5   8 2508.95   57.79
  -4   5   8 2503.75   54.69
  -4   5   8 2604.14   57.59
  -4   5   8 2443.96   55.39
  -4   5   8 2395.86   54.19
  -4   5   8 2483.75   55.59
  -4   5   8 2510.65   56.59
  -4   5   8 2508.85   54.29
   3  -5  -8 1764.92   44.10
   3  -5  -8 1840.62   43.50
   3  -5  -8 1921.51   42.80
  -3   5   8 1792.62   44.80
  -3   5   8 1891.41   45.10
  -3   5   8 1823.02   46.20
   2  -5  -8 1482.05   35.80
   2  -5  -8 1479.95   36.90
   2  -5  -8 1549.24   34.90
  -2   5   8 1399.56   37.80
  -2   5   8 1431.36   37.10
  -2   5   8 1468.95   36.70
   1  -5  -8 1209.68   31.30
   1  -5  -8 1209.58   30.10
   1  -5  -8 1195.28   29.10
  -1   5   8 1198.48   31.70
  -1   5   8 1187.28   31.80
  -1   5   8 1185.98   35.50
  -1   5   8 1105.19   30.80
   0   5   8  231.38    7.90
   0   5   8  215.28    8.60
   0   5   8  232.58    8.80
   0   5   8  237.48    8.20
   0   5   8  229.18    8.80
   0   5   8  241.38    8.80
   9  -6  -8    0.30    0.70
   9  -6  -8    0.20    0.60
  -9   6   8    0.20    0.80
   8  -6  -8  210.98    7.70
   8  -6  -8  231.68    7.90
  -8   6   8  220.58    8.80
  -8   6   8  238.58    9.40
   7  -6  -8  100.29    5.10
   7  -6  -8  108.59    5.20
   7  -6  -8   97.99    4.60
  -7   6   8   98.79    5.80
  -7   6   8  103.29    6.70
  -7   6   8  102.49    6.30
   6  -6  -8  217.38    8.00
  -6   6   8  209.98    9.60
  -6   6   8  215.98    7.40
  -6   6   8  212.28    9.50
  -6   6   8  221.78    9.00
  -6   6   8  222.38    7.10
  -6   6   8  227.38   10.50
  -5   6   8   32.20    4.60
  -5   6   8   33.60    4.20
  -5   6   8   38.00    4.60
  -5   6   8   32.20    3.20
  -5   6   8   30.40    4.20
  -5   6   8   38.00    3.10
  -5   6   8   34.10    3.40
  -5   6   8   41.90    4.30
  -5   6   8   30.30    2.80
  -4   6   8  454.85   13.10
  -4   6   8  492.55   14.30
  -4   6   8  470.15   15.90
  -4   6   8  466.45   16.50
  -4   6   8  471.75   13.30
  -4   6   8  479.25   13.60
  -4   6   8  492.55   15.80
  -4   6   8  481.55   15.20
  -4   6   8  479.65   13.20
  -4   6   8  485.45   14.40
  -3   6   8  860.81   21.80
  -3   6   8  859.01   23.90
  -3   6   8  876.11   23.10
  -3   6   8  863.61   21.60
  -3   6   8  879.51   23.20
  -3   6   8  896.21   24.70
  -3   6   8  907.31   24.50
  -3   6   8  862.31   21.60
  -3   6   8  874.11   21.80
  -3   6   8  890.31   25.20
  -2   6   8    1.50    1.00
  -2   6   8    2.90    1.30
  -2   6   8    3.20    1.60
  -2   6   8    2.30    1.10
  -2   6   8    9.40    1.80
  -2   6   8    1.50    1.40
  -2   6   8    7.40    1.70
  -2   6   8    3.20    1.70
  -2   6   8    1.40    1.20
  -1   6   8  575.74   16.30
  -1   6   8  616.14   17.80
  -1   6   8  591.54   17.30
  -1   6   8  619.84   17.80
  -1   6   8  603.64   17.30
  -1   6   8  585.94   16.10
  -1   6   8  578.54   16.20
   0   6   8 2875.81   64.09
   0   6   8 2934.01   63.69
   0   6   8 2958.00   64.69
   0   6   8 2886.81   63.79
   0   6   8 2882.41   64.89
   1   6   8   -0.80    0.70
   1   6   8   -0.20    0.70
   1   6   8   -0.20    0.90
   8  -7  -8  206.48    7.00
   8  -7  -8  207.38    7.10
  -8   7   8  197.18    7.20
  -8   7   8  219.18    8.40
  -8   7   8  201.78    7.80
   7  -7  -8  380.36   11.50
   7  -7  -8  404.56   11.60
  -7   7   8  365.06   12.70
  -7   7   8  383.26   12.90
  -7   7   8  398.06   13.90
   6  -7  -8    0.40    0.80
  -6   7   8   -0.30    0.70
  -6   7   8   -0.80    0.50
  -6   7   8    1.60    0.80
  -6   7   8    1.60    1.70
  -6   7   8    1.20    1.20
  -6   7   8    2.20    1.30
  -6   7   8    1.40    1.50
  -5   7   8    1.10    0.90
  -5   7   8    0.40    1.30
  -5   7   8    0.50    1.00
  -5   7   8    1.40    0.90
  -5   7   8    1.00    1.10
  -5   7   8    0.70    0.70
  -5   7   8    1.60    1.60
  -5   7   8    0.80    1.30
  -5   7   8    0.40    1.00
  -4   7   8  241.58   10.50
  -4   7   8  244.98    8.20
  -4   7   8  232.28    9.10
  -4   7   8  238.38    9.00
  -4   7   8  239.68    8.10
  -4   7   8  234.58    8.30
  -4   7   8  236.28    8.10
  -4   7   8  248.38   10.30
  -4   7   8  227.88    9.60
  -4   7   8  249.68   11.00
  -3   7   8   17.10    2.80
  -3   7   8   20.30    2.50
  -3   7   8   15.00    2.70
  -3   7   8   22.50    2.70
  -3   7   8   22.70    3.50
  -3   7   8   26.10    2.80
  -3   7   8   16.20    2.70
  -3   7   8   20.00    3.30
  -3   7   8   19.20    2.40
  -2   7   8   15.70    2.90
  -2   7   8   15.60    2.30
  -2   7   8   20.40    3.20
  -2   7   8   21.40    3.10
  -2   7   8   21.60    2.50
  -2   7   8   19.70    3.00
  -2   7   8   20.70    3.30
  -2   7   8   21.60    2.70
  -2   7   8   17.70    2.40
  -1   7   8   16.20    2.90
  -1   7   8   18.20    2.80
  -1   7   8   18.70    2.50
  -1   7   8    7.00    1.90
  -1   7   8   18.50    2.50
  -1   7   8   13.50    2.10
  -1   7   8   19.70    2.60
  -1   7   8   15.20    2.70
   0   7   8  443.56   13.70
   0   7   8  440.16   12.80
   0   7   8  442.26   13.20
   0   7   8  444.86   13.00
   0   7   8  446.26   13.50
   1   7   8   -0.60    0.70
   1   7   8    0.10    0.60
   1   7   8   -0.20    0.70
   1   7   8   -0.30    0.70
   8  -8  -8    6.10    1.10
   8  -8  -8    7.30    1.30
  -8   8   8    7.20    1.50
  -8   8   8    7.20    1.70
  -8   8   8    7.00    1.40
   7  -8  -8   20.50    2.30
   7  -8  -8   19.90    2.30
  -7   8   8   16.60    2.30
  -7   8   8   17.10    2.80
  -7   8   8   18.90    2.80
   6  -8  -8  286.47    9.10
  -6   8   8  289.37   11.40
  -6   8   8  297.17    9.20
  -6   8   8  291.07   10.40
  -6   8   8  284.47    9.50
  -6   8   8  278.47    8.50
  -6   8   8  306.47   11.20
  -5   8   8   11.10    1.70
  -5   8   8   12.70    2.00
  -5   8   8   15.20    2.30
  -5   8   8   12.70    2.40
  -5   8   8   12.40    2.10
  -5   8   8   13.20    2.90
  -5   8   8   12.60    2.80
  -5   8   8   13.00    1.80
  -5   8   8   19.20    3.30
  -4   8   8  255.77   10.40
  -4   8   8  242.58    8.20
  -4   8   8  254.77    8.50
  -4   8   8  254.17   10.30
  -4   8   8  235.18    9.70
  -4   8   8  243.98    8.10
  -4   8   8  228.88    9.00
  -4   8   8  240.08    8.10
  -4   8   8  239.18    8.90
  -3   8   8   95.79    5.80
  -3   8   8   89.69    5.20
  -3   8   8   78.29    6.30
  -3   8   8   85.79    4.50
  -3   8   8   86.29    4.50
  -3   8   8   79.39    5.00
  -3   8   8   86.39    6.80
  -3   8   8   75.09    4.10
  -3   8   8   85.89    4.40
  -2   8   8   25.90    2.70
  -2   8   8   21.10    2.60
  -2   8   8   22.00    3.10
  -2   8   8   20.90    2.60
  -2   8   8   23.20    3.30
  -2   8   8   18.40    3.00
  -2   8   8   22.30    2.50
  -2   8   8   20.00    3.00
  -1   8   8  345.07   10.80
  -1   8   8  339.37   10.60
  -1   8   8  358.16   11.00
  -1   8   8  361.36   11.70
  -1   8   8  357.06   11.80
  -1   8   8  353.36   10.70
  -1   8   8  358.96   11.80
   0   8   8   47.10    3.60
   0   8   8   53.89    3.30
   0   8   8   47.90    3.60
   0   8   8   53.49    3.60
   1   8   8    0.50    0.60
   1   8   8    0.00    0.60
   1   8   8    0.30    0.60
   1   8   8   -0.30    0.50
   7  -9  -8  109.39    4.30
   7  -9  -8  100.39    4.10
  -7   9   8  110.49    5.20
  -7   9   8  108.09    5.10
  -7   9   8  107.39    4.40
   6  -9  -8   97.29    4.20
  -6   9   8  100.39    3.90
  -6   9   8   94.29    5.30
  -6   9   8   98.49    4.50
  -6   9   8  100.09    5.30
  -6   9   8   97.69    5.00
  -5   9   8  568.54   16.30
  -5   9   8  533.75   16.20
  -5   9   8  532.15   13.60
  -5   9   8  556.24   13.90
  -5   9   8  525.05   14.30
  -5   9   8  506.95   14.40
  -5   9   8  551.74   15.50
  -5   9   8  582.04   14.50
  -4   9   8  174.58    6.90
  -4   9   8  192.58    6.50
  -4   9   8  182.68    6.60
  -4   9   8  178.38    7.70
  -4   9   8  180.08    7.20
  -4   9   8  185.98    6.30
  -4   9   8  174.18    6.40
  -4   9   8  192.68    8.10
  -4   9   8  188.68    8.00
  -3   9   8  351.76   11.30
  -3   9   8  346.77   10.20
  -3   9   8  352.06   10.20
  -3   9   8  336.17   11.60
  -3   9   8  334.57   10.00
  -3   9   8  340.57   11.60
  -3   9   8  361.56   11.30
  -3   9   8  345.67   10.30
  -2   9   8  263.27    9.20
  -2   9   8  262.07    9.20
  -2   9   8  265.57    8.30
  -2   9   8  264.37    8.40
  -2   9   8  257.17    9.30
  -2   9   8  255.87    8.20
  -2   9   8  252.47    8.10
  -1   9   8  120.29    4.70
  -1   9   8  120.19    5.40
  -1   9   8  117.49    4.90
  -1   9   8  120.49    4.80
  -1   9   8  121.29    5.30
  -1   9   8  116.39    4.70
   0   9   8   16.30    1.70
   0   9   8   16.80    1.70
   0   9   8   17.10    1.70
   0   9   8   17.10    2.00
   0   9   8   14.40    1.70
   6 -10  -8   15.00    1.60
   6 -10  -8   10.70    1.30
  -6  10   8   12.90    1.80
  -6  10   8   12.40    1.20
  -6  10   8   11.50    1.50
   5 -10  -8   28.60    2.30
  -5  10   8   21.20    2.50
  -5  10   8   25.40    2.20
  -5  10   8   26.80    2.20
  -5  10   8   25.80    2.20
  -5  10   8   21.80    2.40
  -5  10   8   28.50    1.70
  -5  10   8   25.60    1.90
  -5  10   8   26.20    2.60
  -4  10   8  289.17    8.50
  -4  10   8  323.17    8.60
  -4  10   8  322.77    9.40
  -4  10   8  305.67    8.40
  -4  10   8  314.47    9.10
  -4  10   8  305.47    8.70
  -4  10   8  321.57    9.80
  -4  10   8  312.37    9.90
  -3  10   8  254.97    8.30
  -3  10   8  253.37    7.60
  -3  10   8  251.97    7.40
  -3  10   8  247.48    7.30
  -3  10   8  252.97    8.50
  -3  10   8  261.47    8.20
  -3  10   8  251.67    7.30
  -3  10   8  258.17    8.10
  -2  10   8   55.29    3.10
  -2  10   8   57.19    3.20
  -2  10   8   54.49    2.70
  -2  10   8   54.59    3.10
  -2  10   8   56.49    2.80
  -2  10   8   54.19    2.70
  -2  10   8   53.99    2.60
  -1  10   8  666.83   15.40
  -1  10   8  645.54   15.10
  -1  10   8  680.93   15.70
  -1  10   8  652.43   15.40
  -1  10   8  670.63   15.90
  -1  10   8  649.64   15.30
   0  11  -9  518.05   13.30
   0  11  -9  515.85   13.40
   0 -11   9  509.25   12.60
  -1  11  -9  217.48    7.20
  -1  11  -9  224.18    7.50
  -1  11  -9  212.98    7.10
   1 -11   9  227.48    6.60
   1 -11   9  235.58    6.90
   1 -11   9  226.18    6.50
  -2  11  -9   21.70    2.50
  -2  11  -9   24.40    2.60
   2 -11   9   25.20    2.20
   2 -11   9   21.80    2.00
  -3  11  -9  219.68    7.00
  -3  11  -9  226.48    7.30
  -3  11  -9  229.28    7.80
   3 -11   9  231.08    7.00
   3 -11   9  227.68    6.90
  -4  11  -9   43.30    2.80
  -4  11  -9   41.90    2.60
   4 -11   9   45.40    2.50
   4 -11   9   46.60    2.50
   2  10  -9   32.10    2.80
   2  10  -9   32.30    2.30
  -2 -10   9   34.30    2.00
  -2 -10   9   30.80    2.00
   1  10  -9    0.20    0.80
   1  10  -9    0.60    0.90
   1  10  -9    1.10    0.80
  -1 -10   9    1.20    0.80
  -1 -10   9    0.70    0.60
   0  10  -9   67.69    4.30
   0  10  -9   56.79    3.80
   0 -10   9   63.79    3.50
   0 -10   9   62.69    3.20
   0 -10   9   65.49    3.60
  -1  10  -9   74.79    4.40
  -1  10  -9   75.89    4.40
  -1  10  -9   76.19    4.60
   1 -10   9   76.09    3.70
   1 -10   9   80.89    4.10
   1 -10   9   81.79    4.10
  -2  10  -9  134.89    6.20
  -2  10  -9  135.49    6.20
   2 -10   9  136.59    5.50
   2 -10   9  152.48    5.90
   2 -10   9  130.79    5.50
  -3  10  -9   72.99    4.00
  -3  10  -9   82.49    4.60
  -3  10  -9   74.19    4.30
   3 -10   9   70.19    3.80
   3 -10   9   77.39    3.90
   3 -10   9   76.79    4.10
  -4  10  -9  302.67    9.50
  -4  10  -9  299.27   10.00
   4 -10   9  285.07    9.00
   4 -10   9  309.17    9.30
  -5  10  -9    3.10    1.00
  -5  10  -9    1.60    0.90
  -5  10  -9    1.40    0.90
   5 -10   9    2.50    0.90
   5 -10   9    0.90    0.70
   3   9  -9    0.70    0.70
   3   9  -9    1.30    1.10
   3   9  -9    2.30    0.90
  -3  -9   9   -0.10    0.60
  -3  -9   9    0.10    0.50
  -3  -9   9    1.20    0.80
   2   9  -9  252.57    9.20
   2   9  -9  242.98    8.30
  -2  -9   9  241.58    8.20
  -2  -9   9  249.97    7.90
  -2  -9   9  259.17    8.30
   1   9  -9    9.20    2.20
   1   9  -9   14.40    2.40
   1   9  -9    9.50    1.80
  -1  -9   9    9.10    1.90
  -1  -9   9    8.80    1.80
  -1  -9   9    7.10    1.50
   0   9  -9  992.50   24.90
   0   9  -9  842.72   23.70
   0   9  -9  979.80   25.60
   0  -9   9  973.10   24.10
   0  -9   9  973.60   23.70
  -1   9  -9   34.60    3.80
  -1   9  -9   29.30    3.50
  -1   9  -9   37.50    4.20
   1  -9   9   30.40    3.40
   1  -9   9   27.20    2.80
   1  -9   9   33.10    3.30
  -2   9  -9    1.70    1.00
  -2   9  -9    0.60    1.10
  -2   9  -9    1.20    1.10
   2  -9   9    0.20    0.70
   2  -9   9    0.20    0.80
   2  -9   9    0.40    0.80
  -3   9  -9  188.68    7.40
  -3   9  -9  201.08    7.90
  -3   9  -9  188.28    7.90
   3  -9   9  193.08    7.30
   3  -9   9  195.58    7.50
   3  -9   9  189.58    7.40
  -4   9  -9   38.60    3.60
  -4   9  -9   44.30    3.70
  -4   9  -9   41.30    4.00
   4  -9   9   40.60    3.60
   4  -9   9   44.70    3.70
   4  -9   9   41.30    3.70
  -5   9  -9   54.09    4.20
  -5   9  -9   52.29    4.00
  -5   9  -9   50.19    3.90
   5  -9   9   54.19    3.50
   5  -9   9   53.89    4.80
   5  -9   9   49.00    3.80
  -6   9  -9  126.59    4.90
  -6   9  -9  113.59    4.80
   6  -9   9  118.29    4.90
   6  -9   9  123.69    4.90
   4   8  -9   23.60    2.50
   4   8  -9   30.70    2.70
   4   8  -9   25.60    2.40
  -4  -8   9   26.60    2.00
  -4  -8   9   26.20    2.50
  -4  -8   9   24.50    2.30
   3   8  -9   63.29    3.90
   3   8  -9   61.99    4.20
   3   8  -9   61.29    3.80
  -3  -8   9   66.69    3.80
  -3  -8   9   65.09    3.50
  -3  -8   9   68.29    4.10
   2   8  -9  100.29    5.20
   2   8  -9   89.69    5.00
   2   8  -9   96.69    5.70
  -2  -8   9   93.99    5.20
  -2  -8   9   93.59    5.00
  -2  -8   9  102.29    4.80
   1   8  -9   86.19    5.70
   1   8  -9   86.29    4.90
   1   8  -9   89.19    5.10
  -1  -8   9   85.39    4.60
  -1  -8   9   92.89    5.30
  -1  -8   9   99.09    5.30
   0   8  -9    2.50    1.30
   0   8  -9    4.70    1.80
   0   8  -9    1.70    1.10
   0  -8   9    3.40    1.40
   0  -8   9   -0.50    0.60
   0  -8   9    3.90    1.30
   0  -8   9    5.80    1.90
  -1   8  -9  241.18    9.70
  -1   8  -9  248.68    9.10
  -1   8  -9  240.18    9.30
   1  -8   9  222.88    9.00
   1  -8   9  233.98    8.20
   1  -8   9  247.28    9.10
   1  -8   9  237.58    8.70
  -2   8  -9   53.39    3.50
  -2   8  -9   43.10    4.20
  -2   8  -9   54.09    4.80
   2  -8   9   54.39    3.60
   2  -8   9   49.80    4.50
   2  -8   9   49.50    4.20
  -3   8  -9 1119.59   28.40
  -3   8  -9 1167.18   27.80
   3  -8   9 1128.79   28.30
   3  -8   9 1135.69   28.10
   3  -8   9 1135.49   27.80
  -4   8  -9   93.79    4.80
  -4   8  -9   83.49    4.80
  -4   8  -9   80.69    4.40
   4  -8   9   78.99    4.70
   4  -8   9   79.49    4.60
   4  -8   9   87.29    4.80
  -5   8  -9    0.10    0.60
  -5   8  -9    0.50    0.90
  -5   8  -9    0.80    0.80
   5  -8   9    1.30    0.90
   5  -8   9   -0.30    0.70
   5  -8   9    0.00    0.90
  -6   8  -9   61.59    3.60
  -6   8  -9   56.49    3.30
  -6   8  -9   57.39    3.40
   6  -8   9   53.09    3.40
   6  -8   9   55.59    3.10
   6  -8   9   55.59    3.50
  -7   8  -9  190.28    6.20
  -7   8  -9  201.98    6.30
   7  -8   9  194.38    6.40
   7  -8   9  191.48    6.10
   5   7  -9    1.80    0.90
   5   7  -9    1.10    0.70
  -5  -7   9    1.40    0.80
  -5  -7   9    0.70    0.80
   4   7  -9   88.39    4.80
   4   7  -9   82.29    4.50
   4   7  -9   83.09    4.70
  -4  -7   9   84.89    4.60
  -4  -7   9   83.49    4.30
   3   7  -9 1852.11   44.20
   3   7  -9 1823.82   43.20
   3   7  -9 1879.41   43.20
  -3  -7   9 1854.11   42.80
  -3  -7   9 1846.02   43.30
   2   7  -9  733.63   20.00
   2   7  -9  767.92   21.40
   2   7  -9  742.53   20.30
  -2  -7   9  744.03   20.80
  -2  -7   9  756.42   19.60
  -2  -7   9  739.43   20.30
   1   7  -9 1843.22   45.00
   1   7  -9 1892.31   43.80
   1   7  -9 1948.91   43.90
  -1  -7   9 1848.12   44.60
  -1  -7   9 1897.21   44.00
  -1  -7   9 1908.11   43.30
   0   7  -9  593.74   16.90
   0   7  -9  600.84   16.60
   0   7  -9  584.44   17.70
   0  -7   9  585.94   17.40
   0  -7   9  591.94   17.00
   0  -7   9  602.14   16.50
  -1   7  -9   28.30    2.90
  -1   7  -9   30.20    3.70
  -1   7  -9   31.60    3.50
  -1   7  -9   26.40    3.00
   1  -7   9   27.90    3.30
   1  -7   9   33.30    3.80
   1  -7   9   21.00    2.70
  -2   7  -9  188.98    7.50
  -2   7  -9  176.48    7.20
  -2   7  -9  185.18    7.00
   2  -7   9  173.78    7.60
   2  -7   9  184.08    7.30
   2  -7   9  188.58    7.70
   2  -7   9  187.78    7.10
  -3   7  -9   58.49    4.70
  -3   7  -9   58.19    3.70
   3  -7   9   54.79    4.60
   3  -7   9   61.59    4.00
   3  -7   9   50.99    4.40
   3  -7   9   58.99    5.10
  -4   7  -9  506.65   14.60
  -4   7  -9  521.65   14.50
   4  -7   9  511.45   15.20
   4  -7   9  474.85   15.00
   4  -7   9  516.45   14.90
   4  -7   9  509.25   13.80
  -5   7  -9   26.20    2.90
  -5   7  -9   26.90    3.00
   5  -7   9   25.90    3.20
   5  -7   9   24.00    3.00
   5  -7   9   28.10    3.30
   5  -7   9   26.30    2.80
  -6   7  -9  262.07    8.60
  -6   7  -9  279.27    9.00
  -6   7  -9  285.17    9.00
   6  -7   9  260.37    7.90
   6  -7   9  279.07    9.00
   6  -7   9  276.57    9.50
   6  -7   9  286.97    9.60
  -7   7  -9  197.88    6.40
  -7   7  -9  191.58    6.60
  -7   7  -9  182.88    6.00
   7  -7   9  189.78    6.70
   7  -7   9  198.08    6.90
   7  -7   9  203.58    6.60
   6   6  -9  194.38    6.30
   6   6  -9  176.18    5.90
  -6  -6   9  184.98    6.10
   5   6  -9   21.50    2.60
   5   6  -9   20.30    2.70
   5   6  -9   21.40    2.80
  -5  -6   9   20.60    2.40
  -5  -6   9   23.00    2.80
  -5  -6   9   19.60    2.70
   4   6  -9  169.58    7.50
   4   6  -9  153.58    7.30
   4   6  -9  155.78    6.90
  -4  -6   9  165.78    7.70
  -4  -6   9  163.28    7.30
  -4  -6   9  160.98    6.80
   3   6  -9   37.40    4.00
   3   6  -9   37.70    4.10
   3   6  -9   38.20    3.40
   3   6  -9   32.60    4.00
  -3  -6   9   39.80    4.00
  -3  -6   9   44.50    4.80
  -3  -6   9   35.90    4.10
   2   6  -9  713.53   19.40
   2   6  -9  728.03   20.70
   2   6  -9  752.32   20.10
  -2  -6   9  730.93   21.10
  -2  -6   9  763.82   20.20
  -2  -6   9  724.23   20.60
   1   6  -9   15.20    2.40
   1   6  -9   16.20    2.60
   1   6  -9   17.90    3.00
   1   6  -9   20.50    2.50
  -1  -6   9   13.80    2.40
  -1  -6   9   19.10    3.00
  -1  -6   9   14.50    2.30
   0   6  -9  946.61   22.80
   0   6  -9  895.51   23.80
   0   6  -9  923.71   23.10
   0  -6   9  930.21   23.60
   0  -6   9  852.71   23.80
   0  -6   9  933.31   22.80
  -1   6  -9  234.18    8.40
  -1   6  -9  244.68    8.40
   1  -6   9  242.88    8.80
   1  -6   9  229.28    9.10
   1  -6   9  235.98    7.80
   1  -6   9  247.48    8.50
  -2   6  -9  533.35   15.00
  -2   6  -9  551.84   15.20
   2  -6   9  544.85   14.20
   2  -6   9  559.74   14.70
   2  -6   9  525.65   15.90
   2  -6   9  547.15   15.70
   2  -6   9  511.05   14.70
   2  -6   9  556.54   15.40
  -3   6  -9  445.76   12.80
   3  -6   9  434.86   13.20
   3  -6   9  423.56   13.70
   3  -6   9  413.96   13.40
   3  -6   9  434.26   12.90
   3  -6   9  437.46   12.20
   3  -6   9  418.16   12.10
  -4   6  -9  208.78    7.50
  -4   6  -9  186.58    7.40
   4  -6   9  223.68    8.50
   4  -6   9  194.98    8.10
   4  -6   9  188.68    7.20
   4  -6   9  194.48    8.10
   4  -6   9  202.48    7.30
   4  -6   9  190.28    7.90
  -5   6  -9  137.29    5.80
   5  -6   9  142.99    5.40
   5  -6   9  127.59    6.40
   5  -6   9  135.69    6.50
   5  -6   9  144.99    6.80
   5  -6   9  128.09    6.00
   5  -6   9  131.09    5.80
  -6   6  -9  362.26   11.10
   6  -6   9  369.06   11.60
   6  -6   9  382.96   12.20
   6  -6   9  375.46   10.60
   6  -6   9  408.76   12.40
   6  -6   9  383.96   11.20
  -7   6  -9   69.29    3.60
  -7   6  -9   73.79    3.60
   7  -6   9   70.19    3.40
   7  -6   9   69.39    3.90
   7  -6   9   67.99    3.80
   7  -6   9   67.99    3.20
   6   5  -9    4.40    1.30
   6   5  -9    6.00    1.50
   6   5  -9    5.50    1.30
  -6  -5   9    6.80    1.50
  -6  -5   9    3.00    1.00
  -6  -5   9    4.70    1.50
   5   5  -9   21.40    2.90
   5   5  -9   14.40    2.50
   5   5  -9   19.80    3.10
  -5  -5   9   13.30    2.60
  -5  -5   9   14.30    2.20
  -5  -5   9   17.80    2.70
   4   5  -9 1250.47   30.90
   4   5  -9 1209.18   31.20
   4   5  -9 1270.57   31.60
  -4  -5   9 1237.88   32.30
  -4  -5   9 1264.97   30.50
  -4  -5   9 1286.07   31.60
   3   5  -9  104.89    5.80
   3   5  -9  107.99    5.60
   3   5  -9  118.89    6.10
  -3  -5   9  105.89    5.50
  -3  -5   9  106.09    6.30
  -3  -5   9  103.89    5.90
   2   5  -9 1324.27   31.90
   2   5  -9 1333.37   31.50
   2   5  -9 1328.77   32.60
  -2  -5   9 1331.87   32.90
  -2  -5   9 1337.47   32.00
  -2  -5   9 1345.17   33.70
   1   5  -9  207.48    9.50
   1   5  -9  216.88    9.20
   1   5  -9  210.88    9.50
   1   5  -9  213.98    8.10
  -1  -5   9  213.78   10.90
  -1  -5   9  217.78    9.90
  -1  -5   9  200.28    9.80
  -1  -5   9  209.68    8.20
   0   5  -9  603.54   17.20
   0   5  -9  634.44   19.00
   0  -5   9  628.94   19.40
   0  -5   9  601.54   17.20
   0  -5   9  647.54   20.90
  -1   5  -9 1005.30   24.50
  -1   5  -9  995.40   26.30
  -1   5  -9  963.50   25.00
   1  -5   9  971.80   28.30
   1  -5   9  971.60   25.30
   1  -5   9 1008.40   27.50
  -2   5  -9   24.90    3.00
  -2   5  -9   26.70    3.20
   2  -5   9   23.80    3.30
   2  -5   9   28.60    5.00
   2  -5   9   32.30    4.40
  -3   5  -9 1439.56   32.70
   3  -5   9 1360.76   33.10
   3  -5   9 1393.46   32.70
   3  -5   9 1425.16   32.50
   3  -5   9 1383.56   34.00
   3  -5   9 1373.26   34.00
   3  -5   9 1431.46   32.60
   3  -5   9 1419.36   34.40
   3  -5   9 1437.66   33.70
   4  -5   9    1.80    1.20
   4  -5   9    2.70    1.20
   4  -5   9    1.30    1.20
   4  -5   9    2.10    1.20
   4  -5   9    1.20    0.90
   4  -5   9    1.80    0.90
   4  -5   9    3.00    1.40
   4  -5   9    1.40    1.30
  -5   5  -9  997.00   24.00
   5  -5   9  991.00   24.60
   5  -5   9  990.70   24.10
   5  -5   9  998.00   26.00
   5  -5   9  991.40   25.20
   5  -5   9  970.00   23.50
   5  -5   9 1005.80   24.50
   5  -5   9 1006.60   25.80
   5  -5   9  990.70   25.70
   5  -5   9  958.50   25.80
   5  -5   9  990.70   24.00
  -6   5  -9  137.59    5.70
   6  -5   9  132.59    5.80
   6  -5   9  137.99    6.70
   6  -5   9  142.09    5.50
   6  -5   9  142.99    6.70
   6  -5   9  141.09    5.70
   6  -5   9  134.09    6.20
   6  -5   9  129.99    5.40
   6  -5   9  136.79    5.20
   6  -5   9  142.09    5.40
  -7   5  -9   58.99    3.10
  -7   5  -9   63.79    3.50
   7  -5   9   61.09    3.60
   7  -5   9   60.09    3.00
   7  -5   9   70.99    3.90
   7  -5   9   61.89    3.00
   7  -5   9   61.19    3.10
   7  -5   9   59.89    3.30
   7  -5   9   57.69    3.70
   7   4  -9  283.37    8.80
   7   4  -9  281.97    8.90
  -7  -4   9  315.07    9.30
  -7  -4   9  279.87    8.40
   6   4  -9    3.20    1.20
   6   4  -9    3.40    1.40
   6   4  -9    2.40    1.30
  -6  -4   9    2.00    1.40
  -6  -4   9    5.10    1.50
  -6  -4   9    4.00    1.70
   5   4  -9    2.70    1.40
   5   4  -9    1.10    1.30
   5   4  -9    2.80    1.30
  -5  -4   9    1.60    1.40
  -5  -4   9    2.20    1.30
  -5  -4   9    1.40    1.70
   4   4  -9    7.50    2.00
   4   4  -9    7.40    1.80
   4   4  -9    9.20    2.60
   4   4  -9    8.30    2.00
  -4  -4   9    5.80    1.90
  -4  -4   9    7.30    2.30
  -4  -4   9    6.30    1.80
   3   4  -9  915.71   23.50
   3   4  -9  916.71   23.50
   3   4  -9  896.11   23.00
  -3  -4   9  922.91   23.80
  -3  -4   9  861.51   24.50
  -3  -4   9  896.71   24.70
  -3  -4   9  910.91   22.90
   2   4  -9    6.70    2.00
   2   4  -9    7.60    2.30
  -2  -4   9    9.60    2.90
  -2  -4   9    7.70    2.20
   1   4  -9  538.05   16.40
   1   4  -9  533.95   15.00
   1   4  -9  553.04   16.70
  -1  -4   9  537.25   18.70
  -1  -4   9  523.65   16.90
   0   4  -9  756.12   20.10
   0   4  -9  766.32   19.50
   0   4  -9  780.92   21.30
   0  -4   9  772.02   22.00
   0  -4   9  774.52   20.00
   0  -4   9  769.62   23.70
  -1   4  -9  810.42   22.00
  -1   4  -9  872.41   21.80
  -1   4  -9  827.42   21.30
   1  -4   9  816.22   21.80
   1  -4   9  825.02   21.60
   1  -4   9  851.81   23.60
   1  -4   9  841.62   25.10
  -2   4  -9 1113.19   26.80
  -2   4  -9 1077.59   25.80
  -2   4  -9 1088.39   26.90
   2  -4   9 1081.09   30.40
   2  -4   9 1092.09   29.30
   2  -4   9 1047.30   27.40
  -3   4  -9 1445.76   33.20
  -3   4  -9 1454.35   34.10
  -3   4  -9 1381.16   33.80
  -3   4  -9 1454.15   34.30
  -3   4  -9 1392.76   34.70
   3  -4   9 1446.16   33.60
   3  -4   9 1527.55   39.40
   3  -4   9 1410.16   34.30
   3  -4   9 1438.16   33.20
   3  -4   9 1466.25   33.10
   3  -4   9 1479.75   38.00
   3  -4   9 1412.36   34.60
   3  -4   9 1380.06   34.00
   4  -4   9   30.80    3.70
   4  -4   9   31.20    3.00
   4  -4   9   27.00    3.40
   4  -4   9   28.80    3.00
   4  -4   9   31.40    3.60
   4  -4   9   32.20    3.20
   4  -4   9   37.20    3.30
   4  -4   9   28.90    3.50
   4  -4   9   25.90    2.70
   4  -4   9   32.30    3.40
   4  -4   9   29.30    3.50
   5  -4   9  788.02   19.70
   5  -4   9  767.02   19.60
   5  -4   9  778.92   20.70
   5  -4   9  810.72   21.80
   5  -4   9  795.92   20.30
   5  -4   9  786.82   19.90
   5  -4   9  788.62   21.20
   5  -4   9  789.02   21.70
   5  -4   9  801.12   20.30
   5  -4   9  776.62   21.30
  -6   4  -9  216.08    7.20
   6  -4   9  204.58    8.50
   6  -4   9  194.58    6.90
   6  -4   9  196.98    7.60
   6  -4   9  220.18    7.30
   6  -4   9  201.88    8.00
   6  -4   9  204.68    7.30
   6  -4   9  211.48    7.40
   6  -4   9  213.48    7.50
   6  -4   9  213.88    8.50
  -7   4  -9   35.90    3.00
   7  -4   9   34.30    3.30
   7  -4   9   37.90    3.30
   7  -4   9   34.70    2.70
   7  -4   9   34.80    2.90
   7  -4   9   40.40    2.40
   7  -4   9   32.60    2.20
   7  -4   9   38.00    2.40
   7  -4   9   37.10    2.40
   7   3  -9   87.99    4.60
   7   3  -9   97.39    5.10
  -7  -3   9   92.19    4.40
  -7  -3   9   96.29    5.10
  -7  -3   9   96.29    5.10
   6   3  -9   39.10    4.40
   6   3  -9   34.00    3.40
   6   3  -9   38.30    4.00
  -6  -3   9   32.40    3.60
  -6  -3   9   31.30    4.20
  -6  -3   9   37.60    4.40
   5   3  -9  273.97   10.40
   5   3  -9  282.97   10.00
   5   3  -9  272.17   10.70
  -5  -3   9  280.97   10.20
  -5  -3   9  298.27   11.30
  -5  -3   9  283.67   11.40
   4   3  -9  468.65   14.70
   4   3  -9  467.05   14.50
   4   3  -9  475.35   14.20
   4   3  -9  480.95   14.00
  -4  -3   9  472.95   15.70
  -4  -3   9  455.85   15.20
  -4  -3   9  485.35   14.50
   3   3  -9  322.87   12.40
   3   3  -9  309.27   11.70
  -3  -3   9  308.67   11.90
  -3  -3   9  334.97   14.30
   2   3  -9   19.00    2.40
   2   3  -9   16.00    2.70
   2   3  -9   15.00    2.70
  -2  -3   9   15.20    2.90
  -2  -3   9   15.80    2.80
  -2  -3   9   15.50    3.30
   1   3  -9 1629.34   38.60
   1   3  -9 1619.74   37.60
   1   3  -9 1674.93   39.10
  -1  -3   9 1687.93   42.20
  -1  -3   9 1593.64   39.00
  -1  -3   9 1615.24   39.60
   0   3  -9 2215.68   49.50
   0   3  -9 2107.19   48.40
   0   3  -9 2159.08   47.70
   0   3  -9 2159.78   48.30
   0  -3   9 2105.49   50.19
   0  -3   9 2177.48   48.00
   0  -3   9 2207.98   52.89
   0  -3   9 2111.59   49.60
  -1   3  -9    1.30    0.80
  -1   3  -9    1.40    0.90
  -1   3  -9    0.70    0.80
  -1   3  -9    4.00    1.20
   1  -3   9    2.10    1.00
   1  -3   9    2.10    1.50
   1  -3   9    2.20    1.20
   1  -3   9    2.30    1.30
  -2   3  -9  626.24   17.50
  -2   3  -9  629.14   16.80
  -2   3  -9  639.64   17.30
   2  -3   9  644.34   19.40
   2  -3   9  654.23   18.00
   2  -3   9  654.93   18.10
   2  -3   9  635.34   20.70
  -3   3  -9  317.37   10.50
  -3   3  -9  339.57   11.20
  -3   3  -9  336.87   11.80
  -3   3  -9  335.07   10.50
  -3   3  -9  339.37   11.20
   3  -3   9  352.06   13.00
   3  -3   9  327.57   13.40
   3  -3   9  325.07   11.90
   4  -3   9  925.11   23.50
   4  -3   9  920.81   22.90
   4  -3   9  924.81   22.90
   4  -3   9  902.91   24.40
   4  -3   9  960.20   24.60
   4  -3   9  945.51   23.90
   4  -3   9  945.91   24.40
   4  -3   9  935.11   23.30
   4  -3   9  971.40   24.80
   4  -3   9  916.91   24.20
   4  -3   9  923.61   22.50
   5  -3   9   13.00    2.60
   5  -3   9   12.50    2.10
   5  -3   9   14.50    2.50
   5  -3   9   15.40    2.10
   5  -3   9   13.80    2.00
   5  -3   9   15.20    2.50
   5  -3   9   11.70    2.20
   5  -3   9   14.30    2.10
   5  -3   9   13.70    2.60
   5  -3   9   12.40    2.10
   6  -3   9   13.10    2.10
   6  -3   9   15.20    2.70
   6  -3   9   13.30    2.40
   6  -3   9   13.80    2.20
   6  -3   9   20.90    2.50
   6  -3   9   15.90    2.10
   6  -3   9   15.70    2.40
   6  -3   9   14.90    2.10
   6  -3   9   13.20    1.90
  -7   3  -9  247.88    7.70
   7  -3   9  256.77    7.70
   7  -3   9  249.97    8.70
   7  -3   9  247.88    7.60
   7  -3   9  250.07    7.80
   7  -3   9  260.97    7.70
   7  -3   9  263.37    8.10
   7  -3   9  252.57    7.50
   7  -3   9  272.97    8.70
   8   2  -9  211.78    7.00
   8   2  -9  198.18    6.50
  -8  -2   9  201.48    7.00
  -8  -2   9  193.78    6.80
   7   2  -9   43.60    4.00
   7   2  -9   45.60    4.50
  -7  -2   9   43.30    4.20
  -7  -2   9   46.90    4.70
   6   2  -9   16.90    2.70
   6   2  -9   18.10    2.70
   6   2  -9   15.20    2.80
  -6  -2   9   11.50    2.70
  -6  -2   9   17.90    3.10
  -6  -2   9   12.50    2.30
   5   2  -9    8.80    2.10
   5   2  -9    8.40    1.80
   5   2  -9    9.90    2.20
  -5  -2   9    9.10    2.00
  -5  -2   9    7.80    2.30
  -5  -2   9   10.50    2.40
  -5  -2   9    6.10    2.00
   4   2  -9   18.60    2.70
   4   2  -9   25.90    3.80
   4   2  -9   26.60    4.40
   4   2  -9   25.60    2.90
   4   2  -9   25.90    3.80
   4   2  -9   26.00    3.20
  -4  -2   9   25.60    3.20
  -4  -2   9   21.90    3.50
  -4  -2   9   20.60    3.40
  -4  -2   9   20.20    3.20
  -4  -2   9   23.20    3.90
  -4  -2   9   23.40    4.60
   3   2  -9  693.33   20.30
   3   2  -9  730.43   20.90
  -3  -2   9  728.23   20.60
  -3  -2   9  753.02   23.60
  -3  -2   9  765.92   21.50
   2   2  -9  262.57    9.90
   2   2  -9  261.77    8.70
   2   2  -9  262.27    9.70
  -2  -2   9  273.77   11.90
  -2  -2   9  271.77   10.00
  -2  -2   9  266.97   10.30
   1   2  -9  121.19    5.40
   1   2  -9  120.39    5.30
   1   2  -9  128.49    6.00
   1   2  -9  111.09    5.30
  -1  -2   9  127.29    6.40
  -1  -2   9  114.49    6.00
  -1  -2   9  113.09    5.20
  -1  -2   9  117.79    7.30
   0   2  -9  879.01   22.40
   0   2  -9  873.01   22.00
   0   2  -9  848.42   22.10
   0  -2   9  877.81   22.10
   0  -2   9  861.51   23.30
   0  -2   9  876.31   23.40
   0  -2   9  908.11   25.80
  -1   2  -9 1440.66   33.70
  -1   2  -9 1386.76   33.90
  -1   2  -9 1395.86   33.70
  -1   2  -9 1439.26   33.70
   1  -2   9 1448.06   35.50
   1  -2   9 1498.35   35.20
   1  -2   9 1451.65   33.50
   1  -2   9 1477.05   37.80
  -2   2  -9 1264.57   29.60
  -2   2  -9 1236.68   30.10
  -2   2  -9 1241.78   29.60
   2  -2   9 1249.07   30.40
   2  -2   9 1229.88   31.90
   2  -2   9 1201.28   33.20
   2  -2   9 1215.48   30.70
  -3   2  -9   24.40    3.50
  -3   2  -9   24.90    2.90
  -3   2  -9   25.40    3.20
  -3   2  -9   22.30    3.00
  -3   2  -9   22.70    2.70
   3  -2   9   21.10    3.40
   3  -2   9   22.80    3.90
   3  -2   9   21.20    3.30
   4  -2   9 1023.60   26.80
   4  -2   9 1059.19   25.60
   4  -2   9 1050.79   26.70
   4  -2   9 1084.29   26.00
   4  -2   9 1052.49   25.30
   4  -2   9 1039.80   25.60
   4  -2   9 1037.70   26.90
   4  -2   9 1035.60   26.90
   4  -2   9 1081.89   26.90
   4  -2   9 1043.50   26.40
   5  -2   9   23.10    2.90
   5  -2   9   25.80    3.50
   5  -2   9   26.40    2.80
   5  -2   9   24.30    3.20
   5  -2   9   29.60    3.10
   5  -2   9   30.50    3.60
   5  -2   9   23.60    2.60
   5  -2   9   24.00    3.20
   5  -2   9   25.70    3.10
   6  -2   9   60.59    3.40
   6  -2   9   55.79    3.70
   6  -2   9   58.69    3.40
   6  -2   9   59.19    4.60
   6  -2   9   58.59    3.70
   6  -2   9   51.39    4.70
   6  -2   9   56.49    3.30
   6  -2   9   59.49    4.80
   6  -2   9   59.79    3.60
   7  -2   9    5.70    1.20
   7  -2   9    5.40    1.00
   7  -2   9    8.90    1.30
   7  -2   9    8.80    1.40
   7  -2   9    7.60    1.50
   7  -2   9    7.10    1.50
   7  -2   9    7.60    1.30
   7  -2   9    6.10    1.30
   8   1  -9   83.59    4.10
   8   1  -9   85.09    4.10
   8   1  -9   93.09    4.70
  -8  -1   9   83.39    4.60
  -8  -1   9   86.39    4.40
  -8  -1   9   88.49    4.90
   7   1  -9   13.10    2.40
   7   1  -9   13.00    2.40
   7   1  -9   10.60    2.30
  -7  -1   9    9.80    2.30
  -7  -1   9    9.60    2.40
  -7  -1   9   14.50    2.60
   6   1  -9   78.29    4.50
   6   1  -9   75.09    5.70
   6   1  -9   85.59    5.50
  -6  -1   9   81.49    5.40
  -6  -1   9   76.39    6.70
  -6  -1   9   81.89    6.40
   5   1  -9  899.81   23.10
   5   1  -9  879.01   22.30
   5   1  -9  904.51   23.70
  -5  -1   9  880.71   24.20
  -5  -1   9  893.31   24.90
  -5  -1   9  876.01   24.10
   4   1  -9   64.59    4.90
   4   1  -9   57.39    4.40
   4   1  -9   65.59    4.70
  -4  -1   9   67.39    7.10
  -4  -1   9   60.29    5.90
   3   1  -9   23.80    2.90
   3   1  -9   26.40    3.40
   3   1  -9   27.30    3.30
  -3  -1   9   23.90    3.70
  -3  -1   9   22.50    3.90
   2   1  -9  624.04   17.60
   2   1  -9  627.84   16.70
   2   1  -9  618.14   16.90
   2   1  -9  641.94   17.20
  -2  -1   9  646.44   18.90
  -2  -1   9  616.14   17.30
  -2  -1   9  656.53   17.80
  -2  -1   9  644.34   20.30
   1   1  -9  557.34   15.50
   1   1  -9  538.95   15.20
   1   1  -9  536.95   14.90
   1   1  -9  515.05   14.50
  -1  -1   9  547.35   15.70
  -1  -1   9  531.65   17.90
  -1  -1   9  550.84   15.40
  -1  -1   9  553.64   16.30
   0   1  -9  215.98    7.90
   0   1  -9  218.48    7.70
   0   1  -9  206.18    7.90
   0  -1   9  201.18    9.70
   0  -1   9  211.68    8.70
   0  -1   9  209.18    7.90
   0  -1   9  198.88    8.20
  -1   1  -9  532.25   14.60
  -1   1  -9  539.75   15.30
  -1   1  -9  495.45   14.40
   1  -1   9  502.15   17.60
   1  -1   9  531.45   16.00
   1  -1   9  529.65   15.90
  -2   1  -9 1605.54   36.90
  -2   1  -9 1549.05   36.10
  -2   1  -9 1588.24   36.00
   2  -1   9 1509.45   39.80
   2  -1   9 1541.35   36.90
   2  -1   9 1562.04   37.60
   2  -1   9 1507.55   38.00
  -3   1  -9   46.50    3.60
  -3   1  -9   45.80    3.90
  -3   1  -9   42.70    4.40
  -3   1  -9   44.00    4.20
  -3   1  -9   43.40    3.80
   3  -1   9   53.29    5.10
   3  -1   9   33.00    4.20
   3  -1   9   34.80    4.70
   3  -1   9   50.79    6.20
   4  -1   9  255.27    9.30
   4  -1   9  270.17    9.80
   4  -1   9  257.27    8.70
   4  -1   9  271.37    8.90
   4  -1   9  267.97    9.10
   4  -1   9  269.37    9.80
   4  -1   9  265.37    9.80
   4  -1   9  235.58    8.30
   4  -1   9  250.57    9.40
   5  -1   9  454.85   13.60
   5  -1   9  430.66   14.00
   5  -1   9  450.55   13.20
   5  -1   9  434.36   13.30
   5  -1   9  448.26   13.90
   5  -1   9  422.56   12.50
   5  -1   9  430.66   12.40
   5  -1   9  438.86   14.30
   5  -1   9  448.36   12.70
   6  -1   9  121.99    5.20
   6  -1   9  121.99    5.50
   6  -1   9  112.69    5.90
   6  -1   9  113.79    4.70
   6  -1   9  115.39    5.20
   6  -1   9  113.89    4.70
   6  -1   9  117.49    5.80
   6  -1   9  121.29    5.40
   7  -1   9  134.19    4.70
   7  -1   9  130.89    4.70
   7  -1   9  126.29    5.00
   7  -1   9  129.39    4.80
   7  -1   9  122.19    5.10
   7  -1   9  130.39    4.40
   7  -1   9  133.89    4.70
   7  -1   9  125.69    4.30
   8   0  -9   26.60    2.90
   8   0  -9   29.40    2.90
   8   0  -9   22.50    2.80
  -8   0   9   26.90    3.30
  -8   0   9   22.40    2.70
  -8   0   9   26.00    2.90
   7   0  -9    2.60    1.40
   7   0  -9    1.70    1.20
   7   0  -9    4.60    1.70
  -7   0   9    1.20    1.40
  -7   0   9    1.60    1.40
  -7   0   9    1.50    1.40
   6   0  -9    7.40    2.10
   6   0  -9    6.30    1.60
   6   0  -9    5.60    1.60
  -6   0   9    3.30    1.80
  -6   0   9    5.00    1.90
  -6   0   9    3.10    1.70
   5   0  -9   75.19    4.60
   5   0  -9   76.89    4.10
   5   0  -9   74.29    4.30
  -5   0   9   79.89    5.20
  -5   0   9   80.89    6.50
  -5   0   9   76.79    6.20
  -5   0   9   78.69    6.60
   4   0  -9  312.47   10.70
   4   0  -9  281.57   10.40
   4   0  -9  288.67   10.90
  -4   0   9  305.07   12.00
  -4   0   9  275.27   14.70
  -4   0   9  277.27   12.50
   3   0  -9  112.19    5.70
   3   0  -9  111.59    5.20
   3   0  -9  119.59    5.90
   3   0  -9  114.19    5.10
  -3   0   9  115.19    6.50
  -3   0   9  105.69    5.50
  -3   0   9  118.29    7.40
  -3   0   9  122.09    6.20
   2   0  -9  421.36   12.50
   2   0  -9  443.56   12.70
   2   0  -9  419.36   13.00
  -2   0   9  423.76   15.30
  -2   0   9  418.36   13.20
  -2   0   9  435.96   13.40
  -2   0   9  438.26   14.40
   1   0  -9  714.13   18.40
   1   0  -9  738.83   19.40
   1   0  -9  736.83   19.00
  -1   0   9  724.53   22.10
  -1   0   9  753.72   19.90
  -1   0   9  763.42   20.70
  -1   0   9  715.83   19.30
   0   0  -9    2.00    0.90
   0   0  -9    1.00    0.80
   0   0  -9    3.30    1.20
   0   0  -9    7.70    1.80
   0   0   9    1.60    1.30
   0   0   9    1.30    1.10
   0   0   9    1.20    1.20
   0   0   9    0.70    0.80
  -1   0  -9  943.61   23.00
  -1   0  -9  959.60   23.90
  -1   0  -9  883.21   22.70
   1   0   9  930.81   24.50
   1   0   9  925.01   24.20
   1   0   9  904.41   23.50
   1   0   9  913.61   26.20
  -2   0  -9  146.29    6.20
  -2   0  -9  147.29    6.30
  -2   0  -9  155.68    6.80
   2   0   9  145.99    7.00
   2   0   9  166.68    7.70
   2   0   9  147.89    8.10
  -3   0  -9  607.94   18.50
   3   0   9  568.24   16.20
   3   0   9  580.14   16.40
   3   0   9  571.74   16.20
   3   0   9  587.84   15.90
   3   0   9  583.34   16.00
   3   0   9  548.45   17.30
   3   0   9  572.14   18.20
   3   0   9  566.74   16.20
   3   0   9  580.14   16.40
   3   0   9  583.54   16.10
   4   0   9  197.38    8.00
   4   0   9  189.48    8.10
   4   0   9  186.78    7.70
   4   0   9  190.88    7.20
   4   0   9  200.58    7.90
   4   0   9  206.38    7.90
   4   0   9  186.38    7.20
   4   0   9  197.78    7.30
   5   0   9  792.62   21.30
   5   0   9  776.62   20.50
   5   0   9  791.82   19.60
   5   0   9  758.22   20.60
   5   0   9  817.52   21.00
   5   0   9  797.82   19.60
   5   0   9  798.42   20.40
   6   0   9   13.80    1.90
   6   0   9   15.20    1.80
   6   0   9   14.50    2.10
   6   0   9   12.70    2.20
   6   0   9   12.90    1.90
   6   0   9   14.80    1.90
   6   0   9   18.50    2.50
   7   0   9  116.09    4.40
   7   0   9  119.19    4.20
   7   0   9  116.19    4.10
   7   0   9  120.59    4.10
   7   0   9  114.59    4.30
   7   0   9  125.79    4.20
   7   0   9  113.49    3.80
   9  -1  -9  127.29    4.90
  -9   1   9  124.99    4.90
  -9   1   9  132.09    5.10
   8  -1  -9    1.50    1.00
   8  -1  -9    1.30    1.10
   8  -1  -9    1.40    1.00
  -8   1   9    1.70    1.30
  -8   1   9    2.60    1.40
   7  -1  -9  239.78    9.20
   7  -1  -9  240.48    9.50
   7  -1  -9  239.38    9.00
  -7   1   9  244.58   10.20
  -7   1   9  236.68    9.90
  -7   1   9  241.98    9.80
   6  -1  -9   82.69    5.00
   6  -1  -9   86.49    4.50
   6  -1  -9   79.79    4.80
   6  -1  -9   91.69    5.30
  -6   1   9  102.59    6.20
  -6   1   9   88.59    7.10
  -6   1   9   94.69    7.20
   5  -1  -9   33.80    3.40
   5  -1  -9   34.20    3.70
  -5   1   9   32.80    4.20
  -5   1   9   35.20    4.20
  -5   1   9   34.10    4.30
  -5   1   9   33.80    3.00
   4  -1  -9    2.80    1.20
   4  -1  -9    4.00    1.40
   4  -1  -9    3.30    1.20
  -4   1   9    2.20    1.50
  -4   1   9    2.40    1.70
  -4   1   9    0.80    1.30
   3  -1  -9    1.70    0.90
   3  -1  -9   -1.10    0.70
   3  -1  -9    1.00    0.90
   3  -1  -9    3.70    1.30
  -3   1   9    0.90    1.10
  -3   1   9    0.30    1.20
  -3   1   9    1.10    1.40
  -3   1   9    5.30    1.70
   2  -1  -9 1184.98   29.10
   2  -1  -9 1205.48   29.70
   2  -1  -9 1236.38   29.00
   2  -1  -9 1129.89   27.60
  -2   1   9 1268.57   30.40
  -2   1   9 1235.28   32.30
  -2   1   9 1218.78   31.00
  -2   1   9 1215.98   30.40
   1  -1  -9    5.90    1.30
   1  -1  -9    4.40    1.40
   1  -1  -9    5.80    1.50
  -1   1   9    3.70    1.60
  -1   1   9    3.60    1.70
  -1   1   9    6.10    1.80
  -1   1   9    2.50    1.20
   0  -1  -9  181.58    7.10
   0  -1  -9  159.18    6.00
   0  -1  -9  181.48    7.10
   0   1   9  177.58    8.80
   0   1   9  163.38    7.80
   0   1   9  170.38    7.30
  -1  -1  -9 2245.78   49.99
  -1  -1  -9 2135.49   49.90
  -1  -1  -9 2285.37   51.09
   1   1   9 2234.48   50.69
   1   1   9 2201.38   50.79
   1   1   9 2211.58   53.09
   1   1   9 2253.57   51.59
  -2  -1  -9  144.89    6.30
  -2  -1  -9  142.79    6.70
   2   1   9  163.38    7.50
   2   1   9  130.79    7.60
   3   1   9   29.90    3.30
   3   1   9   30.50    3.40
   3   1   9   28.70    3.30
   3   1   9   28.90    3.30
   3   1   9   30.70    3.20
   3   1   9   28.30    3.20
   3   1   9   31.10    3.30
   4   1   9  269.47    9.50
   4   1   9  281.17    8.90
   4   1   9  259.97    9.20
   4   1   9  260.87    9.40
   4   1   9  273.67    9.90
   4   1   9  266.17    8.70
   4   1   9  266.07    9.10
   5   1   9   21.30    2.40
   5   1   9   17.80    2.50
   5   1   9   21.30    2.60
   5   1   9   20.10    2.80
   5   1   9   17.50    2.30
   5   1   9   19.00    2.10
   6   1   9  406.66   11.00
   6   1   9  383.06   10.30
   6   1   9  415.86   11.80
   6   1   9  418.16   11.30
   6   1   9  419.96   11.20
   6   1   9  408.86   11.10
   6   1   9  409.86   11.60
   9  -2  -9   80.79    3.80
   9  -2  -9   83.49    3.60
  -9   2   9   77.09    3.90
  -9   2   9   76.89    3.90
   8  -2  -9   15.10    2.40
   8  -2  -9   22.70    2.70
   8  -2  -9   18.30    2.50
  -8   2   9   19.20    2.80
  -8   2   9   16.20    2.60
  -8   2   9   12.50    2.30
   7  -2  -9    1.60    1.10
   7  -2  -9    3.00    1.40
   7  -2  -9    2.50    1.30
  -7   2   9    2.10    1.70
  -7   2   9    1.60    1.50
  -7   2   9    3.30    1.70
   6  -2  -9  164.38    7.30
   6  -2  -9  150.68    6.70
   6  -2  -9  166.78    6.90
  -6   2   9  160.28    8.10
  -6   2   9  164.98    8.40
   5  -2  -9    2.80    1.30
  -5   2   9    1.40    1.30
  -5   2   9    3.40    1.80
  -5   2   9    1.40    1.00
  -5   2   9    2.80    2.00
  -5   2   9    4.60    1.90
   4  -2  -9    7.70    1.80
   4  -2  -9   10.80    2.20
   4  -2  -9    1.40    0.90
  -4   2   9    1.60    1.40
  -4   2   9    4.10    1.80
  -4   2   9    1.00    1.30
   3  -2  -9  401.46   12.30
   3  -2  -9  372.06   12.10
   3  -2  -9  377.76   12.60
   3  -2  -9  386.56   11.40
  -3   2   9  414.76   13.70
  -3   2   9  391.06   13.60
  -3   2   9  376.66   13.70
   2  -2  -9 2504.75   57.49
   2  -2  -9 2458.35   55.49
   2  -2  -9 2564.64   57.79
   2  -2  -9 2638.74   56.89
  -2   2   9 2561.84   58.49
  -2   2   9 2557.34   59.19
  -2   2   9 2668.83   59.19
   1  -2  -9  723.23   19.20
   1  -2  -9  698.33   19.10
   1  -2  -9  700.93   18.20
  -1   2   9  686.53   19.60
  -1   2   9  690.53   20.00
  -1   2   9  677.83   20.00
   0  -2  -9  376.76   12.10
   0  -2  -9  378.16   12.00
   0  -2  -9  357.56   11.10
   0   2   9  371.16   12.80
   0   2   9  389.96   13.50
   0   2   9  368.36   12.30
   0   2   9  381.06   12.90
  -1  -2  -9  431.46   13.00
  -1  -2  -9  424.56   13.50
   1   2   9  421.06   14.50
   1   2   9  423.56   13.70
   1   2   9  415.86   13.20
  -2  -2  -9  237.18    8.20
  -2  -2  -9  227.98    9.30
  -2  -2  -9  224.88    8.70
  -2  -2  -9  226.68    8.30
   2   2   9  222.98    9.70
   2   2   9  217.38    8.70
   2   2   9  238.08    8.60
   2   2   9  224.98    9.80
   3   2   9    1.20    1.00
   3   2   9    1.00    1.00
   3   2   9    2.50    1.10
   3   2   9    1.20    0.90
   3   2   9   -0.30    0.80
   4   2   9  354.96   11.10
   4   2   9  351.66   11.00
   4   2   9  346.97   10.70
   4   2   9  352.96   10.90
   5   2   9   32.70    3.00
   5   2   9   36.30    3.10
   5   2   9   34.40    2.80
   5   2   9   36.60    3.40
   5   2   9   37.00    3.10
   6   2   9  410.86   10.40
   6   2   9  322.37   10.00
   6   2   9  408.46   10.10
   6   2   9  377.56    9.70
   6   2   9  389.16   10.00
   6   2   9  399.66   10.20
   9  -3  -9   77.19    3.70
   9  -3  -9   76.49    3.60
  -9   3   9   70.49    3.80
  -9   3   9   74.39    3.80
   8  -3  -9  771.92   20.80
   8  -3  -9  808.12   20.20
   8  -3  -9  803.92   21.20
  -8   3   9  811.22   21.90
  -8   3   9  849.61   22.00
   7  -3  -9  256.07    9.60
   7  -3  -9  280.47    9.40
   7  -3  -9  295.47   10.30
  -7   3   9  266.07   11.10
  -7   3   9  275.47   10.90
  -7   3   9  291.57   11.10
   6  -3  -9  904.81   23.00
   6  -3  -9  919.51   22.40
   6  -3  -9  850.71   22.60
  -6   3   9  886.91   25.20
  -6   3   9  878.41   21.50
  -6   3   9  873.91   24.50
  -6   3   9  855.41   25.00
   5  -3  -9  769.82   19.70
  -5   3   9  753.92   22.20
  -5   3   9  772.02   21.60
  -5   3   9  752.82   19.00
  -5   3   9  769.42   18.80
  -5   3   9  719.53   21.00
  -5   3   9  765.82   22.60
   4  -3  -9  104.89    5.80
   4  -3  -9  113.79    6.10
   4  -3  -9  106.69    5.70
   4  -3  -9  122.49    5.80
  -4   3   9  117.09    6.90
  -4   3   9  102.69    6.80
  -4   3   9  113.29    7.00
   3  -3  -9  423.66   14.00
   3  -3  -9  450.15   13.60
   3  -3  -9  441.36   12.70
  -3   3   9  434.06   14.90
  -3   3   9  443.36   15.40
  -3   3   9  474.95   15.70
   2  -3  -9    1.40    0.90
   2  -3  -9    1.70    0.90
   2  -3  -9    0.70    0.70
  -2   3   9    1.20    1.30
  -2   3   9    1.20    1.20
  -2   3   9    0.60    1.10
  -2   3   9    0.50    1.00
   1  -3  -9   66.99    4.20
   1  -3  -9   77.19    4.90
  -1   3   9   66.19    5.00
  -1   3   9   78.09    5.30
  -1   3   9   70.29    4.80
   0  -3  -9  593.64   16.90
   0  -3  -9  572.14   16.90
   0  -3  -9  568.64   15.90
   0   3   9  556.14   16.90
   0   3   9  558.44   17.60
   0   3   9  571.44   16.90
  -1  -3  -9  499.35   15.50
   4   3   9    0.00    0.60
   4   3   9   -0.10    0.60
   4   3   9   -1.10    0.60
   4   3   9    0.40    0.60
   9  -4  -9    0.90    0.70
   9  -4  -9   -0.40    0.70
  -9   4   9    0.00    0.90
  -9   4   9    0.40    0.90
   8  -4  -9    4.90    1.40
   8  -4  -9    5.00    1.30
   8  -4  -9    5.00    1.50
  -8   4   9    4.70    1.70
  -8   4   9    6.20    1.90
  -8   4   9    4.80    1.60
   7  -4  -9  749.03   19.50
   7  -4  -9  767.92   20.40
   7  -4  -9  752.12   20.00
  -7   4   9  768.42   21.50
  -7   4   9  723.03   21.90
  -7   4   9  763.42   22.20
   6  -4  -9   78.79    4.50
   6  -4  -9   92.39    5.00
  -6   4   9   85.89    6.80
  -6   4   9   79.49    4.00
  -6   4   9   84.89    7.20
  -6   4   9   87.09    7.50
  -6   4   9   83.79    4.30
  -6   4   9   79.79    6.50
   5  -4  -9  867.51   21.80
  -5   4   9  876.41   22.00
  -5   4   9  872.61   25.50
  -5   4   9  891.91   24.50
  -5   4   9  891.41   25.10
  -5   4   9  900.81   24.20
  -5   4   9  862.51   21.20
  -5   4   9  885.41   21.70
  -5   4   9  876.31   22.00
  -4   4   9  369.16   10.60
  -4   4   9  370.96   12.60
  -4   4   9  381.16   15.40
  -4   4   9  355.06   11.90
  -4   4   9  373.26   13.40
  -4   4   9  397.76   17.00
  -4   4   9  362.66   12.70
  -4   4   9  391.96   14.10
  -4   4   9  372.86   10.60
  -4   4   9  346.27   11.20
  -4   4   9  359.46   10.80
  -4   4   9  381.36   13.30
  -4   4   9  371.66   11.30
   3  -4  -9 1385.46   33.40
   3  -4  -9 1358.36   34.40
   3  -4  -9 1390.26   32.50
  -3   4   9 1402.46   36.30
  -3   4   9 1364.76   34.60
  -3   4   9 1300.87   35.10
   2  -4  -9  122.09    6.60
   2  -4  -9  115.09    6.00
   2  -4  -9  124.69    5.50
  -2   4   9  111.79    7.00
  -2   4   9  110.99    6.60
  -2   4   9  112.69    6.50
   1  -4  -9  616.24   18.50
   1  -4  -9  633.64   17.60
  -1   4   9  589.84   19.00
  -1   4   9  602.34   18.20
  -1   4   9  599.54   18.50
   0  -4  -9   84.39    5.50
   0  -4  -9   81.19    5.60
   0   4   9   75.99    4.70
   0   4   9   86.19    5.30
   0   4   9   84.39    5.60
   0   4   9   75.09    4.50
   0   4   9   83.69    5.80
   9  -5  -9  388.16   10.20
  -9   5   9  364.06   10.80
  -9   5   9  387.76   11.00
   8  -5  -9  302.97    9.40
   8  -5  -9  280.17    8.70
   8  -5  -9  294.57    9.50
  -8   5   9  280.57    9.80
  -8   5   9  283.77   10.40
  -8   5   9  308.27   10.70
   7  -5  -9  222.48    8.30
   7  -5  -9  219.78    7.70
   7  -5  -9  212.48    8.10
  -7   5   9  208.78    9.80
  -7   5   9  217.98    9.70
  -7   5   9  233.08    9.20
   6  -5  -9  615.44   16.60
   6  -5  -9  604.14   16.90
  -6   5   9  611.64   15.70
  -6   5   9  624.24   18.70
  -6   5   9  624.04   16.20
  -6   5   9  598.24   19.70
  -6   5   9  599.04   19.20
   5  -5  -9  203.38    7.40
  -5   5   9  207.48    7.30
  -5   5   9  210.48    9.60
  -5   5   9  188.68    9.10
  -5   5   9  201.38    9.90
  -5   5   9  204.88    7.00
  -5   5   9  208.98    7.70
  -5   5   9  203.38    7.50
  -5   5   9  198.08    8.60
  -4   5   9  233.58    8.60
  -4   5   9  232.38   10.30
  -4   5   9  229.08    8.60
  -4   5   9  234.68    7.90
  -4   5   9  237.18   10.20
  -4   5   9  243.68    9.90
  -4   5   9  238.48    8.10
  -4   5   9  240.38    9.30
  -4   5   9  235.08    7.80
  -4   5   9  248.58   10.90
  -3   5   9  180.08    9.00
  -3   5   9  184.88    7.50
  -3   5   9  158.18    8.20
  -3   5   9  176.88    7.90
  -3   5   9  177.38    6.50
  -3   5   9  168.98    7.20
  -3   5   9  180.28    6.60
  -3   5   9  179.38    6.60
  -3   5   9  176.78    8.40
  -3   5   9  174.98    8.20
  -2   5   9 1255.67   31.40
  -2   5   9 1262.57   32.70
  -2   5   9 1241.98   30.50
  -2   5   9 1273.17   32.00
  -2   5   9 1244.88   29.10
  -2   5   9 1279.37   31.60
  -2   5   9 1220.38   30.50
  -2   5   9 1198.68   29.20
  -2   5   9 1246.38   29.10
  -1   5   9  392.26   13.10
  -1   5   9  403.36   11.70
  -1   5   9  397.56   12.70
  -1   5   9  399.66   12.70
  -1   5   9  409.16   13.40
  -1   5   9  391.06   11.50
  -1   5   9  400.36   13.10
   0   5   9 1696.73   39.10
   0   5   9 1686.43   37.90
   0   5   9 1661.23   39.30
   0   5   9 1641.24   39.10
   8  -6  -9  448.96   12.30
   8  -6  -9  434.96   12.40
  -8   6   9  439.56   13.80
  -8   6   9  458.25   13.80
   7  -6  -9  255.17    8.80
   7  -6  -9  258.57    8.70
   7  -6  -9  243.88    8.10
  -7   6   9  245.68    9.40
  -7   6   9  269.87   10.90
  -7   6   9  249.08   10.10
   6  -6  -9  296.87    9.60
   6  -6  -9  314.47   10.00
  -6   6   9  289.07   10.50
  -6   6   9  280.87   11.40
  -6   6   9  297.27   11.80
  -6   6   9  306.67   12.60
  -6   6   9  300.47    8.80
  -6   6   9  294.17    9.30
   5  -6  -9    1.10    0.80
  -5   6   9    0.70    1.40
  -5   6   9    0.90    1.60
  -5   6   9    0.60    1.10
  -5   6   9    0.90    0.90
  -5   6   9    0.30    1.40
  -5   6   9    1.20    1.80
  -5   6   9    0.70    0.90
  -5   6   9    0.40    1.30
  -5   6   9    1.10    0.80
  -5   6   9    0.30    1.00
  -4   6   9    0.60    0.80
  -4   6   9    0.20    1.40
  -4   6   9    1.60    0.90
  -4   6   9    0.50    1.30
  -4   6   9    1.30    1.40
  -4   6   9    3.80    1.80
  -4   6   9    0.70    0.80
  -4   6   9    0.60    1.00
  -4   6   9    2.00    1.20
  -4   6   9    0.80    1.30
  -4   6   9    0.80    0.80
  -3   6   9  713.03   18.40
  -3   6   9  736.63   21.40
  -3   6   9  732.83   22.00
  -3   6   9  694.93   18.40
  -3   6   9  711.33   20.50
  -3   6   9  731.73   21.20
  -3   6   9  727.13   18.50
  -3   6   9  703.13   19.80
  -3   6   9  721.33   19.70
  -2   6   9  927.71   25.20
  -2   6   9  923.71   25.00
  -2   6   9  915.01   22.90
  -2   6   9  891.41   24.10
  -2   6   9  934.51   22.80
  -2   6   9  930.81   22.80
  -2   6   9  940.51   25.00
  -2   6   9  908.41   24.10
  -1   6   9   28.40    3.00
  -1   6   9   29.70    3.00
  -1   6   9   26.20    3.50
  -1   6   9   30.80    3.20
  -1   6   9   33.00    3.80
  -1   6   9   30.80    3.60
  -1   6   9   29.70    3.70
   0   6   9  644.84   17.80
   0   6   9  654.13   18.00
   0   6   9  642.34   16.90
   8  -7  -9   14.60    1.80
   8  -7  -9   15.60    1.90
  -8   7   9   16.20    2.60
  -8   7   9   13.70    2.40
  -8   7   9   12.50    2.10
   7  -7  -9    9.90    1.70
   7  -7  -9    8.30    1.40
   7  -7  -9    7.90    1.60
  -7   7   9    8.30    2.10
  -7   7   9    8.90    2.20
  -7   7   9    9.50    2.10
   6  -7  -9  170.28    6.50
  -6   7   9  169.68    5.80
  -6   7   9  170.28    8.10
  -6   7   9  170.78    8.70
  -6   7   9  169.78    7.40
  -6   7   9  163.58    6.10
  -6   7   9  161.08    7.90
   5  -7  -9    0.60    0.70
  -5   7   9    1.50    0.90
  -5   7   9    0.80    0.80
  -5   7   9   -0.10    1.00
  -5   7   9    2.10    1.60
  -5   7   9    1.80    1.20
  -5   7   9    0.00    1.40
  -5   7   9    0.50    1.30
  -5   7   9    2.50    1.10
  -5   7   9    1.60    1.00
  -5   7   9    2.50    1.50
  -4   7   9  115.59    5.80
  -4   7   9  107.19    6.50
  -4   7   9  112.29    5.00
  -4   7   9  115.09    6.30
  -4   7   9  108.89    5.10
  -4   7   9  124.99    7.40
  -4   7   9  124.29    7.00
  -4   7   9  117.29    5.10
  -4   7   9  102.59    5.50
  -4   7   9  113.29    5.00
  -3   7   9   25.90    2.70
  -3   7   9   30.00    4.00
  -3   7   9   27.10    2.90
  -3   7   9   25.70    2.70
  -3   7   9   29.50    3.80
  -3   7   9   26.20    3.40
  -3   7   9   30.40    3.50
  -3   7   9   27.30    3.80
  -3   7   9   26.90    2.80
  -2   7   9   70.29    5.80
  -2   7   9   63.09    3.80
  -2   7   9   66.99    5.70
  -2   7   9   62.39    5.50
  -2   7   9   67.89    3.90
  -2   7   9   65.49    4.00
  -2   7   9   66.49    4.50
  -2   7   9   78.99    4.90
  -1   7   9  469.35   13.60
  -1   7   9  495.95   14.80
  -1   7   9  487.95   14.70
  -1   7   9  491.55   13.70
  -1   7   9  492.85   15.10
  -1   7   9  483.75   13.60
   0   7   9   51.49    3.80
   0   7   9   50.79    4.30
   0   7   9   54.19    3.30
   8  -8  -9   62.09    2.90
   8  -8  -9   70.89    3.00
  -8   8   9   59.09    3.50
   7  -8  -9  139.49    5.40
   7  -8  -9  149.88    5.40
   7  -8  -9  139.29    4.90
  -7   8   9  143.09    6.70
  -7   8   9  152.58    6.40
   6  -8  -9    2.90    1.00
  -6   8   9    1.40    1.60
  -6   8   9    4.00    1.30
  -6   8   9    3.90    1.10
  -6   8   9    5.60    1.80
  -6   8   9    3.80    1.70
  -6   8   9    3.80    1.00
   5  -8  -9   35.30    2.90
  -5   8   9   31.70    4.20
  -5   8   9   30.90    2.80
  -5   8   9   34.00    2.70
  -5   8   9   31.20    3.50
  -5   8   9   34.50    2.90
  -5   8   9   40.70    4.50
  -5   8   9   35.50    3.30
  -5   8   9   34.40    3.80
  -5   8   9   40.90    3.30
  -4   8   9  724.43   19.40
  -4   8   9  730.03   20.30
  -4   8   9  749.82   18.50
  -4   8   9  725.73   18.30
  -4   8   9  713.13   19.50
  -4   8   9  737.03   18.70
  -4   8   9  767.22   21.00
  -4   8   9  723.03   18.30
  -4   8   9  761.22   21.30
  -3   8   9   21.40    2.40
  -3   8   9   18.50    3.00
  -3   8   9   25.40    3.10
  -3   8   9   21.90    2.50
  -3   8   9   20.30    2.90
  -3   8   9   23.80    3.40
  -3   8   9   25.30    3.50
  -3   8   9   23.60    2.60
  -3   8   9   25.20    2.60
  -2   8   9    7.20    1.50
  -2   8   9    3.90    1.50
  -2   8   9    2.50    1.00
  -2   8   9    3.20    1.50
  -2   8   9    5.80    1.60
  -2   8   9   -0.10    0.50
  -2   8   9    4.60    1.20
  -2   8   9    5.10    1.60
  -1   8   9   73.89    4.40
  -1   8   9   78.09    3.90
  -1   8   9   76.79    3.80
  -1   8   9   77.79    4.40
  -1   8   9   75.59    3.90
  -1   8   9   69.79    4.20
   0   8   9    9.90    1.70
   0   8   9   10.30    1.60
   0   8   9   13.80    1.70
   7  -9  -9  194.38    5.80
   7  -9  -9  190.18    5.90
  -7   9   9  183.68    6.70
  -7   9   9  195.38    6.60
   6  -9  -9  167.08    5.60
   6  -9  -9  162.38    5.70
  -6   9   9  173.48    6.90
  -6   9   9  165.48    5.70
  -6   9   9  174.98    5.40
  -6   9   9  160.28    6.70
  -6   9   9  171.28    6.50
   5  -9  -9  158.58    5.60
  -5   9   9  161.58    5.30
  -5   9   9  159.78    6.40
  -5   9   9  170.18    5.80
  -5   9   9  173.38    7.00
  -5   9   9  165.48    5.60
  -5   9   9  159.78    5.90
  -5   9   9  161.98    7.00
  -5   9   9  163.78    5.80
  -4   9   9  362.76   10.80
  -4   9   9  353.66    9.70
  -4   9   9  341.67    9.80
  -4   9   9  369.26   11.40
  -4   9   9  352.66   11.50
  -4   9   9  342.77   10.00
  -4   9   9  353.26    9.90
  -4   9   9  344.17   11.40
  -4   9   9  355.56   10.60
  -3   9   9  226.78    7.40
  -3   9   9  223.38    8.40
  -3   9   9  223.98    8.50
  -3   9   9  239.78    7.40
  -3   9   9  225.28    7.10
  -3   9   9  230.78    7.20
  -3   9   9  233.08    8.00
  -3   9   9  225.58    8.10
  -2   9   9  277.47    9.00
  -2   9   9  292.07    9.20
  -2   9   9  266.47    9.00
  -2   9   9  269.97    7.90
  -2   9   9  272.27    8.20
  -2   9   9  285.47    8.30
  -2   9   9  268.77    8.20
  -1   9   9   21.80    2.00
  -1   9   9   26.30    2.50
  -1   9   9   22.70    2.10
  -1   9   9   23.80    2.10
  -1   9   9   21.90    2.30
   0   9   9  136.89    4.20
   0   9   9  130.09    4.30
   0   9   9  132.69    4.50
   0   9   9  132.99    4.20
   5 -10  -9  405.16   10.10
  -5  10   9  416.16   10.80
  -5  10   9  397.46   11.00
  -5  10   9  399.46   10.10
  -5  10   9  402.66   10.00
  -5  10   9  400.96    9.70
  -5  10   9  379.56   10.80
  -5  10   9  393.96   10.20
  -5  10   9  411.26    9.90
  -4  10   9   97.09    3.80
  -4  10   9   95.39    4.00
  -4  10   9   91.99    3.60
  -4  10   9   92.99    3.50
  -4  10   9   94.19    4.30
  -4  10   9   98.69    3.50
  -4  10   9  100.89    4.30
  -3  10   9  134.99    4.40
  -3  10   9  132.89    4.50
  -3  10   9  133.89    5.10
  -3  10   9  135.89    5.00
  -3  10   9  137.99    4.90
  -3  10   9  129.79    4.40
  -3  10   9  134.99    5.00
  -3  10   9  128.39    4.20
  -2  10   9  470.55   11.60
  -2  10   9  485.45   11.60
  -2  10   9  473.35   12.10
  -2  10   9  490.85   12.10
  -2  10   9  482.65   11.60
  -2  10   9  485.35   12.20
  -1  11 -10  267.67    8.00
   1 -11  10  267.17    7.50
  -2  11 -10   17.70    2.00
  -2  11 -10   22.00    2.20
   2 -11  10   24.10    2.10
  -3  11 -10  286.37    8.70
   3 -11  10  294.97    8.10
   1  10 -10  287.17    9.20
   1  10 -10  277.47    8.60
  -1 -10  10  294.27    8.40
  -1 -10  10  277.37    8.00
   0  10 -10   40.40    3.70
   0  10 -10   38.80    3.40
   0 -10  10   34.30    2.90
   0 -10  10   34.80    2.80
  -1  10 -10  198.58    7.60
  -1  10 -10  212.08    7.80
  -1  10 -10  212.08    7.70
   1 -10  10  211.98    7.20
   1 -10  10  216.88    7.20
  -2  10 -10  165.78    6.60
  -2  10 -10  157.88    6.60
   2 -10  10  169.48    6.20
   2 -10  10  159.98    5.80
   2 -10  10  169.38    6.20
  -3  10 -10   16.90    2.10
  -3  10 -10   17.10    2.40
  -3  10 -10   16.70    2.30
   3 -10  10   13.60    1.80
   3 -10  10   15.80    2.10
   3 -10  10   16.70    2.00
  -4  10 -10   32.00    2.90
  -4  10 -10   26.90    2.80
   4 -10  10   29.70    2.40
   4 -10  10   29.80    2.60
   4 -10  10   28.20    2.50
  -5  10 -10   90.39    3.90
   5 -10  10   88.39    3.70
   5 -10  10   93.19    3.90
   3   9 -10    0.50    0.60
   3   9 -10    2.20    0.70
  -3  -9  10    2.70    0.80
   2   9 -10   11.60    1.80
   2   9 -10   10.70    1.80
   2   9 -10   15.60    2.40
  -2  -9  10   12.20    1.80
  -2  -9  10   10.40    1.80
  -2  -9  10    6.40    1.30
   1   9 -10   41.70    3.80
   1   9 -10   42.40    3.50
   1   9 -10   50.29    4.50
  -1  -9  10   32.60    3.20
  -1  -9  10   43.60    3.60
  -1  -9  10   40.10    3.30
   0   9 -10  280.07    9.50
   0   9 -10  290.27   10.00
   0   9 -10  284.77   10.40
   0  -9  10  279.47    9.50
   0  -9  10  295.57    9.70
   0  -9  10  282.17    9.20
  -1   9 -10  126.19    5.90
  -1   9 -10  122.89    6.00
  -1   9 -10  121.69    6.20
   1  -9  10  118.39    5.70
   1  -9  10  120.69    5.50
  -2   9 -10  128.49    5.60
  -2   9 -10  138.09    6.30
  -2   9 -10  134.49    6.20
   2  -9  10  138.89    6.00
   2  -9  10  134.39    6.10
   2  -9  10  137.19    5.60
  -3   9 -10  260.87    8.80
  -3   9 -10  265.47    9.40
  -3   9 -10  255.67    9.00
   3  -9  10  253.97    8.90
   3  -9  10  258.27    8.60
   3  -9  10  260.97    9.00
  -4   9 -10    1.90    1.00
  -4   9 -10    1.00    0.70
  -4   9 -10    1.40    1.00
   4  -9  10    1.50    0.90
   4  -9  10    3.50    1.20
   4  -9  10    2.50    1.10
  -5   9 -10   -0.20    0.70
  -5   9 -10    1.50    0.90
  -5   9 -10    0.00    0.80
   5  -9  10    0.40    0.70
   5  -9  10    0.80    0.70
   5  -9  10    0.90    0.80
  -6   9 -10   68.09    3.30
  -6   9 -10   73.19    3.30
   6  -9  10   71.29    3.30
   6  -9  10   76.59    3.40
   4   8 -10   17.20    2.00
   4   8 -10   18.60    1.90
   4   8 -10   15.80    2.00
  -4  -8  10   15.80    1.70
  -4  -8  10   20.50    2.10
   3   8 -10   37.00    3.60
   3   8 -10   38.60    3.40
   3   8 -10   46.30    4.10
  -3  -8  10   44.90    2.70
  -3  -8  10   36.90    3.50
  -3  -8  10   48.00    3.80
   2   8 -10   41.00    4.10
   2   8 -10   50.09    4.10
   2   8 -10   41.30    3.80
  -2  -8  10   42.00    3.40
  -2  -8  10   40.30    4.00
  -2  -8  10   43.60    3.90
   1   8 -10  162.98    6.70
   1   8 -10  153.88    7.60
   1   8 -10  158.08    6.90
  -1  -8  10  145.29    6.20
  -1  -8  10  149.88    7.00
  -1  -8  10  162.28    6.90
   0   8 -10  297.67   11.20
   0   8 -10  291.87   10.00
   0   8 -10  295.37   10.50
   0  -8  10  292.07   10.50
   0  -8  10  295.47    9.80
   0  -8  10  304.37   10.40
  -1   8 -10   69.09    4.40
  -1   8 -10   71.19    4.60
  -1   8 -10   75.49    6.00
   1  -8  10   69.19    4.20
   1  -8  10   69.29    4.50
   1  -8  10   67.39    4.50
  -2   8 -10   17.40    2.70
  -2   8 -10   18.20    2.40
  -2   8 -10   18.00    2.70
   2  -8  10   21.60    3.00
   2  -8  10   15.80    2.50
   2  -8  10   18.30    2.60
  -3   8 -10   48.10    4.00
  -3   8 -10   45.40    4.10
  -3   8 -10   42.90    4.10
   3  -8  10   40.10    4.00
   3  -8  10   46.30    4.00
   3  -8  10   39.70    3.80
  -4   8 -10   48.90    4.00
  -4   8 -10   47.70    3.80
  -4   8 -10   47.00    4.10
   4  -8  10   44.70    3.90
   4  -8  10   48.80    4.20
   4  -8  10   47.30    4.00
  -5   8 -10  384.86   11.20
  -5   8 -10  379.66   11.30
   5  -8  10  396.76   11.80
   5  -8  10  369.86   11.30
   5  -8  10  388.16   11.60
  -6   8 -10   -0.20    0.60
  -6   8 -10   -0.10    0.80
  -6   8 -10    0.40    0.70
   6  -8  10    0.00    0.60
   6  -8  10    1.30    0.80
   6  -8  10    1.90    1.00
   5   7 -10  115.29    4.40
   5   7 -10  104.69    4.20
  -5  -7  10  100.19    3.80
  -5  -7  10  110.99    4.40
   4   7 -10   12.20    2.00
   4   7 -10   10.50    2.10
   4   7 -10    9.70    1.80
  -4  -7  10   10.70    2.30
  -4  -7  10   12.50    2.10
  -4  -7  10   11.70    1.80
   3   7 -10  218.58    8.20
   3   7 -10  212.28    8.20
   3   7 -10  208.98    8.70
  -3  -7  10  192.88    7.70
  -3  -7  10  213.48    8.50
   2   7 -10  148.19    7.20
   2   7 -10  141.69    6.50
   2   7 -10  138.89    6.30
  -2  -7  10  139.79    7.00
  -2  -7  10  142.59    6.60
  -2  -7  10  143.29    6.00
   1   7 -10  688.43   18.90
   1   7 -10  691.83   18.70
   1   7 -10  694.03   20.00
  -1  -7  10  662.13   19.00
  -1  -7  10  699.93   18.40
  -1  -7  10  699.73   19.90
   0   7 -10  539.05   15.40
   0   7 -10  528.05   16.10
   0   7 -10  525.85   14.90
   0  -7  10  524.15   15.50
   0  -7  10  510.35   16.00
   0  -7  10  504.75   14.70
  -1   7 -10  124.89    6.30
  -1   7 -10  122.19    5.30
  -1   7 -10  116.79    5.80
  -1   7 -10  141.79    6.00
   1  -7  10  107.99    6.10
   1  -7  10  123.59    6.10
   1  -7  10  130.39    5.90
  -2   7 -10  845.12   22.20
  -2   7 -10  863.71   22.00
  -2   7 -10  876.61   21.60
   2  -7  10  851.91   22.20
   2  -7  10  859.21   22.90
   2  -7  10  853.11   22.70
  -3   7 -10   11.70    1.90
  -3   7 -10   12.30    2.30
   3  -7  10   11.80    2.30
   3  -7  10   11.60    2.20
   3  -7  10   11.10    1.80
   3  -7  10   12.40    2.40
   3  -7  10   11.50    2.10
  -4   7 -10  189.18    7.20
  -4   7 -10  182.68    7.20
   4  -7  10  189.48    7.70
   4  -7  10  193.58    7.90
   4  -7  10  193.58    6.80
   4  -7  10  183.98    7.50
   4  -7  10  179.68    7.60
  -5   7 -10  256.97    8.60
  -5   7 -10  259.87    8.60
   5  -7  10  244.38    8.10
   5  -7  10  257.77    9.10
   5  -7  10  257.37    9.30
   5  -7  10  240.48    8.90
  -6   7 -10   97.49    4.40
  -6   7 -10   85.49    4.20
  -6   7 -10   86.19    4.00
   6  -7  10  102.29    4.80
   6  -7  10  100.19    4.80
   6  -7  10   92.19    4.30
  -7   7 -10    1.20    0.70
  -7   7 -10    1.30    0.80
   7  -7  10    1.00    0.70
   7  -7  10    3.10    1.00
   5   6 -10  118.79    5.20
   5   6 -10  111.89    5.30
  -5  -6  10  126.49    5.40
  -5  -6  10  115.29    4.70
  -5  -6  10  116.79    5.50
   4   6 -10 1870.01   42.30
   4   6 -10 1789.92   42.60
   4   6 -10 1770.82   42.60
  -4  -6  10 1853.91   41.80
  -4  -6  10 1865.31   42.90
  -4  -6  10 1814.92   43.40
   3   6 -10   31.50    3.80
   3   6 -10   31.30    3.60
   3   6 -10   27.90    3.40
  -3  -6  10   31.80    3.50
  -3  -6  10   35.00    4.30
  -3  -6  10   34.70    4.00
   2   6 -10  109.89    6.10
   2   6 -10  109.49    5.70
   2   6 -10  104.09    5.30
  -2  -6  10   98.19    5.40
  -2  -6  10  106.29    6.20
  -2  -6  10   95.89    5.80
   1   6 -10  914.91   24.00
   1   6 -10  945.81   24.10
   1   6 -10  974.30   25.20
   1   6 -10  935.91   23.30
  -1  -6  10  948.41   25.30
  -1  -6  10  997.60   24.70
  -1  -6  10  956.10   23.60
  -1  -6  10  924.61   25.60
   0   6 -10  187.18    7.40
   0   6 -10  191.68    7.20
   0   6 -10  183.98    7.90
   0  -6  10  196.28    8.40
   0  -6  10  183.08    7.10
   0  -6  10  193.88    7.80
   0  -6  10  174.28    8.10
  -1   6 -10  209.58    7.70
  -1   6 -10  211.08    7.90
   1  -6  10  217.68    8.00
   1  -6  10  208.08    7.30
   1  -6  10  207.18    8.70
   1  -6  10  216.48    8.40
  -2   6 -10  552.64   15.60
  -2   6 -10  539.05   15.50
   2  -6  10  580.04   16.00
   2  -6  10  553.44   14.70
   2  -6  10  569.34   16.70
   2  -6  10  554.44   16.30
   2  -6  10  568.14   15.20
  -3   6 -10    4.80    1.50
   3  -6  10    6.00    1.70
   3  -6  10    6.70    1.50
   3  -6  10    6.70    1.90
   3  -6  10    7.70    1.70
   3  -6  10    6.30    1.80
  -4   6 -10  558.14   15.30
  -4   6 -10  547.25   15.40
   4  -6  10  565.64   15.10
   4  -6  10  540.55   16.00
   4  -6  10  541.95   16.30
   4  -6  10  570.04   16.50
   4  -6  10  577.54   16.50
   4  -6  10  563.64   15.30
  -5   6 -10   69.09    3.80
   5  -6  10   62.09    5.00
   5  -6  10   69.29    3.50
   5  -6  10   67.09    4.40
   5  -6  10   78.69    4.80
   5  -6  10   67.59    3.90
   5  -6  10   68.39    4.10
  -6   6 -10   35.20    3.00
   6  -6  10   39.10    3.10
   6  -6  10   41.20    3.70
   6  -6  10   39.00    3.50
   6  -6  10   39.60    2.50
   6  -6  10   39.00    3.10
   6  -6  10   41.20    3.70
  -7   6 -10   13.40    1.70
  -7   6 -10   16.20    1.70
   7  -6  10   13.60    1.60
   7  -6  10   13.00    1.70
   7  -6  10   13.70    1.80
   6   5 -10   68.19    3.60
   6   5 -10   70.19    3.50
   6   5 -10   73.29    4.00
  -6  -5  10   74.19    4.20
  -6  -5  10   72.79    3.70
   5   5 -10   88.99    4.70
   5   5 -10   86.89    4.90
  -5  -5  10   55.69    3.60
  -5  -5  10   89.19    5.00
  -5  -5  10   87.59    5.40
   4   5 -10  279.67   10.20
   4   5 -10  269.17   10.20
   4   5 -10  283.27   10.00
  -4  -5  10  294.57   10.60
  -4  -5  10  256.47   10.70
  -4  -5  10  266.07    9.50
   3   5 -10   45.60    4.50
   3   5 -10   45.30    4.50
   3   5 -10   39.20    3.90
  -3  -5  10   44.50    4.60
  -3  -5  10   39.50    4.00
  -3  -5  10   38.80    4.60
   2   5 -10  825.52   21.60
   2   5 -10  829.62   22.40
   2   5 -10  832.32   21.40
  -2  -5  10  857.41   22.70
  -2  -5  10  821.52   21.70
  -2  -5  10  846.82   23.60
   1   5 -10   87.69    4.60
   1   5 -10   79.09    4.40
   1   5 -10   86.59    5.00
  -1  -5  10   83.99    4.80
  -1  -5  10   83.99    5.20
  -1  -5  10   85.29    5.40
   0   5 -10  197.48    8.00
   0   5 -10  222.78    8.00
   0  -5  10  225.18    7.70
   0  -5  10  230.88   11.60
   0  -5  10  223.88    8.30
   0  -5  10  222.18    8.90
   0  -5  10  224.48    9.20
   0  -5  10  218.28    8.60
   0  -5  10  207.48    8.40
   0  -5  10  208.68    7.90
  -1   5 -10  395.46   16.30
  -1   5 -10  419.86   14.00
  -1   5 -10  388.76   11.80
   1  -5  10  390.76   13.30
   1  -5  10  387.46   11.40
   1  -5  10  394.66   11.70
   1  -5  10  384.26   12.30
   1  -5  10  401.16   15.90
   1  -5  10  399.96   13.00
   1  -5  10  399.46   11.80
  -2   5 -10  190.28    7.10
   2  -5  10  180.98    7.70
   2  -5  10  183.88    7.30
   2  -5  10  187.38    9.30
   2  -5  10  186.98    8.00
   2  -5  10  173.58    8.10
   2  -5  10  188.58    6.80
   2  -5  10  189.48    7.00
  -3   5 -10 1026.00   25.30
   3  -5  10 1087.49   27.20
   3  -5  10 1038.70   26.80
   3  -5  10 1039.20   25.40
   3  -5  10 1069.79   26.50
   3  -5  10 1043.60   25.30
   3  -5  10 1042.00   25.20
   3  -5  10 1008.10   25.80
   3  -5  10 1068.99   27.10
   4  -5  10  214.28    7.50
   4  -5  10  215.98    7.40
   4  -5  10  214.58    8.60
   4  -5  10  200.78    8.50
   4  -5  10  213.08    7.80
   4  -5  10  205.08    8.50
   4  -5  10  210.88    7.20
   4  -5  10  210.38    8.20
   4  -5  10  186.18    8.00
  -5   5 -10  626.04   16.40
   5  -5  10  605.34   17.90
   5  -5  10  653.23   18.40
   5  -5  10  642.84   16.60
   5  -5  10  615.54   16.30
   5  -5  10  643.14   16.90
   5  -5  10  641.14   17.60
   5  -5  10  639.94   17.20
   5  -5  10  639.84   16.70
   5  -5  10  651.33   16.10
   5  -5  10  625.64   17.90
  -6   5 -10  106.79    4.70
   6  -5  10  100.79    5.30
   6  -5  10   99.99    5.30
   6  -5  10  106.99    4.70
   6  -5  10  102.89    4.20
   6  -5  10  102.59    4.30
   6  -5  10  109.69    4.50
   6  -5  10  100.29    4.70
   6  -5  10  104.39    4.50
   6  -5  10  103.89    5.10
  -7   5 -10   19.80    1.80
  -7   5 -10   17.40    2.00
   7  -5  10   19.00    1.70
   7  -5  10   21.20    2.30
   7  -5  10   21.10    1.70
   7  -5  10   21.30    1.90
   7  -5  10   20.50    2.00
   7  -5  10   18.60    2.10
   7   4 -10    9.40    1.50
   7   4 -10   11.50    1.60
  -7  -4  10   10.00    1.80
  -7  -4  10    9.10    1.40
   6   4 -10    2.80    1.10
   6   4 -10    5.80    1.40
   6   4 -10    4.00    1.40
  -6  -4  10    2.90    1.30
  -6  -4  10    1.90    1.10
  -6  -4  10    4.80    1.70
   5   4 -10  886.51   24.40
   5   4 -10  909.21   23.80
   5   4 -10  926.11   24.60
  -5  -4  10  964.60   25.60
  -5  -4  10  964.70   25.50
  -5  -4  10  945.41   24.40
   4   4 -10   53.59    4.70
   4   4 -10   52.39    4.70
   4   4 -10   45.30    4.50
  -4  -4  10   48.10    5.30
  -4  -4  10   49.50    4.60
  -4  -4  10   46.60    5.20
   3   4 -10    0.70    0.90
   3   4 -10    1.50    1.00
   3   4 -10    1.20    0.90
   3   4 -10    0.30    1.00
  -3  -4  10    0.00    1.40
  -3  -4  10    0.90    1.30
  -3  -4  10   -0.30    0.90
  -3  -4  10    2.10    1.10
   2   4 -10   28.10    3.40
   2   4 -10   27.30    3.00
   2   4 -10   36.90    3.40
  -2  -4  10   31.30    4.20
  -2  -4  10   27.60    3.40
  -2  -4  10   29.90    3.30
  -2  -4  10   22.70    3.40
   1   4 -10  906.41   24.90
   1   4 -10  888.31   23.10
  -1  -4  10  923.91   27.90
  -1  -4  10  890.21   25.40
   0   4 -10  110.39    5.30
   0   4 -10  114.49    6.30
   0   4 -10  110.09    5.60
   0  -4  10  104.09    6.50
   0  -4  10  112.39    7.90
  -1   4 -10  972.60   24.90
  -1   4 -10  974.80   25.70
  -1   4 -10  997.70   25.30
   1  -4  10 1001.90   29.30
   1  -4  10 1020.90   25.50
   1  -4  10  941.81   27.30
  -2   4 -10  282.07   10.10
  -2   4 -10  292.67    9.40
   2  -4  10  281.77    9.10
   2  -4  10  295.77   13.00
   2  -4  10  271.37   10.20
   2  -4  10  284.77    9.10
   2  -4  10  281.27   11.10
   2  -4  10  284.17    9.90
   2  -4  10  275.37    9.10
   2  -4  10  281.37   10.60
   3  -4  10  724.73   20.40
   3  -4  10  735.03   19.20
   3  -4  10  719.13   20.00
   3  -4  10  746.83   19.90
   3  -4  10  715.93   18.50
   3  -4  10  740.53   18.80
   3  -4  10  717.83   18.80
   3  -4  10  715.63   18.80
   3  -4  10  723.03   19.90
   3  -4  10  738.03   18.90
   3  -4  10  733.73   20.40
   4  -4  10  239.48    8.70
   4  -4  10  229.08    8.30
   4  -4  10  225.78    7.90
   4  -4  10  242.68    9.30
   4  -4  10  232.28    8.00
   4  -4  10  233.08    7.90
   4  -4  10  228.28    9.20
   4  -4  10  211.68    8.90
   4  -4  10  226.88    8.90
   4  -4  10  225.68    8.00
   5  -4  10   91.89    5.00
   5  -4  10   92.09    5.50
   5  -4  10  101.89    5.50
   5  -4  10   95.69    4.50
   5  -4  10   98.29    4.80
   5  -4  10  101.89    5.50
   5  -4  10   95.09    5.50
   5  -4  10   97.49    4.80
   5  -4  10   97.99    4.70
   5  -4  10   96.69    4.50
  -6   4 -10   45.40    2.80
   6  -4  10   49.00    2.90
   6  -4  10   46.90    3.00
   6  -4  10   46.00    2.90
   6  -4  10   52.29    4.30
   6  -4  10   46.90    2.80
   6  -4  10   45.20    3.90
   6  -4  10   37.80    3.80
   6  -4  10   45.60    3.00
   6  -4  10   41.50    3.50
  -7   4 -10   45.80    2.70
   7  -4  10   45.30    2.30
   7  -4  10   51.89    3.00
   7  -4  10   41.20    2.40
   7  -4  10   44.00    2.60
   7  -4  10   43.90    2.30
   7  -4  10   45.20    2.90
   7  -4  10   44.70    2.40
   7  -4  10   46.10    2.40
   7   3 -10   88.49    4.50
   7   3 -10   87.19    4.40
  -7  -3  10   93.39    4.10
  -7  -3  10   85.79    4.70
  -7  -3  10   96.19    4.90
   6   3 -10    2.00    1.20
   6   3 -10    2.10    1.20
   6   3 -10    2.60    1.10
  -6  -3  10    2.30    1.50
  -6  -3  10    3.20    1.40
  -6  -3  10    3.00    1.50
   5   3 -10  283.57   10.10
   5   3 -10  294.77   11.00
   5   3 -10  302.97   10.90
  -5  -3  10  306.47   11.80
  -5  -3  10  311.77   10.80
  -5  -3  10  283.27   11.70
   4   3 -10    9.50    2.20
   4   3 -10   10.80    2.10
   4   3 -10   10.20    2.20
  -4  -3  10   11.20    2.90
  -4  -3  10    9.70    2.50
  -4  -3  10    9.30    2.10
   3   3 -10   12.00    2.30
   3   3 -10   13.10    2.20
   3   3 -10   14.50    2.50
  -3  -3  10   14.50    2.70
  -3  -3  10   11.00    2.60
  -3  -3  10   11.30    2.30
   2   3 -10  893.91   25.10
   2   3 -10  916.61   23.10
   2   3 -10  963.40   25.30
  -2  -3  10  914.41   25.50
  -2  -3  10  901.01   28.10
   1   3 -10  306.97   10.90
   1   3 -10  320.67   10.50
   1   3 -10  327.77   11.60
  -1  -3  10  307.37   11.80
  -1  -3  10  320.17   11.60
  -1  -3  10  322.47   13.80
   0   3 -10  112.49    5.50
   0   3 -10  120.39    6.20
   0   3 -10  120.69    5.80
   0   3 -10  120.39    5.40
   0  -3  10  110.09    6.50
   0  -3  10  115.99    7.80
   0  -3  10  118.49    6.40
  -1   3 -10  579.94   16.80
  -1   3 -10  584.74   16.00
  -1   3 -10  586.44   17.10
  -1   3 -10  604.34   16.80
   1  -3  10  621.94   20.60
   1  -3  10  600.14   18.80
   1  -3  10  606.94   17.80
  -2   3 -10 2840.12   64.79
  -2   3 -10 2910.71   65.89
  -2   3 -10 2967.00   65.49
   2  -3  10 3098.09   66.79
   2  -3  10 2936.31   68.49
   2  -3  10 2971.20   66.39
   2  -3  10 3005.50   70.39
   3  -3  10  238.58    9.10
   3  -3  10  245.18    8.70
   3  -3  10  251.27    9.10
   3  -3  10  235.28    8.20
   3  -3  10  232.18    9.20
   3  -3  10  241.48    8.30
   3  -3  10  235.98    8.50
   3  -3  10  231.18    8.50
   3  -3  10  244.88    9.30
   3  -3  10  230.38    9.40
   4  -3  10  833.32   22.20
   4  -3  10  824.22   21.20
   4  -3  10  805.02   22.10
   4  -3  10  800.52   20.60
   4  -3  10  808.02   21.50
   4  -3  10  828.52   21.90
   4  -3  10  801.02   20.90
   4  -3  10  837.42   20.60
   4  -3  10  831.22   22.30
   4  -3  10  781.12   20.10
   5  -3  10 1401.86   32.50
   5  -3  10 1347.67   32.00
   5  -3  10 1436.96   34.40
   5  -3  10 1412.56   32.80
   5  -3  10 1379.96   32.10
   5  -3  10 1423.36   34.10
   5  -3  10 1378.36   32.90
   5  -3  10 1386.86   33.70
   5  -3  10 1369.66   33.40
   6  -3  10   99.79    5.00
   6  -3  10  103.49    4.40
   6  -3  10  103.99    4.90
   6  -3  10  100.69    5.30
   6  -3  10   98.39    4.40
   6  -3  10   95.99    5.20
   6  -3  10   96.79    4.40
   6  -3  10   98.49    4.70
   6  -3  10  100.89    4.60
  -7   3 -10   65.59    3.10
   7  -3  10   62.89    3.40
   7  -3  10   61.19    2.80
   7  -3  10   66.99    3.10
   7  -3  10   63.09    3.20
   7  -3  10   67.19    2.90
   7  -3  10   67.29    3.50
   7  -3  10   69.69    3.10
   7  -3  10   67.49    3.00
   8   2 -10  266.67    7.80
   8   2 -10  277.87    8.10
  -8  -2  10  280.47    8.40
  -8  -2  10  261.97    8.10
   7   2 -10   39.90    3.60
   7   2 -10   43.60    4.10
  -7  -2  10   38.30    3.90
  -7  -2  10   37.30    4.10
   6   2 -10   73.89    4.40
   6   2 -10   78.69    5.90
   6   2 -10   70.69    5.80
  -6  -2  10   77.29    6.40
  -6  -2  10   81.29    6.90
   5   2 -10  483.35   15.10
   5   2 -10  483.15   14.20
   5   2 -10  471.75   14.80
  -5  -2  10  482.75   14.60
  -5  -2  10  481.05   15.50
  -5  -2  10  493.35   16.00
  -5  -2  10  471.65   16.40
   4   2 -10  174.98    6.90
   4   2 -10  176.98    7.40
   4   2 -10  169.58    7.20
  -4  -2  10  182.58    7.60
  -4  -2  10  181.68    8.50
  -4  -2  10  166.38    8.60
  -4  -2  10  179.58    8.20
   3   2 -10   20.20    3.30
   3   2 -10   19.90    3.20
  -3  -2  10   19.80    4.10
  -3  -2  10   32.60    4.60
  -3  -2  10   18.10    3.10
   2   2 -10 1706.93   41.70
   2   2 -10 1749.82   41.50
   2   2 -10 1707.93   40.00
  -2  -2  10 1759.02   42.10
  -2  -2  10 1752.82   45.40
  -2  -2  10 1752.32   42.60
   1   2 -10  267.77    9.30
   1   2 -10  287.27   10.30
   1   2 -10  254.97    9.30
   1   2 -10  268.57    9.50
  -1  -2  10  270.87   10.50
  -1  -2  10  279.07   12.50
  -1  -2  10  270.77    9.50
  -1  -2  10  279.37   10.80
   0   2 -10  415.56   13.10
   0   2 -10  425.36   13.50
   0   2 -10  430.86   13.00
   0  -2  10  459.05   16.70
   0  -2  10  426.06   12.90
   0  -2  10  416.26   14.20
   0  -2  10  438.96   14.50
  -1   2 -10  454.25   14.20
  -1   2 -10  467.15   13.80
  -1   2 -10  478.05   14.30
  -1   2 -10  491.55   14.20
   1  -2  10  471.45   15.60
   1  -2  10  499.95   15.40
   1  -2  10  468.05   17.50
  -2   2 -10 1066.99   26.90
  -2   2 -10 1012.90   25.90
  -2   2 -10 1069.49   26.20
   2  -2  10 1032.30   27.00
   2  -2  10 1040.90   30.20
   2  -2  10 1043.70   28.50
   2  -2  10 1057.09   27.50
   3  -2  10  512.95   14.30
   3  -2  10  530.25   15.00
   3  -2  10  526.75   15.60
   3  -2  10  539.95   14.70
   3  -2  10  515.45   15.80
   3  -2  10  530.85   16.10
   3  -2  10  523.85   15.20
   3  -2  10  541.85   15.20
   3  -2  10  512.35   15.80
   3  -2  10  527.55   15.50
   4  -2  10  157.28    6.60
   4  -2  10  150.28    7.00
   4  -2  10  142.89    6.90
   4  -2  10  147.59    7.10
   4  -2  10  154.38    6.20
   4  -2  10  149.99    6.30
   4  -2  10  153.78    6.30
   4  -2  10  141.59    6.60
   4  -2  10  145.49    6.90
   5  -2  10  124.59    6.30
   5  -2  10  122.49    5.80
   5  -2  10  118.99    5.30
   5  -2  10  112.89    5.60
   5  -2  10  129.29    5.30
   5  -2  10  119.59    5.90
   5  -2  10  116.19    5.40
   5  -2  10  118.19    6.00
   6  -2  10  197.78    6.60
   6  -2  10  194.88    7.70
   6  -2  10  206.88    7.30
   6  -2  10  198.28    7.70
   6  -2  10  204.88    7.10
   6  -2  10  201.18    7.40
   6  -2  10  195.48    6.60
   6  -2  10  198.28    6.60
   6  -2  10  202.48    7.00
   7  -2  10  102.49    3.90
   7  -2  10  104.79    4.30
   7  -2  10  100.09    4.20
   7  -2  10  107.89    4.10
   7  -2  10  107.89    3.80
   7  -2  10  111.59    4.00
   7  -2  10  101.39    3.70
   7  -2  10  112.09    4.00
   8   1 -10   59.29    3.30
   8   1 -10   65.99    3.70
  -8  -1  10   62.49    3.90
  -8  -1  10   62.69    3.60
   7   1 -10   38.40    3.90
   7   1 -10   43.10    4.00
  -7  -1  10   53.89    5.20
  -7  -1  10   45.40    4.40
  -7  -1  10   47.80    4.30
   6   1 -10   25.70    3.00
   6   1 -10   24.00    3.50
   6   1 -10   25.60    3.30
  -6  -1  10   20.20    3.40
  -6  -1  10   20.30    3.30
  -6  -1  10   22.50    3.40
   5   1 -10   40.60    4.20
   5   1 -10   39.80    3.90
   5   1 -10   41.70    3.70
  -5  -1  10   48.90    5.10
  -5  -1  10   41.00    4.50
  -5  -1  10   41.90    4.90
   4   1 -10   59.99    4.50
   4   1 -10   68.49    5.00
  -4  -1  10   54.49    3.60
  -4  -1  10   55.29    5.50
  -4  -1  10   61.79    5.60
  -4  -1  10   51.89    5.20
   3   1 -10  631.04   18.70
   3   1 -10  648.14   18.90
  -3  -1  10  640.64   21.80
  -3  -1  10  668.43   20.30
   2   1 -10  256.87    9.30
   2   1 -10  249.88    9.50
   2   1 -10  248.08    9.00
   2   1 -10  238.48    8.70
  -2  -1  10  235.08   11.50
  -2  -1  10  272.67   10.80
  -2  -1  10  257.37    9.50
   1   1 -10   51.69    3.60
   1   1 -10   62.89    4.20
   1   1 -10   51.19    3.50
   1   1 -10   53.49    3.90
  -1  -1  10   58.79    4.10
  -1  -1  10   61.19    4.40
  -1  -1  10   64.09    5.80
  -1  -1  10   55.49    6.30
   0   1 -10  464.65   14.70
   0   1 -10  523.35   14.80
   0   1 -10  523.15   15.10
   0  -1  10  484.85   17.80
   0  -1  10  517.65   15.10
   0  -1  10  522.35   16.40
   0  -1  10  501.75   15.60
  -1   1 -10  599.84   18.30
  -1   1 -10  586.04   16.80
  -1   1 -10  622.84   16.90
  -1   1 -10  607.04   17.40
   1  -1  10  607.24   18.10
   1  -1  10  575.84   20.20
   1  -1  10  605.94   18.30
  -2   1 -10  444.96   13.50
  -2   1 -10  456.95   13.50
  -2   1 -10  456.35   14.20
   2  -1  10  442.16   15.10
   2  -1  10  455.15   14.80
   2  -1  10  453.85   16.80
   3  -1  10   34.50    3.40
   3  -1  10   37.90    3.70
   3  -1  10   33.40    3.70
   3  -1  10   33.10    3.40
   3  -1  10   38.70    4.10
   3  -1  10   43.00    4.30
   3  -1  10   33.10    3.20
   3  -1  10   35.00    3.80
   3  -1  10   35.30    3.80
   3  -1  10   32.80    3.70
   4  -1  10 1034.20   25.30
   4  -1  10 1009.00   26.10
   4  -1  10 1015.40   24.50
   4  -1  10  984.80   25.90
   4  -1  10 1021.90   25.10
   4  -1  10  995.60   25.90
   4  -1  10 1038.10   25.00
   4  -1  10 1037.30   26.30
   5  -1  10  632.74   16.70
   5  -1  10  650.53   16.80
   5  -1  10  641.84   16.80
   5  -1  10  652.73   17.90
   5  -1  10  655.13   17.60
   5  -1  10  643.64   17.30
   5  -1  10  660.13   18.00
   5  -1  10  643.54   18.10
   6  -1  10   11.10    1.70
   6  -1  10    9.60    1.80
   6  -1  10   11.90    1.80
   6  -1  10    9.80    1.50
   6  -1  10   12.40    1.90
   6  -1  10    8.70    1.60
   6  -1  10    9.70    1.40
   7  -1  10   85.39    3.30
   7  -1  10   84.29    3.20
   7  -1  10   85.39    3.30
   7  -1  10   81.39    3.00
   7  -1  10   84.29    3.20
   7  -1  10   88.29    3.50
   8   0 -10   84.69    4.20
   8   0 -10   88.99    4.60
  -8   0  10   81.39    4.70
  -8   0  10   71.89    4.00
  -8   0  10   84.79    4.50
   7   0 -10   26.60    3.40
   7   0 -10   23.00    3.00
  -7   0  10   20.30    3.30
  -7   0  10   22.60    3.30
  -7   0  10   27.30    3.40
   6   0 -10  235.28    8.90
   6   0 -10  236.58    9.40
   6   0 -10  237.98    8.40
  -6   0  10  220.18    9.70
  -6   0  10  232.88    9.70
  -6   0  10  231.58   10.30
   5   0 -10   42.60    4.10
   5   0 -10   38.60    3.60
   5   0 -10   39.70    3.80
  -5   0  10   36.40    3.50
  -5   0  10   48.20    5.30
  -5   0  10   35.40    4.40
  -5   0  10   41.10    4.60
  -5   0  10   27.20    3.90
   4   0 -10    2.10    1.10
   4   0 -10    4.70    1.70
   4   0 -10    3.00    1.50
  -4   0  10    0.40    1.50
  -4   0  10    0.90    1.10
  -4   0  10    2.70    0.90
  -4   0  10    1.00    1.60
  -4   0  10    3.50    1.70
   3   0 -10  221.88    9.10
   3   0 -10  215.28    8.10
   3   0 -10  228.38    9.00
  -3   0  10  229.88   11.30
  -3   0  10  219.78    9.20
  -3   0  10  225.38   10.10
   2   0 -10    9.80    1.90
   2   0 -10    7.10    1.70
   2   0 -10   10.20    2.10
  -2   0  10    7.10    1.90
  -2   0  10    8.00    2.60
  -2   0  10    8.10    2.30
   1   0 -10  326.07   10.90
   1   0 -10  304.47   10.40
   1   0 -10  298.57   10.90
   1   0 -10  297.97    9.80
  -1   0  10  318.67   11.10
  -1   0  10  324.47   12.00
  -1   0  10  302.07   13.00
   0   0 -10  540.55   16.40
   0   0 -10  559.74   16.00
   0   0 -10  556.94   15.80
   0   0  10  573.84   16.50
   0   0  10  554.64   17.40
   0   0  10  527.55   18.60
   0   0  10  567.24   16.50
  -1   0 -10  523.75   14.90
  -1   0 -10  496.55   15.20
   1   0  10  478.35   17.40
   1   0  10  504.65   15.60
   1   0  10  508.25   16.20
  -2   0 -10  677.33   18.30
  -2   0 -10  675.23   18.90
   2   0  10  652.53   21.30
   2   0  10  669.73   19.90
   2   0  10  643.74   19.30
   3   0  10  261.07    9.50
   3   0  10  268.77    9.20
   3   0  10  245.68    8.60
   3   0  10  257.47    9.50
   3   0  10  263.37    9.20
   3   0  10  257.87    9.40
   3   0  10  237.88    9.10
   3   0  10  253.77    9.50
   4   0  10   23.00    2.70
   4   0  10   21.90    2.80
   4   0  10   21.60    2.80
   4   0  10   30.60    3.40
   4   0  10   22.90    2.70
   4   0  10   18.60    2.70
   4   0  10   26.40    3.30
   4   0  10   24.40    3.20
   5   0  10  230.18    8.50
   5   0  10  232.38    7.60
   5   0  10  236.68    8.30
   5   0  10  233.78    7.60
   5   0  10  236.58    8.80
   5   0  10  235.78    8.30
   5   0  10  225.68    8.00
   6   0  10    4.80    1.00
   6   0  10    3.90    1.00
   6   0  10    3.80    1.10
   6   0  10   -0.20    0.70
   6   0  10    4.20    1.10
   6   0  10    3.50    1.20
   6   0  10    4.80    1.10
   8  -1 -10   66.09    3.70
   8  -1 -10   64.59    3.80
   8  -1 -10   71.39    4.20
  -8   1  10   71.29    4.50
  -8   1  10   77.09    4.60
   7  -1 -10   48.60    4.60
   7  -1 -10   57.19    4.70
  -7   1  10   48.40    5.10
  -7   1  10   51.89    5.00
  -7   1  10   54.49    5.20
   6  -1 -10   38.30    4.00
   6  -1 -10   41.30    3.60
   6  -1 -10   40.10    3.90
  -6   1  10   31.60    4.20
  -6   1  10   38.50    4.50
  -6   1  10   48.00    5.20
   5  -1 -10  149.29    6.30
   5  -1 -10  150.18    6.70
  -5   1  10  150.78    7.60
  -5   1  10  155.08    8.10
  -5   1  10  146.89    5.80
  -5   1  10  148.29    6.20
  -5   1  10  152.08    7.80
   4  -1 -10    3.20    1.50
   4  -1 -10    5.40    1.80
   4  -1 -10    2.20    1.10
  -4   1  10    8.10    1.50
  -4   1  10    0.50    1.80
  -4   1  10    0.60    1.20
  -4   1  10    1.30    1.40
  -4   1  10    2.40    1.50
   3  -1 -10    4.90    1.60
   3  -1 -10    8.00    1.90
   3  -1 -10    7.00    1.90
  -3   1  10    7.70    2.10
  -3   1  10    4.50    2.00
  -3   1  10    8.10    2.70
  -3   1  10    7.70    2.10
   2  -1 -10  383.16   12.70
   2  -1 -10  358.46   12.00
   2  -1 -10  389.76   11.90
  -2   1  10  390.96   13.10
  -2   1  10  383.96   14.90
  -2   1  10  354.86   13.50
  -2   1  10  387.26   13.30
   1  -1 -10  129.79    5.70
   1  -1 -10  137.99    6.50
   1  -1 -10  134.19    6.30
  -1   1  10  137.59    6.80
  -1   1  10  131.89    6.90
  -1   1  10  136.79    8.10
  -1   1  10  122.59    7.10
   0  -1 -10   40.40    3.30
   0  -1 -10   36.40    4.20
   0  -1 -10   43.80    4.30
   0   1  10   39.10    5.30
   0   1  10   43.80    4.80
   0   1  10   38.60    4.10
  -1  -1 -10 1331.47   32.70
  -1  -1 -10 1330.57   31.70
   1   1  10 1292.57   33.20
   1   1  10 1266.17   34.70
   2   1  10   55.39    4.50
   2   1  10   59.19    4.90
   2   1  10   59.59    4.60
   2   1  10   53.59    4.70
   2   1  10   58.39    4.50
   2   1  10   51.49    4.60
   2   1  10   64.69    4.90
   2   1  10   49.00    4.50
   3   1  10  540.85   15.40
   3   1  10  494.95   15.00
   3   1  10  527.35   15.00
   3   1  10  529.65   15.30
   3   1  10  532.65   14.70
   3   1  10  534.55   15.20
   3   1  10  534.85   15.20
   4   1  10  542.15   15.60
   4   1  10  559.24   14.80
   4   1  10  554.34   15.50
   4   1  10  548.15   15.40
   4   1  10  546.15   15.40
   4   1  10  547.45   14.70
   5   1  10   17.90    2.40
   5   1  10   21.70    2.50
   5   1  10   19.80    2.60
   5   1  10   19.50    2.30
   5   1  10   20.20    2.40
   5   1  10   21.50    2.10
   6   1  10  245.38    7.20
   6   1  10  285.47    8.00
   6   1  10  288.27    8.00
   6   1  10  286.07    8.10
   6   1  10  291.87    7.90
   6   1  10  292.77    7.80
   8  -2 -10   36.50    3.40
   8  -2 -10   39.00    3.70
   8  -2 -10   36.20    3.20
  -8   2  10   35.10    3.70
  -8   2  10   42.70    4.20
  -8   2  10   49.70    4.50
   7  -2 -10    5.30    1.60
   7  -2 -10    5.00    1.70
   7  -2 -10    8.00    1.90
  -7   2  10    6.10    2.00
  -7   2  10    6.70    2.20
  -7   2  10    8.40    2.40
   6  -2 -10   97.09    4.80
   6  -2 -10   97.29    5.50
   6  -2 -10  105.09    5.20
  -6   2  10  101.79    6.30
  -6   2  10   96.69    6.40
  -6   2  10   92.09    7.40
   5  -2 -10   90.99    4.90
  -5   2  10  101.39    4.60
  -5   2  10  100.79    6.40
  -5   2  10   99.39    6.40
  -5   2  10   98.09    4.90
  -5   2  10   94.99    6.10
  -5   2  10   98.99    6.50
   4  -2 -10  559.44   17.30
   4  -2 -10  597.84   16.70
  -4   2  10  564.74   15.60
  -4   2  10  579.94   18.30
  -4   2  10  569.24   17.60
  -4   2  10  586.04   18.80
  -4   2  10  588.54   18.10
  -4   2  10  565.74   14.80
  -4   2  10  568.24   15.00
   3  -2 -10   33.70    3.70
   3  -2 -10   28.60    3.70
   3  -2 -10   33.80    3.70
   3  -2 -10   36.20    3.30
  -3   2  10   33.90    4.30
  -3   2  10   29.50    4.30
  -3   2  10   30.70    4.20
   2  -2 -10   60.49    4.00
   2  -2 -10   62.79    4.30
   2  -2 -10   61.39    4.40
  -2   2  10   57.69    5.70
  -2   2  10   65.79    5.80
  -2   2  10   73.39    5.30
   1  -2 -10  691.83   19.50
   1  -2 -10  732.83   18.80
   1  -2 -10  723.93   19.90
  -1   2  10  678.83   20.60
  -1   2  10  697.93   20.90
  -1   2  10  681.33   20.10
   0  -2 -10  610.64   17.30
   0  -2 -10  587.64   17.20
   0   2  10  581.14   17.50
   0   2  10  563.64   17.80
  -1  -2 -10   87.09    5.00
  -1  -2 -10   78.09    5.20
   1   2  10   65.79    5.80
   1   2  10   77.89    7.50
   2   2  10  281.87   10.10
   2   2  10  275.27    9.80
   2   2  10  300.27    9.70
   2   2  10  292.77   10.00
   5   2  10  145.29    5.40
   5   2  10  142.39    5.30
   5   2  10  142.29    5.30
   8  -3 -10   90.39    4.70
   8  -3 -10   88.99    4.20
   8  -3 -10   77.39    4.30
  -8   3  10   81.49    5.00
  -8   3  10   81.59    5.00
   7  -3 -10  174.48    7.40
   7  -3 -10  166.48    6.90
   7  -3 -10  180.78    7.20
  -7   3  10  176.28    8.30
  -7   3  10  180.18    8.50
  -7   3  10  181.68    8.30
   6  -3 -10  525.65   14.80
   6  -3 -10  526.75   15.30
  -6   3  10  491.75   17.00
  -6   3  10  520.75   14.00
  -6   3  10  516.05   17.20
  -6   3  10  528.95   16.80
   5  -3 -10  400.86   12.20
  -5   3  10  407.86   14.80
  -5   3  10  387.16   13.40
  -5   3  10  411.56   11.80
  -5   3  10  396.66   14.00
  -5   3  10  400.86   11.90
  -5   3  10  407.86   14.50
  -5   3  10  399.46   11.50
  -4   3  10  125.09    5.30
  -4   3  10  137.39    7.70
  -4   3  10  134.39    6.60
  -4   3  10  127.49    7.20
  -4   3  10  122.89    5.60
  -4   3  10  136.29    7.10
  -4   3  10  126.39    5.90
  -4   3  10  118.29    6.70
  -4   3  10  128.79    5.80
  -4   3  10  128.49    5.20
  -4   3  10  125.89    5.20
   3  -3 -10  866.01   21.70
   3  -3 -10  872.61   22.90
   3  -3 -10  822.52   23.30
   3  -3 -10  822.32   23.00
  -3   3  10  864.01   25.00
  -3   3  10  902.61   25.40
  -3   3  10  803.92   24.20
   2  -3 -10    8.40    1.80
   2  -3 -10    4.60    1.50
   2  -3 -10    5.20    1.70
  -2   3  10    4.00    1.90
  -2   3  10    7.60    2.30
  -2   3  10    5.90    2.20
   1  -3 -10  325.87   10.80
   1  -3 -10  337.87   11.80
   1  -3 -10  314.77   11.50
  -1   3  10  300.07   11.70
  -1   3  10  306.07   12.30
  -1   3  10  320.67   12.30
   0  -3 -10  576.74   17.20
   0  -3 -10  562.54   17.20
   0   3  10  563.24   19.40
   0   3  10  558.44   17.30
   0   3  10  568.24   16.40
   0   3  10  594.84   16.80
   0   3  10  576.14   16.70
   1   3  10   44.50    4.40
   1   3  10   51.99    4.50
   1   3  10   32.00    3.60
   8  -4 -10  236.28    8.10
   8  -4 -10  240.98    7.80
   8  -4 -10  250.57    8.60
  -8   4  10  241.08    8.90
  -8   4  10  262.77    9.60
   7  -4 -10  170.98    7.10
   7  -4 -10  162.58    6.50
   7  -4 -10  170.68    6.80
  -7   4  10  154.48    7.90
  -7   4  10  152.88    7.90
  -7   4  10  163.88    7.80
   6  -4 -10    7.50    1.80
   6  -4 -10    0.90    1.00
  -6   4  10    2.00    0.90
  -6   4  10    1.10    1.50
  -6   4  10    2.10    1.70
  -6   4  10    0.00    1.50
  -6   4  10    1.80    1.50
  -5   4  10  464.05   13.00
  -5   4  10  470.85   12.80
  -5   4  10  466.95   16.40
  -5   4  10  453.65   16.00
  -5   4  10  456.75   13.40
  -5   4  10  468.35   15.40
  -5   4  10  478.15   15.50
  -5   4  10  449.95   15.20
  -4   4  10   45.90    4.00
  -4   4  10   47.50    4.70
  -4   4  10   48.10    4.30
  -4   4  10   44.40    4.80
  -4   4  10   40.90    5.00
  -4   4  10   51.39    3.80
  -4   4  10   43.80    5.10
  -4   4  10   44.80    3.60
  -4   4  10   49.50    4.20
  -4   4  10   52.49    5.50
  -4   4  10   46.00    3.60
  -3   4  10  381.86   14.10
  -3   4  10  382.56   10.80
  -3   4  10  383.26   11.90
  -3   4  10  375.46   10.90
  -3   4  10  384.26   12.00
  -3   4  10  364.36   10.80
  -3   4  10  381.56   13.70
  -3   4  10  379.96   12.90
  -3   4  10  366.16   13.20
  -3   4  10  383.36   12.40
  -2   4  10   69.19    5.70
  -2   4  10   71.19    6.20
  -2   4  10   64.99    4.20
  -2   4  10   74.49    4.40
  -2   4  10   73.19    6.00
  -2   4  10   68.29    6.10
  -2   4  10   70.89    4.60
  -2   4  10   63.19    3.60
  -2   4  10   66.39    3.60
  -1   4  10  462.65   12.70
  -1   4  10  476.05   15.50
  -1   4  10  459.65   13.70
  -1   4  10  472.55   14.80
  -1   4  10  409.96   12.30
  -1   4  10  476.95   14.30
  -1   4  10  466.65   14.80
  -1   4  10  475.85   14.00
  -1   4  10  469.75   14.60
   0   4  10   91.69    4.90
   0   4  10   89.99    5.30
   0   4  10   87.79    5.10
   0   4  10   77.59    6.20
   0   4  10   87.59    5.10
   0   4  10   90.19    4.80
   8  -5 -10   31.20    2.90
   8  -5 -10   27.00    2.40
   8  -5 -10   31.50    2.80
  -8   5  10   28.00    3.30
  -8   5  10   31.60    3.40
  -8   5  10   26.50    2.90
   7  -5 -10  657.13   17.10
   7  -5 -10  681.13   17.80
   7  -5 -10  669.13   17.50
  -7   5  10  675.33   19.80
  -7   5  10  650.93   18.70
  -7   5  10  643.84   19.80
   6  -5 -10  408.66   12.80
   6  -5 -10  463.75   12.90
  -6   5  10  426.56   12.30
  -6   5  10  425.06   15.50
  -6   5  10  424.56   14.30
  -6   5  10  420.26   15.10
  -6   5  10  437.46   11.90
   5  -5 -10    6.80    1.70
  -5   5  10    4.60    1.30
  -5   5  10    5.80    1.40
  -5   5  10    4.50    1.90
  -5   5  10    6.10    1.80
  -5   5  10    6.30    1.60
  -5   5  10    3.80    1.80
  -5   5  10    6.00    1.40
  -5   5  10    7.80    1.70
  -5   5  10    0.40    1.50
  -5   5  10    7.20    2.40
  -5   5  10    7.10    2.50
  -4   5  10  268.97    9.50
  -4   5  10  270.87   11.90
  -4   5  10  280.87   10.20
  -4   5  10  270.27   10.60
  -4   5  10  274.67   11.50
  -4   5  10  284.17    9.70
  -4   5  10  283.07    8.90
  -4   5  10  268.97    9.00
  -4   5  10  265.47    8.80
  -4   5  10  281.17   11.40
  -3   5  10   87.79    4.30
  -3   5  10   90.29    7.00
  -3   5  10   91.99    4.40
  -3   5  10   87.99    5.50
  -3   5  10   97.59    5.30
  -3   5  10   88.79    5.00
  -3   5  10   80.49    7.10
  -3   5  10   81.29    6.50
  -3   5  10   86.29    5.60
  -2   5  10  312.27   11.80
  -2   5  10  312.17   11.40
  -2   5  10  316.47   11.70
  -2   5  10  319.07    9.80
  -2   5  10  318.37   10.90
  -2   5  10  325.37   11.00
  -2   5  10  308.57    9.70
  -2   5  10  322.37   12.50
  -1   5  10   66.29    4.30
  -1   5  10   55.39    5.00
  -1   5  10   66.39    5.70
  -1   5  10   59.99    3.50
  -1   5  10   62.09    5.30
  -1   5  10   63.59    3.60
  -1   5  10   57.79    4.80
   0   5  10 1913.21   44.10
   0   5  10 1888.81   43.70
   0   5  10 1902.71   43.70
   8  -6 -10   94.19    3.80
   8  -6 -10   92.59    4.10
   8  -6 -10   94.69    4.30
  -8   6  10   98.19    5.10
  -8   6  10   92.89    4.90
   7  -6 -10    2.90    1.10
   7  -6 -10    1.60    0.90
   7  -6 -10    2.40    1.00
  -7   6  10    3.00    1.60
  -7   6  10    2.20    1.60
  -7   6  10    2.30    1.30
   6  -6 -10  232.78    8.00
   6  -6 -10  237.68    8.30
  -6   6  10  248.28    7.90
  -6   6  10  250.17   10.80
  -6   6  10  237.18    7.50
  -6   6  10  221.38    9.60
  -6   6  10  228.58    8.80
  -6   6  10  228.88   10.00
   5  -6 -10   10.10    1.80
  -5   6  10   13.20    2.00
  -5   6  10   13.20    2.80
  -5   6  10   14.40    3.00
  -5   6  10   12.60    2.60
  -5   6  10   12.20    1.80
  -5   6  10   11.60    3.00
  -5   6  10   11.80    1.80
  -5   6  10   12.90    2.20
  -5   6  10   12.20    2.20
  -5   6  10   13.80    2.40
  -4   6  10  466.35   13.00
  -4   6  10  462.95   16.40
  -4   6  10  458.55   13.90
  -4   6  10  441.26   14.50
  -4   6  10  480.95   16.00
  -4   6  10  445.86   13.00
  -4   6  10  463.25   12.80
  -4   6  10  466.95   14.00
  -4   6  10  456.85   15.10
  -3   6  10    2.50    1.30
  -3   6  10    3.10    1.10
  -3   6  10    3.80    1.50
  -3   6  10    4.90    1.90
  -3   6  10    4.90    1.30
  -3   6  10    3.00    1.30
  -3   6  10    1.70    1.30
  -3   6  10    4.90    2.00
  -3   6  10    3.40    1.10
  -2   6  10    1.60    0.90
  -2   6  10    0.10    1.00
  -2   6  10    0.60    0.80
  -2   6  10    2.80    1.30
  -2   6  10    1.60    1.30
  -2   6  10    1.40    1.20
  -2   6  10    3.20    1.10
  -2   6  10    0.90    1.40
  -2   6  10   -0.90    1.10
  -1   6  10  262.97    8.50
  -1   6  10  257.87    8.40
  -1   6  10  253.77    9.70
  -1   6  10  256.27    9.40
  -1   6  10  241.38    9.20
  -1   6  10  257.47    9.90
   8  -7 -10  346.47    9.20
   8  -7 -10  342.67    9.40
  -8   7  10  332.37   10.00
  -8   7  10  353.16   10.50
   7  -7 -10   23.00    2.40
   7  -7 -10   20.90    2.20
   7  -7 -10   24.60    2.20
  -7   7  10   26.10    3.40
  -7   7  10   30.90    3.20
  -7   7  10   30.40    3.50
   6  -7 -10   35.30    3.20
   6  -7 -10   39.10    3.20
  -6   7  10   33.80    4.20
  -6   7  10   37.50    4.10
  -6   7  10   34.60    2.80
  -6   7  10   34.10    3.90
  -6   7  10   32.60    3.50
  -6   7  10   37.10    2.70
   5  -7 -10   39.40    3.30
  -5   7  10   36.70    3.10
  -5   7  10   32.50    3.60
  -5   7  10   33.30    3.20
  -5   7  10   36.80    4.10
  -5   7  10   32.30    4.30
  -5   7  10   29.70    2.90
  -5   7  10   27.60    3.80
  -5   7  10   27.20    2.60
  -5   7  10   33.10    3.30
  -4   7  10   77.19    6.40
  -4   7  10   76.69    4.90
  -4   7  10   73.39    4.50
  -4   7  10   80.79    4.10
  -4   7  10   75.09    6.00
  -4   7  10   79.29    6.80
  -4   7  10   73.19    4.00
  -4   7  10   74.29    4.50
  -4   7  10   73.89    3.90
  -3   7  10  184.18    8.30
  -3   7  10  175.58    6.70
  -3   7  10  181.08    7.60
  -3   7  10  180.38    8.10
  -3   7  10  177.68    8.30
  -3   7  10  191.28    7.80
  -3   7  10  179.68    6.70
  -3   7  10  184.18    6.70
  -2   7  10 1002.30   25.90
  -2   7  10 1023.70   24.70
  -2   7  10 1042.60   24.70
  -2   7  10 1028.30   26.00
  -2   7  10 1010.50   24.70
  -2   7  10 1034.40   26.70
  -2   7  10 1036.90   26.80
  -2   7  10 1024.20   26.50
  -1   7  10 1738.03   39.10
  -1   7  10 1742.33   40.70
  -1   7  10 1731.23   39.20
  -1   7  10 1738.93   40.40
  -1   7  10 1752.12   40.40
   0   7  10   -0.70    0.70
   0   7  10    0.10    0.70
   0   7  10    0.10    0.50
   0   7  10    0.20    0.70
   7  -8 -10  409.96   10.60
   7  -8 -10  433.36   11.00
   7  -8 -10  411.76   11.20
  -7   8  10  436.06   12.00
   6  -8 -10   48.50    2.80
   6  -8 -10   57.69    3.20
  -6   8  10   53.99    2.80
  -6   8  10   49.90    4.30
  -6   8  10   56.89    3.60
  -6   8  10   42.00    4.20
  -6   8  10   55.49    2.70
  -6   8  10   52.09    3.10
   5  -8 -10  269.67    8.40
  -5   8  10  291.67   10.10
  -5   8  10  269.97    9.30
  -5   8  10  301.87    8.60
  -5   8  10  294.47    8.80
  -5   8  10  288.17   10.70
  -5   8  10  282.57    8.20
  -5   8  10  275.17    8.80
  -5   8  10  276.57    8.80
  -5   8  10  282.27   10.40
  -4   8  10  130.19    6.60
  -4   8  10  128.09    5.80
  -4   8  10  131.49    5.10
  -4   8  10  140.89    6.30
  -4   8  10  134.89    5.30
  -4   8  10  127.69    5.20
  -4   8  10  129.79    6.40
  -4   8  10  128.89    5.70
  -3   8  10    4.20    1.60
  -3   8  10    5.50    1.60
  -3   8  10    2.60    0.90
  -3   8  10   -0.40    0.50
  -3   8  10    3.10    1.50
  -3   8  10    4.80    1.40
  -3   8  10    4.10    1.10
  -3   8  10    3.30    1.30
  -3   8  10    3.90    1.10
  -2   8  10   71.29    3.70
  -2   8  10   78.59    4.40
  -2   8  10   69.19    3.60
  -2   8  10   76.89    4.50
  -2   8  10   73.19    4.20
  -2   8  10   71.89    3.70
  -2   8  10   69.09    4.40
  -1   8  10  114.49    4.50
  -1   8  10  120.89    5.20
  -1   8  10  111.39    5.10
  -1   8  10  112.19    4.50
  -1   8  10  117.59    5.20
   0   8  10    0.00    0.50
   0   8  10    0.10    0.60
   6  -9 -10   13.90    1.60
   6  -9 -10   13.60    1.50
  -6   9  10   18.00    1.80
  -6   9  10   14.00    2.00
  -6   9  10   14.90    1.30
  -6   9  10   16.00    1.50
  -6   9  10   14.60    2.10
  -6   9  10   12.20    1.70
   5  -9 -10   55.29    2.70
  -5   9  10   59.79    2.90
  -5   9  10   59.89    3.00
  -5   9  10   56.79    2.90
  -5   9  10   55.39    3.20
  -5   9  10   58.29    3.50
  -5   9  10   57.69    2.80
  -5   9  10   50.49    4.00
  -5   9  10   56.49    2.60
  -4   9  10  600.44   14.40
  -4   9  10  598.84   15.30
  -4   9  10  610.64   15.80
  -4   9  10  561.44   15.70
  -4   9  10  587.14   14.40
  -4   9  10  586.24   16.00
  -4   9  10  572.14   14.60
  -4   9  10  591.64   15.00
  -3   9  10   21.70    2.40
  -3   9  10   23.70    2.00
  -3   9  10   22.70    2.60
  -3   9  10   23.20    2.60
  -3   9  10   21.10    2.30
  -3   9  10   17.70    1.90
  -3   9  10   19.50    1.90
  -2   9  10  484.25   12.00
  -2   9  10  471.55   12.00
  -2   9  10  479.65   12.80
  -2   9  10  474.35   12.80
  -2   9  10  477.75   12.00
  -2   9  10  485.95   12.90
  -1   9  10  350.96    9.20
  -1   9  10  348.87    8.80
  -1   9  10  344.67    8.80
  -1   9  10  336.17    8.70
  -1   9  10  348.37    9.40
   1  10 -11  167.38    5.90
   1  10 -11  157.68    5.50
  -1 -10  11  153.58    4.90
  -1 -10  11  166.08    5.30
   0  10 -11  259.37    8.40
   0 -10  11  264.17    7.80
   0 -10  11  283.67    8.20
  -1  10 -11  349.87   10.40
  -1  10 -11  329.57   10.20
   1 -10  11  351.06    9.90
   1 -10  11  357.26   10.00
  -2  10 -11  123.39    5.20
  -2  10 -11  115.39    5.20
   2 -10  11  118.19    4.80
   2 -10  11  117.69    4.80
  -3  10 -11  266.97    8.20
  -3  10 -11  300.07   10.30
  -3  10 -11  286.17    8.90
   3 -10  11  279.07    8.10
   3 -10  11  265.57    8.30
   3 -10  11  261.17    7.80
  -4  10 -11   90.29    4.00
  -4  10 -11   88.39    3.80
   4 -10  11   81.89    3.60
   4 -10  11   86.89    3.80
   4 -10  11   85.19    3.50
   2   9 -11    0.30    0.80
   2   9 -11    1.40    0.80
   2   9 -11    0.00    0.80
  -2  -9  11   -0.50    0.60
  -2  -9  11    1.90    0.90
  -2  -9  11    1.60    0.70
   1   9 -11    3.40    1.40
   1   9 -11    3.30    1.20
  -1  -9  11    3.80    1.10
  -1  -9  11    2.60    0.90
  -1  -9  11    3.10    1.30
   0   9 -11    0.90    1.00
   0   9 -11    0.90    1.00
   0   9 -11    1.00    0.90
   0  -9  11    0.20    0.60
   0  -9  11    0.90    1.00
   0  -9  11    0.90    0.90
  -1   9 -11   26.40    3.00
  -1   9 -11   19.40    2.70
  -1   9 -11   25.00    3.00
   1  -9  11   20.10    2.60
   1  -9  11   25.40    2.80
  -2   9 -11  180.68    7.10
  -2   9 -11  161.48    6.80
  -2   9 -11  168.28    6.40
   2  -9  11  178.08    6.70
   2  -9  11  187.38    7.10
  -3   9 -11   93.49    4.40
  -3   9 -11   88.19    4.60
  -3   9 -11   89.19    4.70
   3  -9  11   94.49    4.60
   3  -9  11   95.09    4.70
  -4   9 -11  131.39    5.30
  -4   9 -11  132.59    5.60
  -4   9 -11  124.79    4.90
   4  -9  11  126.89    5.00
   4  -9  11  134.89    5.30
   4  -9  11  127.79    5.40
  -5   9 -11    9.00    1.40
  -5   9 -11    9.70    1.50
   5  -9  11    9.90    1.40
   5  -9  11    8.80    1.40
   5  -9  11   10.20    1.50
   3   8 -11    2.90    1.10
   3   8 -11    1.80    1.10
  -3  -8  11    1.80    0.90
  -3  -8  11    6.50    1.50
   2   8 -11   61.59    4.20
   2   8 -11   54.99    3.50
   2   8 -11   55.89    4.20
  -2  -8  11   46.80    2.90
  -2  -8  11   55.19    4.50
  -2  -8  11   55.99    3.60
   1   8 -11   19.20    2.60
   1   8 -11   16.90    2.90
   1   8 -11   20.90    2.70
  -1  -8  11   21.20    2.70
  -1  -8  11   20.80    2.80
  -1  -8  11   17.60    2.30
   0   8 -11  692.43   19.90
   0   8 -11  698.23   18.60
   0   8 -11  707.73   19.30
   0  -8  11  700.13   19.40
   0  -8  11  696.53   19.10
   0  -8  11  716.73   18.50
  -1   8 -11  709.13   19.80
  -1   8 -11  726.93   19.30
  -1   8 -11  710.33   19.60
   1  -8  11  732.73   19.60
   1  -8  11  751.02   19.80
   1  -8  11  701.43   18.90
  -2   8 -11  156.98    6.20
  -2   8 -11  156.48    6.70
  -2   8 -11  145.89    6.50
   2  -8  11  147.79    6.70
   2  -8  11  152.38    6.90
   2  -8  11  149.99    6.40
  -3   8 -11   70.39    4.00
  -3   8 -11   77.59    4.50
   3  -8  11   74.79    4.50
   3  -8  11   71.79    4.30
   3  -8  11   73.09    4.20
  -4   8 -11   11.00    1.80
  -4   8 -11   10.90    1.90
  -4   8 -11    9.20    1.80
   4  -8  11    5.90    1.40
   4  -8  11   11.00    1.90
   4  -8  11   12.00    2.00
  -5   8 -11  201.48    6.80
  -5   8 -11  195.18    6.70
   5  -8  11  197.88    6.90
   5  -8  11  192.78    6.80
   5  -8  11  195.38    7.20
  -6   8 -11    0.60    0.60
  -6   8 -11    1.00    0.70
  -6   8 -11    2.10    0.90
   6  -8  11    3.30    0.90
   6  -8  11    1.70    0.80
   6  -8  11    0.40    0.60
   4   7 -11  304.37    9.60
   4   7 -11  296.57    9.10
   4   7 -11  297.87    9.30
  -4  -7  11  308.27    9.00
  -4  -7  11  292.97    9.40
  -4  -7  11  309.07    9.70
   3   7 -11   66.69    4.80
   3   7 -11   64.19    4.30
  -3  -7  11   64.19    4.00
  -3  -7  11   70.39    4.50
  -3  -7  11   66.79    4.40
   2   7 -11    6.10    1.80
   2   7 -11    5.30    1.50
   2   7 -11    4.70    1.50
  -2  -7  11    6.50    2.30
  -2  -7  11    7.20    2.00
  -2  -7  11    6.50    1.70
   1   7 -11    5.20    1.80
   1   7 -11    6.50    1.80
   1   7 -11    6.20    1.70
   1   7 -11    0.80    0.70
  -1  -7  11    4.90    1.70
  -1  -7  11    4.90    1.80
  -1  -7  11    4.20    1.30
   0   7 -11   14.90    2.70
   0   7 -11   17.80    2.60
   0   7 -11   20.60    2.70
   0  -7  11   15.00    2.70
   0  -7  11   19.10    2.80
   0  -7  11   12.60    2.10
  -1   7 -11   53.59    4.50
  -1   7 -11   57.69    4.60
  -1   7 -11   50.79    3.30
   1  -7  11   51.59    4.80
   1  -7  11   52.49    4.20
   1  -7  11   54.89    4.70
  -2   7 -11   67.59    4.20
  -2   7 -11   77.39    4.10
  -2   7 -11   75.19    4.30
   2  -7  11   66.89    5.60
   2  -7  11   71.39    4.60
   2  -7  11   74.79    4.40
  -3   7 -11 1007.90   24.20
  -3   7 -11  990.70   24.80
   3  -7  11  965.70   25.30
   3  -7  11  966.70   24.90
   3  -7  11  972.00   23.40
   3  -7  11  993.00   25.50
  -4   7 -11   69.79    4.00
  -4   7 -11   68.99    3.80
  -4   7 -11   63.59    3.80
   4  -7  11   47.90    4.30
   4  -7  11   60.59    4.00
   4  -7  11   60.49    4.80
   4  -7  11   66.59    3.50
  -5   7 -11   80.39    4.00
  -5   7 -11   79.29    4.00
   5  -7  11   77.29    4.00
   5  -7  11   81.29    4.60
   5  -7  11   85.59    4.50
   5  -7  11   72.39    4.10
   5  -7  11   76.09    3.70
  -6   7 -11  240.38    7.50
  -6   7 -11  248.98    7.50
  -6   7 -11  239.18    7.10
   6  -7  11  241.78    7.40
   6  -7  11  233.98    7.60
   6  -7  11  237.48    7.80
   5   6 -11    0.70    1.00
   5   6 -11    2.20    1.00
   5   6 -11    0.70    0.90
  -5  -6  11    1.40    1.00
  -5  -6  11    0.90    1.00
  -5  -6  11    2.00    0.90
   4   6 -11  584.84   16.90
   4   6 -11  626.24   16.90
   4   6 -11  614.44   17.20
  -4  -6  11  614.94   17.70
  -4  -6  11  631.74   16.40
  -4  -6  11  643.94   17.50
   3   6 -11  157.18    6.90
   3   6 -11  168.68    7.20
   3   6 -11  166.68    7.60
  -3  -6  11  158.78    7.50
  -3  -6  11  152.38    7.60
  -3  -6  11  171.88    7.00
   2   6 -11  115.49    6.30
   2   6 -11  111.09    5.70
   2   6 -11  109.39    5.50
  -2  -6  11  108.89    6.50
  -2  -6  11  124.79    6.60
  -2  -6  11  109.09    5.70
   1   6 -11 1340.37   31.30
   1   6 -11 1345.07   33.10
   1   6 -11 1330.77   32.00
   1   6 -11 1281.07   31.70
  -1  -6  11 1304.57   33.70
  -1  -6  11 1348.86   32.50
  -1  -6  11 1348.57   33.50
   0   6 -11   85.89    4.50
   0   6 -11   84.49    5.10
   0   6 -11   81.19    4.60
   0  -6  11   78.49    5.10
   0  -6  11   83.49    5.40
   0  -6  11   78.49    4.80
   0  -6  11   76.99    4.30
  -1   6 -11  137.19    6.20
  -1   6 -11  147.79    6.20
   1  -6  11  139.39    7.00
   1  -6  11  140.09    6.60
   1  -6  11  132.99    7.00
   1  -6  11  136.29    6.10
   1  -6  11  142.29    5.80
  -2   6 -11   -0.20    0.70
  -2   6 -11    0.30    0.80
   2  -6  11    2.00    1.00
   2  -6  11    5.60    1.40
   2  -6  11    0.60    0.90
   2  -6  11    0.30    1.00
   2  -6  11    2.90    1.40
   2  -6  11    4.30    1.60
  -3   6 -11   64.29    4.00
   3  -6  11   70.89    5.60
   3  -6  11   68.99    6.80
   3  -6  11   66.49    5.60
   3  -6  11   65.39    3.70
   3  -6  11   66.59    3.80
   3  -6  11   71.59    4.50
  -4   6 -11  299.27    9.60
  -4   6 -11  289.77    9.40
   4  -6  11  298.87    9.40
   4  -6  11  304.57   10.50
   4  -6  11  290.37    9.30
   4  -6  11  292.07   10.40
   4  -6  11  289.47   10.40
  -5   6 -11   45.80    3.00
   5  -6  11   49.20    3.10
   5  -6  11   51.09    2.90
   5  -6  11   55.39    3.60
   5  -6  11   44.20    4.10
   5  -6  11   43.90    4.10
  -6   6 -11  705.63   17.10
   6  -6  11  703.63   17.90
   6  -6  11  680.53   16.40
   6  -6  11  678.93   17.60
   6  -6  11  713.03   17.50
   6  -6  11  675.53   16.80
   6   5 -11  244.78    7.60
   6   5 -11  214.78    6.90
  -6  -5  11  230.78    7.70
  -6  -5  11  223.18    7.30
   5   5 -11   49.00    4.20
   5   5 -11   63.79    4.60
  -5  -5  11   59.39    3.90
  -5  -5  11   52.89    4.90
   4   5 -11    2.00    1.20
   4   5 -11    1.10    1.20
   4   5 -11    0.30    0.90
  -4  -5  11    2.80    1.50
  -4  -5  11    2.10    1.30
  -4  -5  11    1.80    1.10
   3   5 -11  132.69    6.40
   3   5 -11  133.59    6.60
   3   5 -11  123.59    6.00
   3   5 -11  114.59    5.50
  -3  -5  11  128.99    7.30
  -3  -5  11  132.39    6.10
  -3  -5  11  127.59    6.70
   2   5 -11  118.79    5.60
   2   5 -11  120.99    5.70
   2   5 -11  112.29    6.00
  -2  -5  11  105.99    6.20
  -2  -5  11  119.89    6.90
  -2  -5  11  117.49    5.80
   1   5 -11  106.49    5.70
   1   5 -11  106.99    5.20
  -1  -5  11   94.89    5.70
  -1  -5  11  102.09    5.40
  -1  -5  11   98.29    6.20
   0   5 -11  343.57   11.50
   0   5 -11  344.97   11.10
   0  -5  11  351.06   11.50
   0  -5  11  355.26   10.90
   0  -5  11  379.76   12.50
   0  -5  11  359.06   10.60
   0  -5  11  337.37   12.40
  -1   5 -11  211.88    7.90
   1  -5  11  207.58    7.80
   1  -5  11  219.18    8.40
   1  -5  11  209.98    8.80
   1  -5  11  220.08    7.80
   1  -5  11  218.28    7.70
   1  -5  11  216.38    7.40
   1  -5  11  198.08    9.00
  -2   5 -11  732.13   19.60
   2  -5  11  776.22   21.70
   2  -5  11  768.72   19.50
   2  -5  11  790.32   19.80
   2  -5  11  783.52   21.60
   2  -5  11  782.92   20.40
   2  -5  11  773.22   20.90
   2  -5  11  754.72   19.60
  -3   5 -11  571.84   15.80
   3  -5  11  588.04   15.90
   3  -5  11  593.74   15.50
   3  -5  11  594.44   17.50
   3  -5  11  568.04   17.40
   3  -5  11  604.54   15.80
   3  -5  11  583.84   15.70
   3  -5  11  568.64   16.80
   4  -5  11    9.10    2.10
   4  -5  11   12.70    2.30
   4  -5  11   11.90    1.90
   4  -5  11   16.60    2.30
   4  -5  11   11.10    2.30
   4  -5  11   10.20    2.20
   4  -5  11   14.70    2.10
   4  -5  11    8.40    1.70
   4  -5  11   12.90    2.10
  -5   5 -11   21.40    2.40
   5  -5  11   23.40    2.60
   5  -5  11   23.70    2.40
   5  -5  11   21.80    2.40
   5  -5  11   19.10    2.70
   5  -5  11   24.50    3.20
   5  -5  11   24.20    2.30
   5  -5  11   19.70    2.50
   5  -5  11   23.50    2.50
   5  -5  11   25.30    3.20
  -6   5 -11  139.99    5.10
   6  -5  11  118.59    4.70
   6  -5  11  134.89    5.10
   6  -5  11  131.99    5.20
   6  -5  11  132.89    5.60
   6  -5  11  134.69    5.70
   6  -5  11  121.69    4.40
   6  -5  11  133.69    5.50
   6  -5  11  122.39    4.60
   6  -5  11  131.89    4.80
  -7   5 -11    4.70    1.00
   7  -5  11    5.00    1.00
   7  -5  11    3.70    0.80
   7  -5  11    2.50    0.80
   6   4 -11   39.30    3.50
   6   4 -11   40.70    3.30
   6   4 -11   38.80    3.40
  -6  -4  11   44.30    4.20
  -6  -4  11   42.10    3.40
  -6  -4  11   44.90    4.00
   5   4 -11   10.70    2.20
   5   4 -11    8.30    1.90
  -5  -4  11   10.20    2.30
  -5  -4  11    8.60    2.00
  -5  -4  11   15.60    3.00
   4   4 -11    4.30    1.50
   4   4 -11    6.90    1.90
   4   4 -11    8.30    1.80
  -4  -4  11   11.40    2.70
  -4  -4  11    6.70    2.20
  -4  -4  11    5.10    1.70
   3   4 -11   95.49    4.80
   3   4 -11  111.99    5.50
   3   4 -11   89.99    5.20
   3   4 -11  102.49    5.60
  -3  -4  11   99.29    6.40
  -3  -4  11   95.89    5.60
  -3  -4  11   97.69    6.40
   2   4 -11  167.68    7.20
   2   4 -11  170.18    6.80
   2   4 -11  168.88    6.70
  -2  -4  11  152.08    6.70
  -2  -4  11  160.38    8.00
  -2  -4  11  143.49    7.80
  -2  -4  11  166.88    7.60
   1   4 -11  198.18    7.90
  -1  -4  11  206.18    7.80
  -1  -4  11  206.88    7.30
  -1  -4  11  202.78    8.50
  -1  -4  11  187.08    9.00
  -1  -4  11  196.88    9.00
   0   4 -11   49.80    3.70
   0   4 -11   45.20    4.10
   0  -4  11   48.10    3.90
   0  -4  11   46.00    4.80
   0  -4  11   55.49    4.90
   0  -4  11   51.99    3.30
   0  -4  11   54.49    4.60
   0  -4  11   55.99    5.60
   1  -4  11   10.00    1.80
   1  -4  11   12.50    2.00
   1  -4  11    4.60    1.70
   1  -4  11   11.80    2.00
   1  -4  11    3.10    1.80
   1  -4  11    5.80    1.80
   1  -4  11    7.00    1.80
   2  -4  11   56.19    4.50
   2  -4  11   59.29    5.40
   2  -4  11   49.40    4.10
   2  -4  11   59.29    5.10
   2  -4  11   54.29    5.30
   2  -4  11   52.89    5.00
   2  -4  11   51.99    3.40
   2  -4  11   59.29    4.40
   2  -4  11   52.89    4.40
   2  -4  11   48.80    4.30
   2  -4  11   58.19    4.60
   3  -4  11    0.30    1.10
   3  -4  11    1.80    1.00
   3  -4  11    1.20    0.80
   3  -4  11    7.40    2.10
   3  -4  11    1.60    1.10
   3  -4  11    0.50    1.10
   3  -4  11    0.90    0.80
   3  -4  11    0.90    1.00
   3  -4  11    0.90    1.00
   3  -4  11    0.00    1.00
   4  -4  11  747.23   19.20
   4  -4  11  772.22   20.20
   4  -4  11  741.63   19.40
   4  -4  11  796.12   21.30
   4  -4  11  728.53   20.50
   4  -4  11  772.12   19.40
   4  -4  11  790.22   21.30
   4  -4  11  788.12   19.50
   4  -4  11  752.62   21.10
   4  -4  11  743.33   19.80
   5  -4  11  126.79    6.20
   5  -4  11  123.89    6.00
   5  -4  11  134.39    5.40
   5  -4  11  128.49    5.90
   5  -4  11  129.29    5.60
   5  -4  11  128.89    5.20
   5  -4  11  124.89    5.50
   5  -4  11  138.89    6.50
   5  -4  11  129.69    5.20
  -6   4 -11   52.09    2.90
   6  -4  11   53.89    3.30
   6  -4  11   58.49    2.90
   6  -4  11   56.89    3.50
   6  -4  11   57.19    4.30
   6  -4  11   55.19    3.10
   6  -4  11   55.99    3.00
   6  -4  11   55.49    3.00
   6  -4  11   56.29    3.00
  -7   4 -11   10.40    1.30
   7  -4  11   10.90    1.10
   7  -4  11   11.70    1.40
   7  -4  11   10.90    1.40
   7  -4  11   10.90    1.20
   7  -4  11   10.50    1.20
   7   3 -11  377.66   10.30
   7   3 -11  405.16   11.10
   7   3 -11  402.06   11.30
  -7  -3  11  402.26   11.80
  -7  -3  11  398.26   11.70
   6   3 -11   86.39    4.90
   6   3 -11   89.29    4.60
   6   3 -11  101.09    5.30
  -6  -3  11   95.69    4.80
  -6  -3  11   85.69    5.40
  -6  -3  11   92.79    5.60
   5   3 -11    5.90    1.70
   5   3 -11    6.90    1.90
   5   3 -11    5.60    1.60
  -5  -3  11   10.40    2.70
  -5  -3  11    7.60    2.20
  -5  -3  11    5.40    1.70
   4   3 -11  134.39    6.20
   4   3 -11  134.09    6.50
   4   3 -11  141.89    6.60
  -4  -3  11  135.59    6.80
  -4  -3  11  134.09    7.50
  -4  -3  11  144.39    7.90
   3   3 -11   12.50    2.20
   3   3 -11   13.30    2.40
   3   3 -11   13.30    2.40
  -3  -3  11   13.90    3.10
  -3  -3  11   12.20    2.80
  -3  -3  11   13.40    2.50
   2   3 -11    1.90    1.20
   2   3 -11    1.60    1.60
   2   3 -11    2.70    1.10
   2   3 -11    1.80    1.20
  -2  -3  11    3.00    1.80
  -2  -3  11    3.90    1.60
  -2  -3  11    3.00    1.40
  -2  -3  11    2.70    1.20
  -2  -3  11    2.70    1.20
   1   3 -11   87.39    5.60
   1   3 -11   85.89    4.90
  -1  -3  11   85.89    5.90
  -1  -3  11   78.99    5.70
  -1  -3  11   86.89    7.20
   0   3 -11   82.19    4.80
   0   3 -11   74.09    5.00
   0   3 -11   71.79    4.50
   0  -3  11   76.49    5.70
   0  -3  11   77.29    6.70
   0  -3  11   75.49    5.30
  -1   3 -11  325.67   10.80
  -1   3 -11  339.97   11.40
  -1   3 -11  324.17   11.20
   1  -3  11  329.17   10.40
   1  -3  11  336.37   10.40
   1  -3  11  345.07   12.30
   1  -3  11  318.87   11.30
   1  -3  11  328.37   14.70
   1  -3  11  323.57   13.00
   1  -3  11  308.77   11.80
   2  -3  11  784.42   22.20
   2  -3  11  791.62   20.10
   2  -3  11  789.42   21.90
   2  -3  11  792.62   20.40
   2  -3  11  774.02   21.90
   2  -3  11  785.42   20.90
   2  -3  11  812.12   20.40
   2  -3  11  800.82   21.00
   2  -3  11  773.22   20.60
   2  -3  11  819.92   21.30
   3  -3  11   13.50    2.20
   3  -3  11   15.00    2.40
   3  -3  11   16.40    2.40
   3  -3  11   14.00    2.30
   3  -3  11   13.30    2.60
   3  -3  11   12.30    2.40
   3  -3  11   15.40    2.30
   3  -3  11   15.10    2.70
   3  -3  11   17.80    2.80
   3  -3  11   15.80    2.70
   4  -3  11  240.18    8.30
   4  -3  11  251.77    9.50
   4  -3  11  244.48    9.40
   4  -3  11  242.28    9.50
   4  -3  11  241.18    8.20
   4  -3  11  243.08    9.30
   4  -3  11  254.77    8.80
   4  -3  11  236.28    8.90
   4  -3  11  241.78    8.50
   4  -3  11  203.78    7.70
   5  -3  11  182.28    7.60
   5  -3  11  169.28    6.80
   5  -3  11  175.58    6.50
   5  -3  11  186.48    6.80
   5  -3  11  179.78    6.50
   5  -3  11  170.68    7.20
   5  -3  11  167.68    7.00
   5  -3  11  176.08    6.30
   5  -3  11  170.58    7.40
   6  -3  11    0.70    0.80
   6  -3  11   -0.10    0.70
   6  -3  11    0.10    0.60
   6  -3  11    0.10    0.60
   6  -3  11    0.40    0.60
   6  -3  11    0.80    0.70
   6  -3  11   -1.00    0.70
   6  -3  11    0.10    0.70
   6  -3  11    0.70    0.70
   7   2 -11   73.39    4.10
   7   2 -11   71.79    3.60
   7   2 -11   69.39    4.10
  -7  -2  11   76.69    4.70
  -7  -2  11   68.69    4.30
   6   2 -11   89.19    4.80
   6   2 -11   90.19    5.20
   6   2 -11   99.99    5.40
  -6  -2  11   88.89    5.60
  -6  -2  11   93.39    6.00
  -6  -2  11   91.09    8.20
   5   2 -11  509.05   15.40
   5   2 -11  526.85   14.90
   5   2 -11  484.25   14.70
   5   2 -11  511.35   16.10
  -5  -2  11  541.05   16.80
  -5  -2  11  493.55   17.10
  -5  -2  11  513.15   16.10
   4   2 -11  950.00   24.30
   4   2 -11  953.40   23.80
   4   2 -11  973.10   24.40
  -4  -2  11  937.81   26.60
  -4  -2  11  940.21   25.60
  -4  -2  11  951.10   26.00
  -4  -2  11  907.91   24.30
   3   2 -11   60.59    4.70
   3   2 -11   57.99    4.40
  -3  -2  11   50.89    5.50
  -3  -2  11   57.69    5.00
  -3  -2  11   64.29    5.70
  -3  -2  11   64.29    3.80
  -3  -2  11   58.29    5.70
   2   2 -11  909.01   23.70
   2   2 -11  915.51   25.40
   2   2 -11  942.51   25.10
  -2  -2  11  935.51   26.30
  -2  -2  11  893.11   28.60
  -2  -2  11  927.21   25.50
   1   2 -11   22.90    3.00
   1   2 -11   22.10    3.00
   1   2 -11   28.00    3.80
  -1  -2  11   21.60    3.10
  -1  -2  11   22.70    3.60
  -1  -2  11   30.80    4.30
  -1  -2  11   22.70    4.40
   0   2 -11  240.18    9.10
   0   2 -11  228.78    9.20
   0   2 -11  244.98    9.70
   0  -2  11  252.57   10.50
   0  -2  11  253.57   12.30
   0  -2  11  250.67   10.60
  -1   2 -11  137.59    6.30
  -1   2 -11  145.09    6.70
  -1   2 -11  145.89    6.90
   1  -2  11  145.79    9.20
   1  -2  11  131.99    7.60
   1  -2  11  146.89    7.60
   2  -2  11  339.57   11.60
   2  -2  11  313.77   10.90
   2  -2  11  337.97   11.20
   2  -2  11  332.07   11.10
   2  -2  11  314.77   10.10
   2  -2  11  333.67   10.50
   2  -2  11  328.97   11.90
   2  -2  11  325.07   11.10
   2  -2  11  319.37   11.70
   2  -2  11  334.87   10.70
   3  -2  11 1657.83   39.00
   3  -2  11 1637.94   37.60
   3  -2  11 1601.64   38.00
   3  -2  11 1590.54   38.20
   3  -2  11 1644.24   39.20
   3  -2  11 1611.74   39.00
   3  -2  11 1587.94   37.20
   3  -2  11 1621.04   38.10
   3  -2  11 1648.44   39.30
   4  -2  11   64.29    4.20
   4  -2  11   60.29    5.10
   4  -2  11   59.69    5.00
   4  -2  11   69.49    3.80
   4  -2  11   57.99    4.40
   4  -2  11   58.59    4.40
   4  -2  11   51.49    4.70
   4  -2  11   59.59    4.90
   4  -2  11   60.69    4.00
   5  -2  11  433.36   12.50
   5  -2  11  459.25   13.50
   5  -2  11  431.96   12.30
   5  -2  11  439.86   13.60
   5  -2  11  439.96   13.20
   5  -2  11  446.76   13.30
   5  -2  11  445.86   13.00
   5  -2  11  452.15   12.40
   6  -2  11  298.87    8.40
   6  -2  11  286.37    8.40
   6  -2  11  296.27    9.20
   6  -2  11  303.17    8.80
   6  -2  11  309.97    8.90
   6  -2  11  316.57    9.10
   6  -2  11  284.47    9.30
   6  -2  11  293.47    8.40
   8   1 -11  178.68    6.00
   8   1 -11  187.58    6.30
  -8  -1  11  179.98    6.70
  -8  -1  11  179.68    6.10
   7   1 -11  232.68    7.80
   7   1 -11  243.18    8.90
   7   1 -11  257.57    8.80
  -7  -1  11  235.28    8.80
  -7  -1  11  249.78    9.20
  -7  -1  11  263.47    9.90
   6   1 -11  150.18    6.30
   6   1 -11  138.49    6.80
   6   1 -11  147.79    6.80
  -6  -1  11  136.99    7.10
  -6  -1  11  151.88    7.40
  -6  -1  11  159.08    8.10
   5   1 -11  166.18    6.80
   5   1 -11  157.98    7.30
   5   1 -11  165.38    7.00
   5   1 -11  148.99    6.90
  -5  -1  11  161.18    8.00
  -5  -1  11  176.08    8.40
  -5  -1  11  169.78    8.70
   4   1 -11   24.50    3.00
   4   1 -11   21.10    2.60
  -4  -1  11   23.20    3.60
  -4  -1  11   22.80    3.80
  -4  -1  11   25.40    3.70
  -4  -1  11   22.00    2.80
   3   1 -11  904.41   27.70
  -3  -1  11  930.41   27.50
  -3  -1  11  887.41   22.10
  -3  -1  11  863.31   24.80
  -3  -1  11  876.71   24.30
  -3  -1  11  888.81   22.50
  -3  -1  11  845.82   24.00
   2   1 -11  713.93   20.30
   2   1 -11  678.53   19.10
   2   1 -11  721.63   20.00
   2   1 -11  707.43   19.60
  -2  -1  11  711.73   20.10
  -2  -1  11  725.63   21.70
  -2  -1  11  685.43   23.50
   1   1 -11  396.36   13.20
   1   1 -11  439.96   13.80
   1   1 -11  408.36   13.00
  -1  -1  11  423.46   14.70
  -1  -1  11  421.66   13.50
  -1  -1  11  405.86   16.50
  -1  -1  11  374.36   13.50
   0   1 -11  996.70   26.00
   0   1 -11 1019.20   25.90
   0   1 -11  960.40   26.10
   0  -1  11 1026.20   27.20
   0  -1  11 1011.30   27.60
   0  -1  11 1000.50   30.00
   0  -1  11 1049.00   26.50
  -1   1 -11  836.32   22.70
  -1   1 -11  811.72   22.10
  -1   1 -11  853.31   22.30
   1  -1  11  825.32   26.10
   1  -1  11  820.32   23.70
   1  -1  11  832.32   23.80
   2  -1  11  165.88    7.40
   2  -1  11  173.08    7.40
   2  -1  11  176.78    7.90
   2  -1  11  170.28    7.00
   2  -1  11  167.28    6.50
   2  -1  11  161.48    7.70
   2  -1  11  169.28    6.80
   2  -1  11  169.18    7.30
   2  -1  11  169.98    7.50
   2  -1  11  170.58    7.20
   3  -1  11  279.87    9.80
   3  -1  11  295.37   10.50
   3  -1  11  278.97   10.10
   3  -1  11  287.37   10.00
   3  -1  11  276.77    9.50
   3  -1  11  289.57   10.40
   3  -1  11  287.77   10.10
   3  -1  11  289.97   10.60
   4  -1  11  155.58    6.50
   4  -1  11  153.68    6.80
   4  -1  11  145.89    6.80
   4  -1  11  143.79    6.20
   4  -1  11  145.19    6.80
   4  -1  11  147.09    5.90
   4  -1  11  151.68    6.20
   4  -1  11  160.18    6.90
   5  -1  11   22.50    2.40
   5  -1  11   20.90    2.70
   5  -1  11   26.50    2.60
   5  -1  11   24.50    2.70
   5  -1  11   22.80    2.90
   5  -1  11   24.50    2.60
   5  -1  11   24.70    2.50
   5  -1  11   23.50    2.90
   6  -1  11  159.48    5.60
   6  -1  11  166.98    5.80
   6  -1  11  162.88    6.00
   6  -1  11  172.68    5.70
   6  -1  11  166.88    5.90
   6  -1  11  156.88    5.20
   6  -1  11  164.38    5.30
   8   0 -11  132.09    5.30
   8   0 -11  144.79    5.70
  -8   0  11  136.19    6.10
  -8   0  11  141.89    5.60
   7   0 -11   58.49    3.40
   7   0 -11   69.99    5.30
   7   0 -11   71.59    4.20
  -7   0  11   64.89    5.70
  -7   0  11   45.70    4.50
  -7   0  11   58.19    5.10
   6   0 -11  590.54   17.20
   6   0 -11  579.94   16.00
   6   0 -11  598.34   16.80
  -6   0  11  559.14   17.90
  -6   0  11  586.54   17.60
  -6   0  11  593.34   18.80
   5   0 -11  298.27   10.70
   5   0 -11  326.17   10.30
   5   0 -11  322.97   10.70
  -5   0  11  316.17   11.80
  -5   0  11  327.17   12.30
  -5   0  11  314.17   12.20
  -5   0  11  314.87   12.60
  -5   0  11  314.57   10.20
   4   0 -11    6.50    1.60
  -4   0  11    6.60    2.30
  -4   0  11    9.40    2.60
  -4   0  11    6.00    2.10
  -4   0  11    6.30    2.10
  -4   0  11   12.60    2.00
  -4   0  11   10.90    2.10
   3   0 -11  206.58    8.20
   3   0 -11  199.58    8.90
   3   0 -11  211.48    8.80
  -3   0  11  206.88    8.90
  -3   0  11  209.98   10.30
  -3   0  11  192.78   11.60
  -3   0  11  212.18    9.30
  -3   0  11  210.28   11.20
  -3   0  11  179.48    9.90
   2   0 -11  113.79    6.30
   2   0 -11  119.69    6.00
   2   0 -11  109.69    5.70
   2   0 -11  113.59    6.30
  -2   0  11  114.49    7.10
  -2   0  11  112.69    8.00
  -2   0  11  116.49    6.50
   1   0 -11   89.99    5.10
   1   0 -11   82.89    5.30
   1   0 -11   90.79    5.40
  -1   0  11   94.79    5.70
  -1   0  11   93.89    7.20
  -1   0  11   90.29    6.10
   0   0 -11  450.65   14.00
   0   0 -11  426.16   14.30
   0   0 -11  448.26   14.10
   0   0  11  435.56   15.20
   0   0  11  433.06   14.30
   0   0  11  446.56   17.20
  -1   0 -11  153.48    7.50
  -1   0 -11  163.38    7.20
  -1   0 -11  155.98    7.40
   1   0  11  162.18    7.40
   1   0  11  145.59    7.00
   1   0  11  155.38    9.20
   1   0  11  165.98    7.90
   1   0  11  160.48    7.40
   1   0  11  148.49    6.90
   1   0  11  156.38    9.20
   1   0  11  155.38    8.00
   2   0  11  692.53   18.60
   2   0  11  684.43   18.20
   2   0  11  711.13   19.50
   2   0  11  682.13   19.70
   2   0  11  702.63   19.30
   2   0  11  697.43   19.10
   2   0  11  692.73   19.20
   2   0  11  683.73   19.60
   3   0  11   52.09    4.60
   3   0  11   56.29    4.70
   3   0  11   49.80    4.40
   3   0  11   57.59    4.80
   3   0  11   52.49    4.40
   3   0  11   59.79    5.00
   3   0  11   54.09    4.20
   3   0  11   48.90    4.20
   4   0  11  808.72   20.90
   4   0  11  802.32   20.80
   4   0  11  803.42   20.20
   4   0  11  791.82   20.80
   4   0  11  779.22   19.90
   4   0  11  789.12   20.90
   4   0  11  782.52   20.20
   5   0  11  138.49    5.50
   5   0  11  133.79    5.70
   5   0  11  126.69    5.50
   5   0  11  134.79    5.60
   5   0  11  133.99    5.50
   5   0  11  125.59    5.00
   5   0  11  134.89    5.00
   6   0  11   53.09    2.80
   6   0  11   55.49    2.50
   6   0  11   53.49    2.80
   6   0  11   55.89    2.80
   6   0  11   64.09    2.90
   6   0  11   55.59    2.70
   8  -1 -11  264.77    8.50
   8  -1 -11  274.07    8.90
  -8   1  11  264.97    9.40
  -8   1  11  280.77    9.20
   7  -1 -11   36.40    3.50
   7  -1 -11   39.00    3.90
   7  -1 -11   36.30    3.20
  -7   1  11   34.60    4.00
  -7   1  11   38.20    4.20
  -7   1  11   34.00    4.20
   6  -1 -11  106.19    5.70
   6  -1 -11  112.69    5.60
   6  -1 -11  109.79    5.20
  -6   1  11  106.29    6.70
  -6   1  11   94.29    7.30
  -6   1  11  104.69    6.60
   5  -1 -11    6.20    1.80
   5  -1 -11    1.90    1.10
  -5   1  11    6.10    2.20
  -5   1  11    4.60    1.90
  -5   1  11    4.20    1.40
  -5   1  11    5.00    2.20
   4  -1 -11    3.90    1.30
  -4   1  11    4.00    2.10
  -4   1  11    1.60    1.50
  -4   1  11    2.60    1.20
  -4   1  11    2.50    1.10
  -4   1  11    6.10    2.20
  -4   1  11    3.40    1.30
  -4   1  11    4.20    2.20
   3  -1 -11 1306.67   32.20
   3  -1 -11 1256.47   32.60
   3  -1 -11 1266.07   31.70
  -3   1  11 1240.78   34.40
  -3   1  11 1274.97   33.80
  -3   1  11 1294.47   33.40
  -3   1  11 1286.27   33.10
  -3   1  11 1278.67   32.60
  -3   1  11 1311.37   29.80
  -3   1  11 1343.07   36.50
  -3   1  11 1234.08   30.40
   2  -1 -11   87.79    5.50
   2  -1 -11  104.69    5.60
   2  -1 -11  101.09    5.40
  -2   1  11   97.69    7.30
  -2   1  11  104.89    6.30
  -2   1  11   94.39    6.10
  -2   1  11   89.49    6.40
   1  -1 -11  125.69    6.40
   1  -1 -11  134.19    6.80
   1  -1 -11  130.49    7.10
  -1   1  11  129.79    7.00
  -1   1  11  131.19    8.40
  -1   1  11  124.89    7.60
   0  -1 -11   24.20    3.60
   0  -1 -11   23.10    3.30
   0  -1 -11   25.90    3.50
   0   1  11   20.70    3.20
   0   1  11   29.10    4.70
   0   1  11   18.30    3.50
   1   1  11  768.82   21.60
   1   1  11  803.62   22.20
   1   1  11  820.42   21.10
   1   1  11  816.02   22.00
   1   1  11  808.82   22.10
   1   1  11  793.82   20.60
   1   1  11  825.92   21.50
   1   1  11  818.02   21.70
   2   1  11  148.99    7.00
   2   1  11  152.18    6.70
   2   1  11  157.88    7.00
   2   1  11  158.68    7.10
   2   1  11  160.28    7.20
   2   1  11  152.48    6.80
   3   1  11  101.19    5.10
   3   1  11   96.69    5.30
   3   1  11  101.39    5.30
   3   1  11  102.09    5.30
   3   1  11  104.49    5.10
   3   1  11  106.39    5.40
   4   1  11  388.36   11.70
   4   1  11  387.46   11.00
   4   1  11  375.96   11.50
   4   1  11  385.56   11.60
   4   1  11  385.36   11.00
   4   1  11  382.06   11.50
   5   1  11  152.88    5.50
   5   1  11  141.39    5.30
   5   1  11  139.19    5.30
   5   1  11  154.08    5.60
   5   1  11  148.39    5.00
   8  -2 -11   68.19    3.70
   8  -2 -11   82.59    4.30
  -8   2  11   82.19    4.60
  -8   2  11   72.29    4.40
  -8   2  11   70.79    4.20
   7  -2 -11   52.19    4.20
   7  -2 -11   52.89    4.60
  -7   2  11   52.19    5.10
  -7   2  11   48.60    4.90
  -7   2  11   53.19    5.10
   6  -2 -11  244.28    8.40
   6  -2 -11  249.18    9.30
   6  -2 -11  249.38    8.90
  -6   2  11  248.08   10.50
  -6   2  11  249.38   10.50
  -6   2  11  237.78   10.60
   5  -2 -11  578.54   16.60
   5  -2 -11  600.34   16.40
  -5   2  11  596.44   18.90
  -5   2  11  607.94   16.40
  -5   2  11  619.84   19.20
  -5   2  11  605.64   15.80
  -5   2  11  599.84   19.20
  -5   2  11  598.74   18.80
  -4   2  11   56.39    3.60
  -4   2  11   53.79    5.70
  -4   2  11   65.89    6.30
  -4   2  11   58.09    3.40
  -4   2  11   60.39    3.90
  -4   2  11   61.49    6.00
  -4   2  11   59.29    3.50
  -4   2  11   61.29    5.80
  -4   2  11   61.89    5.50
  -3   2  11  312.97   12.60
  -3   2  11  301.97   12.00
  -3   2  11  321.47   11.80
  -3   2  11  316.97   10.20
  -3   2  11  309.77   10.40
  -3   2  11  312.47   11.40
  -3   2  11  306.37    9.30
  -3   2  11  326.57   10.90
  -3   2  11  308.67   12.30
  -3   2  11  308.67   10.00
  -3   2  11  328.97    9.50
   2  -2 -11   24.80    3.40
   2  -2 -11   30.70    3.60
   2  -2 -11   20.80    3.20
  -2   2  11   23.00    3.60
  -2   2  11   26.30    4.10
  -2   2  11   22.70    3.90
   1  -2 -11   16.60    2.90
   1  -2 -11    3.30    1.40
   1  -2 -11    7.00    2.10
  -1   2  11    2.40    1.70
  -1   2  11    3.60    3.20
  -1   2  11    2.60    2.00
  -1   2  11   10.20    2.60
  -1   2  11    3.80    2.10
  -1   2  11    3.70    2.70
  -1   2  11    4.30    1.90
   0  -2 -11  701.03   22.20
   0   2  11  681.53   18.40
   0   2  11  685.33   19.60
   0   2  11  680.83   19.00
   0   2  11  640.84   17.70
   0   2  11  692.23   18.80
   0   2  11  632.04   19.10
   0   2  11  666.13   18.90
   0   2  11  667.73   19.10
   0   2  11  692.93   19.90
   1   2  11  268.07   10.00
   1   2  11  268.27   10.20
   1   2  11  268.07    9.20
   1   2  11  258.27    9.30
   1   2  11  274.37    9.70
   1   2  11  268.87   10.00
   1   2  11  257.67    9.60
   2   2  11  306.67   10.40
   2   2  11  319.07   10.50
   2   2  11  315.57   10.80
   2   2  11  310.57   10.30
   8  -3 -11   44.40    3.30
   8  -3 -11   42.60    3.50
  -8   3  11   45.10    4.10
  -8   3  11   43.10    3.90
   7  -3 -11   43.80    3.70
   7  -3 -11   38.80    3.80
  -7   3  11   43.30    4.80
  -7   3  11   45.40    4.80
   6  -3 -11   92.09    5.00
   6  -3 -11   90.79    4.80
  -6   3  11   91.59    7.50
  -6   3  11   79.99    4.10
  -6   3  11   95.39    7.20
  -6   3  11   97.89    6.40
   5  -3 -11  101.19    5.10
  -5   3  11  108.89    5.10
  -5   3  11  106.29    6.80
  -5   3  11  101.39    4.70
  -5   3  11   99.99    6.80
  -5   3  11   83.29    6.80
  -5   3  11  101.29    5.90
  -5   3  11   90.79    4.60
  -4   3  11 1346.17   30.90
  -4   3  11 1343.57   35.00
  -4   3  11 1305.47   31.90
  -4   3  11 1317.67   33.50
  -4   3  11 1332.87   32.80
  -4   3  11 1343.47   31.60
  -4   3  11 1334.67   30.80
  -4   3  11 1380.36   34.40
  -4   3  11 1304.27   35.00
  -4   3  11 1313.77   31.70
  -3   3  11  278.87   11.50
  -3   3  11  286.47    8.70
  -3   3  11  270.77    9.50
  -3   3  11  288.07   10.10
  -3   3  11  284.07   11.80
  -3   3  11  276.07    8.70
  -3   3  11  281.47   10.50
  -3   3  11  278.27   10.80
  -3   3  11  281.97    9.60
  -3   3  11  279.27   11.00
  -2   3  11  568.24   17.10
  -2   3  11  532.85   14.30
  -2   3  11  562.94   14.60
  -2   3  11  566.64   17.70
  -2   3  11  559.84   16.70
  -2   3  11  554.84   15.70
  -2   3  11  563.34   18.00
  -2   3  11  562.84   15.70
  -2   3  11  558.44   17.10
  -2   3  11  565.04   16.30
  -1   3  11   12.50    2.30
  -1   3  11   16.10    2.40
  -1   3  11   11.90    2.60
  -1   3  11   11.40    1.70
  -1   3  11    9.00    2.00
  -1   3  11   10.80    2.70
  -1   3  11   11.60    2.60
  -1   3  11    8.30    2.10
  -1   3  11    9.20    2.10
   0   3  11  283.27    9.50
   0   3  11  274.27   10.90
   0   3  11  283.67   10.10
   0   3  11  289.77   10.40
   0   3  11  270.47    9.70
   0   3  11  274.37   10.40
   8  -4 -11    4.20    1.10
   8  -4 -11    4.40    1.40
  -8   4  11    4.70    1.60
  -8   4  11    7.00    1.70
   7  -4 -11   86.99    4.70
   7  -4 -11   78.79    4.20
  -7   4  11   83.89    5.40
  -7   4  11   74.39    6.20
  -7   4  11   86.99    5.40
   6  -4 -11  531.95   15.30
   6  -4 -11  555.64   15.10
  -6   4  11  530.85   14.20
  -6   4  11  502.45   17.50
  -6   4  11  548.05   16.10
  -6   4  11  545.35   17.00
  -6   4  11  553.14   17.90
   5  -4 -11   46.70    4.00
  -5   4  11   43.50    4.80
  -5   4  11   41.30    3.80
  -5   4  11   40.60    5.20
  -5   4  11   42.00    5.20
  -5   4  11   47.50    3.90
  -5   4  11   46.20    5.10
  -5   4  11   41.50    4.20
  -5   4  11   35.10    3.20
  -5   4  11   41.20    3.40
  -4   4  11    8.60    2.50
  -4   4  11    6.10    1.70
  -4   4  11    7.70    2.00
  -4   4  11    6.70    2.30
  -4   4  11    9.50    2.30
  -4   4  11    6.70    2.40
  -4   4  11    6.30    1.40
  -4   4  11    5.90    1.40
  -4   4  11    7.90    1.60
  -4   4  11    8.60    2.30
  -4   4  11    9.60    2.10
  -3   4  11  123.39    5.20
  -3   4  11  121.99    7.30
  -3   4  11  125.09    6.30
  -3   4  11  119.99    5.20
  -3   4  11  124.29    5.90
  -3   4  11  134.09    7.10
  -3   4  11  123.29    6.60
  -3   4  11  130.29    6.10
  -3   4  11  121.19    7.50
  -2   4  11   31.20    2.90
  -2   4  11   32.00    3.90
  -2   4  11   25.40    3.40
  -2   4  11   32.40    3.60
  -2   4  11   31.70    4.50
  -2   4  11   36.30    4.50
  -2   4  11   30.30    4.00
  -2   4  11   34.10    3.00
  -2   4  11   32.50    3.60
  -1   4  11  316.57   11.70
  -1   4  11  321.47    9.60
  -1   4  11  313.17   12.20
  -1   4  11  321.77   11.20
  -1   4  11  321.37   10.70
  -1   4  11  325.47   10.80
  -1   4  11  327.77   11.50
  -1   4  11  332.67   11.80
   0   4  11  229.08    8.90
   0   4  11  224.28    9.00
   0   4  11  225.28    8.30
   0   4  11  229.08    9.50
   0   4  11  227.78    8.70
   8  -5 -11  102.49    4.20
   8  -5 -11  117.69    4.80
  -8   5  11  107.69    5.00
  -8   5  11  107.39    4.80
  -8   5  11  109.79    5.40
   7  -5 -11   51.09    4.00
   7  -5 -11   51.59    3.20
   7  -5 -11   49.60    3.70
  -7   5  11   52.79    5.00
  -7   5  11   50.59    4.50
  -7   5  11   54.59    5.10
   6  -5 -11  143.69    6.20
  -6   5  11  140.49    7.00
  -6   5  11  147.19    8.00
  -6   5  11  151.08    5.90
  -6   5  11  149.29    5.60
  -6   5  11  144.99    8.00
  -5   5  11  460.55   16.60
  -5   5  11  435.96   15.20
  -5   5  11  471.45   14.60
  -5   5  11  464.35   12.80
  -5   5  11  475.95   16.30
  -5   5  11  479.05   13.60
  -5   5  11  484.75   13.40
  -5   5  11  446.76   13.60
  -5   5  11  476.65   13.10
  -4   5  11    9.10    1.90
  -4   5  11    9.80    1.70
  -4   5  11    8.80    2.00
  -4   5  11    9.40    1.70
  -4   5  11   10.10    2.00
  -4   5  11    9.30    1.70
  -4   5  11    7.50    2.30
  -4   5  11   10.80    2.60
  -4   5  11    9.30    2.90
  -4   5  11    9.20    2.40
  -3   5  11  116.89    5.90
  -3   5  11  120.69    7.30
  -3   5  11  123.69    5.20
  -3   5  11  124.39    5.90
  -3   5  11  118.89    5.10
  -3   5  11  114.59    6.50
  -3   5  11  119.29    7.00
  -3   5  11  115.49    6.70
  -3   5  11  120.69    6.30
  -2   5  11  465.35   15.10
  -2   5  11  425.76   14.10
  -2   5  11  429.96   13.70
  -2   5  11  440.16   13.70
  -2   5  11  483.55   12.60
  -2   5  11  430.76   12.50
  -2   5  11  439.76   14.60
  -2   5  11  459.55   15.60
  -1   5  11  179.18    7.30
  -1   5  11  167.58    7.20
  -1   5  11  173.78    8.00
  -1   5  11  171.58    7.70
  -1   5  11  178.58    7.70
  -1   5  11  173.98    6.40
   8  -6 -11  228.88    6.70
   8  -6 -11  233.48    7.20
  -8   6  11  243.28    8.10
  -8   6  11  243.28    8.00
   7  -6 -11    9.70    1.60
   7  -6 -11   11.00    1.70
   7  -6 -11   11.60    1.70
  -7   6  11   10.30    2.30
  -7   6  11   12.10    2.40
  -7   6  11   10.60    2.00
   6  -6 -11   92.09    4.60
  -6   6  11   84.69    4.70
  -6   6  11   92.99    5.80
  -6   6  11   87.99    5.40
  -6   6  11   88.89    4.00
  -6   6  11   92.99    6.10
  -6   6  11   88.79    4.20
  -5   6  11    9.10    2.60
  -5   6  11   10.30    1.90
  -5   6  11   14.00    2.00
  -5   6  11   13.30    2.10
  -5   6  11   10.40    1.70
  -5   6  11   10.30    2.20
  -5   6  11   14.00    2.80
  -5   6  11    9.30    2.00
  -5   6  11    9.80    1.70
  -5   6  11   10.20    2.60
  -4   6  11  186.78    6.60
  -4   6  11  187.38    8.40
  -4   6  11  171.18    7.60
  -4   6  11  183.28    8.60
  -4   6  11  173.58    7.20
  -4   6  11  173.98    9.10
  -4   6  11  177.38    7.30
  -4   6  11  173.78    6.50
  -4   6  11  176.38    6.60
  -3   6  11   32.90    3.50
  -3   6  11   38.60    3.90
  -3   6  11   41.80    3.40
  -3   6  11   40.50    4.50
  -3   6  11   32.30    4.40
  -3   6  11   43.90    4.40
  -3   6  11   39.20    3.30
  -3   6  11   37.40    4.40
  -3   6  11   41.40    3.40
  -2   6  11   45.30    4.50
  -2   6  11   51.19    4.50
  -2   6  11   48.50    4.80
  -2   6  11   52.59    3.80
  -2   6  11   44.70    4.10
  -2   6  11   48.50    4.70
  -2   6  11   49.99    3.70
  -1   6  11  378.86   11.90
  -1   6  11  367.86   12.10
  -1   6  11  377.36   12.30
  -1   6  11  367.56   10.70
  -1   6  11  374.76   11.80
   0   6  11   -0.20    0.70
   0   6  11   -0.40    0.80
   0   6  11    0.20    0.50
   0   6  11    0.70    0.90
   7  -7 -11    9.00    1.30
   7  -7 -11    7.60    1.30
   7  -7 -11    9.80    1.60
  -7   7  11   10.00    1.70
  -7   7  11   10.40    2.10
  -7   7  11    8.70    1.90
   6  -7 -11  167.88    6.20
   6  -7 -11  159.08    5.70
  -6   7  11  178.28    8.10
  -6   7  11  159.98    7.10
  -6   7  11  175.28    5.90
  -6   7  11  161.78    6.50
  -6   7  11  170.28    7.20
  -6   7  11  159.28    5.40
  -5   7  11   95.09    6.10
  -5   7  11   98.89    5.40
  -5   7  11   91.69    5.50
  -5   7  11  101.69    4.40
  -5   7  11   93.49    4.50
  -5   7  11   91.39    4.10
  -5   7  11   92.29    4.90
  -5   7  11  102.89    4.60
  -5   7  11   95.19    4.60
  -4   7  11  114.59    6.50
  -4   7  11   96.39    5.40
  -4   7  11  100.49    5.10
  -4   7  11   99.79    4.60
  -4   7  11  107.39    4.60
  -4   7  11  103.29    6.10
  -4   7  11  111.29    6.00
  -4   7  11   99.79    4.50
  -4   7  11  105.89    5.10
  -3   7  11  783.52   19.70
  -3   7  11  806.92   21.00
  -3   7  11  799.02   22.10
  -3   7  11  811.62   22.00
  -3   7  11  802.72   19.80
  -3   7  11  824.92   21.10
  -3   7  11  801.42   19.70
  -3   7  11  792.52   21.50
  -2   7  11  291.57   10.30
  -2   7  11  288.67    9.90
  -2   7  11  290.57   10.40
  -2   7  11  289.67    8.80
  -2   7  11  288.27    9.80
  -2   7  11  290.57    8.90
  -2   7  11  296.37   10.20
  -1   7  11   11.70    1.60
  -1   7  11   12.10    1.90
  -1   7  11    7.30    1.40
  -1   7  11    8.70    1.80
  -1   7  11    8.20    1.70
   0   7  11   -0.40    0.80
   0   7  11   -1.20    0.60
   0   7  11    0.20    0.80
   7  -8 -11  156.38    5.00
   7  -8 -11  142.99    4.60
  -7   8  11  148.69    5.80
  -7   8  11  155.58    5.40
   6  -8 -11   89.89    3.80
   6  -8 -11   77.89    3.50
  -6   8  11   85.79    4.10
  -6   8  11   88.99    3.50
  -6   8  11   80.59    4.60
  -6   8  11   85.39    4.50
  -6   8  11   84.69    3.30
  -6   8  11   77.89    4.60
  -5   8  11   67.49    3.50
  -5   8  11   70.89    4.10
  -5   8  11   66.19    3.30
  -5   8  11   65.89    3.70
  -5   8  11   69.69    3.20
  -5   8  11   66.19    4.30
  -5   8  11   60.29    5.00
  -5   8  11   69.69    3.30
  -5   8  11   67.99    3.50
  -4   8  11    1.50    0.80
  -4   8  11    0.50    1.10
  -4   8  11    0.70    0.90
  -4   8  11   -0.20    0.90
  -4   8  11   -0.60    1.10
  -4   8  11    1.00    1.00
  -4   8  11   -1.00    0.90
  -4   8  11    0.80    0.70
  -4   8  11    0.80    0.70
  -3   8  11   20.20    2.00
  -3   8  11   21.10    2.80
  -3   8  11   22.00    2.70
  -3   8  11   23.20    2.90
  -3   8  11   22.90    2.20
  -3   8  11   26.30    2.80
  -3   8  11   23.70    2.60
  -3   8  11   23.30    2.20
  -2   8  11  676.93   16.50
  -2   8  11  687.43   17.60
  -2   8  11  696.73   17.60
  -2   8  11  696.33   17.80
  -2   8  11  688.23   16.60
  -2   8  11  672.33   17.70
  -1   8  11    1.80    0.70
  -1   8  11    1.20    0.70
  -1   8  11    0.60    0.70
  -1   8  11    1.80    0.80
  -1   8  11    1.20    0.90
  -5   9  11  185.88    6.70
  -5   9  11  203.08    6.40
  -5   9  11  206.48    6.00
  -5   9  11  205.68    6.00
  -5   9  11  207.38    5.70
  -5   9  11  210.78    5.90
  -5   9  11  208.38    6.70
  -4   9  11  410.46   10.60
  -4   9  11  424.56   11.10
  -4   9  11  429.76   11.10
  -4   9  11  430.06   10.50
  -4   9  11  410.76   10.50
  -4   9  11  409.66   11.50
  -4   9  11  433.46   11.50
  -4   9  11  405.96   11.40
  -3   9  11    3.40    0.90
  -3   9  11    4.60    1.00
  -3   9  11    3.10    0.80
  -3   9  11    3.60    1.00
  -3   9  11    2.30    0.70
  -3   9  11    3.50    1.00
  -3   9  11    3.30    0.80
  -2   9  11  122.39    4.00
  -2   9  11  122.49    4.30
  -2   9  11  124.59    4.50
  -2   9  11  125.89    4.50
  -2   9  11  126.09    4.00
  -2   9  11  133.09    4.60
   0  10 -12   33.60    2.70
   0 -10  12   33.10    2.40
   0 -10  12   30.30    1.90
  -1  10 -12   45.50    2.80
  -1  10 -12   42.30    2.70
   1 -10  12   48.00    2.60
   1 -10  12   54.79    2.80
  -2  10 -12    1.70    0.80
  -2  10 -12    2.30    1.00
   2 -10  12    1.40    0.70
   2 -10  12    6.80    1.30
  -3  10 -12  665.83   16.30
  -3  10 -12  626.54   15.50
   3 -10  12  653.03   15.80
   3 -10  12  668.73   15.60
   2   9 -12   21.30    2.30
  -2  -9  12   24.90    2.20
  -2  -9  12   20.60    2.00
   1   9 -12  149.69    5.80
   1   9 -12  155.88    6.30
  -1  -9  12  160.88    5.80
  -1  -9  12  145.19    5.10
  -1  -9  12  151.58    5.60
   0   9 -12   30.40    2.90
   0   9 -12   33.00    3.40
   0   9 -12   31.50    3.10
   0  -9  12   31.00    2.60
   0  -9  12   28.80    2.80
   0  -9  12   31.50    3.00
  -1   9 -12  844.02   21.70
  -1   9 -12  906.91   22.20
   1  -9  12  870.51   21.60
   1  -9  12  884.11   21.40
   1  -9  12  903.01   22.00
  -2   9 -12    1.20    0.90
  -2   9 -12    1.30    0.90
  -2   9 -12    0.70    0.90
   2  -9  12    2.10    0.90
   2  -9  12    0.60    0.90
  -3   9 -12   31.10    3.00
  -3   9 -12   29.40    2.70
   3  -9  12   27.90    2.70
   3  -9  12   27.70    2.70
  -4   9 -12    2.60    0.80
  -4   9 -12    1.30    0.80
  -4   9 -12    2.70    1.00
   4  -9  12    1.50    0.80
   4  -9  12    2.30    0.90
   3   8 -12   12.90    1.70
   3   8 -12    6.30    1.30
  -3  -8  12    7.40    1.30
  -3  -8  12    8.00    1.50
   2   8 -12   43.60    4.00
   2   8 -12   38.70    3.20
   2   8 -12   38.20    3.20
  -2  -8  12   36.90    3.20
  -2  -8  12   36.20    3.50
   1   8 -12    0.20    1.00
   1   8 -12    1.20    0.90
  -1  -8  12    0.50    0.90
  -1  -8  12   -0.30    0.60
  -1  -8  12    0.70    1.00
   0   8 -12   21.80    2.80
   0   8 -12   17.10    2.70
   0   8 -12   20.50    2.60
   0  -8  12   18.40    2.30
   0  -8  12   17.90    2.50
   0  -8  12   15.30    2.50
  -1   8 -12  302.57   10.00
  -1   8 -12  314.87   10.40
   1  -8  12  307.27   10.50
   1  -8  12  305.97    9.90
   1  -8  12  317.17   10.50
  -2   8 -12 1048.00   24.90
  -2   8 -12  993.20   23.90
   2  -8  12  986.90   25.00
   2  -8  12  970.30   24.40
   2  -8  12  973.70   24.90
  -3   8 -12  164.98    6.50
  -3   8 -12  155.78    6.00
   3  -8  12  166.48    6.70
   3  -8  12  148.19    6.20
   3  -8  12  157.18    6.40
  -4   8 -12   89.89    4.10
  -4   8 -12   86.19    4.20
  -4   8 -12   95.19    4.30
   4  -8  12   99.19    4.60
   4  -8  12   91.69    4.50
  -5   8 -12  253.07    7.60
  -5   8 -12  243.48    7.40
   5  -8  12  255.57    7.60
   5  -8  12  247.18    7.80
   4   7 -12  452.75   11.90
   4   7 -12  426.96   12.10
  -4  -7  12  454.45   12.30
  -4  -7  12  439.46   11.90
  -4  -7  12  426.56   11.30
   3   7 -12    2.90    1.20
   3   7 -12    4.10    1.30
   3   7 -12   -0.10    0.70
  -3  -7  12    4.20    1.20
  -3  -7  12    5.40    1.60
  -3  -7  12    2.10    1.20
   2   7 -12   22.00    2.70
   2   7 -12   23.20    3.20
   2   7 -12   20.20    2.60
  -2  -7  12   19.50    3.00
  -2  -7  12   22.00    3.10
  -2  -7  12   18.90    2.50
   1   7 -12  172.48    7.80
   1   7 -12  182.28    7.30
  -1  -7  12  179.28    7.40
  -1  -7  12  166.78    7.70
  -1  -7  12  191.28    8.10
   0   7 -12   95.39    5.10
   0   7 -12  101.39    4.90
   0   7 -12   96.49    5.40
   0  -7  12   75.29    4.30
   0  -7  12  101.29    5.40
   0  -7  12  102.79    5.80
  -1   7 -12   75.89    3.90
  -1   7 -12   68.59    4.10
  -1   7 -12   68.19    4.20
   1  -7  12   64.89    5.30
   1  -7  12   70.29    4.50
   1  -7  12   67.89    4.20
  -2   7 -12   18.20    2.50
  -2   7 -12   17.00    2.30
  -2   7 -12   24.30    3.00
   2  -7  12   18.00    2.80
   2  -7  12   16.80    2.50
   2  -7  12   19.40    3.00
  -3   7 -12    0.00    0.80
  -3   7 -12    0.40    0.70
   3  -7  12    1.00    1.00
   3  -7  12    1.20    1.10
   3  -7  12    0.30    0.90
  -4   7 -12   12.60    1.90
  -4   7 -12   13.90    2.00
  -4   7 -12   13.50    1.90
   4  -7  12   14.80    2.30
   4  -7  12   14.70    2.20
   4  -7  12   13.10    1.70
   4  -7  12   12.10    2.00
  -5   7 -12  499.65   13.20
  -5   7 -12  497.45   13.20
   5  -7  12  523.75   13.80
   5  -7  12  502.55   13.90
   5  -7  12  515.75   13.20
  -6   7 -12  211.28    6.40
  -6   7 -12  210.28    6.30
   6  -7  12  209.18    6.60
   6  -7  12  220.78    6.30
   5   6 -12  387.86   10.50
   5   6 -12  386.46   10.50
   5   6 -12  363.56   10.30
  -5  -6  12  382.86   11.00
  -5  -6  12  388.76   10.80
   4   6 -12    2.40    1.00
   4   6 -12    0.10    0.80
   4   6 -12    1.40    1.10
  -4  -6  12   -0.60    0.80
  -4  -6  12    0.70    0.80
  -4  -6  12    1.70    1.20
   3   6 -12  392.66   12.20
   3   6 -12  402.46   13.00
  -3  -6  12  397.06   12.00
  -3  -6  12  405.56   13.10
  -3  -6  12  398.26   13.50
   2   6 -12  401.96   12.50
   2   6 -12  411.06   13.50
   2   6 -12  429.86   12.70
  -2  -6  12  407.96   14.10
  -2  -6  12  416.06   13.80
  -2  -6  12  406.46   12.80
   1   6 -12  128.69    6.00
   1   6 -12  131.89    6.60
   1   6 -12  125.59    5.50
  -1  -6  12  123.29    6.10
  -1  -6  12  123.99    6.90
  -1  -6  12  117.89    6.60
   0   6 -12   43.40    4.00
   0   6 -12   45.60    3.90
   0   6 -12   56.29    5.00
   0  -6  12   49.90    5.10
   0  -6  12   46.10    4.80
   0  -6  12   44.00    4.30
  -1   6 -12  729.63   19.40
  -1   6 -12  738.63   19.60
   1  -6  12  738.33   20.90
   1  -6  12  749.62   19.50
   1  -6  12  738.13   21.10
   1  -6  12  741.63   20.30
   1  -6  12  745.63   18.90
  -2   6 -12  618.94   17.10
  -2   6 -12  636.94   16.90
   2  -6  12  616.24   18.00
   2  -6  12  636.64   18.30
   2  -6  12  630.74   17.40
   2  -6  12  630.34   16.20
   2  -6  12  625.74   16.60
   2  -6  12  613.34   18.40
  -3   6 -12  476.75   13.90
   3  -6  12  491.45   15.10
   3  -6  12  501.85   15.10
   3  -6  12  493.95   14.80
   3  -6  12  484.55   14.60
   3  -6  12  503.75   13.40
   3  -6  12  494.75   13.50
  -4   6 -12  201.28    7.20
  -4   6 -12  201.28    7.10
   4  -6  12  198.98    7.00
   4  -6  12  205.38    8.00
   4  -6  12  207.18    8.10
   4  -6  12  196.68    7.30
   4  -6  12  198.78    7.00
   4  -6  12  197.18    7.90
  -5   6 -12  206.98    6.80
  -5   6 -12  213.68    7.00
   5  -6  12  210.88    7.60
   5  -6  12  209.38    7.30
   5  -6  12  199.28    6.30
   5  -6  12  212.88    6.90
   5  -6  12  207.08    7.70
  -6   6 -12   92.29    3.90
  -6   6 -12   95.59    3.80
   6  -6  12  103.39    3.70
   6  -6  12   93.99    3.40
   6  -6  12   98.99    4.20
   6  -6  12  103.59    4.10
   6   5 -12   21.40    2.20
   6   5 -12   20.10    1.90
  -6  -5  12   19.40    1.90
  -6  -5  12   17.90    2.10
   5   5 -12  719.13   18.70
   5   5 -12  718.53   18.40
   5   5 -12  736.53   18.50
  -5  -5  12  722.23   19.50
  -5  -5  12  720.73   18.90
   4   5 -12    4.80    1.50
   4   5 -12    1.80    1.00
   4   5 -12    5.80    1.60
  -4  -5  12    2.20    1.30
  -4  -5  12    5.80    1.80
  -4  -5  12    0.20    0.80
   3   5 -12   15.20    2.40
   3   5 -12   14.10    2.20
   3   5 -12   17.20    2.90
  -3  -5  12   15.50    2.40
  -3  -5  12   14.90    2.80
  -3  -5  12   16.70    3.20
   2   5 -12  455.25   13.60
   2   5 -12  469.95   14.50
   2   5 -12  467.55   13.60
  -2  -5  12  438.96   13.60
  -2  -5  12  462.15   15.00
  -2  -5  12  429.86   15.30
   1   5 -12  121.59    5.70
   1   5 -12  116.89    6.10
  -1  -5  12  115.89    6.50
  -1  -5  12  111.39    6.70
  -1  -5  12  113.09    5.80
   0   5 -12  466.35   13.50
   0   5 -12  432.36   13.70
   0  -5  12  455.35   13.20
   0  -5  12  421.86   14.90
   0  -5  12  445.06   12.70
   0  -5  12  457.65   14.70
   0  -5  12  470.15   14.00
  -1   5 -12   51.29    4.30
   1  -5  12   54.89    4.90
   1  -5  12   46.00    4.70
   1  -5  12   54.39    4.40
   1  -5  12   57.19    5.50
   1  -5  12   59.29    3.70
   1  -5  12   54.29    3.40
  -2   5 -12   10.80    1.90
   2  -5  12   11.20    2.30
   2  -5  12   13.70    2.10
   2  -5  12   13.30    2.00
   2  -5  12   13.40    2.50
   2  -5  12    7.50    2.10
   2  -5  12   12.50    2.60
   2  -5  12    9.30    1.80
   2  -5  12   13.70    2.30
  -3   5 -12  120.09    5.30
   3  -5  12  116.39    6.20
   3  -5  12  118.89    5.70
   3  -5  12  107.49    5.80
   3  -5  12  117.79    5.20
   3  -5  12  111.49    5.00
   3  -5  12  115.29    5.20
   3  -5  12  109.89    6.10
   3  -5  12  118.49    5.30
   3  -5  12  122.89    6.20
   4  -5  12  414.16   12.20
   4  -5  12  411.86   13.30
   4  -5  12  429.96   11.70
   4  -5  12  423.56   12.90
   4  -5  12  435.56   11.90
   4  -5  12  407.76   13.30
   4  -5  12  437.86   12.20
   4  -5  12  430.36   12.40
   4  -5  12  415.76   13.30
  -5   5 -12  509.95   13.60
   5  -5  12  542.85   13.80
   5  -5  12  526.45   14.10
   5  -5  12  546.65   14.10
   5  -5  12  528.85   13.70
   5  -5  12  567.44   15.00
   5  -5  12  525.85   15.10
   5  -5  12  511.85   13.70
   5  -5  12  566.14   15.20
   5  -5  12  526.65   13.30
  -6   5 -12    9.50    1.30
   6  -5  12    7.10    1.10
   6  -5  12    8.60    1.50
   6  -5  12    8.00    1.30
   6  -5  12    7.50    1.40
   6  -5  12    8.30    1.10
   6  -5  12    6.90    1.10
   6  -5  12   10.30    1.30
   6  -5  12    8.20    1.20
   6   4 -12   83.49    4.20
   6   4 -12   79.09    3.80
  -6  -4  12   84.29    4.50
  -6  -4  12   82.09    4.00
  -6  -4  12   84.49    4.60
   5   4 -12    6.30    1.70
   5   4 -12    5.10    1.30
   5   4 -12    3.80    1.30
  -5  -4  12    5.70    1.70
  -5  -4  12    3.20    1.60
  -5  -4  12    5.20    1.70
   4   4 -12   12.40    2.40
   4   4 -12   15.30    2.60
   4   4 -12   15.80    2.60
  -4  -4  12   10.20    2.60
  -4  -4  12    9.40    2.20
  -4  -4  12   10.20    2.50
   3   4 -12   84.69    4.80
   3   4 -12   80.89    5.00
   3   4 -12   83.49    4.50
  -3  -4  12   79.59    7.00
  -3  -4  12   88.79    6.00
  -3  -4  12   70.29    5.80
   2   4 -12   18.90    2.60
   2   4 -12   13.90    2.50
   2   4 -12   25.00    3.00
  -2  -4  12   21.60    2.60
  -2  -4  12   19.20    3.30
  -2  -4  12   15.60    2.80
  -2  -4  12   17.60    3.20
   1   4 -12   39.50    4.10
  -1  -4  12   41.30    4.90
  -1  -4  12   37.30    4.90
  -1  -4  12   41.90    3.70
  -1  -4  12   35.60    3.60
  -1  -4  12   41.50    4.60
   0   4 -12  190.58    7.60
   0  -4  12  185.78    7.00
   0  -4  12  186.38    8.80
   0  -4  12  189.28    8.90
   0  -4  12  190.88    8.40
   0  -4  12  185.38    7.10
   0  -4  12  186.08    7.60
  -1   4 -12  101.49    4.90
   1  -4  12   92.19    4.80
   1  -4  12  104.29    6.30
   1  -4  12   98.89    5.80
   1  -4  12   95.99    4.90
   1  -4  12   91.69    4.90
   1  -4  12  104.39    5.00
   1  -4  12   93.79    5.90
   1  -4  12   93.19    5.30
   2  -4  12 2454.25   55.59
   2  -4  12 2551.24   56.79
   2  -4  12 2481.85   55.49
   2  -4  12 2501.05   55.29
   2  -4  12 2497.45   57.59
   2  -4  12 2454.15   57.69
   2  -4  12 2517.15   55.39
   2  -4  12 2516.15   55.79
   2  -4  12 2526.05   55.39
   2  -4  12 2442.56   57.09
   3  -4  12  237.38    9.40
   3  -4  12  235.48    8.60
   3  -4  12  228.68    9.10
   3  -4  12  224.08    8.00
   3  -4  12  229.08    9.40
   3  -4  12  231.18    8.20
   3  -4  12  227.28    8.90
   3  -4  12  238.58    9.10
   3  -4  12  230.68    8.10
   3  -4  12  230.58    8.20
   4  -4  12   15.60    2.50
   4  -4  12   17.40    2.20
   4  -4  12   14.30    2.50
   4  -4  12   14.80    2.00
   4  -4  12   15.50    2.40
   4  -4  12   17.40    2.40
   4  -4  12   15.90    2.60
   4  -4  12   15.30    2.10
   4  -4  12   16.50    2.20
   4  -4  12   12.60    2.30
   5  -4  12  149.88    5.80
   5  -4  12  145.19    5.50
   5  -4  12  146.19    5.60
   5  -4  12  150.68    6.50
   5  -4  12  161.18    6.20
   5  -4  12  155.88    6.60
   5  -4  12  151.28    6.30
   5  -4  12  142.19    5.70
   5  -4  12  143.49    5.30
  -6   4 -12   -0.40    0.50
   6  -4  12    0.90    0.70
   6  -4  12    1.30    0.60
   6  -4  12    3.50    0.90
   6  -4  12    1.10    0.60
   6  -4  12    1.20    0.70
   6  -4  12    1.40    0.80
   6  -4  12    0.10    0.50
   6  -4  12    1.20    0.80
   7   3 -12   10.80    1.50
   7   3 -12   10.20    1.50
  -7  -3  12   10.30    1.60
  -7  -3  12    9.10    1.60
   6   3 -12  310.17    9.50
   6   3 -12  323.67   10.30
  -6  -3  12  295.87   10.80
  -6  -3  12  294.97   10.70
   5   3 -12   45.70    4.30
   5   3 -12   55.29    4.50
   5   3 -12   53.09    4.50
  -5  -3  12   59.89    5.70
  -5  -3  12   51.29    5.40
  -5  -3  12   50.89    4.50
   4   3 -12  168.68    7.30
   4   3 -12  170.98    7.40
   4   3 -12  167.18    7.10
  -4  -3  12  184.08    8.90
  -4  -3  12  152.78    8.50
  -4  -3  12  166.58    7.50
   3   3 -12  125.99    6.30
   3   3 -12  137.89    6.20
  -3  -3  12  121.49    6.50
  -3  -3  12  121.39    7.10
  -3  -3  12  145.69    8.00
   2   3 -12   17.50    2.70
   2   3 -12   21.60    2.70
  -2  -3  12   21.10    3.60
  -2  -3  12   22.20    3.20
  -2  -3  12   21.00    2.70
  -2  -3  12   20.30    2.60
  -2  -3  12   14.50    3.00
   1   3 -12    2.20    1.30
  -1  -3  12    5.80    1.60
  -1  -3  12    4.50    1.80
  -1  -3  12    3.30    2.00
  -1  -3  12    6.10    1.50
  -1  -3  12    5.20    1.70
  -1  -3  12    5.50    2.00
  -1  -3  12    6.20    1.60
   0   3 -12  736.83   19.40
   0  -3  12  746.13   21.50
   0  -3  12  733.43   19.60
   0  -3  12  714.13   19.00
   0  -3  12  739.23   19.10
   0  -3  12  744.33   19.00
   0  -3  12  726.63   22.30
   0  -3  12  718.83   20.20
   0  -3  12  705.63   20.20
   0  -3  12  740.83   21.70
   0  -3  12  735.93   20.50
   0  -3  12  756.12   19.30
   1  -3  12  144.19    7.70
   1  -3  12  157.28    7.50
   1  -3  12  142.79    7.60
   1  -3  12  160.88    6.60
   1  -3  12  153.88    6.30
   1  -3  12  157.38    6.90
   1  -3  12  156.08    7.00
   1  -3  12  147.89    6.90
   1  -3  12  163.88    6.70
   1  -3  12  153.38    6.80
   1  -3  12  154.68    6.40
   2  -3  12   84.69    4.40
   2  -3  12   77.39    6.40
   2  -3  12   76.69    4.70
   2  -3  12   78.29    4.80
   2  -3  12   78.59    4.90
   2  -3  12   82.99    5.50
   2  -3  12   77.59    4.70
   2  -3  12   83.89    4.60
   2  -3  12   80.99    5.30
   2  -3  12   88.29    4.70
   3  -3  12  107.89    5.50
   3  -3  12  100.99    4.90
   3  -3  12  104.39    6.00
   3  -3  12  115.29    5.40
   3  -3  12  105.49    5.30
   3  -3  12  113.29    5.40
   3  -3  12   99.39    5.70
   3  -3  12  109.49    5.90
   3  -3  12  101.89    6.00
   4  -3  12  429.16   12.50
   4  -3  12  394.96   12.60
   4  -3  12  413.76   11.90
   4  -3  12  418.66   13.20
   4  -3  12  395.96   13.00
   4  -3  12  403.06   12.00
   4  -3  12  430.56   13.30
   4  -3  12  426.36   12.20
   4  -3  12  415.96   13.30
   5  -3  12    4.50    1.10
   5  -3  12    1.60    0.90
   5  -3  12    2.00    0.90
   5  -3  12    1.40    1.10
   5  -3  12    3.40    1.10
   5  -3  12    4.70    1.40
   5  -3  12    3.30    1.10
   5  -3  12    3.00    1.20
   5  -3  12    0.80    0.70
   6  -3  12   20.60    1.80
   6  -3  12   17.50    1.80
   6  -3  12   23.20    2.30
   6  -3  12   20.30    2.20
   6  -3  12   20.90    2.00
   6  -3  12   22.60    1.90
   6  -3  12   21.90    2.00
   6  -3  12   21.30    1.90
   7   2 -12  100.69    4.60
   7   2 -12   99.19    4.10
   7   2 -12  101.29    4.60
  -7  -2  12  101.49    5.20
  -7  -2  12  102.69    4.90
   6   2 -12  314.27   10.00
   6   2 -12  314.77   10.50
   6   2 -12  304.67   10.40
  -6  -2  12  307.97   11.30
  -6  -2  12  321.37   11.90
   5   2 -12   58.59    4.60
   5   2 -12   53.29    4.50
   5   2 -12   52.89    4.70
  -5  -2  12   59.69    5.40
  -5  -2  12   55.49    6.00
  -5  -2  12   47.60    5.10
   4   2 -12   86.49    4.90
   4   2 -12   87.49    4.80
   4   2 -12   84.99    5.00
  -4  -2  12   83.49    6.70
  -4  -2  12   88.79    7.50
  -4  -2  12   79.29    6.70
   3   2 -12   94.49    4.80
  -3  -2  12   88.39    7.30
  -3  -2  12   94.49    4.70
  -3  -2  12   99.09    5.60
  -3  -2  12   87.49    6.80
  -3  -2  12   87.29    5.90
   2   2 -12 1273.77   29.90
  -2  -2  12 1224.88   32.20
  -2  -2  12 1282.37   30.80
  -2  -2  12 1314.77   30.40
  -2  -2  12 1266.57   30.10
  -2  -2  12 1292.27   33.00
  -2  -2  12 1267.97   31.60
  -2  -2  12 1259.07   33.40
  -1  -2  12    3.60    1.80
  -1  -2  12    3.80    2.30
  -1  -2  12    6.20    1.90
  -1  -2  12    3.00    1.70
  -1  -2  12    8.00    1.80
  -1  -2  12    4.30    1.40
  -1  -2  12    4.50    2.00
  -1  -2  12    2.90    1.30
  -1  -2  12    2.90    1.20
  -1  -2  12    1.60    1.40
  -1  -2  12    2.50    1.50
  -1  -2  12    6.40    2.00
   0  -2  12   43.90    3.80
   0  -2  12   36.30    4.70
   0  -2  12   37.00    4.30
   0  -2  12   40.50    4.20
   0  -2  12   29.00    4.00
   0  -2  12   38.30    4.10
   0  -2  12   43.00    3.70
   0  -2  12   39.10    3.70
   0  -2  12   39.30    3.80
   0  -2  12   37.50    4.00
   0  -2  12   41.50    3.90
   1  -2  12 2657.13   60.39
   1  -2  12 2751.72   61.19
   1  -2  12 2723.23   60.09
   1  -2  12 2750.52   61.69
   1  -2  12 2671.53   61.19
   1  -2  12 2726.83   62.49
   1  -2  12 2754.62   59.99
   1  -2  12 2673.63   62.39
   1  -2  12 2728.23   60.29
   1  -2  12 2697.53   59.49
   1  -2  12 2732.33   61.19
   2  -2  12  315.77   11.30
   2  -2  12  322.97   11.00
   2  -2  12  299.37   11.40
   2  -2  12  312.67   10.80
   2  -2  12  312.57   10.40
   2  -2  12  308.67   10.70
   2  -2  12  330.07   11.00
   2  -2  12  322.57   10.30
   2  -2  12  303.17   11.50
   2  -2  12  297.27    9.90
   3  -2  12    8.70    2.10
   3  -2  12    8.40    2.10
   3  -2  12    8.90    1.90
   3  -2  12    5.70    1.50
   3  -2  12    8.60    1.80
   3  -2  12    9.00    1.80
   3  -2  12    9.40    2.10
   3  -2  12    9.10    1.80
   3  -2  12    9.20    2.20
   4  -2  12   18.50    2.40
   4  -2  12   13.70    2.10
   4  -2  12   18.20    2.70
   4  -2  12   22.80    3.00
   4  -2  12   19.00    2.40
   4  -2  12   21.00    2.90
   4  -2  12   18.10    2.30
   4  -2  12   20.70    2.90
   5  -2  12  370.96   11.20
   5  -2  12  369.76   10.80
   5  -2  12  362.06   11.20
   5  -2  12  383.16   11.10
   5  -2  12  361.76   10.40
   5  -2  12  371.96   10.30
   5  -2  12  353.16   10.40
   5  -2  12  359.46   11.30
   6  -2  12    9.70    1.20
   6  -2  12   11.10    1.40
   6  -2  12    8.60    1.10
   6  -2  12    9.00    1.40
   6  -2  12    8.30    1.20
   6  -2  12    7.40    1.30
   6  -2  12    9.50    1.30
   6  -2  12    6.80    1.10
   7   1 -12   94.69    4.30
   7   1 -12   98.79    4.80
   7   1 -12  106.89    5.00
  -7  -1  12   94.69    4.80
  -7  -1  12  100.79    5.60
  -7  -1  12   95.99    5.00
   6   1 -12  242.38    8.90
   6   1 -12  228.28    8.70
   6   1 -12  214.08    8.00
  -6  -1  12  237.58    9.40
  -6  -1  12  230.18    9.50
  -6  -1  12  230.68   10.10
   5   1 -12 1483.05   35.50
   5   1 -12 1533.15   35.30
   5   1 -12 1457.95   35.80
  -5  -1  12 1472.35   38.40
  -5  -1  12 1508.85   37.50
  -5  -1  12 1511.35   37.70
   4   1 -12   27.10    3.20
   4   1 -12   29.70    3.20
  -4  -1  12   28.30    4.10
  -4  -1  12   27.70    3.30
  -4  -1  12   17.20    3.10
  -4  -1  12   27.20    3.00
  -4  -1  12   25.30    4.10
   3   1 -12 1178.58   28.90
   3   1 -12 1164.18   27.80
  -3  -1  12 1141.39   31.20
  -3  -1  12 1153.88   30.10
  -3  -1  12 1146.39   28.30
  -3  -1  12 1179.78   30.40
  -3  -1  12 1165.78   27.80
  -3  -1  12 1118.09   30.20
  -3  -1  12 1173.78   29.50
   2   1 -12  683.63   21.50
  -2  -1  12  648.64   19.10
  -2  -1  12  668.13   19.50
  -2  -1  12  664.83   17.70
  -2  -1  12  693.33   19.80
  -2  -1  12  647.34   17.60
  -2  -1  12  652.83   19.70
  -2  -1  12  650.43   17.60
  -2  -1  12  637.44   20.10
  -2  -1  12  670.43   17.60
   1   1 -12    1.10    1.20
  -1  -1  12    0.90    1.00
  -1  -1  12    1.30    1.30
  -1  -1  12    3.60    1.30
  -1  -1  12    2.80    1.40
  -1  -1  12    1.20    1.50
  -1  -1  12    2.20    1.50
  -1  -1  12   -0.40    1.00
  -1  -1  12    3.20    1.20
  -1  -1  12    2.10    1.30
  -1  -1  12    2.50    1.60
  -1  -1  12    1.30    1.50
   0   1 -12  124.69    6.70
   0  -1  12  121.69    6.50
   0  -1  12  118.39    5.60
   0  -1  12  121.09    5.40
   0  -1  12  122.19    6.60
   0  -1  12  123.19    7.30
   0  -1  12  126.19    6.60
   0  -1  12  128.09    6.40
   0  -1  12  120.29    7.00
   0  -1  12  129.09    6.10
   0  -1  12  130.19    7.00
   0  -1  12  122.39    5.90
   1  -1  12  298.37    9.90
   1  -1  12  291.37   10.70
   1  -1  12  290.27   10.60
   1  -1  12  294.17   10.70
   1  -1  12  297.17    9.70
   1  -1  12  272.67   10.90
   1  -1  12  301.37   11.40
   1  -1  12  307.17   10.30
   1  -1  12  280.27   10.50
   1  -1  12  285.57    9.30
   2  -1  12  346.37   11.70
   2  -1  12  343.77   12.00
   2  -1  12  351.46   12.40
   2  -1  12  347.57   11.60
   2  -1  12  361.66   12.00
   2  -1  12  341.47   12.40
   2  -1  12  348.07   11.00
   2  -1  12  353.96   11.30
   2  -1  12  325.07   10.50
   3  -1  12  266.77    9.60
   3  -1  12  263.37    9.50
   3  -1  12  261.57   10.00
   3  -1  12  262.27    9.90
   3  -1  12  263.37    9.90
   3  -1  12  263.97    9.30
   3  -1  12  267.97    9.70
   3  -1  12  265.97    9.00
   4  -1  12   43.40    4.00
   4  -1  12   47.20    4.20
   4  -1  12   48.70    3.70
   4  -1  12   51.59    4.40
   4  -1  12   49.10    3.80
   4  -1  12   47.70    3.80
   4  -1  12   45.40    4.00
   4  -1  12   41.00    3.50
   5  -1  12   72.69    3.90
   5  -1  12   77.09    4.10
   5  -1  12   70.79    3.50
   5  -1  12   78.39    4.10
   5  -1  12   74.99    3.60
   5  -1  12   73.69    3.50
   5  -1  12   77.49    3.90
   6  -1  12  124.59    4.30
   6  -1  12  129.89    4.40
   6  -1  12  127.19    4.00
   6  -1  12  127.59    4.00
   6  -1  12  124.89    4.30
   6  -1  12  120.49    4.30
   6  -1  12  120.29    4.80
   8   0 -12  197.08    6.40
   8   0 -12  196.68    6.50
  -8   0  12  203.58    6.60
  -8   0  12  203.28    7.10
   7   0 -12  539.65   14.40
   7   0 -12  566.24   15.40
   7   0 -12  534.75   15.30
  -7   0  12  562.24   16.10
  -7   0  12  572.64   16.90
   6   0 -12    3.60    1.60
   6   0 -12    4.10    1.30
   6   0 -12    3.20    1.40
  -6   0  12    2.70    1.60
  -6   0  12    5.80    2.10
  -6   0  12    0.50    1.10
   5   0 -12  247.18    8.70
   5   0 -12  227.08    8.80
  -5   0  12  239.48   10.30
  -5   0  12  249.88   11.10
  -5   0  12  250.57   10.60
  -5   0  12  254.17   10.30
   4   0 -12  168.98    6.80
  -4   0  12  157.18    6.50
  -4   0  12  151.58    8.10
  -4   0  12  165.58    7.00
  -4   0  12  168.48    8.40
  -4   0  12  167.18    8.80
  -4   0  12  170.78    8.10
   3   0 -12   50.09    4.00
  -3   0  12   51.59    5.40
  -3   0  12   49.50    4.30
  -3   0  12   45.10    5.20
  -3   0  12   44.10    3.60
  -3   0  12   43.60    4.00
  -3   0  12   52.49    5.40
  -3   0  12   52.19    4.20
  -3   0  12   44.10    4.90
  -3   0  12   54.79    5.60
   2   0 -12 1433.06   35.50
  -2   0  12 1405.76   33.80
  -2   0  12 1402.66   33.10
  -2   0  12 1348.07   31.60
  -2   0  12 1421.56   32.90
  -2   0  12 1384.46   33.30
  -2   0  12 1392.36   35.30
  -2   0  12 1375.46   35.10
  -2   0  12 1363.06   34.90
  -2   0  12 1440.26   33.10
  -2   0  12 1376.16   34.90
  -2   0  12 1383.76   35.70
  -1   0  12  287.67   11.30
  -1   0  12  306.47   12.00
  -1   0  12  301.67   10.10
  -1   0  12  311.67   20.50
  -1   0  12  307.27   10.30
  -1   0  12  292.87    9.70
  -1   0  12  296.47   11.20
  -1   0  12  294.57   11.30
  -1   0  12  308.37   10.00
  -1   0  12  284.67   11.20
  -1   0  12  308.87   10.70
   0   0  12 1696.03   39.00
   0   0  12 1669.33   40.70
   0   0  12 1684.43   38.50
   0   0  12 1696.93   39.60
   0   0  12 1689.03   40.80
   0   0  12 1676.63   41.40
   0   0  12 1661.93   40.40
   0   0  12 1637.34   40.40
   0   0  12 1661.33   39.20
   1   0  12   89.79    5.10
   1   0  12   89.29    5.40
   1   0  12   89.29    4.70
   1   0  12   88.09    4.90
   1   0  12   81.39    4.90
   1   0  12   79.19    5.30
   1   0  12   80.19    5.20
   1   0  12   81.89    5.60
   2   0  12  270.27    9.80
   2   0  12  275.47   10.40
   2   0  12  263.57   10.00
   2   0  12  256.47    9.80
   2   0  12  265.07    9.20
   2   0  12  268.07   10.10
   2   0  12  271.37    9.90
   2   0  12  273.97    9.50
   3   0  12   -0.40    0.80
   3   0  12   -0.10    0.90
   3   0  12    1.30    1.10
   3   0  12    0.50    0.80
   3   0  12    2.20    1.10
   3   0  12    1.30    1.10
   3   0  12    1.70    1.20
   3   0  12    0.70    0.90
   4   0  12  584.54   16.00
   4   0  12  571.24   15.40
   4   0  12  599.94   16.10
   4   0  12  579.44   16.20
   4   0  12  611.54   16.40
   4   0  12  586.44   15.50
   4   0  12  589.84   15.50
   5   0  12   40.40    3.20
   5   0  12   38.70    3.00
   5   0  12   41.30    2.40
   5   0  12   39.30    2.60
   5   0  12   39.50    2.60
   5   0  12   34.80    2.20
   8  -1 -12   94.39    4.30
   8  -1 -12   88.89    4.00
  -8   1  12   92.89    4.40
  -8   1  12   93.89    4.70
   7  -1 -12   80.09    4.40
   7  -1 -12   89.09    4.20
   7  -1 -12   83.49    4.70
  -7   1  12   87.99    5.30
  -7   1  12   83.09    4.90
  -7   1  12   85.59    5.40
   6  -1 -12  664.13   18.30
   6  -1 -12  656.13   18.00
   6  -1 -12  663.53   17.40
  -6   1  12  636.34   19.90
  -6   1  12  661.53   19.70
  -6   1  12  638.84   19.50
   5  -1 -12  170.68    7.10
   5  -1 -12  167.08    7.10
  -5   1  12  163.58    8.70
  -5   1  12  177.28    7.00
  -5   1  12  163.78    8.60
  -5   1  12  179.38    8.70
   4  -1 -12  602.24   16.10
  -4   1  12  572.24   18.40
  -4   1  12  581.64   15.60
  -4   1  12  593.04   16.10
  -4   1  12  578.34   18.90
  -4   1  12  585.14   18.60
  -4   1  12  614.94   16.60
  -4   1  12  570.74   18.70
  -3   1  12   16.30    2.90
  -3   1  12   14.30    3.00
  -3   1  12   19.60    3.60
  -3   1  12   20.50    2.70
  -3   1  12   16.30    3.30
  -3   1  12   20.20    3.10
  -3   1  12   22.60    2.50
  -3   1  12   17.10    2.60
  -3   1  12   16.00    3.10
  -3   1  12   16.00    2.40
  -2   1  12  820.42   23.50
  -2   1  12  833.52   23.30
  -2   1  12  806.52   22.20
  -2   1  12  808.62   19.90
  -2   1  12  835.62   21.10
  -2   1  12  831.72   21.90
  -2   1  12  819.52   23.70
  -2   1  12  811.42   21.10
  -2   1  12  832.82   21.50
  -2   1  12  802.92   23.30
  -1   1  12   75.89    4.50
  -1   1  12   76.19    4.70
  -1   1  12   76.89    6.50
  -1   1  12   75.79    6.30
  -1   1  12   81.39    4.50
  -1   1  12   80.59    5.10
  -1   1  12   92.19    7.20
  -1   1  12   77.49    6.30
  -1   1  12   73.39    4.20
   0   1  12  151.98    7.10
   0   1  12  162.88    7.10
   0   1  12  167.78    7.80
   0   1  12  164.78    6.90
   0   1  12  159.78    7.80
   0   1  12  144.39    7.20
   0   1  12  162.28    6.60
   0   1  12  156.98    7.90
   0   1  12  168.78    7.90
   1   1  12  125.19    6.40
   1   1  12  134.09    6.10
   1   1  12  130.99    6.30
   1   1  12  119.69    6.60
   1   1  12  126.89    6.70
   1   1  12  127.89    5.90
   1   1  12  128.69    6.50
   1   1  12  135.69    6.80
   2   1  12  305.37   10.70
   2   1  12  292.57   10.00
   2   1  12  292.87   10.60
   2   1  12  292.87   10.30
   2   1  12  295.67   10.40
   2   1  12  296.57   10.10
   3   1  12  506.95   14.80
   3   1  12  516.35   14.70
   3   1  12  531.45   15.10
   3   1  12  515.05   14.30
   3   1  12  522.85   14.60
   4   1  12  101.79    4.30
   4   1  12  101.99    4.60
   4   1  12  102.49    4.60
   4   1  12   98.29    4.30
   4   1  12  106.79    4.80
   5   1  12   65.39    3.00
   5   1  12   57.19    2.60
   5   1  12   70.69    3.00
   5   1  12   63.79    3.00
   5   1  12   66.69    3.00
   8  -2 -12   84.29    3.90
   8  -2 -12   91.29    4.20
  -8   2  12   99.69    4.70
  -8   2  12   93.99    4.30
  -8   2  12   88.29    4.50
   7  -2 -12   17.30    2.50
   7  -2 -12   15.40    2.00
   7  -2 -12   11.60    1.90
  -7   2  12   13.90    2.60
  -7   2  12   14.90    2.70
  -7   2  12   11.20    2.30
   6  -2 -12  124.69    5.50
   6  -2 -12  130.89    6.10
   6  -2 -12  137.29    6.00
  -6   2  12  126.19    7.10
  -6   2  12  132.09    7.50
  -6   2  12  129.09    7.30
   5  -2 -12   77.99    4.40
   5  -2 -12   70.89    4.30
  -5   2  12   74.39    6.90
  -5   2  12   59.09    5.80
  -5   2  12   67.59    6.40
  -5   2  12   78.09    4.10
  -5   2  12   74.19    6.70
  -5   2  12   77.39    4.40
  -4   2  12  349.77   10.40
  -4   2  12  343.17   12.90
  -4   2  12  345.97   10.40
  -4   2  12  334.37   13.00
  -4   2  12  345.67   11.10
  -4   2  12  350.16   13.40
  -4   2  12  317.07   12.50
  -4   2  12  354.46   10.90
  -4   2  12  347.87   12.10
  -4   2  12  337.07   10.90
  -4   2  12  344.97   13.40
  -3   2  12 3428.26   79.79
  -3   2  12 3502.95   77.39
  -3   2  12 3571.54   79.79
  -3   2  12 3523.85   77.09
  -3   2  12 3624.04   80.39
  -3   2  12 3446.96   75.69
  -3   2  12 3535.75   75.79
  -3   2  12 3593.34   78.89
  -3   2  12 3638.74   77.09
  -3   2  12 3540.05   77.89
  -3   2  12 3562.84   80.49
  -2   2  12  122.79    6.60
  -2   2  12  126.39    6.10
  -2   2  12  116.39    5.60
  -2   2  12  118.39    7.10
  -2   2  12  131.39    7.00
  -2   2  12  109.99    6.00
  -2   2  12  128.69    5.80
  -2   2  12  112.59    6.90
  -2   2  12  121.79    5.00
  -2   2  12  104.89    6.70
  -1   2  12  232.48    8.50
  -1   2  12  231.28   10.00
  -1   2  12  248.58    8.70
  -1   2  12  244.18   10.10
  -1   2  12  240.28   10.20
  -1   2  12  229.28    9.70
  -1   2  12  240.48    9.50
  -1   2  12  240.88    9.30
  -1   2  12  238.18    9.10
   0   2  12  173.88    7.30
   0   2  12  174.38    7.80
   0   2  12  172.68    7.80
   0   2  12  181.08    7.10
   0   2  12  177.28    8.20
   0   2  12  176.78    7.60
   0   2  12  179.78    8.50
   0   2  12  173.88    8.10
   1   2  12   39.60    4.00
   1   2  12   42.00    4.00
   1   2  12   36.00    4.00
   1   2  12   38.20    4.10
   1   2  12   37.90    3.70
   1   2  12   42.70    4.20
   1   2  12   43.40    4.10
   2   2  12    4.50    1.50
   2   2  12    1.90    1.20
   2   2  12    3.60    1.40
   2   2  12    0.40    0.80
   2   2  12    5.00    1.70
   2   2  12   -0.20    0.80
   3   2  12    0.70    0.70
   3   2  12   -0.30    0.60
   3   2  12   -0.50    0.60
   3   2  12    0.50    0.70
   4   2  12   -1.70    0.50
   4   2  12    3.90    0.90
   4   2  12    0.30    0.60
   4   2  12   -0.50    0.80
   8  -3 -12    0.70    0.70
   8  -3 -12    0.60    0.80
  -8   3  12    2.00    1.20
  -8   3  12    0.60    0.90
   7  -3 -12   81.49    4.30
   7  -3 -12   76.09    4.40
   7  -3 -12   82.89    3.90
  -7   3  12   83.59    5.40
  -7   3  12   84.39    5.20
   6  -3 -12  266.67    9.40
   6  -3 -12  274.47    9.20
  -6   3  12  266.67   11.20
  -6   3  12  267.27   10.90
  -6   3  12  258.27   10.60
  -6   3  12  259.37    9.70
   5  -3 -12  216.48    8.00
  -5   3  12  219.88    7.50
  -5   3  12  204.68    9.50
  -5   3  12  203.48    7.90
  -5   3  12  199.38    9.80
  -5   3  12  206.28   10.00
  -5   3  12  216.38    7.90
  -5   3  12  222.28    9.10
  -4   3  12  551.34   15.70
  -4   3  12  598.64   18.30
  -4   3  12  576.44   15.20
  -4   3  12  538.65   16.00
  -4   3  12  585.74   16.20
  -4   3  12  571.14   19.00
  -4   3  12  559.14   16.60
  -4   3  12  590.14   18.90
  -4   3  12  584.44   17.60
  -4   3  12  576.24   15.20
  -3   3  12  419.16   12.80
  -3   3  12  405.56   15.00
  -3   3  12  406.56   11.70
  -3   3  12  422.56   14.30
  -3   3  12  438.76   13.30
  -3   3  12  411.86   14.90
  -3   3  12  413.06   11.80
  -3   3  12  426.16   12.90
  -3   3  12  404.16   13.50
  -3   3  12  420.26   14.50
  -2   3  12  105.99    6.80
  -2   3  12  102.39    5.90
  -2   3  12  108.79    5.80
  -2   3  12  112.69    6.60
  -2   3  12  108.29    5.40
  -2   3  12  103.89    5.40
  -2   3  12  107.59    6.70
  -2   3  12  106.39    6.30
  -2   3  12  106.69    4.60
  -1   3  12  256.67    9.20
  -1   3  12  256.37   10.40
  -1   3  12  245.98    9.90
  -1   3  12  256.97   10.10
  -1   3  12  251.87   10.60
  -1   3  12  252.07    9.70
  -1   3  12  245.68    8.90
  -1   3  12  257.27    9.50
   0   3  12  244.08    9.20
   0   3  12  244.98    9.40
   0   3  12  233.78    9.90
   0   3  12  239.38    8.90
   0   3  12  233.18    9.60
   0   3  12  241.18    8.60
   8  -4 -12  196.08    6.60
   8  -4 -12  189.48    6.20
  -8   4  12  198.78    6.90
  -8   4  12  190.28    7.10
   7  -4 -12  183.38    6.20
   7  -4 -12  194.68    6.80
   7  -4 -12  190.48    7.10
  -7   4  12  178.38    7.80
  -7   4  12  205.38    8.60
  -7   4  12  192.28    7.80
   6  -4 -12   15.30    2.20
   6  -4 -12   15.20    2.20
  -6   4  12   11.20    1.80
  -6   4  12   13.50    2.70
  -6   4  12   14.00    3.00
  -6   4  12   11.30    2.60
  -6   4  12   17.20    2.30
  -6   4  12   14.50    2.60
   5  -4 -12  428.16   12.60
  -5   4  12  426.16   12.10
  -5   4  12  434.06   14.60
  -5   4  12  443.86   15.60
  -5   4  12  416.26   12.60
  -5   4  12  410.56   14.00
  -5   4  12  402.56   15.20
  -5   4  12  445.06   12.40
  -5   4  12  425.96   12.30
  -5   4  12  438.46   13.30
  -4   4  12 2532.85   58.39
  -4   4  12 2524.65   57.09
  -4   4  12 2537.15   57.29
  -4   4  12 2605.34   56.19
  -4   4  12 2561.84   57.69
  -4   4  12 2628.24   59.59
  -4   4  12 2589.64   56.29
  -4   4  12 2610.24   61.19
  -4   4  12 2527.35   59.39
  -4   4  12 2559.84   60.39
  -3   4  12  156.88    6.90
  -3   4  12  157.18    6.80
  -3   4  12  159.88    7.20
  -3   4  12  163.48    8.40
  -3   4  12  151.28    5.90
  -3   4  12  155.78    7.90
  -3   4  12  151.08    5.90
  -3   4  12  159.88    8.60
  -3   4  12  157.18    7.50
  -2   4  12  256.77    9.90
  -2   4  12  268.67    8.60
  -2   4  12  273.07   10.50
  -2   4  12  266.17   10.70
  -2   4  12  287.67   11.30
  -2   4  12  268.87    9.50
  -2   4  12  260.87    9.50
  -2   4  12  279.97   11.60
  -1   4  12  355.46   12.90
  -1   4  12  334.17   11.80
  -1   4  12  330.47   12.00
  -1   4  12  334.67   11.00
  -1   4  12  347.77   11.20
  -1   4  12  344.97   12.30
  -1   4  12  350.76   11.70
   0   4  12   15.20    2.60
   0   4  12   16.10    2.90
   0   4  12   16.00    2.50
   0   4  12   13.10    2.40
   0   4  12   23.00    3.10
   8  -5 -12   81.29    3.70
   8  -5 -12   84.09    3.40
  -8   5  12   82.49    4.10
   7  -5 -12  633.94   15.40
   7  -5 -12  647.54   16.60
   7  -5 -12  613.74   16.00
  -7   5  12  648.94   18.10
  -7   5  12  621.54   17.00
  -7   5  12  633.94   17.90
   6  -5 -12   26.20    2.80
  -6   5  12   23.30    2.40
  -6   5  12   28.00    3.80
  -6   5  12   27.40    3.40
  -6   5  12   28.10    2.70
  -6   5  12   27.20    3.90
   5  -5 -12  175.58    6.80
  -5   5  12  195.98    6.80
  -5   5  12  181.78    9.30
  -5   5  12  177.78    7.60
  -5   5  12  182.08    6.80
  -5   5  12  186.18    7.10
  -5   5  12  178.88    8.30
  -5   5  12  195.18    9.10
  -5   5  12  190.48    6.60
  -5   5  12  186.08    7.20
  -4   5  12   34.10    3.40
  -4   5  12   41.70    5.00
  -4   5  12   41.30    4.80
  -4   5  12   30.60    3.80
  -4   5  12   35.40    3.60
  -4   5  12   35.40    3.10
  -4   5  12   25.60    3.80
  -4   5  12   31.70    3.60
  -4   5  12   32.70    2.90
  -3   5  12   51.29    3.80
  -3   5  12   60.89    3.40
  -3   5  12   58.29    4.60
  -3   5  12   58.59    5.90
  -3   5  12   54.19    5.40
  -3   5  12   54.29    5.30
  -3   5  12   58.49    3.90
  -3   5  12   61.49    5.30
  -3   5  12   55.09    4.90
  -2   5  12  101.59    4.60
  -2   5  12  128.69    7.20
  -2   5  12  122.49    6.70
  -2   5  12  115.89    5.80
  -2   5  12  123.99    6.50
  -2   5  12  127.39    6.30
  -2   5  12  122.79    5.80
  -2   5  12  113.49    4.90
  -1   5  12  359.06   13.00
  -1   5  12  385.46   12.50
  -1   5  12  374.26   11.60
  -1   5  12  385.06   12.60
  -1   5  12  378.46   12.20
  -1   5  12  380.76   11.80
  -1   5  12  363.16   10.60
   0   5  12   -0.20    0.60
   0   5  12   -0.50    0.60
   0   5  12    1.80    1.00
   0   5  12   -0.30    0.80
   7  -6 -12  178.48    6.00
   7  -6 -12  197.28    6.50
   7  -6 -12  182.68    5.50
  -7   6  12  182.28    7.40
  -7   6  12  182.28    6.40
  -7   6  12  175.28    7.10
   6  -6 -12   14.70    2.00
  -6   6  12   14.30    1.90
  -6   6  12   15.40    1.80
  -6   6  12   14.90    2.70
  -6   6  12   15.90    2.50
  -6   6  12   11.80    1.90
  -6   6  12   15.20    2.70
   5  -6 -12  211.98    7.30
  -5   6  12  200.78    7.60
  -5   6  12  211.98    7.60
  -5   6  12  220.58    9.00
  -5   6  12  217.58    7.40
  -5   6  12  228.08    9.70
  -5   6  12  217.08    7.00
  -5   6  12  205.78    8.20
  -5   6  12  206.98    9.00
  -5   6  12  219.38    7.20
  -4   6  12  276.27   10.40
  -4   6  12  238.88    9.10
  -4   6  12  252.87    8.20
  -4   6  12  261.77    8.20
  -4   6  12  259.57    8.30
  -4   6  12  258.27    9.80
  -4   6  12  266.27   11.00
  -4   6  12  256.77    9.00
  -4   6  12  251.17    8.90
  -3   6  12  509.35   13.70
  -3   6  12  506.05   14.80
  -3   6  12  501.55   16.00
  -3   6  12  529.95   15.90
  -3   6  12  522.75   14.80
  -3   6  12  514.05   13.60
  -3   6  12  510.15   16.60
  -3   6  12  504.85   15.30
  -2   6  12  226.28    8.30
  -2   6  12  225.88    8.20
  -2   6  12  221.38    7.20
  -2   6  12  226.58    7.40
  -2   6  12  210.28    8.70
  -2   6  12  216.68    8.60
  -2   6  12  223.28    9.00
  -1   6  12   22.30    2.80
  -1   6  12   17.30    2.30
  -1   6  12   18.30    2.30
  -1   6  12   18.00    2.00
  -1   6  12   22.90    3.00
   0   6  12   -0.70    0.70
   0   6  12    0.20    0.80
   7  -7 -12   57.59    2.70
   7  -7 -12   56.29    2.80
  -7   7  12   53.29    3.20
  -7   7  12   45.50    3.60
  -7   7  12   56.19    3.00
   6  -7 -12   15.80    1.90
  -6   7  12   14.20    2.30
  -6   7  12   14.00    2.20
  -6   7  12   10.80    2.20
  -6   7  12   16.80    1.80
  -6   7  12   15.90    2.00
  -6   7  12   14.70    1.60
   5  -7 -12   44.20    2.80
  -5   7  12   45.40    2.80
  -5   7  12   42.00    3.50
  -5   7  12   41.10    4.20
  -5   7  12   39.20    3.90
  -5   7  12   50.89    2.80
  -5   7  12   46.70    3.00
  -5   7  12   50.09    2.70
  -5   7  12   47.60    4.00
  -4   7  12    1.10    1.00
  -4   7  12   -0.70    0.80
  -4   7  12   -0.10    0.60
  -4   7  12    0.50    0.80
  -4   7  12   -0.30    1.00
  -4   7  12   -0.10    0.60
  -4   7  12    2.10    1.00
  -4   7  12    2.10    1.30
  -4   7  12    0.80    0.80
  -3   7  12   22.80    2.90
  -3   7  12   24.80    3.10
  -3   7  12   21.60    2.10
  -3   7  12   24.60    2.70
  -3   7  12   22.40    2.20
  -3   7  12   25.00    3.10
  -3   7  12   29.00    2.90
  -2   7  12  290.77    8.50
  -2   7  12  287.87    9.70
  -2   7  12  295.07    8.40
  -2   7  12  299.87    9.70
  -2   7  12  280.87    9.20
  -2   7  12  283.87    9.20
  -2   7  12  291.97    9.80
  -1   7  12  336.27    9.10
  -1   7  12  344.47   10.20
  -1   7  12  337.37    9.90
  -1   7  12  334.07    9.90
   6  -8 -12    0.70    0.60
  -6   8  12   -0.30    0.90
  -6   8  12    0.40    0.80
  -6   8  12    0.90    0.60
  -6   8  12    1.60    0.90
   5  -8 -12  266.17    7.70
  -5   8  12  284.07    8.00
  -5   8  12  272.87    8.10
  -5   8  12  280.87    9.00
  -5   8  12  276.07    8.60
  -5   8  12  263.47    9.00
  -5   8  12  280.67    7.50
  -5   8  12  270.87    7.80
  -5   8  12  278.77    7.70
  -4   8  12  937.31   21.70
  -4   8  12  897.41   20.90
  -4   8  12  882.71   22.40
  -4   8  12  909.91   22.30
  -4   8  12  933.91   20.90
  -4   8  12  913.81   21.60
  -4   8  12  886.61   20.90
  -4   8  12  915.01   22.00
  -3   8  12  108.89    4.80
  -3   8  12   97.79    3.80
  -3   8  12  103.49    4.70
  -3   8  12  104.69    4.70
  -3   8  12  104.89    3.90
  -3   8  12  102.89    4.40
  -3   8  12  102.89    4.50
  -2   8  12   35.50    2.80
  -2   8  12   37.80    2.10
  -2   8  12   34.90    2.90
  -2   8  12   35.50    2.80
  -2   8  12   39.90    2.50
  -2   8  12   37.20    2.00
  -1   8  12  147.39    4.70
  -1   8  12  142.59    4.70
  -1   8  12  144.39    4.20
  -1   8  12  127.29    4.70
   1   9 -13  426.46   11.80
   1   9 -13  408.56   11.30
  -1  -9  13  433.86   11.30
  -1  -9  13  433.06   11.20
   0   9 -13  102.19    4.30
   0   9 -13  100.79    4.60
   0   9 -13  107.09    4.60
   0  -9  13  102.39    4.40
   0  -9  13  105.79    4.50
   0  -9  13   98.39    3.90
  -1   9 -13    0.80    0.80
  -1   9 -13    1.40    0.80
   1  -9  13    1.40    0.90
   1  -9  13    1.20    0.70
   1  -9  13    0.40    0.60
  -2   9 -13   10.70    1.70
  -2   9 -13    9.70    1.70
  -2   9 -13   12.30    1.60
   2  -9  13    9.00    1.40
   2  -9  13   12.70    1.80
  -3   9 -13  787.62   19.20
   3  -9  13  771.32   18.90
   3  -9  13  803.92   19.00
  -4   9 -13  152.68    5.10
   4  -9  13  160.98    5.20
   4  -9  13  153.58    5.20
   3   8 -13   28.50    2.50
  -3  -8  13   23.80    2.00
  -3  -8  13   30.90    2.40
   2   8 -13   45.70    2.80
   2   8 -13   46.60    3.90
  -2  -8  13   50.19    3.20
  -2  -8  13   48.60    2.90
   1   8 -13   14.20    2.00
   1   8 -13   16.30    2.40
  -1  -8  13   12.70    1.90
  -1  -8  13   13.90    2.20
   0   8 -13  226.98    7.80
   0   8 -13  225.68    8.30
   0   8 -13  240.68    8.30
   0  -8  13  238.78    8.50
   0  -8  13  235.68    8.30
  -1   8 -13  182.08    7.00
  -1   8 -13  181.38    6.80
   1  -8  13  191.38    7.20
   1  -8  13  181.78    6.60
   1  -8  13  176.88    7.20
  -2   8 -13   40.00    3.10
  -2   8 -13   44.60    3.70
  -2   8 -13   39.30    3.40
   2  -8  13   43.20    3.70
   2  -8  13   37.90    3.30
   2  -8  13   40.90    3.70
  -3   8 -13    1.80    1.00
  -3   8 -13    2.40    1.00
  -3   8 -13   -0.50    0.50
   3  -8  13    0.10    0.70
   3  -8  13    1.00    1.00
   3  -8  13    1.60    0.80
  -4   8 -13    1.20    0.70
  -4   8 -13   -0.10    0.60
  -4   8 -13    0.90    0.80
   4  -8  13    1.10    0.90
   4  -8  13    0.10    0.70
   4  -8  13    0.60    0.70
   4   7 -13  320.47    9.30
   4   7 -13  333.97    9.10
  -4  -7  13  342.27    9.40
   3   7 -13    2.10    1.10
   3   7 -13   -0.40    0.70
   3   7 -13    2.50    0.90
  -3  -7  13    3.10    1.20
  -3  -7  13    3.70    1.20
  -3  -7  13    2.30    1.00
   2   7 -13  124.59    5.90
   2   7 -13  110.19    5.00
  -2  -7  13  112.89    5.20
  -2  -7  13  113.39    5.70
  -2  -7  13  129.59    6.00
   1   7 -13  132.99    6.30
   1   7 -13  118.49    5.60
  -1  -7  13  125.59    6.30
  -1  -7  13  131.39    5.90
  -1  -7  13  134.69    6.40
   0   7 -13   86.39    4.50
   0   7 -13   87.49    4.90
   0   7 -13   82.29    4.60
   0  -7  13   93.49    5.30
   0  -7  13   84.29    5.10
   0  -7  13   89.69    4.90
  -1   7 -13   60.99    3.70
  -1   7 -13   58.79    3.30
  -1   7 -13   58.19    3.80
   1  -7  13   68.49    5.30
   1  -7  13   56.99    4.90
  -2   7 -13  206.48    7.20
  -2   7 -13  211.48    7.60
  -2   7 -13  218.58    7.80
   2  -7  13  197.98    8.20
   2  -7  13  217.78    8.30
   2  -7  13  214.48    7.80
  -3   7 -13  234.68    8.20
  -3   7 -13  247.38    8.00
   3  -7  13  251.67    8.80
   3  -7  13  240.58    8.40
   3  -7  13  245.58    8.70
  -4   7 -13  631.84   15.50
  -4   7 -13  603.64   15.30
  -4   7 -13  579.34   15.20
   4  -7  13  576.94   14.70
   4  -7  13  617.14   15.70
   4  -7  13  637.74   16.40
   4  -7  13  594.54   16.00
  -5   7 -13  135.59    4.70
  -5   7 -13  146.89    4.90
  -5   7 -13  132.39    4.80
   5  -7  13  144.99    4.70
   5  -7  13  151.28    5.30
   5  -7  13  137.59    5.20
   4   6 -13   19.80    2.30
   4   6 -13   25.40    2.80
  -4  -6  13   19.70    2.40
  -4  -6  13   18.10    2.60
   3   6 -13  137.29    5.60
   3   6 -13  145.99    6.50
   3   6 -13  144.59    6.00
  -3  -6  13  134.79    6.80
  -3  -6  13  144.29    5.80
  -3  -6  13  144.19    6.60
   2   6 -13  326.97   10.30
   2   6 -13  317.17   10.30
   2   6 -13  323.07   11.20
  -2  -6  13  314.57   11.70
  -2  -6  13  320.27   11.40
  -2  -6  13  305.57   10.30
   1   6 -13  566.74   15.40
   1   6 -13  547.35   16.70
   1   6 -13  589.64   16.20
  -1  -6  13  605.04   17.50
  -1  -6  13  571.34   16.30
  -1  -6  13  565.04   17.60
   0   6 -13  275.47    9.30
   0   6 -13  283.57    9.60
   0   6 -13  278.17   10.00
   0  -6  13  276.47   10.80
   0  -6  13  272.47   10.50
   0  -6  13  268.77    9.80
  -1   6 -13    7.90    1.70
  -1   6 -13    7.70    1.80
   1  -6  13    7.50    1.90
   1  -6  13    6.50    2.00
   1  -6  13    6.90    1.50
   1  -6  13    7.40    1.90
  -2   6 -13   13.10    2.10
  -2   6 -13   10.20    1.90
   2  -6  13   16.80    2.10
   2  -6  13   10.60    2.30
   2  -6  13    9.50    2.10
   2  -6  13    7.80    1.70
   2  -6  13   10.30    2.20
  -3   6 -13   78.99    4.20
  -3   6 -13   85.19    4.30
   3  -6  13   77.99    3.90
   3  -6  13   83.49    4.80
   3  -6  13   83.39    4.60
   3  -6  13   85.19    5.00
   3  -6  13   82.29    3.90
   3  -6  13   82.69    4.60
  -4   6 -13   12.50    2.20
  -4   6 -13   17.10    2.00
   4  -6  13   17.60    2.20
   4  -6  13   16.60    2.40
   4  -6  13   17.90    2.00
   4  -6  13   17.80    2.40
   4  -6  13   16.50    2.30
   4  -6  13   16.40    2.00
  -5   6 -13  552.14   13.90
  -5   6 -13  575.34   14.30
   5  -6  13  547.65   14.70
   5  -6  13  553.04   13.90
   5  -6  13  600.64   15.00
   5  -6  13  565.84   14.40
   5   5 -13  115.69    4.70
   5   5 -13  113.09    4.80
  -5  -5  13  111.59    5.40
  -5  -5  13  110.69    4.90
   4   5 -13   66.99    4.00
   4   5 -13   70.89    4.20
   4   5 -13   57.79    4.50
  -4  -5  13   62.69    5.30
  -4  -5  13   52.89    4.50
   3   5 -13  149.29    6.10
   3   5 -13  139.99    6.20
   3   5 -13  142.39    6.70
  -3  -5  13  137.09    7.40
  -3  -5  13  142.79    6.90
   2   5 -13   62.49    4.00
   2   5 -13   58.29    5.10
   2   5 -13   73.59    5.30
  -2  -5  13   60.29    5.40
  -2  -5  13   70.89    8.30
  -2  -5  13   60.69    5.80
  -2  -5  13   71.59    4.30
   1   5 -13    0.50    0.80
   1   5 -13    0.60    1.00
  -1  -5  13    1.60    1.50
  -1  -5  13    0.20    1.10
  -1  -5  13    0.40    1.60
  -1  -5  13    0.40    1.10
   0   5 -13 1260.87   30.80
   0   5 -13 1263.57   30.40
   0  -5  13 1294.67   29.60
   0  -5  13 1279.17   31.10
   0  -5  13 1254.87   32.00
   0  -5  13 1253.37   32.10
   0  -5  13 1203.98   32.50
  -1   5 -13   22.70    2.80
   1  -5  13   24.60    3.50
   1  -5  13   21.30    3.00
   1  -5  13   21.00    2.60
   1  -5  13   24.00    3.50
   1  -5  13   21.10    2.50
   1  -5  13   25.00    3.80
  -2   5 -13  777.12   20.10
  -2   5 -13  785.12   20.40
   2  -5  13  822.22   20.40
   2  -5  13  795.92   22.30
   2  -5  13  811.82   21.40
   2  -5  13  791.72   20.00
   2  -5  13  825.22   22.30
   2  -5  13  771.32   21.40
   2  -5  13  786.22   19.90
  -3   5 -13  514.35   14.50
   3  -5  13  531.95   14.60
   3  -5  13  539.55   14.50
   3  -5  13  525.95   15.80
   3  -5  13  547.05   15.10
   3  -5  13  545.15   14.20
   3  -5  13  539.95   15.80
   3  -5  13  519.95   15.30
   3  -5  13  536.45   14.40
   3  -5  13  552.04   16.20
  -4   5 -13   13.70    1.90
   4  -5  13   16.50    1.90
   4  -5  13   17.10    2.00
   4  -5  13   13.10    1.90
   4  -5  13   14.90    1.80
   4  -5  13   11.10    2.10
   4  -5  13   14.30    1.90
   4  -5  13   13.80    2.10
   4  -5  13   11.60    2.20
   4  -5  13   16.10    2.40
  -5   5 -13   61.49    3.10
   5  -5  13   68.49    3.20
   5  -5  13   70.69    3.90
   5  -5  13   69.09    3.40
   5  -5  13   71.59    3.70
   5  -5  13   68.59    3.00
   5  -5  13   70.29    3.10
   5  -5  13   72.29    3.80
   5  -5  13   70.79    3.40
   6  -5  13   48.60    2.50
   6  -5  13   49.10    2.40
   6  -5  13   48.20    2.90
   6  -5  13   48.80    2.20
   6   4 -13 1191.48   27.90
   6   4 -13 1263.67   28.30
  -6  -4  13 1245.68   28.50
  -6  -4  13 1272.07   29.10
  -6  -4  13 1213.58   27.80
   5   4 -13   55.79    4.20
   5   4 -13   59.49    3.60
   5   4 -13   52.69    3.30
  -5  -4  13   57.79    4.90
  -5  -4  13   57.19    3.80
  -5  -4  13   51.69    4.60
   4   4 -13    4.50    1.40
   4   4 -13    2.80    1.30
   4   4 -13    7.60    1.80
  -4  -4  13    3.10    1.50
  -4  -4  13    2.30    1.30
  -4  -4  13    1.10    1.50
   3   4 -13  339.27   11.70
   3   4 -13  352.66   11.30
   3   4 -13  343.57   10.90
  -3  -4  13  354.56   13.20
  -3  -4  13  357.66   13.30
  -3  -4  13  353.86   12.30
   2   4 -13   -0.20    1.00
   2   4 -13    1.50    1.00
   2   4 -13    1.40    1.10
  -2  -4  13    2.80    1.60
  -2  -4  13    3.10    1.50
  -2  -4  13    0.40    1.30
  -2  -4  13    3.70    1.30
   1   4 -13    2.70    1.10
   1   4 -13    1.50    1.10
  -1  -4  13    1.80    1.50
  -1  -4  13    2.40    1.30
  -1  -4  13    1.70    1.30
  -1  -4  13    4.20    1.90
  -1  -4  13    3.30    1.30
  -1  -4  13    0.40    0.90
   0   4 -13    2.90    1.30
   0  -4  13    1.10    1.30
   0  -4  13    8.20    1.80
   0  -4  13    0.90    1.00
   0  -4  13    1.70    1.40
   0  -4  13    1.10    0.90
   0  -4  13    1.90    1.30
   0  -4  13    0.80    1.40
  -1   4 -13  140.09    6.10
   1  -4  13  151.28    7.50
   1  -4  13  149.49    7.00
   1  -4  13  149.19    6.30
   1  -4  13  138.29    7.20
   1  -4  13  149.29    6.40
   1  -4  13  154.98    6.20
   1  -4  13  138.69    6.30
   1  -4  13  145.19    7.70
   1  -4  13  139.79    6.50
   2  -4  13   46.30    4.10
   2  -4  13   59.99    4.60
   2  -4  13   49.90    5.00
   2  -4  13   41.80    4.40
   2  -4  13   43.90    4.80
   2  -4  13   52.69    4.30
   2  -4  13   52.09    4.70
   2  -4  13   52.09    4.20
   2  -4  13   52.69    4.20
   2  -4  13   47.90    4.00
  -3   4 -13    8.30    1.70
   3  -4  13    7.20    1.80
   3  -4  13    8.70    1.70
   3  -4  13    6.70    1.60
   3  -4  13    6.80    1.70
   3  -4  13    5.10    1.70
   3  -4  13    6.10    1.50
   3  -4  13    8.00    1.90
   3  -4  13    5.80    1.80
   3  -4  13    0.70    0.90
   3  -4  13    6.10    1.50
   4  -4  13  128.99    5.70
   4  -4  13  140.79    6.40
   4  -4  13  144.39    6.30
   4  -4  13  147.99    5.90
   4  -4  13  151.08    6.60
   4  -4  13  136.69    5.40
   4  -4  13  130.79    6.10
   4  -4  13  143.69    5.60
   4  -4  13  143.69    5.60
   5  -4  13  154.88    5.50
   5  -4  13  151.58    5.90
   5  -4  13  152.28    5.20
   5  -4  13  152.38    5.10
   5  -4  13  139.29    5.90
   5  -4  13  155.78    6.10
   5  -4  13  147.09    5.60
   5  -4  13  155.78    5.50
   5  -4  13  161.88    5.40
   6  -4  13   26.30    1.60
   6  -4  13   23.20    1.90
   6  -4  13   19.10    2.10
   6  -4  13   24.70    1.90
   6  -4  13   23.00    1.40
   6  -4  13   26.40    1.60
   6  -4  13   24.80    2.00
   6   3 -13   69.29    3.70
   6   3 -13   84.59    4.20
  -6  -3  13   73.59    4.50
  -6  -3  13   83.99    4.80
   5   3 -13   36.70    3.40
   5   3 -13   38.00    3.80
   5   3 -13   38.40    3.60
  -5  -3  13   35.30    4.30
  -5  -3  13   39.40    4.30
   4   3 -13  138.09    6.20
   4   3 -13  139.49    6.50
   4   3 -13  136.89    6.50
  -4  -3  13  139.39    7.80
  -4  -3  13  139.19    6.70
  -4  -3  13  143.69    7.50
   3   3 -13   18.80    2.80
   3   3 -13   13.60    2.30
  -3  -3  13   18.30    3.40
  -3  -3  13   12.60    2.90
  -3  -3  13   17.60    2.90
   2   3 -13  180.48    7.20
   2   3 -13  182.48    7.80
  -2  -3  13  171.48    8.20
  -2  -3  13  180.58    9.30
  -2  -3  13  177.68    8.80
  -2  -3  13  189.68    7.40
  -2  -3  13  191.88    7.10
  -2  -3  13  186.08    8.20
   1   3 -13    1.60    1.10
  -1  -3  13    0.40    0.80
  -1  -3  13    2.30    1.10
  -1  -3  13    1.20    1.60
  -1  -3  13    0.10    1.20
  -1  -3  13    2.30    1.40
  -1  -3  13    2.40    1.90
   0   3 -13    4.00    1.50
   0  -3  13    4.00    1.60
   0  -3  13   -1.30    0.80
   0  -3  13    5.90    1.60
   0  -3  13    3.10    1.30
   0  -3  13    5.30    1.80
   0  -3  13    6.40    1.90
   0  -3  13    3.50    1.50
   0  -3  13    4.80    1.50
   0  -3  13    3.20    1.60
   0  -3  13    6.20    2.20
   0  -3  13    6.40    2.20
   1  -3  13  822.72   23.20
   1  -3  13  783.62   20.40
   1  -3  13  784.72   21.30
   1  -3  13  803.42   21.50
   1  -3  13  801.52   21.40
   1  -3  13  784.72   20.70
   1  -3  13  804.72   21.40
   1  -3  13  795.92   22.80
   1  -3  13  799.52   20.80
   1  -3  13  822.82   20.90
   1  -3  13  812.52   22.50
   2  -3  13  284.77   10.20
   2  -3  13  279.57   10.30
   2  -3  13  296.57   10.30
   2  -3  13  312.27   11.50
   2  -3  13  287.27    9.80
   2  -3  13  294.57    9.80
   2  -3  13  297.27   10.20
   2  -3  13  299.47   11.10
   2  -3  13  300.37   11.10
   2  -3  13  285.87    9.50
   3  -3  13   24.30    3.00
   3  -3  13   25.50    2.90
   3  -3  13   21.20    3.00
   3  -3  13   23.80    2.80
   3  -3  13   25.10    3.30
   3  -3  13   22.20    2.70
   3  -3  13   23.10    3.30
   3  -3  13   23.30    2.70
   3  -3  13   19.30    2.80
   4  -3  13  214.88    7.30
   4  -3  13  220.68    8.20
   4  -3  13  217.18    7.50
   4  -3  13  208.48    7.90
   4  -3  13  211.18    8.30
   4  -3  13  221.88    7.80
   4  -3  13  223.48    7.40
   4  -3  13  222.08    8.40
   5  -3  13   46.00    2.80
   5  -3  13   53.09    3.20
   5  -3  13   50.99    3.20
   5  -3  13   49.50    2.70
   5  -3  13   49.70    3.20
   5  -3  13   52.09    3.10
   5  -3  13   55.09    2.90
   5  -3  13   45.70    2.60
   5  -3  13   53.19    3.00
   6  -3  13  134.79    4.30
   6  -3  13  141.99    4.50
   6  -3  13  137.89    4.60
   6  -3  13  145.19    4.60
   6  -3  13  140.29    4.20
   6  -3  13  146.29    4.40
   7   2 -13  343.97    9.70
   7   2 -13  336.77    9.10
  -7  -2  13  336.87   10.00
  -7  -2  13  357.06   10.50
   6   2 -13  132.89    5.90
   6   2 -13  128.89    5.40
  -6  -2  13  127.69    6.30
  -6  -2  13  139.59    7.00
   5   2 -13   70.89    4.20
   5   2 -13   66.09    5.00
   5   2 -13   70.89    4.30
  -5  -2  13   65.89    5.80
  -5  -2  13   72.69    5.90
  -5  -2  13   67.19    6.30
   4   2 -13  714.03   18.80
   4   2 -13  679.53   19.00
   4   2 -13  687.43   18.80
  -4  -2  13  699.93   21.50
  -4  -2  13  687.93   20.60
  -4  -2  13  667.53   20.10
   3   2 -13  360.36   11.60
   3   2 -13  327.47   10.70
  -3  -2  13  303.77   12.40
  -3  -2  13  373.16   12.90
  -3  -2  13  351.46   10.80
  -3  -2  13  320.07   13.10
   2   2 -13  159.58    6.50
  -2  -2  13  153.78    7.80
  -2  -2  13  166.08    8.80
  -2  -2  13  164.88    6.80
  -2  -2  13  168.58    6.80
  -2  -2  13  171.78    8.60
  -2  -2  13  171.28    7.10
  -2  -2  13  154.08    7.30
  -1  -2  13   25.80    3.50
  -1  -2  13   30.80    3.40
  -1  -2  13   26.10    3.70
  -1  -2  13   31.20    3.30
  -1  -2  13   32.80    3.40
  -1  -2  13   22.20    2.90
  -1  -2  13   25.60    3.50
  -1  -2  13   31.20    4.20
  -1  -2  13   24.60    3.40
  -1  -2  13   25.90    4.10
  -1  -2  13   22.60    2.80
   0  -2  13  688.23   18.60
   0  -2  13  711.63   21.00
   0  -2  13  707.03   19.90
   0  -2  13  680.63   18.70
   0  -2  13  672.33   20.90
   0  -2  13  710.03   18.50
   0  -2  13  699.83   20.00
   0  -2  13  673.03   19.50
   0  -2  13  679.83   19.70
   0  -2  13  712.73   18.80
   1  -2  13   21.70    3.30
   1  -2  13   22.50    2.90
   1  -2  13   16.70    2.40
   1  -2  13   14.20    2.90
   1  -2  13   18.10    2.60
   1  -2  13   17.70    2.80
   1  -2  13   17.50    2.80
   1  -2  13   16.60    2.80
   1  -2  13   17.30    2.60
   1  -2  13   15.70    3.10
   2  -2  13   26.90    3.30
   2  -2  13   30.30    3.40
   2  -2  13   29.40    3.10
   2  -2  13   26.00    3.40
   2  -2  13   29.30    3.60
   2  -2  13   28.80    3.80
   2  -2  13   30.10    3.60
   2  -2  13   26.50    3.60
   2  -2  13   27.00    3.10
   2  -2  13   32.40    3.40
   3  -2  13  215.78    8.70
   3  -2  13  216.98    8.20
   3  -2  13  208.48    8.50
   3  -2  13  201.98    7.40
   3  -2  13  188.38    8.10
   3  -2  13  205.98    7.80
   3  -2  13  193.48    7.70
   3  -2  13  204.48    8.20
   3  -2  13  209.78    7.60
   4  -2  13   72.49    3.60
   4  -2  13   74.19    3.90
   4  -2  13   68.49    4.20
   4  -2  13   75.39    3.80
   4  -2  13   64.99    3.80
   4  -2  13   65.19    4.00
   4  -2  13   73.99    4.30
   4  -2  13   69.99    4.30
   5  -2  13   16.60    1.80
   5  -2  13   10.90    1.50
   5  -2  13   14.20    1.90
   5  -2  13   15.60    1.80
   5  -2  13   16.40    2.00
   5  -2  13   13.70    1.90
   5  -2  13   12.60    1.60
   7   1 -13   79.19    3.60
   7   1 -13   82.09    4.10
  -7  -1  13   85.49    4.80
  -7  -1  13   84.69    4.30
  -7  -1  13   79.29    4.10
   6   1 -13  134.79    6.10
   6   1 -13  130.49    5.70
  -6  -1  13  153.58    7.60
  -6  -1  13  148.19    6.90
  -6  -1  13  137.39    6.70
   5   1 -13  307.67   10.30
   5   1 -13  311.17   10.40
   5   1 -13  309.97   10.20
  -5  -1  13  309.07   11.50
  -5  -1  13  287.17   11.40
  -5  -1  13  314.87   12.50
   4   1 -13   17.10    2.60
   4   1 -13   19.30    2.60
  -4  -1  13   21.50    2.60
  -4  -1  13   14.10    3.00
  -4  -1  13   17.90    3.30
  -4  -1  13   16.00    3.10
   3   1 -13  505.05   14.10
  -3  -1  13  483.15   13.90
  -3  -1  13  486.05   16.30
  -3  -1  13  485.35   14.10
  -3  -1  13  498.05   17.10
  -3  -1  13  519.45   16.70
  -3  -1  13  505.35   14.70
  -3  -1  13  487.05   16.00
   2   1 -13   63.39    3.80
  -2  -1  13   58.39    5.60
  -2  -1  13   71.29    6.10
  -2  -1  13   65.59    4.10
  -2  -1  13   66.79    4.10
  -2  -1  13   63.79    4.10
  -2  -1  13   66.49    4.30
  -2  -1  13   62.59    5.00
  -2  -1  13   76.29    6.30
  -2  -1  13   70.89    6.80
  -2  -1  13   66.69    6.10
  -1  -1  13 2012.90   46.60
  -1  -1  13 2033.50   46.50
  -1  -1  13 2080.49   49.60
  -1  -1  13 2052.09   46.20
  -1  -1  13 2002.70   46.20
  -1  -1  13 2033.20   48.10
  -1  -1  13 2026.20   48.30
  -1  -1  13 2062.89   48.90
  -1  -1  13 1989.40   48.20
  -1  -1  13 2049.40   46.90
   0  -1  13 3074.09   68.19
   0  -1  13 3094.99   68.49
   0  -1  13 3133.19   70.89
   0  -1  13 3181.48   69.89
   0  -1  13 3072.89   69.39
   0  -1  13 3109.69   69.89
   0  -1  13 3077.89   71.19
   0  -1  13 3086.99   69.99
   0  -1  13 3063.79   67.89
   0  -1  13 3163.88   68.89
   1  -1  13   19.20    2.70
   1  -1  13   21.60    3.30
   1  -1  13   19.80    3.30
   1  -1  13   19.90    3.10
   1  -1  13   19.80    2.70
   1  -1  13   20.80    3.10
   1  -1  13   17.10    2.80
   1  -1  13   17.50    2.70
   1  -1  13   15.00    3.00
   2  -1  13    1.10    1.20
   2  -1  13    1.30    1.20
   2  -1  13    1.80    1.20
   2  -1  13    3.50    1.40
   2  -1  13    0.60    1.10
   2  -1  13    1.70    1.00
   2  -1  13    1.00    1.00
   2  -1  13    0.80    0.80
   2  -1  13    0.90    1.20
   3  -1  13  159.38    7.30
   3  -1  13  171.58    6.90
   3  -1  13  169.18    7.00
   3  -1  13  172.98    7.50
   3  -1  13  178.98    7.50
   3  -1  13  170.68    6.70
   3  -1  13  176.78    7.20
   4  -1  13   14.40    2.20
   4  -1  13   13.70    1.90
   4  -1  13   14.80    2.20
   4  -1  13   16.40    2.30
   4  -1  13   14.30    1.80
   4  -1  13   12.50    1.90
   4  -1  13   12.50    2.00
   4  -1  13   13.50    1.90
   5  -1  13   61.29    2.90
   5  -1  13   62.49    3.20
   5  -1  13   60.99    2.90
   5  -1  13   61.69    3.20
   5  -1  13   62.09    3.20
   5  -1  13   67.69    3.30
   5  -1  13   61.69    2.90
   7   0 -13  587.64   15.60
   7   0 -13  613.74   15.70
   7   0 -13  585.54   14.90
  -7   0  13  591.54   17.00
  -7   0  13  599.04   16.40
   6   0 -13  165.88    6.80
   6   0 -13  159.18    6.40
  -6   0  13  157.38    7.60
  -6   0  13  163.78    8.20
   5   0 -13  129.49    5.80
   5   0 -13  123.69    5.90
  -5   0  13  119.09    7.40
  -5   0  13  124.59    7.00
  -5   0  13  127.19    7.10
   4   0 -13  372.76   11.30
   4   0 -13  351.96   11.30
  -4   0  13  368.36   14.00
  -4   0  13  359.56   13.00
  -4   0  13  349.67   13.20
  -4   0  13  357.86   11.00
  -4   0  13  350.56   11.50
  -4   0  13  354.86   13.30
  -3   0  13  612.64   16.80
  -3   0  13  592.34   18.60
  -3   0  13  638.64   20.00
  -3   0  13  623.04   18.90
  -3   0  13  589.54   18.60
  -3   0  13  626.94   19.20
  -3   0  13  620.24   17.10
  -3   0  13  622.94   16.80
  -3   0  13  600.84   19.00
  -3   0  13  596.64   16.00
  -2   0  13  415.16   14.30
  -2   0  13  412.86   12.80
  -2   0  13  394.46   12.40
  -2   0  13  402.46   14.30
  -2   0  13  400.46   14.90
  -2   0  13  406.16   14.10
  -2   0  13  414.06   13.20
  -2   0  13  413.66   11.60
  -2   0  13  422.76   12.70
  -2   0  13  406.56   12.50
  -2   0  13  414.36   14.20
  -1   0  13 1064.89   26.30
  -1   0  13 1067.29   28.40
  -1   0  13 1051.29   29.00
  -1   0  13 1051.99   28.40
  -1   0  13 1085.29   28.30
  -1   0  13 1041.40   26.00
  -1   0  13 1089.89   27.20
  -1   0  13 1033.20   26.70
  -1   0  13 1053.79   28.10
  -1   0  13 1048.20   26.50
   0   0  13  499.95   15.80
   0   0  13  479.75   15.50
   0   0  13  492.05   14.70
   0   0  13  503.95   14.60
   0   0  13  481.15   15.60
   0   0  13  482.15   16.20
   0   0  13  504.25   14.20
   0   0  13  481.65   15.80
   0   0  13  477.65   14.90
   1   0  13  167.58    6.90
   1   0  13  166.28    8.10
   1   0  13  168.88    7.80
   1   0  13  175.88    8.00
   1   0  13  167.08    7.60
   1   0  13  161.98    7.80
   1   0  13  168.68    7.10
   1   0  13  172.18    7.40
   2   0  13  856.61   22.80
   2   0  13  859.61   22.40
   2   0  13  853.01   22.90
   2   0  13  873.81   22.40
   2   0  13  855.41   22.00
   2   0  13  827.12   23.00
   2   0  13  852.21   22.50
   2   0  13  840.92   21.70
   3   0  13  277.87    9.20
   3   0  13  271.67    9.60
   3   0  13  270.77    9.30
   3   0  13  276.27    9.30
   3   0  13  285.57    9.50
   3   0  13  272.77    9.60
   3   0  13  270.57    8.90
   4   0  13  121.79    4.80
   4   0  13  124.59    5.20
   4   0  13  120.79    5.20
   4   0  13  128.09    5.30
   4   0  13  124.89    4.90
   4   0  13  120.49    4.90
   5   0  13   11.10    1.40
   5   0  13   12.80    1.30
   5   0  13   13.00    1.40
   5   0  13   11.00    1.40
   5   0  13    9.70    1.30
   5   0  13   12.50    1.40
   7  -1 -13  109.29    4.90
   7  -1 -13  106.89    4.40
   7  -1 -13  103.19    4.80
  -7   1  13   95.09    5.40
  -7   1  13   94.89    5.00
  -7   1  13  117.09    5.70
   6  -1 -13  300.17    9.50
   6  -1 -13  309.37   10.10
   6  -1 -13  294.57   10.00
  -6   1  13  295.77   11.60
  -6   1  13  305.87   11.40
  -6   1  13  293.47   11.00
   5  -1 -13   11.40    2.00
   5  -1 -13    9.30    1.90
  -5   1  13    8.30    2.50
  -5   1  13    8.40    1.80
  -5   1  13    7.50    2.40
  -5   1  13    9.00    2.50
   4  -1 -13   66.09    4.80
  -4   1  13   51.19    3.90
  -4   1  13   55.09    5.50
  -4   1  13   59.99    3.80
  -4   1  13   57.79    4.80
  -4   1  13   43.60    5.20
  -4   1  13   53.19    5.60
  -4   1  13   63.29    6.20
   3  -1 -13   11.90    2.10
  -3   1  13    9.70    2.80
  -3   1  13   10.70    2.10
  -3   1  13   14.30    3.00
  -3   1  13    9.10    1.70
  -3   1  13   12.00    2.20
  -3   1  13   12.20    2.20
  -3   1  13   12.10    2.90
  -3   1  13   13.70    2.40
  -3   1  13   12.70    2.90
  -3   1  13   13.40    2.60
  -2   1  13  946.11   22.80
  -2   1  13  915.31   26.20
  -2   1  13  970.20   24.30
  -2   1  13  972.60   26.90
  -2   1  13  946.31   24.00
  -2   1  13  956.50   26.50
  -2   1  13  945.21   24.40
  -2   1  13  948.41   25.20
  -2   1  13  926.51   24.50
  -2   1  13  957.00   26.20
  -1   1  13  128.29    6.60
  -1   1  13  131.69    6.00
  -1   1  13  140.19    7.40
  -1   1  13  133.39    6.00
  -1   1  13  124.49    7.20
  -1   1  13  119.49    6.00
  -1   1  13  128.59    7.10
  -1   1  13  126.29    7.40
  -1   1  13  127.69    6.40
   0   1  13   75.39    4.90
   0   1  13   68.59    5.90
   0   1  13   67.29    6.00
   0   1  13   73.99    4.40
   0   1  13   69.39    5.90
   0   1  13   78.29    6.50
   0   1  13   75.49    4.50
   0   1  13   80.19    4.90
   1   1  13    9.70    2.10
   1   1  13   13.50    2.50
   1   1  13   11.10    2.50
   1   1  13    9.60    2.10
   1   1  13   12.00    2.60
   1   1  13    8.90    2.20
   1   1  13   10.20    2.10
   1   1  13   12.90    2.30
   2   1  13   72.29    4.30
   2   1  13   79.29    4.80
   2   1  13   78.69    4.80
   2   1  13   79.49    4.70
   2   1  13   74.89    4.50
   2   1  13   80.79    4.80
   3   1  13  353.56   10.70
   3   1  13  347.27   10.70
   3   1  13  344.27   10.20
   3   1  13  349.37   10.40
   3   1  13  339.37   10.60
   4   1  13   27.40    2.20
   4   1  13   26.70    2.40
   4   1  13   30.70    2.60
   4   1  13   23.30    2.30
   4   1  13   29.50    2.30
   8  -2 -13   57.29    3.70
   8  -2 -13   55.49    2.80
  -8   2  13   58.19    3.30
   7  -2 -13   66.59    3.70
   7  -2 -13   63.69    3.30
   7  -2 -13   60.99    3.70
  -7   2  13   62.69    4.20
  -7   2  13   63.29    4.90
  -7   2  13   65.09    5.10
   6  -2 -13   70.79    4.20
   6  -2 -13   73.59    4.20
   6  -2 -13   76.89    4.00
  -6   2  13   75.49    3.90
  -6   2  13   65.69    5.70
  -6   2  13   66.79    5.90
  -6   2  13   65.99    5.70
   5  -2 -13  348.47   11.00
  -5   2  13  352.76   11.00
  -5   2  13  349.96   10.50
  -5   2  13  343.37   13.10
  -5   2  13  365.66   13.20
  -5   2  13  340.47   12.90
  -5   2  13  350.26   12.90
  -5   2  13  344.87   13.40
   4  -2 -13  201.98    7.50
  -4   2  13  220.88    9.90
  -4   2  13  204.68    9.50
  -4   2  13  193.28    9.50
  -4   2  13  208.28    7.30
  -4   2  13  202.78    7.70
  -4   2  13  213.08    8.80
  -4   2  13  191.88    7.80
  -4   2  13  197.38    9.60
  -4   2  13  196.28    7.80
  -4   2  13  199.88    7.60
  -3   2  13  461.05   12.80
  -3   2  13  468.65   14.10
  -3   2  13  443.76   15.70
  -3   2  13  454.15   14.30
  -3   2  13  470.75   16.00
  -3   2  13  465.05   13.80
  -3   2  13  452.65   13.60
  -3   2  13  465.45   15.80
  -3   2  13  467.75   15.00
  -3   2  13  439.06   15.80
  -2   2  13 1135.59   29.30
  -2   2  13 1177.98   30.50
  -2   2  13 1178.38   29.00
  -2   2  13 1160.88   29.80
  -2   2  13 1154.48   31.10
  -2   2  13 1164.08   28.50
  -2   2  13 1137.99   30.80
  -2   2  13 1147.39   27.00
  -2   2  13 1157.98   28.40
  -2   2  13 1140.89   30.70
  -1   2  13   10.20    2.20
  -1   2  13   13.10    2.70
  -1   2  13    9.50    2.30
  -1   2  13   10.00    2.60
  -1   2  13    9.20    2.00
  -1   2  13    9.70    2.40
  -1   2  13    9.30    1.90
  -1   2  13    8.60    2.10
  -1   2  13    7.70    2.30
   0   2  13    0.70    1.30
   0   2  13    0.50    1.00
   0   2  13    3.10    1.60
   0   2  13    0.90    1.10
   0   2  13    0.40    1.00
   0   2  13    2.40    1.50
   0   2  13    0.00    1.10
   0   2  13   -0.10    1.20
   1   2  13  258.77    9.90
   1   2  13  243.48    9.20
   1   2  13  263.47    9.50
   1   2  13  263.57    9.80
   1   2  13  269.37    9.30
   2   2  13   24.50    2.70
   2   2  13   19.30    2.60
   2   2  13   17.80    2.70
   3   2  13   -0.10    0.60
   3   2  13    0.00    0.70
   3   2  13    0.20    0.70
   8  -3 -13   57.59    2.80
   8  -3 -13   59.39    3.00
  -8   3  13   57.79    3.30
  -8   3  13   55.49    3.30
   7  -3 -13  111.19    4.30
   7  -3 -13  110.49    4.80
   7  -3 -13   97.09    4.70
  -7   3  13  107.49    5.70
  -7   3  13  100.99    5.40
   6  -3 -13  154.78    6.30
   6  -3 -13  157.08    6.40
  -6   3  13  150.28    7.50
  -6   3  13  159.08    7.90
  -6   3  13  146.69    7.30
  -6   3  13  157.48    6.00
   5  -3 -13    0.60    0.80
   5  -3 -13    1.50    1.00
  -5   3  13    2.90    1.30
  -5   3  13    0.90    1.60
  -5   3  13    1.90    1.60
  -5   3  13    4.10    1.40
  -5   3  13    2.40    1.10
  -5   3  13    1.20    1.40
  -5   3  13    1.80    1.50
  -4   3  13  270.77    9.60
  -4   3  13  299.37   11.60
  -4   3  13  282.67   10.10
  -4   3  13  295.57   12.00
  -4   3  13  281.77    9.00
  -4   3  13  293.37   12.00
  -4   3  13  283.57    9.60
  -4   3  13  281.67    9.00
  -4   3  13  286.97    9.90
  -4   3  13  278.87   10.80
  -3   3  13  991.40   27.80
  -3   3  13 1032.60   25.40
  -3   3  13 1010.40   27.10
  -3   3  13  989.70   26.00
  -3   3  13  984.60   27.80
  -3   3  13 1001.40   25.10
  -3   3  13 1009.90   25.70
  -3   3  13 1014.30   26.90
  -3   3  13  968.70   23.70
  -3   3  13  974.40   23.80
  -2   3  13  262.67    9.80
  -2   3  13  274.07   10.50
  -2   3  13  251.97    9.20
  -2   3  13  249.78   11.00
  -2   3  13  250.47    8.20
  -2   3  13  272.67   10.10
  -2   3  13  263.57    9.30
  -2   3  13  250.97   10.40
  -2   3  13  255.67   10.80
  -1   3  13  561.54   16.30
  -1   3  13  587.24   17.50
  -1   3  13  575.64   17.60
  -1   3  13  621.04   18.80
  -1   3  13  577.34   16.90
  -1   3  13  590.74   17.30
  -1   3  13  600.74   16.50
  -1   3  13  603.44   18.30
   0   3  13  150.08    7.00
   0   3  13  160.58    7.00
   0   3  13  156.58    7.60
   0   3  13  152.28    6.40
   0   3  13  143.99    7.10
   0   3  13  154.78    6.80
   7  -4 -13  260.27    8.20
   7  -4 -13  258.97    7.60
   7  -4 -13  263.57    8.10
  -7   4  13  270.07    9.50
  -7   4  13  257.07    8.90
  -7   4  13  242.98    8.90
   6  -4 -13  677.13   17.00
   6  -4 -13  623.64   16.90
  -6   4  13  647.34   19.10
  -6   4  13  599.44   18.90
  -6   4  13  671.03   16.30
  -6   4  13  652.63   18.60
  -6   4  13  649.93   16.50
  -6   4  13  661.73   19.30
   5  -4 -13   50.89    3.90
  -5   4  13   58.69    4.60
  -5   4  13   46.50    5.20
  -5   4  13   61.89    5.50
  -5   4  13   55.69    3.30
  -5   4  13   57.89    5.20
  -5   4  13   51.79    3.40
  -5   4  13   47.80    5.30
  -5   4  13   57.59    3.60
  -5   4  13   53.79    3.60
  -4   4  13  162.08    6.10
  -4   4  13  162.88    8.50
  -4   4  13  159.08    7.20
  -4   4  13  170.38    8.80
  -4   4  13  167.98    6.90
  -4   4  13  164.08    6.70
  -4   4  13  164.38    6.20
  -4   4  13  162.38    7.00
  -4   4  13  161.88    7.90
  -4   4  13  163.88    7.90
  -3   4  13    2.90    1.30
  -3   4  13   -0.10    1.40
  -3   4  13    2.20    1.00
  -3   4  13    2.30    1.70
  -3   4  13    3.10    1.40
  -3   4  13    3.70    1.90
  -3   4  13    2.20    1.00
  -3   4  13    2.90    1.60
  -3   4  13    3.40    1.50
  -3   4  13    3.60    1.50
  -2   4  13  225.68    7.40
  -2   4  13  224.18    8.40
  -2   4  13  222.78    9.40
  -2   4  13  222.28   10.10
  -2   4  13  222.98    8.80
  -2   4  13  241.78    9.30
  -2   4  13  210.58    9.50
  -2   4  13  222.38    8.40
  -1   4  13  116.49    6.20
  -1   4  13  112.39    5.40
  -1   4  13  107.89    5.90
  -1   4  13  110.39    5.80
  -1   4  13  103.99    6.40
  -1   4  13  109.79    5.40
  -1   4  13  107.39    6.00
   0   4  13  508.75   14.40
   0   4  13  496.75   14.40
   0   4  13  485.55   15.00
   0   4  13  478.65   14.50
   7  -5 -13  150.68    5.40
   7  -5 -13  152.88    5.50
   7  -5 -13  153.18    5.00
  -7   5  13  155.68    6.60
  -7   5  13  150.78    5.90
  -7   5  13  165.18    6.60
   6  -5 -13   62.99    3.50
   6  -5 -13   64.79    3.50
  -6   5  13   57.99    5.10
  -6   5  13   61.19    5.30
  -6   5  13   59.29    3.80
  -6   5  13   64.79    3.30
  -6   5  13   62.19    3.30
   5  -5 -13  941.41   22.90
  -5   5  13  944.61   22.70
  -5   5  13  981.90   22.70
  -5   5  13  956.30   25.70
  -5   5  13  946.81   24.70
  -5   5  13  933.41   22.80
  -5   5  13  944.31   23.20
  -5   5  13  941.21   23.20
  -5   5  13  914.61   23.60
  -5   5  13  972.90   26.20
  -4   5  13  146.79    5.60
  -4   5  13  149.09    6.30
  -4   5  13  128.89    7.50
  -4   5  13  155.38    5.80
  -4   5  13  155.28    7.80
  -4   5  13  145.39    6.50
  -4   5  13  152.78    7.40
  -4   5  13  146.49    6.20
  -4   5  13  147.69    6.90
  -3   5  13  344.47   11.40
  -3   5  13  345.87   11.70
  -3   5  13  323.47    9.90
  -3   5  13  345.57   12.40
  -3   5  13  336.47   10.90
  -3   5  13  349.96   13.10
  -3   5  13  334.67    9.90
  -3   5  13  339.77   11.00
  -3   5  13  350.86   12.30
  -2   5  13  205.78    8.60
  -2   5  13  209.28    9.10
  -2   5  13  201.88    8.10
  -2   5  13  198.78    6.80
  -2   5  13  199.88    8.30
  -2   5  13  206.48    7.90
  -2   5  13  194.58    7.60
  -1   5  13  153.68    6.40
  -1   5  13  169.18    7.20
  -1   5  13  164.98    7.00
  -1   5  13  160.18    6.50
  -1   5  13  165.48    7.50
  -1   5  13  150.58    6.70
   0   5  13   -0.10    0.60
   0   5  13   -0.70    0.80
   0   5  13    0.50    0.90
   0   5  13   -0.10    0.80
   7  -6 -13  300.67    8.20
   7  -6 -13  287.07    8.00
   7  -6 -13  278.17    7.70
  -7   6  13  305.17    9.30
  -7   6  13  286.77    9.00
   6  -6 -13   46.80    2.80
   6  -6 -13   52.09    2.90
  -6   6  13   50.79    2.70
  -6   6  13   45.50    3.90
  -6   6  13   53.99    4.10
  -6   6  13   43.90    2.90
  -6   6  13   41.60    4.00
  -6   6  13   53.19    2.70
   5  -6 -13   52.19    3.10
  -5   6  13   58.89    3.10
  -5   6  13   53.89    3.00
  -5   6  13   55.49    5.00
  -5   6  13   54.39    3.30
  -5   6  13   52.59    3.20
  -5   6  13   51.49    3.10
  -5   6  13   56.89    4.80
  -5   6  13   52.69    4.50
  -5   6  13   55.29    4.20
  -4   6  13    1.00    1.20
  -4   6  13    3.20    1.20
  -4   6  13    0.40    0.70
  -4   6  13    0.30    0.70
  -4   6  13    1.60    1.30
  -4   6  13    1.80    1.20
  -4   6  13    0.40    1.10
  -4   6  13    2.40    1.20
  -4   6  13   -0.10    0.80
  -3   6  13  104.49    6.00
  -3   6  13   97.39    4.20
  -3   6  13  100.49    4.30
  -3   6  13  100.89    4.90
  -3   6  13  102.79    5.00
  -3   6  13   97.19    5.60
  -3   6  13   99.19    5.40
  -3   6  13  102.29    5.20
  -2   6  13   75.39    4.10
  -2   6  13   70.29    4.30
  -2   6  13   73.29    4.50
  -2   6  13   68.99    3.40
  -2   6  13   76.59    4.40
  -2   6  13   71.09    4.00
  -2   6  13   57.99    5.10
  -1   6  13    9.80    1.80
  -1   6  13   12.00    1.80
  -1   6  13    8.60    1.70
  -1   6  13   12.50    1.80
   6  -7 -13  446.76   11.30
   6  -7 -13  441.36   11.20
  -6   7  13  460.05   10.90
  -6   7  13  452.05   11.40
  -6   7  13  422.86   12.60
  -6   7  13  436.06   11.80
  -6   7  13  438.06   11.00
  -6   7  13  467.25   12.20
   5  -7 -13  321.97    8.90
  -5   7  13  308.77    8.70
  -5   7  13  309.47    9.10
  -5   7  13  322.37   10.10
  -5   7  13  322.57    9.00
  -5   7  13  313.47   10.60
  -5   7  13  332.57    8.80
  -5   7  13  328.37    9.10
  -5   7  13  329.07    9.70
  -4   7  13  621.34   15.50
  -4   7  13  595.64   14.60
  -4   7  13  589.04   16.70
  -4   7  13  605.74   16.10
  -4   7  13  609.74   16.50
  -4   7  13  594.14   15.20
  -4   7  13  577.24   14.60
  -4   7  13  594.44   15.70
  -3   7  13   28.10    3.00
  -3   7  13   28.30    2.60
  -3   7  13   27.80    2.60
  -3   7  13   25.80    2.70
  -3   7  13   27.60    2.20
  -3   7  13   27.00    2.20
  -3   7  13   24.90    2.70
  -2   7  13  297.37    8.90
  -2   7  13  285.77    8.00
  -2   7  13  311.57    9.20
  -2   7  13  295.67    9.10
  -2   7  13  286.87    8.80
  -2   7  13  303.37    9.30
  -1   7  13    0.60    0.50
  -1   7  13   -0.50    0.70
  -1   7  13    1.80    0.80
  -1   7  13    1.10    0.80
  -1   7  13    0.90    0.80
  -5   8  13   25.30    1.70
  -5   8  13   25.20    1.70
  -5   8  13   21.70    2.10
  -5   8  13   21.30    1.70
  -5   8  13   26.20    2.20
  -5   8  13   28.60    2.80
  -5   8  13   25.80    2.00
  -4   8  13   37.60    2.20
  -4   8  13   37.10    2.30
  -4   8  13   33.00    2.70
  -4   8  13   34.00    1.90
  -4   8  13   33.60    2.10
  -4   8  13   31.50    1.80
  -4   8  13   30.40    2.50
  -3   8  13  205.88    6.50
  -3   8  13  207.98    6.40
  -3   8  13  198.48    6.20
  -3   8  13  207.38    5.80
  -3   8  13  216.08    6.60
  -3   8  13  201.28    6.30
  -3   8  13  206.38    5.70
  -2   8  13  227.18    6.20
  -2   8  13  240.68    6.80
  -2   8  13  236.18    6.70
  -2   8  13  239.08    6.70
   0   9 -14   41.90    2.50
   0  -9  14   43.60    2.50
  -1   9 -14  124.79    4.70
  -1   9 -14  119.89    4.60
   1  -9  14  117.89    5.00
   1  -9  14  122.49    4.60
  -2   9 -14  298.27    8.80
   2  -9  14  321.57    8.70
   2   8 -14  120.49    4.50
   2   8 -14  131.29    5.10
  -2  -8  14  120.89    4.40
  -2  -8  14  117.49    4.70
   1   8 -14  129.59    5.40
   1   8 -14  125.99    5.10
  -1  -8  14  129.79    5.10
  -1  -8  14  135.09    5.40
   0   8 -14    5.30    1.30
   0   8 -14    4.00    1.10
   0   8 -14    4.70    1.40
   0  -8  14    4.90    1.40
   0  -8  14    5.70    1.40
  -1   8 -14   92.89    4.30
  -1   8 -14   97.39    4.50
   1  -8  14   93.09    4.60
   1  -8  14   96.09    4.60
  -2   8 -14   96.49    4.30
  -2   8 -14   97.99    4.10
  -2   8 -14  105.39    4.60
   2  -8  14  101.39    4.30
   2  -8  14   97.89    4.50
   2  -8  14  100.09    4.60
  -3   8 -14   55.19    2.80
  -3   8 -14   50.89    2.90
   3  -8  14   52.69    2.90
   3  -8  14   52.89    3.00
   3  -8  14   48.50    2.80
  -4   8 -14  300.97    8.00
   4  -8  14  268.97    8.00
   4  -8  14  298.37    8.20
   3   7 -14    3.20    0.80
   3   7 -14    2.10    0.90
   3   7 -14    3.20    1.00
  -3  -7  14    4.30    1.20
  -3  -7  14    1.90    1.10
  -3  -7  14    1.80    0.90
   2   7 -14  282.87    8.90
   2   7 -14  296.47    9.70
  -2  -7  14  280.67    8.70
  -2  -7  14  277.57    9.40
  -2  -7  14  303.37    9.80
   1   7 -14  265.27    8.70
   1   7 -14  305.57   10.00
   1   7 -14  306.97    9.60
  -1  -7  14  292.47   10.00
  -1  -7  14  293.77    9.50
  -1  -7  14  328.47   10.40
   0   7 -14    0.80    0.90
   0   7 -14   -0.30    0.90
   0   7 -14    0.80    0.90
   0  -7  14    0.20    0.80
   0  -7  14    1.10    1.20
   0  -7  14    1.20    1.10
  -1   7 -14  100.49    4.80
  -1   7 -14  100.39    4.30
  -1   7 -14  102.29    4.80
   1  -7  14  108.89    5.20
   1  -7  14  101.79    5.40
   1  -7  14   94.19    5.00
  -2   7 -14   55.29    3.40
  -2   7 -14   53.69    3.10
  -2   7 -14   49.00    3.10
   2  -7  14   46.00    4.00
   2  -7  14   46.70    4.00
  -3   7 -14   31.50    2.50
  -3   7 -14   39.00    3.00
  -3   7 -14   38.10    3.20
   3  -7  14   36.50    3.30
   3  -7  14   34.30    3.00
   3  -7  14   33.20    3.10
  -4   7 -14    2.90    0.80
  -4   7 -14    2.30    0.90
  -4   7 -14    2.10    0.80
   4  -7  14    3.30    1.00
   4  -7  14    3.70    1.00
   4  -7  14    4.30    1.20
   4   6 -14   71.49    3.50
   4   6 -14   65.49    3.60
  -4  -6  14   72.39    3.90
  -4  -6  14   67.79    3.60
   3   6 -14   55.39    3.20
   3   6 -14   55.49    3.30
   3   6 -14   58.09    3.70
  -3  -6  14   52.29    4.50
  -3  -6  14   61.29    3.90
   2   6 -14  367.56   11.10
   2   6 -14  394.06   12.30
   2   6 -14  382.26   11.40
  -2  -6  14  378.66   11.30
  -2  -6  14  381.26   12.80
  -2  -6  14  401.16   12.60
   1   6 -14    7.10    1.80
   1   6 -14   10.60    1.80
   1   6 -14    9.50    1.80
  -1  -6  14   10.40    2.00
  -1  -6  14    9.20    2.20
  -1  -6  14   12.70    2.50
   0   6 -14  131.79    6.10
   0   6 -14  134.29    5.70
   0   6 -14  130.89    5.90
   0  -6  14  118.99    6.50
   0  -6  14  135.59    6.20
   0  -6  14  135.49    6.60
  -1   6 -14  589.34   16.20
  -1   6 -14  594.44   16.20
   1  -6  14  599.74   17.60
   1  -6  14  596.64   16.90
   1  -6  14  611.94   17.50
  -2   6 -14   48.00    3.10
  -2   6 -14   48.80    3.90
   2  -6  14   48.00    4.40
   2  -6  14   47.40    2.80
   2  -6  14   44.80    4.30
   2  -6  14   47.50    4.20
  -3   6 -14  169.68    6.00
  -3   6 -14  154.88    5.80
   3  -6  14  143.99    5.30
   3  -6  14  151.68    6.10
   3  -6  14  155.68    6.50
   3  -6  14  168.18    6.90
   3  -6  14  156.08    5.60
  -4   6 -14  109.49    4.30
   4  -6  14  108.79    4.30
   4  -6  14  103.39    4.60
   4  -6  14  109.79    4.80
   4  -6  14  107.39    4.10
   4  -6  14  100.59    4.70
  -5   6 -14  126.59    4.60
  -5   6 -14  135.09    4.50
   5  -6  14  124.59    4.50
   5  -6  14  132.59    4.70
   5  -6  14  133.49    4.50
   5   5 -14  564.64   14.50
   5   5 -14  599.84   14.60
  -5  -5  14  613.54   15.50
  -5  -5  14  569.64   14.50
   4   5 -14    7.70    1.50
   4   5 -14    2.40    1.00
  -4  -5  14    2.40    1.20
  -4  -5  14    3.20    1.50
   3   5 -14  141.79    5.70
   3   5 -14  141.39    6.00
   3   5 -14  136.89    6.30
  -3  -5  14  143.99    6.60
  -3  -5  14  136.39    7.10
  -3  -5  14  148.09    7.10
   2   5 -14 1277.77   30.30
   2   5 -14 1242.08   31.30
   2   5 -14 1284.57   30.10
  -2  -5  14 1315.77   32.70
  -2  -5  14 1257.57   32.00
  -2  -5  14 1246.28   31.60
   1   5 -14  116.89    5.20
   1   5 -14  116.29    5.50
   1   5 -14  114.99    5.90
  -1  -5  14  110.49    5.60
  -1  -5  14  115.29    6.50
  -1  -5  14  101.89    6.40
  -1  -5  14  115.59    6.30
   0   5 -14  149.99    6.50
   0   5 -14  146.29    6.60
   0  -5  14  148.49    7.30
   0  -5  14  157.18    7.40
   0  -5  14  162.78    6.10
   0  -5  14  140.39    7.50
   0  -5  14  147.09    6.70
  -1   5 -14   36.80    3.60
   1  -5  14   35.90    3.10
   1  -5  14   36.30    4.30
   1  -5  14   36.30    4.20
   1  -5  14   33.90    3.30
   1  -5  14   37.70    3.90
   1  -5  14   37.60    4.10
  -2   5 -14  152.58    6.20
   2  -5  14  153.28    5.90
   2  -5  14  166.28    7.50
   2  -5  14  154.08    6.80
   2  -5  14  166.28    6.30
   2  -5  14  150.58    7.20
   2  -5  14  158.58    6.10
   2  -5  14  164.28    7.00
  -3   5 -14    0.90    0.80
   3  -5  14    0.10    0.60
   3  -5  14    0.10    0.60
   3  -5  14    1.50    1.00
   3  -5  14   -0.60    0.80
   3  -5  14    1.60    0.80
   3  -5  14    0.30    0.80
   3  -5  14    1.40    0.80
   3  -5  14    1.40    1.00
   3  -5  14    0.00    0.90
  -4   5 -14   39.50    2.50
   4  -5  14   40.00    2.60
   4  -5  14   42.90    2.60
   4  -5  14   36.70    2.20
   4  -5  14   47.20    3.70
   4  -5  14   36.00    3.20
   4  -5  14   39.40    2.50
   4  -5  14   39.70    2.40
   4  -5  14   38.40    3.40
   4  -5  14   39.20    3.20
  -5   5 -14  427.96   10.90
  -5   5 -14  397.46   11.00
   5  -5  14  445.66   11.20
   5  -5  14  427.16   10.40
   5  -5  14  427.46   10.70
   5  -5  14  420.26   11.10
   5  -5  14  436.86   10.80
   5  -5  14  438.76   11.40
   5  -5  14  430.56   10.50
   5  -5  14  429.56   10.20
   5   4 -14  143.49    5.50
   5   4 -14  140.69    5.50
   5   4 -14  133.79    5.50
  -5  -4  14  142.79    5.60
  -5  -4  14  141.99    6.30
  -5  -4  14  149.49    6.50
   4   4 -14   77.69    4.20
   4   4 -14   69.29    4.20
  -4  -4  14   76.69    4.60
  -4  -4  14   68.49    5.80
  -4  -4  14   75.19    5.10
   3   4 -14   80.89    4.30
   3   4 -14   79.79    4.40
   3   4 -14   84.99    4.90
  -3  -4  14   83.69    6.80
  -3  -4  14   74.99    4.90
  -3  -4  14   82.99    6.90
   2   4 -14    5.80    1.50
   2   4 -14    3.40    1.40
   2   4 -14    4.20    1.50
  -2  -4  14    1.60    1.60
  -2  -4  14    4.00    1.90
  -2  -4  14    5.40    1.50
  -2  -4  14    4.10    1.60
   1   4 -14  236.28    8.50
   1   4 -14  230.98    8.80
  -1  -4  14  225.68    9.40
  -1  -4  14  208.88    7.90
  -1  -4  14  220.18    9.90
  -1  -4  14  241.38   10.30
  -1  -4  14  221.38    7.60
   0   4 -14  255.17    9.00
   0   4 -14  254.27    9.20
   0  -4  14  251.17    8.50
   0  -4  14  259.67    8.80
   0  -4  14  262.67    9.10
   0  -4  14  270.97   11.10
   0  -4  14  266.67   10.30
   0  -4  14  259.57   10.60
  -1   4 -14  723.33   19.10
   1  -4  14  758.72   20.10
   1  -4  14  766.62   19.50
   1  -4  14  726.73   21.00
   1  -4  14  742.03   19.20
   1  -4  14  740.23   19.10
   1  -4  14  756.02   19.70
   1  -4  14  751.12   19.30
   1  -4  14  710.43   21.30
   1  -4  14  721.33   21.00
   2  -4  14  160.48    6.30
   2  -4  14  149.29    6.20
   2  -4  14  152.78    6.30
   2  -4  14  152.88    7.20
   2  -4  14  154.98    7.50
   2  -4  14  149.88    6.80
   2  -4  14  150.68    7.00
   2  -4  14  151.28    6.20
   2  -4  14  157.08    6.40
   2  -4  14  150.48    6.20
  -3   4 -14    8.30    1.50
   3  -4  14    9.80    2.10
   3  -4  14    9.70    2.00
   3  -4  14   12.30    1.90
   3  -4  14   10.80    1.70
   3  -4  14   12.50    1.90
   3  -4  14    9.60    2.10
   3  -4  14   12.10    2.00
   3  -4  14    7.40    1.60
   3  -4  14   11.20    1.80
  -4   4 -14  152.98    5.50
   4  -4  14  154.38    5.90
   4  -4  14  160.58    6.40
   4  -4  14  151.78    5.50
   4  -4  14  161.68    5.80
   4  -4  14  148.29    6.30
   4  -4  14  156.88    6.20
   4  -4  14  158.68    5.40
   4  -4  14  153.78    5.50
   5  -4  14   89.09    3.70
   5  -4  14   97.19    3.50
   5  -4  14   98.49    4.00
   5  -4  14   93.69    3.60
   5  -4  14   94.39    3.40
   5  -4  14   92.19    3.70
   5  -4  14   88.99    4.00
   5  -4  14   88.29    3.70
   6   3 -14  149.69    5.40
   6   3 -14  147.69    5.50
  -6  -3  14  153.28    6.20
  -6  -3  14  165.18    6.40
   5   3 -14  256.67    8.80
   5   3 -14  262.57    8.90
   5   3 -14  287.67    9.00
  -5  -3  14  286.87   10.30
  -5  -3  14  277.27   10.40
   4   3 -14    1.70    1.10
   4   3 -14    1.50    1.00
   4   3 -14    0.60    0.70
  -4  -3  14    0.70    1.40
  -4  -3  14    1.50    1.40
  -4  -3  14    1.20    1.10
   3   3 -14  524.75   14.60
   3   3 -14  535.95   14.90
   3   3 -14  520.35   15.50
  -3  -3  14  467.55   16.90
  -3  -3  14  553.84   17.40
  -3  -3  14  515.55   15.60
  -3  -3  14  503.55   16.50
   2   3 -14  503.05   15.20
   2   3 -14  503.55   14.20
  -2  -3  14  517.95   14.20
  -2  -3  14  515.25   15.70
  -2  -3  14  512.25   15.80
  -2  -3  14  489.55   14.50
  -2  -3  14  508.05   17.30
  -2  -3  14  492.75   16.70
   1   3 -14   35.40    3.80
  -1  -3  14   33.00    3.50
  -1  -3  14   31.80    3.40
  -1  -3  14   25.40    3.70
  -1  -3  14   30.70    3.20
  -1  -3  14   26.70    3.60
  -1  -3  14   24.40    3.80
  -1  -3  14   29.60    3.80
   0  -3  14  801.42   21.40
   0  -3  14  819.02   21.10
   0  -3  14  799.82   20.80
   0  -3  14  797.32   23.30
   0  -3  14  792.92   21.80
   0  -3  14  804.32   20.70
   0  -3  14  819.32   23.40
   0  -3  14  821.92   22.50
   0  -3  14  790.62   20.70
   0  -3  14  788.72   21.20
   1  -3  14   65.39    4.00
   1  -3  14   63.39    4.00
   1  -3  14   55.49    5.10
   1  -3  14   67.09    6.00
   1  -3  14   69.79    5.40
   1  -3  14   62.49    5.80
   1  -3  14   67.09    4.30
   1  -3  14   56.69    4.70
   1  -3  14   68.39    4.10
   2  -3  14   34.20    4.00
   2  -3  14   33.40    3.40
   2  -3  14   29.10    3.30
   2  -3  14   37.10    3.90
   2  -3  14   33.00    3.30
   2  -3  14   30.80    3.40
   2  -3  14   31.50    3.80
   2  -3  14   32.10    3.30
   2  -3  14   27.50    3.70
   2  -3  14   39.50    3.60
   3  -3  14   22.00    2.50
   3  -3  14   26.10    3.20
   3  -3  14   25.50    3.10
   3  -3  14   27.60    3.30
   3  -3  14   23.60    2.80
   3  -3  14   27.60    2.90
   3  -3  14   22.80    2.50
   3  -3  14   26.90    2.80
   3  -3  14   23.60    3.00
   4  -3  14  478.95   13.40
   4  -3  14  470.95   13.60
   4  -3  14  475.55   12.50
   4  -3  14  485.45   12.60
   4  -3  14  478.45   12.90
   4  -3  14  461.85   13.10
   4  -3  14  479.45   13.50
   4  -3  14  484.55   12.70
   5  -3  14    0.40    0.70
   5  -3  14    1.00    0.60
   5  -3  14    1.00    0.70
   5  -3  14    0.90    0.60
   5  -3  14    1.20    0.70
   5  -3  14    0.50    0.60
   5  -3  14    1.90    0.70
   6   2 -14   56.29    3.40
   6   2 -14   56.79    3.20
  -6  -2  14   57.79    4.80
  -6  -2  14   57.69    4.50
   5   2 -14  496.65   13.70
   5   2 -14  481.75   13.80
   5   2 -14  458.75   13.80
  -5  -2  14  537.35   16.40
  -5  -2  14  491.35   15.30
  -5  -2  14  452.55   14.50
   4   2 -14   20.60    2.80
   4   2 -14   22.40    2.90
   4   2 -14   23.70    2.90
  -4  -2  14   25.00    3.80
  -4  -2  14   16.30    3.30
  -4  -2  14   18.70    3.20
   3   2 -14   17.10    2.40
   3   2 -14   11.90    2.30
  -3  -2  14   11.70    2.70
  -3  -2  14   10.70    2.70
  -3  -2  14   21.00    2.60
  -3  -2  14   17.60    2.50
  -3  -2  14   13.30    3.20
   2   2 -14  532.45   14.70
  -2  -2  14  503.35   16.10
  -2  -2  14  536.25   15.20
  -2  -2  14  546.55   17.40
  -2  -2  14  558.64   15.20
  -2  -2  14  534.05   14.80
  -2  -2  14  520.05   17.90
  -2  -2  14  527.05   16.80
  -1  -2  14   37.00    4.10
  -1  -2  14   44.00    4.00
  -1  -2  14   35.30    4.00
  -1  -2  14   35.60    4.70
  -1  -2  14   39.40    4.60
  -1  -2  14   30.20    3.70
  -1  -2  14   34.90    3.50
  -1  -2  14   30.20    3.30
  -1  -2  14   30.10    3.30
  -1  -2  14   33.30    4.40
   0  -2  14  804.32   21.20
   0  -2  14  815.52   22.00
   0  -2  14  824.72   21.00
   0  -2  14  802.62   21.20
   0  -2  14  809.92   23.60
   0  -2  14  799.32   21.10
   0  -2  14  786.42   22.00
   0  -2  14  788.72   23.30
   0  -2  14  780.82   22.10
   0  -2  14  856.91   22.60
   1  -2  14  126.49    6.10
   1  -2  14  126.69    6.50
   1  -2  14  131.29    6.60
   1  -2  14  133.39    6.80
   1  -2  14  132.79    6.60
   1  -2  14  138.59    6.20
   1  -2  14  134.49    7.40
   1  -2  14  141.89    7.40
   1  -2  14  134.79    6.10
   2  -2  14    0.30    0.90
   2  -2  14    2.30    1.30
   2  -2  14    1.10    1.10
   2  -2  14    2.30    1.20
   2  -2  14   -0.60    0.90
   2  -2  14    1.00    1.00
   2  -2  14    1.80    1.40
   2  -2  14    1.70    1.20
   2  -2  14    2.30    1.10
   2  -2  14    1.60    1.20
   3  -2  14    1.40    1.00
   3  -2  14    2.10    1.00
   3  -2  14    1.70    1.10
   3  -2  14    2.30    1.20
   3  -2  14    1.90    1.10
   3  -2  14    2.30    1.00
   3  -2  14    3.80    1.20
   3  -2  14    0.90    0.80
   3  -2  14    2.80    1.20
   4  -2  14    7.10    1.30
   4  -2  14    8.10    1.50
   4  -2  14    7.40    1.60
   4  -2  14    8.10    1.40
   4  -2  14    7.70    1.60
   4  -2  14    7.70    1.50
   4  -2  14    7.30    1.50
   4  -2  14    6.30    1.20
   5  -2  14    2.40    0.70
   5  -2  14    0.80    0.60
   5  -2  14    1.50    0.70
   5  -2  14    3.30    0.80
   5  -2  14    2.30    0.80
   5  -2  14    2.30    0.70
   5  -2  14    0.80    0.70
   7   1 -14   14.90    1.60
   7   1 -14   16.20    1.90
  -7  -1  14   15.60    2.20
   6   1 -14  203.28    7.00
   6   1 -14  209.68    7.40
  -6  -1  14  211.88    8.70
  -6  -1  14  194.18    7.80
  -6  -1  14  205.08    8.00
   5   1 -14    5.80    1.50
   5   1 -14    6.20    1.60
   5   1 -14    3.80    1.40
  -5  -1  14    7.40    2.30
  -5  -1  14    7.00    2.10
  -5  -1  14    6.00    2.00
   4   1 -14  255.17    9.10
   4   1 -14  263.97    9.40
   4   1 -14  254.07    8.90
  -4  -1  14  268.57    8.70
  -4  -1  14  245.38   10.40
  -4  -1  14  251.47   11.20
  -4  -1  14  251.47   10.50
   3   1 -14 1023.90   25.10
  -3  -1  14 1045.80   27.40
  -3  -1  14 1010.40   27.70
  -3  -1  14  991.70   27.50
  -3  -1  14 1026.40   25.90
  -3  -1  14 1027.80   25.10
  -3  -1  14 1042.70   28.90
  -3  -1  14  999.10   25.30
   2   1 -14  439.56   12.60
  -2  -1  14  441.16   13.10
  -2  -1  14  447.76   14.80
  -2  -1  14  451.05   13.30
  -2  -1  14  450.95   13.60
  -2  -1  14  454.95   15.20
  -2  -1  14  435.66   15.20
  -2  -1  14  422.86   13.30
  -2  -1  14  452.75   14.60
  -2  -1  14  448.16   16.00
  -2  -1  14  437.66   13.30
  -1  -1  14    1.40    1.20
  -1  -1  14    6.60    1.70
  -1  -1  14    2.60    1.70
  -1  -1  14    1.30    1.10
  -1  -1  14    1.40    1.10
  -1  -1  14    2.40    1.60
  -1  -1  14    3.60    1.40
  -1  -1  14    0.20    1.10
  -1  -1  14    1.20    1.40
  -1  -1  14   -1.00    1.20
   0  -1  14   -0.10    1.00
   0  -1  14    1.50    1.30
   0  -1  14    0.70    1.10
   0  -1  14    1.10    0.90
   0  -1  14    4.80    1.50
   0  -1  14    0.30    1.20
   0  -1  14    0.50    0.90
   0  -1  14    0.90    1.30
   0  -1  14   -0.70    1.20
   0  -1  14   -0.30    1.00
   1  -1  14  473.25   15.40
   1  -1  14  476.45   15.20
   1  -1  14  453.75   14.50
   1  -1  14  456.25   13.90
   1  -1  14  460.85   13.60
   1  -1  14  444.16   14.30
   1  -1  14  457.85   14.60
   1  -1  14  444.66   14.30
   1  -1  14  449.06   13.70
   2  -1  14  121.29    6.10
   2  -1  14  121.59    5.70
   2  -1  14  118.99    6.00
   2  -1  14  123.39    5.60
   2  -1  14  123.59    6.10
   2  -1  14  128.69    6.00
   2  -1  14  127.69    6.60
   2  -1  14  128.69    6.40
   3  -1  14  129.29    5.90
   3  -1  14  130.29    5.90
   3  -1  14  126.89    5.90
   3  -1  14  120.49    5.50
   3  -1  14  131.69    5.60
   3  -1  14  128.59    5.50
   3  -1  14  130.29    5.40
   4  -1  14   72.19    3.50
   4  -1  14   80.19    4.00
   4  -1  14   69.39    3.20
   4  -1  14   71.79    3.40
   4  -1  14   69.99    3.40
   4  -1  14   74.19    3.80
   4  -1  14   73.79    3.80
   5  -1  14  173.78    5.00
   5  -1  14  166.08    4.90
   5  -1  14  170.88    5.30
   5  -1  14  168.28    5.20
   5  -1  14  174.48    5.20
   7   0 -14   24.60    2.40
   7   0 -14   23.70    2.10
  -7   0  14   27.70    2.70
  -7   0  14   25.40    2.90
   6   0 -14  337.87   10.00
   6   0 -14  316.87   10.10
  -6   0  14  327.07   11.30
  -6   0  14  312.97   11.50
   5   0 -14   12.50    2.00
   5   0 -14    8.70    1.80
   5   0 -14   10.60    2.00
  -5   0  14   16.00    3.00
  -5   0  14    9.10    2.50
  -5   0  14    9.80    2.30
   4   0 -14   40.10    3.60
   4   0 -14   43.30    3.90
  -4   0  14   42.90    5.10
  -4   0  14   41.60    4.80
  -4   0  14   41.10    3.60
  -4   0  14   41.10    5.00
  -4   0  14   47.90    4.30
  -3   0  14   60.49    6.20
  -3   0  14   78.99    4.40
  -3   0  14   70.29    4.40
  -3   0  14   60.39    5.90
  -3   0  14   74.59    6.30
  -3   0  14   64.99    5.80
  -3   0  14   70.89    6.30
  -3   0  14   61.09    4.80
  -3   0  14   73.89    4.40
  -2   0  14   10.20    2.10
  -2   0  14    7.30    1.80
  -2   0  14    7.70    1.80
  -2   0  14   10.40    2.10
  -2   0  14   10.20    2.60
  -2   0  14    8.00    1.90
  -2   0  14   10.80    2.60
  -2   0  14    9.80    2.50
  -2   0  14    7.50    2.30
  -2   0  14    9.10    1.70
  -2   0  14   11.00    2.70
  -1   0  14  960.60   26.80
  -1   0  14  984.60   24.80
  -1   0  14 1026.50   25.50
  -1   0  14  964.30   25.60
  -1   0  14  963.30   26.70
  -1   0  14 1012.80   27.90
  -1   0  14  938.91   24.60
  -1   0  14 1024.80   25.30
  -1   0  14 1034.50   27.10
   0   0  14  849.32   23.50
   0   0  14  856.31   22.60
   0   0  14  878.41   22.60
   0   0  14  816.02   21.50
   0   0  14  861.41   24.20
   0   0  14  870.41   23.40
   0   0  14  810.12   22.00
   0   0  14  855.61   23.60
   0   0  14  828.62   23.40
   1   0  14  125.89    6.50
   1   0  14  124.59    6.40
   1   0  14  115.09    5.70
   1   0  14  126.89    6.70
   1   0  14  124.89    6.10
   1   0  14  117.99    5.60
   1   0  14  120.59    6.70
   1   0  14  127.99    6.50
   2   0  14   64.79    4.30
   2   0  14   57.59    3.80
   2   0  14   66.09    4.30
   2   0  14   61.09    4.80
   2   0  14   62.09    5.00
   2   0  14   61.09    4.70
   2   0  14   61.99    3.80
   3   0  14   23.20    2.70
   3   0  14   23.50    2.50
   3   0  14   21.20    2.40
   3   0  14   23.90    2.80
   3   0  14   20.60    2.40
   3   0  14   18.50    2.20
   3   0  14   25.10    2.70
   4   0  14  196.28    6.30
   4   0  14  195.18    6.10
   4   0  14  196.48    6.10
   4   0  14  200.28    6.40
   4   0  14  187.58    6.00
   4   0  14  200.48    6.50
   7  -1 -14   72.49    3.30
   7  -1 -14   73.99    3.70
  -7   1  14   71.59    4.30
  -7   1  14   78.69    4.30
   6  -1 -14   42.00    3.60
   6  -1 -14   44.00    3.50
  -6   1  14   40.80    4.30
  -6   1  14   53.09    4.90
  -6   1  14   42.50    4.10
   5  -1 -14  175.38    6.60
   5  -1 -14  153.68    6.40
  -5   1  14  169.28    8.20
  -5   1  14  141.89    7.50
  -5   1  14  159.38    6.60
  -5   1  14  150.48    8.00
   4  -1 -14  217.98    7.80
  -4   1  14  197.88    9.10
  -4   1  14  205.68    9.80
  -4   1  14  208.88    8.10
  -4   1  14  207.58    7.60
  -4   1  14  186.48    9.20
  -4   1  14  216.88    7.70
  -4   1  14  202.88    9.40
  -3   1  14    1.20    1.00
  -3   1  14    0.50    1.10
  -3   1  14    1.00    1.00
  -3   1  14    0.70    1.50
  -3   1  14    1.80    1.20
  -3   1  14    1.80    1.80
  -3   1  14    0.40    1.40
  -3   1  14    2.40    1.10
  -3   1  14    1.40    1.70
  -3   1  14    1.30    0.90
  -2   1  14   96.49    7.40
  -2   1  14   91.79    6.10
  -2   1  14  101.79    6.60
  -2   1  14   89.59    5.00
  -2   1  14   97.79    5.50
  -2   1  14   99.59    5.20
  -2   1  14   93.09    5.60
  -2   1  14   98.29    5.30
  -2   1  14   90.79    4.30
  -2   1  14   99.69    7.70
  -1   1  14  696.83   20.70
  -1   1  14  723.03   21.20
  -1   1  14  740.73   20.20
  -1   1  14  704.93   19.40
  -1   1  14  692.63   18.80
  -1   1  14  696.53   19.00
  -1   1  14  708.43   21.20
  -1   1  14  708.23   20.90
  -1   1  14  706.53   19.60
   0   1  14   18.90    3.30
   0   1  14   14.90    2.80
   0   1  14   16.80    2.80
   0   1  14   18.40    3.20
   0   1  14   17.80    2.80
   0   1  14   20.80    3.30
   0   1  14   20.40    2.80
   0   1  14   18.60    2.60
   1   1  14   46.00    4.50
   1   1  14   45.80    4.20
   1   1  14   52.29    4.60
   1   1  14   42.80    4.30
   1   1  14   53.49    4.70
   1   1  14   43.70    3.80
   1   1  14   43.70    4.00
   2   1  14    4.20    1.40
   2   1  14    3.30    1.30
   2   1  14    2.60    1.20
   2   1  14    4.20    1.40
   2   1  14    4.60    1.40
   2   1  14    3.50    1.20
   2   1  14   -0.10    0.70
   3   1  14  333.77    9.90
   3   1  14  349.77    9.90
   3   1  14  341.57    9.90
   3   1  14  345.97   10.10
   3   1  14  343.17    9.70
   4   1  14   21.70    1.70
   4   1  14   18.20    1.70
   4   1  14   15.80    1.60
   4   1  14   21.80    1.70
   7  -2 -14  117.69    4.90
   7  -2 -14  129.69    5.00
   7  -2 -14  120.19    4.50
  -7   2  14  122.29    5.40
  -7   2  14  120.29    5.60
  -7   2  14  121.69    5.50
   6  -2 -14    6.50    1.40
   6  -2 -14    7.40    1.50
  -6   2  14    8.90    2.30
  -6   2  14    6.00    1.90
  -6   2  14    9.50    2.30
   5  -2 -14  112.69    5.30
  -5   2  14  127.19    7.00
  -5   2  14  118.39    5.10
  -5   2  14  127.59    6.80
  -5   2  14  117.99    5.50
  -5   2  14  122.49    6.90
  -5   2  14  113.49    6.80
   4  -2 -14  204.88    7.30
  -4   2  14  203.28    9.50
  -4   2  14  181.88    7.30
  -4   2  14  190.18    7.00
  -4   2  14  194.88    9.20
  -4   2  14  190.48    9.20
  -4   2  14  200.08    7.70
  -4   2  14  205.98    7.80
  -4   2  14  201.58    9.40
  -4   2  14  202.88    7.50
  -4   2  14  200.78    8.20
  -3   2  14   13.80    2.50
  -3   2  14    7.70    1.50
  -3   2  14    7.30    1.70
  -3   2  14    8.50    2.50
  -3   2  14    2.90    1.80
  -3   2  14    7.40    1.80
  -3   2  14    6.50    2.30
  -3   2  14    8.70    2.50
  -3   2  14    7.40    1.80
  -3   2  14    5.70    1.90
  -2   2  14  105.19    5.70
  -2   2  14  115.49    6.40
  -2   2  14  108.79    6.50
  -2   2  14  105.59    6.70
  -2   2  14   95.59    6.30
  -2   2  14  111.99    4.80
  -2   2  14   99.89    5.30
  -2   2  14  112.49    6.70
  -2   2  14  105.89    5.80
  -2   2  14  113.29    5.60
  -1   2  14  443.86   13.40
  -1   2  14  458.35   15.40
  -1   2  14  425.96   13.10
  -1   2  14  464.05   14.20
  -1   2  14  453.65   15.00
  -1   2  14  455.55   13.90
  -1   2  14  450.35   14.70
  -1   2  14  448.26   14.30
   0   2  14   90.89    4.80
   0   2  14   92.69    5.00
   0   2  14   95.79    5.50
   0   2  14  102.79    5.60
   0   2  14   97.69    5.30
   0   2  14  101.49    6.00
   0   2  14   98.29    5.80
   1   2  14  105.09    5.20
   1   2  14   94.69    5.20
   1   2  14   99.99    5.10
   1   2  14  102.19    5.00
   1   2  14  103.29    5.60
   2   2  14   59.39    3.60
   2   2  14   53.49    3.20
   2   2  14   57.89    3.40
   3   2  14   -0.40    0.50
   3   2  14    0.60    0.50
   3   2  14   -0.50    0.50
   7  -3 -14  235.88    7.20
   7  -3 -14  229.78    7.20
   7  -3 -14  219.98    6.70
  -7   3  14  213.48    7.90
  -7   3  14  238.98    8.20
   6  -3 -14  137.39    5.40
   6  -3 -14  151.48    5.80
  -6   3  14  143.49    7.00
  -6   3  14  132.99    6.40
  -6   3  14  144.59    6.80
  -6   3  14  130.99    5.30
   5  -3 -14   69.39    3.90
  -5   3  14   81.99    4.00
  -5   3  14   63.49    5.70
  -5   3  14   82.49    6.30
  -5   3  14   71.29    4.40
  -5   3  14   79.49    4.00
  -5   3  14   78.39    6.50
  -4   3  14  139.49    6.10
  -4   3  14  145.59    7.80
  -4   3  14  139.29    7.70
  -4   3  14  145.99    6.30
  -4   3  14  125.79    6.60
  -4   3  14  138.99    7.30
  -4   3  14  148.89    6.50
  -4   3  14  135.09    6.10
  -4   3  14  138.49    5.60
  -3   3  14  519.25   14.90
  -3   3  14  517.35   16.00
  -3   3  14  500.85   16.30
  -3   3  14  525.45   14.90
  -3   3  14  523.55   15.20
  -3   3  14  512.15   17.00
  -3   3  14  525.15   17.20
  -3   3  14  501.55   13.80
  -3   3  14  498.95   15.30
  -2   3  14   35.40    4.40
  -2   3  14   35.60    4.50
  -2   3  14   34.20    3.00
  -2   3  14   32.20    3.40
  -2   3  14   33.10    3.70
  -2   3  14   37.70    4.30
  -2   3  14   34.70    3.80
  -2   3  14   39.50    3.80
  -2   3  14   38.50    4.40
  -1   3  14  205.48    7.80
  -1   3  14  214.48    8.70
  -1   3  14  196.28    9.00
  -1   3  14  206.38    8.40
  -1   3  14  211.18    8.30
  -1   3  14  196.58    7.60
  -1   3  14  208.38    8.60
  -1   3  14  210.88    8.90
   0   3  14  100.49    5.20
   0   3  14  107.19    5.80
   0   3  14  106.29    5.20
   0   3  14   99.69    5.30
   0   3  14  104.19    5.60
   0   3  14   79.29    4.40
   1   3  14   68.59    3.80
   1   3  14   38.90    3.60
   1   3  14   66.69    4.10
   7  -4 -14  145.29    5.10
   7  -4 -14  142.09    4.70
   7  -4 -14  150.08    5.20
  -7   4  14  143.49    5.50
  -7   4  14  149.99    6.10
  -7   4  14  142.19    5.70
   6  -4 -14   77.29    3.80
   6  -4 -14   89.39    4.10
  -6   4  14   82.59    4.80
  -6   4  14   84.49    5.10
  -6   4  14   83.19    3.80
  -6   4  14   86.29    5.10
   5  -4 -14  576.14   15.10
  -5   4  14  590.64   16.80
  -5   4  14  583.64   14.80
  -5   4  14  585.54   17.60
  -5   4  14  593.14   15.40
  -5   4  14  548.85   16.10
  -5   4  14  550.14   14.80
  -5   4  14  584.64   17.60
  -5   4  14  563.14   15.30
  -5   4  14  558.04   14.90
  -4   4  14  677.03   19.40
  -4   4  14  705.03   20.40
  -4   4  14  681.73   17.20
  -4   4  14  699.33   17.30
  -4   4  14  649.83   18.40
  -4   4  14  727.63   18.40
  -4   4  14  665.73   17.80
  -4   4  14  659.93   18.10
  -4   4  14  668.43   19.20
  -4   4  14  690.33   20.60
  -3   4  14  294.17   10.20
  -3   4  14  294.67   11.00
  -3   4  14  314.17   12.10
  -3   4  14  298.87    9.00
  -3   4  14  303.87   10.10
  -3   4  14  318.97   11.80
  -3   4  14  292.37   10.60
  -3   4  14  303.67   10.00
  -2   4  14  469.85   12.70
  -2   4  14  489.55   15.90
  -2   4  14  476.65   13.90
  -2   4  14  484.45   15.40
  -2   4  14  498.85   14.80
  -2   4  14  483.75   15.10
  -2   4  14  485.05   14.40
  -2   4  14  467.55   13.90
  -1   4  14  252.37    9.10
  -1   4  14  240.08    8.80
  -1   4  14  243.08    9.10
  -1   4  14  248.38    9.70
  -1   4  14  239.98    8.30
  -1   4  14  245.68    8.50
  -1   4  14  247.58    9.30
   0   4  14  314.87   10.00
   0   4  14  311.77   10.10
   0   4  14  315.37    9.80
   0   4  14  321.47   10.50
   7  -5 -14  455.05   11.90
   7  -5 -14  498.55   12.00
  -7   5  14  459.85   12.80
  -7   5  14  494.45   12.70
   6  -5 -14  257.67    7.90
   6  -5 -14  278.17    8.10
  -6   5  14  268.67    9.50
  -6   5  14  266.17    8.30
  -6   5  14  276.37    9.60
  -6   5  14  270.87    7.90
  -5   5  14  168.98    7.00
  -5   5  14  184.28    5.90
  -5   5  14  166.38    6.40
  -5   5  14  162.68    6.10
  -5   5  14  168.98    6.00
  -5   5  14  164.78    6.20
  -5   5  14  165.78    7.50
  -5   5  14  169.98    7.70
  -4   5  14   55.19    3.00
  -4   5  14   53.19    4.80
  -4   5  14   58.49    5.30
  -4   5  14   42.50    3.90
  -4   5  14   58.09    3.50
  -4   5  14   54.09    3.60
  -4   5  14   54.49    3.50
  -4   5  14   54.49    4.70
  -4   5  14   57.89    3.10
  -3   5  14  180.48    8.20
  -3   5  14  171.28    6.80
  -3   5  14  173.08    7.60
  -3   5  14  180.18    7.90
  -3   5  14  175.18    6.90
  -3   5  14  169.88    6.00
  -3   5  14  192.18    7.30
  -3   5  14  190.48    7.60
  -2   5  14   39.60    3.40
  -2   5  14   42.10    4.00
  -2   5  14   43.50    2.60
  -2   5  14   45.50    4.00
  -2   5  14   43.70    3.90
  -2   5  14   45.20    3.70
  -2   5  14   40.90    4.20
  -1   5  14  316.97   10.10
  -1   5  14  328.17   10.50
  -1   5  14  304.77    9.40
  -1   5  14  306.27    9.90
  -1   5  14  303.47    9.40
  -1   5  14  301.47    9.80
   0   5  14   -0.60    0.70
   0   5  14    0.00    0.70
   0   5  14    0.10    0.80
   6  -6 -14  234.38    6.90
   6  -6 -14  242.38    7.00
  -6   6  14  243.88    6.70
  -6   6  14  232.18    7.80
  -6   6  14  236.98    6.70
  -6   6  14  248.08    7.50
  -6   6  14  239.08    8.20
  -5   6  14  635.64   16.20
  -5   6  14  646.34   15.40
  -5   6  14  632.84   17.60
  -5   6  14  652.13   15.70
  -5   6  14  625.44   15.70
  -5   6  14  645.84   16.80
  -5   6  14  618.54   16.80
  -5   6  14  630.74   15.80
  -4   6  14  695.33   18.30
  -4   6  14  672.43   18.70
  -4   6  14  663.53   16.30
  -4   6  14  686.03   17.30
  -4   6  14  675.03   17.00
  -4   6  14  695.83   17.20
  -4   6  14  689.73   17.70
  -4   6  14  649.04   16.20
  -3   6  14    2.00    1.20
  -3   6  14    3.20    1.30
  -3   6  14    3.60    1.20
  -3   6  14    1.50    0.90
  -3   6  14    2.50    0.90
  -3   6  14    1.00    0.70
  -3   6  14    3.30    1.10
  -3   6  14    1.00    1.00
  -2   6  14   36.40    3.00
  -2   6  14   35.30    3.40
  -2   6  14   36.20    3.20
  -2   6  14   37.50    3.00
  -2   6  14   37.00    3.20
  -2   6  14   40.00    2.30
  -2   6  14   36.60    3.30
  -1   6  14  227.18    7.00
  -1   6  14  225.58    6.90
  -1   6  14  230.18    7.30
  -1   6  14  234.68    7.40
  -5   7  14  203.78    5.70
  -5   7  14  202.38    6.20
  -5   7  14  200.08    5.80
  -5   7  14  193.38    5.90
  -5   7  14  200.38    6.00
  -5   7  14  192.68    6.80
  -5   7  14  194.88    6.50
  -4   7  14  723.13   17.10
  -4   7  14  721.03   17.20
  -4   7  14  765.12   18.00
  -4   7  14  749.92   18.30
  -4   7  14  746.93   18.80
  -4   7  14  763.62   17.80
  -4   7  14  745.03   18.50
  -4   7  14  771.62   17.90
  -3   7  14    1.40    1.00
  -3   7  14    0.40    0.60
  -3   7  14    0.50    0.60
  -3   7  14    0.30    0.70
  -3   7  14    0.50    0.90
  -3   7  14    0.90    0.60
  -3   7  14    0.50    0.70
  -3   7  14    0.70    0.50
  -2   7  14  130.19    4.60
  -2   7  14  122.79    4.60
  -2   7  14  122.39    4.40
  -2   7  14  125.79    3.90
  -2   7  14  123.09    4.40
  -2   7  14  124.99    4.60
   1   8 -15  475.15   12.70
  -1  -8  15  469.45   11.90
   0   8 -15   45.10    2.60
   0   8 -15   50.29    2.90
   0  -8  15   47.20    2.80
   0  -8  15   49.80    3.00
  -1   8 -15   31.50    2.60
  -1   8 -15   28.80    2.50
   1  -8  15   33.30    2.80
   1  -8  15   26.40    2.40
  -2   8 -15   84.69    3.40
  -2   8 -15   87.49    3.70
   2  -8  15   83.79    3.70
   2  -8  15   82.29    3.70
   2   7 -15  110.59    4.80
  -2  -7  15   99.09    4.50
  -2  -7  15   97.79    4.40
  -2  -7  15   94.29    3.90
   1   7 -15   90.19    3.90
   1   7 -15  101.59    4.70
   1   7 -15   98.49    4.40
  -1  -7  15   96.09    4.70
  -1  -7  15  100.59    4.70
  -1  -7  15   87.69    4.20
   0   7 -15   29.50    2.70
   0   7 -15   30.00    2.90
   0  -7  15   35.10    3.10
   0  -7  15   30.40    3.20
   0  -7  15   33.00    3.20
  -1   7 -15   27.70    2.60
  -1   7 -15   27.10    2.30
  -1   7 -15   30.80    2.80
   1  -7  15   28.40    3.00
   1  -7  15   30.80    2.90
   1  -7  15   27.70    2.80
  -2   7 -15  195.28    6.50
  -2   7 -15  179.18    6.00
   2  -7  15  186.88    6.80
   2  -7  15  174.08    6.50
  -3   7 -15  176.78    5.80
  -3   7 -15  167.28    5.30
  -3   7 -15  176.28    5.70
   3  -7  15  185.28    6.20
   3  -7  15  175.38    6.20
   3   6 -15   50.19    2.80
   3   6 -15   48.90    3.20
   3   6 -15   47.40    2.70
  -3  -6  15   51.19    4.00
  -3  -6  15   52.79    3.30
   2   6 -15  431.16   12.60
   2   6 -15  421.06   11.70
  -2  -6  15  417.76   12.60
  -2  -6  15  403.06   12.90
   1   6 -15   46.70    4.10
   1   6 -15   50.79    3.30
   1   6 -15   48.90    3.00
  -1  -6  15   52.29    3.90
  -1  -6  15   46.00    4.30
  -1  -6  15   53.89    4.40
   0   6 -15  172.98    6.40
   0   6 -15  190.08    6.80
   0  -6  15  159.58    7.30
   0  -6  15  167.08    6.80
   0  -6  15  185.48    7.60
  -1   6 -15   90.59    4.50
  -1   6 -15  100.59    4.60
  -1   6 -15   97.69    4.20
   1  -6  15  105.19    5.40
   1  -6  15   94.39    4.80
   1  -6  15   88.09    5.00
  -2   6 -15  151.08    5.70
  -2   6 -15  145.09    5.50
   2  -6  15  137.59    5.00
   2  -6  15  166.68    6.60
   2  -6  15  149.59    6.10
   2  -6  15  136.59    6.00
  -3   6 -15   69.69    3.40
  -3   6 -15   67.59    3.30
   3  -6  15   69.89    3.50
   3  -6  15   71.39    3.90
   3  -6  15   70.89    3.90
   3  -6  15   68.89    3.10
  -4   6 -15  105.99    4.00
  -4   6 -15  111.99    4.00
   4  -6  15  111.59    4.40
   4  -6  15  112.29    4.20
   4  -6  15  115.89    3.80
   4  -6  15  116.29    4.40
   4   5 -15   21.90    2.40
   4   5 -15   22.20    2.30
  -4  -5  15   16.80    2.40
  -4  -5  15   17.60    2.10
   3   5 -15  255.27    8.80
   3   5 -15  239.98    7.80
   3   5 -15  245.58    8.00
  -3  -5  15  248.68    8.70
  -3  -5  15  218.38    8.60
  -3  -5  15  260.27    9.50
   2   5 -15  189.98    7.50
   2   5 -15  184.48    6.90
  -2  -5  15  179.68    7.70
  -2  -5  15  176.38    7.80
  -2  -5  15  204.18    8.60
   1   5 -15   55.49    3.50
   1   5 -15   50.19    3.10
   1   5 -15   49.10    4.30
  -1  -5  15   51.19    4.50
  -1  -5  15   57.19    5.00
  -1  -5  15   45.60    4.70
   0   5 -15  258.87    8.80
   0   5 -15  256.17    8.50
   0  -5  15  250.97    8.80
   0  -5  15  244.18    7.90
   0  -5  15  246.98    9.60
   0  -5  15  239.08    9.90
   0  -5  15  246.38    9.40
  -1   5 -15  229.58    7.90
  -1   5 -15  242.18    8.10
   1  -5  15  229.78    8.50
   1  -5  15  230.78    7.30
   1  -5  15  221.88    8.90
   1  -5  15  224.08    7.60
   1  -5  15  240.68    9.30
   1  -5  15  241.38    8.70
  -2   5 -15  320.37    9.70
   2  -5  15  312.37   10.20
   2  -5  15  303.77    9.90
   2  -5  15  310.77    9.20
   2  -5  15  318.17    9.20
   2  -5  15  332.17    9.60
   2  -5  15  313.77   10.70
   2  -5  15  325.97   10.80
  -3   5 -15   57.19    3.10
   3  -5  15   62.49    3.30
   3  -5  15   62.59    3.20
   3  -5  15   59.09    2.80
   3  -5  15   59.19    3.10
   3  -5  15   56.99    3.60
   3  -5  15   61.09    3.60
   3  -5  15   68.69    4.00
  -4   5 -15    7.40    1.20
   4  -5  15    6.40    1.10
   4  -5  15   10.60    1.50
   4  -5  15    4.70    1.20
   4  -5  15    5.20    1.00
   4  -5  15    5.90    1.00
   4  -5  15    4.90    1.10
   4  -5  15    7.70    1.10
   5   4 -15  106.29    4.20
   5   4 -15  102.99    4.20
  -5  -4  15  100.69    4.80
  -5  -4  15  101.19    4.60
  -5  -4  15   99.39    4.10
   4   4 -15  385.26   11.00
   4   4 -15  373.06   11.30
  -4  -4  15  367.76   12.10
  -4  -4  15  400.36   12.60
  -4  -4  15  367.76   11.20
   3   4 -15  392.36   11.70
   3   4 -15  387.36   11.50
   3   4 -15  411.96   12.50
  -3  -4  15  420.76   13.70
  -3  -4  15  388.86   13.40
  -3  -4  15  399.96   12.50
   2   4 -15  161.08    6.60
   2   4 -15  161.08    7.00
  -2  -4  15  183.28    8.50
  -2  -4  15  162.98    8.10
  -2  -4  15  173.68    7.50
   1   4 -15  693.53   18.20
   1   4 -15  674.13   18.60
  -1  -4  15  671.83   17.20
  -1  -4  15  695.03   19.40
  -1  -4  15  669.83   20.10
  -1  -4  15  674.43   17.90
  -1  -4  15  700.53   20.50
   0   4 -15   58.39    3.70
   0  -4  15   60.89    5.40
   0  -4  15   55.19    5.10
   0  -4  15   58.39    3.50
   0  -4  15   62.99    3.50
   0  -4  15   58.79    4.70
   0  -4  15   58.69    5.60
   0  -4  15   68.19    4.00
  -1   4 -15  269.87    8.90
   1  -4  15  256.87   10.00
   1  -4  15  280.47   10.70
   1  -4  15  273.77    9.00
   1  -4  15  276.87    9.00
   1  -4  15  275.67    8.80
   1  -4  15  269.37    9.10
   1  -4  15  287.97    9.30
   1  -4  15  279.37   10.30
   2  -4  15    3.20    1.10
   2  -4  15    3.40    1.50
   2  -4  15    3.20    1.00
   2  -4  15    4.70    1.20
   2  -4  15    4.40    1.50
   2  -4  15    4.70    1.30
   2  -4  15    3.80    1.20
   2  -4  15    3.70    1.30
   2  -4  15    3.90    1.60
  -3   4 -15   96.39    4.20
   3  -4  15  107.19    4.90
   3  -4  15  111.99    5.30
   3  -4  15  116.39    4.60
   3  -4  15  119.29    5.40
   3  -4  15  107.79    4.40
   3  -4  15  106.39    5.00
   3  -4  15  107.99    4.40
   3  -4  15  108.49    4.70
   3  -4  15  111.89    4.50
  -4   4 -15   85.19    3.40
   4  -4  15   85.59    3.50
   4  -4  15   92.99    3.50
   4  -4  15   91.39    4.20
   4  -4  15   91.79    3.60
   4  -4  15   84.49    3.90
   4  -4  15   82.59    3.90
   4  -4  15   92.49    3.80
   4  -4  15   85.49    3.70
   5   3 -15  155.78    5.60
   5   3 -15  141.29    5.50
   5   3 -15  130.29    5.30
  -5  -3  15  134.49    6.20
  -5  -3  15  148.79    6.60
   4   3 -15  180.58    6.80
   4   3 -15  181.78    7.10
  -4  -3  15  173.68    7.90
  -4  -3  15  181.58    8.30
   3   3 -15  432.16   12.90
   3   3 -15  412.86   11.80
   3   3 -15  416.66   12.00
  -3  -3  15  387.36   14.20
  -3  -3  15  404.76   14.00
  -3  -3  15  367.76   12.50
  -3  -3  15  402.26   12.80
   2   3 -15   13.20    2.30
  -2  -3  15   12.50    2.80
  -2  -3  15   17.50    2.40
  -2  -3  15   14.20    3.10
  -2  -3  15   12.90    2.40
  -2  -3  15   16.00    2.90
   1   3 -15  492.55   14.40
  -1  -3  15  478.95   14.80
  -1  -3  15  485.35   15.10
  -1  -3  15  490.55   16.50
  -1  -3  15  488.75   14.20
  -1  -3  15  478.05   13.90
  -1  -3  15  477.25   16.20
  -1  -3  15  498.45   13.80
   0  -3  15  334.47   12.60
   0  -3  15  333.57   10.80
   0  -3  15  341.07   11.50
   0  -3  15  344.67   12.10
   0  -3  15  355.36   11.10
   0  -3  15  347.47   11.30
   0  -3  15  355.26   13.00
   0  -3  15  355.16   11.30
   0  -3  15  352.46   10.80
  -1   3 -15  140.99    5.90
   1  -3  15  143.59    6.10
   1  -3  15  143.79    6.10
   1  -3  15  139.49    7.30
   1  -3  15  140.99    6.40
   1  -3  15  140.19    6.20
   1  -3  15  142.79    7.00
   1  -3  15  146.59    6.40
   1  -3  15  149.09    6.20
   1  -3  15  139.29    7.20
   2  -3  15  413.26   12.10
   2  -3  15  415.06   12.00
   2  -3  15  396.36   11.70
   2  -3  15  416.36   13.10
   2  -3  15  422.46   13.50
   2  -3  15  421.46   13.20
   2  -3  15  409.46   12.30
   2  -3  15  433.16   12.20
   2  -3  15  398.86   12.10
   3  -3  15   67.69    4.00
   3  -3  15   60.29    3.70
   3  -3  15   70.79    4.00
   3  -3  15   61.09    3.30
   3  -3  15   62.49    3.50
   3  -3  15   71.89    3.70
   3  -3  15   63.19    3.40
   3  -3  15   65.09    4.00
   3  -3  15   65.19    3.40
  -4   3 -15  134.19    4.50
   4  -3  15  134.79    4.70
   4  -3  15  145.09    5.10
   4  -3  15  140.69    5.00
   4  -3  15  144.29    4.80
   4  -3  15  145.79    4.90
   4  -3  15  141.89    5.30
   4  -3  15  139.09    5.40
   4  -3  15  138.89    5.20
   6   2 -15    7.80    1.30
   6   2 -15   17.70    1.60
   6   2 -15    7.50    1.30
  -6  -2  15    8.10    1.60
  -6  -2  15    5.70    1.50
   5   2 -15  203.28    7.30
   5   2 -15  210.58    7.20
   5   2 -15  209.08    7.30
  -5  -2  15  206.18    8.30
  -5  -2  15  192.58    7.50
  -5  -2  15  211.88    8.80
   4   2 -15  152.08    6.20
   4   2 -15  147.89    6.50
   4   2 -15  150.98    5.80
  -4  -2  15  147.39    7.00
  -4  -2  15  159.98    8.10
  -4  -2  15  146.29    7.30
   3   2 -15  581.14   16.70
   3   2 -15  578.64   15.80
  -3  -2  15  583.14   18.00
  -3  -2  15  603.84   19.00
  -3  -2  15  573.14   15.20
  -3  -2  15  569.34   15.80
  -3  -2  15  565.64   17.40
   2   2 -15  318.87   11.20
  -2  -2  15  331.97   13.10
  -2  -2  15  336.57   10.70
  -2  -2  15  349.57   11.70
  -2  -2  15  338.27   12.80
  -2  -2  15  344.77   12.30
  -2  -2  15  342.17   10.90
  -2  -2  15  352.76   10.50
   1   2 -15  114.49    5.70
  -1  -2  15  111.49    5.50
  -1  -2  15  113.89    6.00
  -1  -2  15  121.09    5.70
  -1  -2  15  111.09    6.10
  -1  -2  15  112.59    6.50
  -1  -2  15  118.49    5.60
  -1  -2  15  128.19    5.70
  -1  -2  15  118.49    7.00
  -1  -2  15  119.09    7.20
   0  -2  15 3156.18   70.39
   0  -2  15 3236.28   70.79
   0  -2  15 3058.79   69.49
   0  -2  15 3245.88   72.39
   0  -2  15 3093.69   69.09
   0  -2  15 3055.29   70.59
   0  -2  15 3228.98   70.59
   0  -2  15 3298.57   69.89
   0  -2  15 3171.58   69.59
   0  -2  15 3195.28   72.19
   1  -2  15  366.86   12.10
   1  -2  15  375.06   13.00
   1  -2  15  366.36   11.40
   1  -2  15  366.96   11.50
   1  -2  15  382.86   11.60
   1  -2  15  373.86   13.00
   1  -2  15  375.66   12.40
   1  -2  15  371.86   12.10
   1  -2  15  354.56   11.80
   2  -2  15   10.10    2.00
   2  -2  15    7.90    1.80
   2  -2  15    5.60    1.50
   2  -2  15    6.50    1.70
   2  -2  15    6.50    1.80
   2  -2  15    9.00    1.70
   2  -2  15    6.50    1.80
   2  -2  15    8.50    1.70
   2  -2  15    7.60    1.70
   3  -2  15  432.36   11.80
   3  -2  15  401.86   11.40
   3  -2  15  431.36   12.30
   3  -2  15  410.36   12.30
   3  -2  15  424.66   11.60
   3  -2  15  402.36   11.10
   3  -2  15  413.66   12.30
   3  -2  15  414.36   11.90
   4  -2  15   99.79    4.10
   4  -2  15   94.29    3.80
   4  -2  15   99.49    3.80
   4  -2  15   92.89    3.60
   4  -2  15  101.89    4.20
   4  -2  15  100.89    4.00
   4  -2  15   95.79    3.90
   4  -2  15   97.69    4.20
   6   1 -15  235.78    7.30
   6   1 -15  262.57    7.70
   6   1 -15  248.98    7.80
  -6  -1  15  233.38    8.10
  -6  -1  15  241.28    8.10
  -6  -1  15  257.67    9.10
   5   1 -15    8.60    1.70
   5   1 -15    7.90    1.60
   5   1 -15    8.10    1.80
  -5  -1  15    6.00    1.80
  -5  -1  15    7.80    2.00
  -5  -1  15    9.30    2.10
   4   1 -15  130.59    5.70
   4   1 -15  134.29    6.10
  -4  -1  15  140.19    5.60
  -4  -1  15  124.29    6.80
  -4  -1  15  129.59    7.40
  -4  -1  15  127.29    6.80
   3   1 -15  173.18    6.70
  -3  -1  15  173.88    6.70
  -3  -1  15  156.58    7.90
  -3  -1  15  164.28    8.70
  -3  -1  15  167.48    7.90
  -3  -1  15  176.88    8.30
  -3  -1  15  162.68    6.70
   2   1 -15  459.15   13.20
  -2  -1  15  456.35   16.10
  -2  -1  15  452.55   13.50
  -2  -1  15  462.55   13.40
  -2  -1  15  456.05   15.40
  -2  -1  15  476.05   15.00
  -2  -1  15  433.36   13.40
  -2  -1  15  454.05   13.50
  -2  -1  15  437.66   13.60
  -2  -1  15  462.85   14.60
  -2  -1  15  463.15   15.20
  -1  -1  15  230.58    8.60
  -1  -1  15  240.58   10.30
  -1  -1  15  252.77    9.80
  -1  -1  15  247.48    8.80
  -1  -1  15  242.48    9.90
  -1  -1  15  246.28    8.90
  -1  -1  15  262.67   11.10
  -1  -1  15  240.58    9.00
  -1  -1  15  234.68    9.90
  -1  -1  15  246.98    8.90
   0  -1  15  181.78    7.40
   0  -1  15  181.38    7.30
   0  -1  15  187.98    8.60
   0  -1  15  176.78    8.00
   0  -1  15  159.58    7.70
   0  -1  15  168.68    6.90
   0  -1  15  180.68    7.30
   0  -1  15  173.38    8.50
   0  -1  15  162.98    7.70
   1  -1  15  785.12   21.80
   1  -1  15  765.42   20.90
   1  -1  15  799.92   20.50
   1  -1  15  785.32   21.80
   1  -1  15  783.02   20.90
   1  -1  15  746.03   19.90
   1  -1  15  785.62   20.30
   1  -1  15  754.32   20.90
   2  -1  15   44.10    3.60
   2  -1  15   55.09    4.40
   2  -1  15   54.99    4.20
   2  -1  15   52.09    3.30
   2  -1  15   55.19    4.30
   2  -1  15   51.59    4.10
   2  -1  15   46.40    4.20
   2  -1  15   44.60    4.10
   3  -1  15  303.47    9.60
   3  -1  15  324.47    9.20
   3  -1  15  305.97    9.40
   3  -1  15  315.67    9.60
   3  -1  15  303.17    9.20
   3  -1  15  300.77    9.00
   3  -1  15  307.47    9.70
   4  -1  15   23.10    1.70
   4  -1  15   25.00    2.00
   4  -1  15   26.30    2.20
   4  -1  15   21.80    2.00
   4  -1  15   22.30    2.00
   4  -1  15   21.90    1.80
   4  -1  15   24.30    1.90
   6   0 -15  102.99    4.60
   6   0 -15  109.89    4.50
   6   0 -15  109.59    4.30
  -6   0  15  112.79    5.50
  -6   0  15  100.49    5.50
   5   0 -15    6.20    1.40
   5   0 -15    5.80    1.70
   5   0 -15    7.40    1.60
  -5   0  15    6.20    1.80
  -5   0  15    6.80    2.20
  -5   0  15    0.60    1.20
  -5   0  15   11.10    2.40
   4   0 -15  263.07    9.00
  -4   0  15  274.27   10.60
  -4   0  15  282.97   10.90
  -4   0  15  270.37    9.30
  -4   0  15  274.27    9.00
  -4   0  15  283.57   11.50
   3   0 -15  113.79    5.20
  -3   0  15  113.69    5.60
  -3   0  15  120.39    6.50
  -3   0  15  108.89    5.50
  -3   0  15  109.29    6.90
  -3   0  15  112.39    6.50
  -3   0  15  115.59    5.30
  -3   0  15  115.19    5.40
  -3   0  15  113.89    6.70
  -3   0  15  111.69    5.30
   2   0 -15  253.87    8.60
  -2   0  15  287.57   11.80
  -2   0  15  263.67    9.50
  -2   0  15  267.07    9.70
  -2   0  15  269.77    9.50
  -2   0  15  282.57    9.60
  -2   0  15  280.27   10.80
  -2   0  15  273.17    9.60
  -2   0  15  276.27   11.00
  -2   0  15  256.07   10.50
  -2   0  15  266.47   10.90
  -1   0  15 2460.15   56.19
  -1   0  15 2591.34   57.99
  -1   0  15 2459.75   56.39
  -1   0  15 2556.24   56.09
  -1   0  15 2489.55   57.69
  -1   0  15 2460.85   55.59
  -1   0  15 2505.45   57.49
  -1   0  15 2476.75   58.59
  -1   0  15 2470.65   55.79
  -1   0  15 2493.95   57.69
   0   0  15  106.69    5.90
   0   0  15  101.79    5.40
   0   0  15   96.79    5.80
   0   0  15   92.69    6.00
   0   0  15   91.29    5.60
   0   0  15  109.39    6.00
   0   0  15   95.69    5.20
   0   0  15   97.69    5.10
   0   0  15   87.89    4.70
   1   0  15   56.99    4.70
   1   0  15   70.59    4.50
   1   0  15   60.49    5.00
   1   0  15   61.49    3.80
   1   0  15   62.29    3.90
   1   0  15   67.29    4.20
   1   0  15   69.09    5.60
   1   0  15   63.89    5.20
   2   0  15  215.58    7.80
   2   0  15  215.28    7.70
   2   0  15  210.58    7.90
   2   0  15  221.28    8.00
   2   0  15  203.98    7.30
   2   0  15  208.78    7.80
   2   0  15  207.28    7.20
   3   0  15  185.28    6.10
   3   0  15  184.18    5.90
   3   0  15  174.28    6.20
   3   0  15  187.88    6.30
   3   0  15  175.48    6.40
   3   0  15  185.98    6.40
   4   0  15  250.17    6.70
   4   0  15  242.58    6.50
   4   0  15  239.28    6.40
   4   0  15  232.18    6.70
   7  -1 -15  148.29    4.90
   7  -1 -15  126.29    4.40
  -7   1  15  135.49    5.30
  -7   1  15  146.19    5.40
   6  -1 -15   19.50    2.20
   6  -1 -15   17.70    2.10
   6  -1 -15   24.20    2.20
  -6   1  15   24.20    3.10
  -6   1  15   18.60    2.80
  -6   1  15   16.70    2.40
   5  -1 -15    1.40    1.00
   5  -1 -15    1.50    0.90
  -5   1  15    1.90    1.40
  -5   1  15    2.20    1.00
  -5   1  15    1.80    1.50
  -5   1  15    2.00    1.70
   4  -1 -15  320.57    9.90
   4  -1 -15  316.77   10.00
  -4   1  15  324.87   10.50
  -4   1  15  323.27    9.80
  -4   1  15  326.27   12.40
  -4   1  15  309.97   11.90
  -4   1  15  304.17    9.90
  -4   1  15  344.87   12.20
  -4   1  15  317.37   11.50
  -3   1  15  200.08    9.10
  -3   1  15  214.98    9.50
  -3   1  15  214.38    9.50
  -3   1  15  200.68    8.20
  -3   1  15  209.18    9.70
  -3   1  15  219.38    8.10
  -3   1  15  220.78    8.10
  -3   1  15  222.78    8.10
  -3   1  15  219.68    8.20
  -2   1  15    6.20    2.20
  -2   1  15    5.60    1.70
  -2   1  15    3.50    1.50
  -2   1  15    7.60    1.80
  -2   1  15    2.90    1.50
  -2   1  15   -0.20    0.60
  -2   1  15    2.70    1.20
  -2   1  15    2.10    1.60
  -2   1  15    6.40    2.20
  -2   1  15    7.80    2.40
  -1   1  15    8.80    2.30
  -1   1  15   11.80    2.20
  -1   1  15   12.10    2.50
  -1   1  15    8.20    1.80
  -1   1  15    6.50    1.70
  -1   1  15    8.50    2.20
  -1   1  15    6.70    2.00
  -1   1  15   12.80    2.30
  -1   1  15    7.50    1.90
   0   1  15  227.18    8.90
   0   1  15  225.28    8.60
   0   1  15  217.98    9.10
   0   1  15  218.38    8.20
   0   1  15  229.38    8.50
   0   1  15  207.28    7.70
   0   1  15  209.88    8.90
   0   1  15  214.18    9.00
   1   1  15    5.90    1.70
   1   1  15    5.70    1.60
   1   1  15    7.70    1.80
   1   1  15    6.80    1.60
   1   1  15    8.10    1.70
   1   1  15    7.40    1.70
   1   1  15    6.80    1.70
   2   1  15   88.49    4.40
   2   1  15   83.09    4.00
   2   1  15   84.59    4.30
   2   1  15   80.19    3.90
   2   1  15   83.59    4.20
   3   1  15   19.10    1.80
   3   1  15   15.30    1.70
   3   1  15   16.90    1.70
   3   1  15   16.80    1.70
   7  -2 -15  106.79    3.90
   7  -2 -15  122.39    4.40
  -7   2  15  117.19    4.80
   6  -2 -15  167.08    5.70
   6  -2 -15  156.28    5.60
   6  -2 -15  159.28    5.90
  -6   2  15  154.78    6.80
  -6   2  15  160.28    6.80
  -6   2  15  151.38    6.70
   5  -2 -15   19.80    2.30
   5  -2 -15   16.40    2.20
  -5   2  15   17.10    2.10
  -5   2  15   18.40    3.00
  -5   2  15   16.90    2.30
  -5   2  15   14.30    2.70
  -5   2  15   21.10    2.90
  -5   2  15   23.00    3.30
   4  -2 -15  166.78    6.30
  -4   2  15  166.58    6.50
  -4   2  15  160.38    6.30
  -4   2  15  173.68    8.30
  -4   2  15  161.68    7.90
  -4   2  15  164.68    6.50
  -4   2  15  172.48    6.80
  -4   2  15  158.38    7.80
  -4   2  15  163.18    6.10
  -4   2  15  171.88    7.00
  -4   2  15  161.08    7.80
  -3   2  15    9.40    2.20
  -3   2  15    3.60    1.80
  -3   2  15   12.40    2.10
  -3   2  15   11.80    2.70
  -3   2  15   10.40    2.00
  -3   2  15   12.00    2.60
  -3   2  15   14.70    2.90
  -3   2  15   11.10    2.00
  -3   2  15   12.70    1.80
  -3   2  15   12.20    2.30
  -2   2  15   72.69    6.10
  -2   2  15   70.19    6.10
  -2   2  15   68.69    4.50
  -2   2  15   74.29    5.70
  -2   2  15   70.59    4.40
  -2   2  15   77.99    6.40
  -2   2  15   75.29    4.40
  -2   2  15   68.09    4.20
  -1   2  15    2.60    1.30
  -1   2  15    3.00    1.50
  -1   2  15    3.40    1.30
  -1   2  15    2.20    1.30
  -1   2  15    3.80    1.50
  -1   2  15    3.10    1.30
  -1   2  15    2.10    1.60
  -1   2  15   -0.60    0.80
  -1   2  15    5.50    1.80
   0   2  15  118.59    5.70
   0   2  15  120.09    5.50
   0   2  15  113.09    5.10
   0   2  15  119.99    6.20
   0   2  15  116.09    5.80
   0   2  15  119.09    6.00
   0   2  15  123.99    5.90
   1   2  15   85.59    4.20
   1   2  15   88.89    4.40
   1   2  15   85.09    4.70
   1   2  15   88.89    4.40
   1   2  15   84.49    4.50
   2   2  15   53.09    3.10
   2   2  15   56.09    3.00
   2   2  15   57.29    2.90
   7  -3 -15  160.48    5.10
   7  -3 -15  153.98    4.80
  -7   3  15  149.69    5.60
  -7   3  15  157.18    5.60
   6  -3 -15    2.80    1.00
   6  -3 -15    1.20    0.80
  -6   3  15    2.00    1.30
  -6   3  15    2.40    1.30
  -6   3  15    1.50    1.10
   5  -3 -15  347.77   10.20
  -5   3  15  330.17   10.40
  -5   3  15  355.06   11.80
  -5   3  15  366.76   12.30
  -5   3  15  337.57   11.80
  -5   3  15  346.37    9.90
  -5   3  15  376.66   10.70
   4  -3 -15  126.19    5.20
  -4   3  15  119.19    5.50
  -4   3  15  126.89    6.60
  -4   3  15  120.99    6.00
  -4   3  15  133.49    7.00
  -4   3  15  127.79    5.50
  -4   3  15  139.99    5.80
  -4   3  15  135.19    5.20
  -4   3  15  127.09    6.90
  -4   3  15  130.99    5.60
  -3   3  15  436.66   12.10
  -3   3  15  448.16   14.80
  -3   3  15  454.45   13.20
  -3   3  15  456.65   14.50
  -3   3  15  435.46   13.50
  -3   3  15  472.75   14.20
  -3   3  15  450.75   15.00
  -3   3  15  449.76   13.10
  -3   3  15  452.55   13.30
  -2   3  15  279.37   10.90
  -2   3  15  269.77    9.20
  -2   3  15  274.07   10.50
  -2   3  15  272.57    9.70
  -2   3  15  267.97    9.30
  -2   3  15  273.27   10.10
  -2   3  15  280.57    9.60
  -2   3  15  269.07    9.90
  -1   3  15   34.10    3.70
  -1   3  15   35.50    3.60
  -1   3  15   33.50    3.90
  -1   3  15   33.10    3.20
  -1   3  15   34.90    3.50
  -1   3  15   36.50    3.30
  -1   3  15   31.60    3.70
  -1   3  15   32.60    3.40
   0   3  15  109.49    5.20
   0   3  15  112.29    5.40
   0   3  15  115.49    5.70
   0   3  15  104.39    4.90
   0   3  15  115.39    5.30
   1   3  15   79.09    4.00
   1   3  15   67.49    3.60
   1   3  15   79.79    3.80
   6  -4 -15    1.50    0.80
   6  -4 -15    0.10    0.60
  -6   4  15    0.70    0.70
  -6   4  15    0.20    1.00
  -6   4  15    0.20    1.00
  -6   4  15    2.50    1.20
   5  -4 -15  435.76   11.80
  -5   4  15  454.45   13.90
  -5   4  15  454.85   12.10
  -5   4  15  464.15   14.00
  -5   4  15  445.06   13.10
  -5   4  15  419.96   11.50
  -5   4  15  444.26   11.60
  -5   4  15  422.46   11.80
  -5   4  15  440.56   11.70
  -5   4  15  435.16   12.50
   4  -4 -15  111.89    4.70
  -4   4  15  126.09    6.50
  -4   4  15  121.09    4.80
  -4   4  15  126.79    5.40
  -4   4  15  125.79    6.40
  -4   4  15  125.79    5.30
  -4   4  15  114.69    5.30
  -4   4  15  116.19    5.80
  -4   4  15  124.29    5.20
  -4   4  15  113.19    5.70
  -3   4  15    1.60    1.00
  -3   4  15    0.70    0.90
  -3   4  15   -0.40    1.20
  -3   4  15    2.70    1.20
  -3   4  15   -0.10    1.20
  -3   4  15    2.20    0.90
  -3   4  15    1.90    1.10
  -3   4  15    0.40    1.10
  -3   4  15   -1.10    1.00
  -2   4  15  640.74   17.20
  -2   4  15  635.44   18.20
  -2   4  15  641.54   17.00
  -2   4  15  608.94   16.40
  -2   4  15  628.04   17.50
  -2   4  15  629.24   17.40
  -2   4  15  595.04   16.30
  -1   4  15  576.54   16.30
  -1   4  15  560.24   15.30
  -1   4  15  584.84   15.70
  -1   4  15  590.14   15.80
  -1   4  15  578.54   15.80
  -1   4  15  558.94   15.10
   0   4  15   74.79    4.00
   0   4  15   68.89    3.50
   0   4  15   71.19    3.60
   0   4  15   67.09    3.60
   6  -5 -15  267.87    7.40
   6  -5 -15  276.27    7.60
  -6   5  15  275.87    8.60
  -6   5  15  277.37    7.40
  -6   5  15  262.47    8.50
  -6   5  15  249.38    8.70
   5  -5 -15  140.19    5.00
  -5   5  15  140.89    6.20
  -5   5  15  137.69    6.00
  -5   5  15  137.49    5.10
  -5   5  15  142.49    4.90
  -5   5  15  139.59    5.60
  -5   5  15  147.49    5.20
  -5   5  15  132.59    4.80
  -5   5  15  136.79    4.80
  -4   5  15  332.67   10.90
  -4   5  15  343.07   10.00
  -4   5  15  338.27   11.30
  -4   5  15  333.67    9.30
  -4   5  15  340.47    9.90
  -4   5  15  341.37   10.20
  -4   5  15  342.57   10.00
  -4   5  15  348.27   10.80
  -3   5  15  566.44   15.00
  -3   5  15  568.94   14.50
  -3   5  15  567.34   14.80
  -3   5  15  556.24   15.20
  -3   5  15  533.25   14.40
  -3   5  15  535.55   15.20
  -3   5  15  513.05   13.40
  -3   5  15  539.15   15.90
  -2   5  15   14.00    2.00
  -2   5  15   12.10    2.00
  -2   5  15   11.20    2.10
  -2   5  15   12.30    1.90
  -2   5  15   15.60    1.90
  -2   5  15    9.80    1.60
  -1   5  15  124.99    5.00
  -1   5  15  130.69    5.30
  -1   5  15  133.79    5.30
  -1   5  15  128.19    5.10
  -1   5  15  129.59    4.90
   0   5  15    0.90    0.80
   5  -6 -15   23.20    1.80
  -5   6  15   22.30    1.80
  -5   6  15   26.50    2.10
  -5   6  15   22.30    1.80
  -5   6  15   26.30    2.10
  -5   6  15   21.60    1.80
  -5   6  15   19.80    2.10
  -5   6  15   20.20    2.10
  -5   6  15   23.20    2.50
  -4   6  15   29.50    3.00
  -4   6  15   29.60    2.60
  -4   6  15   26.90    2.40
  -4   6  15   26.40    2.30
  -4   6  15   30.20    2.40
  -4   6  15   24.90    1.90
  -4   6  15   27.80    2.60
  -4   6  15   27.40    2.30
  -3   6  15  113.29    4.60
  -3   6  15  107.89    4.30
  -3   6  15  103.29    4.50
  -3   6  15  112.89    5.00
  -3   6  15  116.99    4.50
  -3   6  15  113.59    4.80
  -3   6  15  112.49    3.90
  -2   6  15   64.79    2.60
  -2   6  15   71.19    3.40
  -2   6  15   68.29    3.30
  -2   6  15   70.79    3.10
  -2   6  15   70.69    3.40
  -2   6  15   70.59    3.40
  -2   6  15   69.39    3.30
  -1   6  15   51.39    2.50
  -1   6  15   55.89    3.00
   1   7 -16    7.40    1.30
   1   7 -16    6.30    1.20
  -1  -7  16    6.60    1.30
  -1  -7  16    6.80    1.40
  -1  -7  16    7.90    1.20
   0   7 -16   88.19    3.70
   0   7 -16   95.89    4.00
   0  -7  16   93.99    4.30
   0  -7  16   83.99    3.80
   0  -7  16   96.29    4.00
  -1   7 -16  416.16   11.00
  -1   7 -16  410.16   10.80
  -1   7 -16  400.96   10.20
   1  -7  16  409.66   11.40
   1  -7  16  423.86   11.40
   1  -7  16  388.46   10.90
  -2   7 -16    7.80    1.10
  -2   7 -16    9.00    1.30
   2  -7  16    5.00    1.00
   2  -7  16    5.40    1.10
   3   6 -16    5.80    1.20
  -3  -6  16    5.60    1.20
  -3  -6  16    2.10    0.90
   2   6 -16  211.78    7.20
   2   6 -16  204.28    6.60
  -2  -6  16  202.78    7.20
  -2  -6  16  217.88    7.60
   1   6 -16  134.49    5.00
   1   6 -16  141.89    5.60
   1   6 -16  142.19    5.40
  -1  -6  16  134.79    5.90
  -1  -6  16  145.69    6.20
   0   6 -16   21.50    2.30
   0   6 -16   19.60    2.30
   0  -6  16   18.40    2.50
   0  -6  16   22.20    2.30
   0  -6  16   18.30    2.50
  -1   6 -16  208.78    7.00
  -1   6 -16  221.48    7.00
  -1   6 -16  216.68    6.60
   1  -6  16  221.48    7.70
   1  -6  16  214.68    7.30
   1  -6  16  225.88    7.90
  -2   6 -16  161.38    5.40
  -2   6 -16  167.58    5.80
   2  -6  16  168.78    6.00
   2  -6  16  168.98    6.30
   2  -6  16  169.38    5.90
  -3   6 -16   11.40    1.40
  -3   6 -16   10.70    1.20
  -3   6 -16    9.60    1.30
   3  -6  16   10.50    1.50
   3  -6  16    8.40    1.30
   3  -6  16   10.40    1.30
   4   5 -16   27.10    2.40
  -4  -5  16   25.10    2.50
   3   5 -16  414.76   11.80
   3   5 -16  411.66   10.90
   3   5 -16  412.76   10.90
  -3  -5  16  438.16   12.60
  -3  -5  16  397.16   11.50
   2   5 -16    0.10    0.50
   2   5 -16    1.60    0.90
   2   5 -16    1.90    1.10
  -2  -5  16    1.70    1.30
  -2  -5  16    1.30    1.20
  -2  -5  16    0.70    1.00
   1   5 -16  118.89    4.90
   1   5 -16  132.39    5.30
   1   5 -16  110.09    5.30
  -1  -5  16  129.19    6.40
  -1  -5  16  120.79    5.70
  -1  -5  16  123.49    5.80
   0   5 -16  356.66   10.40
   0   5 -16  352.46   10.20
   0  -5  16  332.87    9.60
   0  -5  16  348.17   11.40
   0  -5  16  317.77   10.70
   0  -5  16  380.56   11.90
  -1   5 -16   12.80    1.80
  -1   5 -16   10.40    1.70
   1  -5  16   10.30    1.70
   1  -5  16   13.70    2.30
   1  -5  16    9.50    1.90
   1  -5  16   12.40    1.60
   1  -5  16   10.60    1.80
   1  -5  16   11.30    1.90
  -2   5 -16   74.59    3.60
   2  -5  16   77.19    4.10
   2  -5  16   77.59    3.40
   2  -5  16   74.09    3.60
   2  -5  16   77.09    4.20
   2  -5  16   59.19    4.10
   2  -5  16   68.29    3.80
  -3   5 -16    4.90    1.00
  -3   5 -16    3.00    0.80
   3  -5  16    3.00    1.00
   3  -5  16    3.70    0.90
   3  -5  16    3.20    0.90
   3  -5  16    4.90    1.00
   3  -5  16    4.50    1.10
   3  -5  16    4.40    1.10
   4   4 -16   50.99    2.90
   4   4 -16   48.50    3.00
  -4  -4  16   49.40    2.90
  -4  -4  16   50.59    4.00
  -4  -4  16   52.49    3.40
   3   4 -16  108.99    4.60
   3   4 -16  106.79    4.60
   3   4 -16  120.29    5.40
  -3  -4  16  124.19    5.30
  -3  -4  16  118.29    6.00
  -3  -4  16  107.79    5.80
   2   4 -16  681.33   17.10
   2   4 -16  702.33   18.50
   2   4 -16  689.43   17.80
  -2  -4  16  678.63   18.50
  -2  -4  16  732.13   20.00
  -2  -4  16  678.93   19.50
   1   4 -16   68.29    4.10
   1   4 -16   76.89    4.10
  -1  -4  16   72.79    4.90
  -1  -4  16   74.59    5.00
  -1  -4  16   71.29    3.60
  -1  -4  16   67.59    4.50
   0   4 -16   32.60    3.10
   0  -4  16   33.30    2.70
   0  -4  16   36.70    3.30
   0  -4  16   28.50    2.90
   0  -4  16   32.90    3.80
   0  -4  16   31.40    3.50
   0  -4  16   27.40    3.40
   0  -4  16   34.20    3.10
  -1   4 -16  485.45   13.00
   1  -4  16  476.95   12.70
   1  -4  16  472.15   12.80
   1  -4  16  460.15   14.10
   1  -4  16  514.25   13.20
   1  -4  16  448.36   12.80
   1  -4  16  503.55   14.80
   1  -4  16  484.65   14.20
  -2   4 -16    4.00    1.10
   2  -4  16    2.60    1.00
   2  -4  16    4.00    1.20
   2  -4  16    4.10    1.10
   2  -4  16    5.60    1.20
   2  -4  16    3.80    1.30
   2  -4  16    3.40    1.10
   2  -4  16    3.00    1.20
   2  -4  16    3.00    1.20
   2  -4  16    3.30    1.00
   3  -4  16  241.88    7.00
   3  -4  16  235.18    7.60
   3  -4  16  229.08    6.70
   3  -4  16  235.08    7.00
   3  -4  16  238.98    7.30
   3  -4  16  233.38    6.70
   3  -4  16  235.88    7.70
   3  -4  16  224.48    7.30
   4  -4  16  103.19    3.80
   4  -4  16  104.69    3.70
   5   3 -16  146.39    5.10
   5   3 -16  138.99    5.10
  -5  -3  16  148.39    5.90
  -5  -3  16  146.49    5.80
   4   3 -16  194.08    6.20
   4   3 -16  193.38    6.60
   4   3 -16  183.08    6.90
  -4  -3  16  190.48    8.00
  -4  -3  16  192.38    7.80
   3   3 -16   50.09    4.10
   3   3 -16   38.20    3.30
   3   3 -16   46.80    3.00
  -3  -3  16   44.80    4.50
  -3  -3  16   52.79    5.00
  -3  -3  16   46.80    4.10
   2   3 -16  548.55   15.40
   2   3 -16  547.65   14.90
  -2  -3  16  577.04   17.10
  -2  -3  16  539.25   17.10
  -2  -3  16  523.25   14.30
  -2  -3  16  529.15   15.40
  -2  -3  16  547.95   15.60
   1   3 -16  143.19    6.10
   1   3 -16  153.88    6.20
  -1  -3  16  148.69    7.50
  -1  -3  16  137.89    7.30
  -1  -3  16  147.09    6.70
  -1  -3  16  147.49    5.80
  -1  -3  16  143.39    6.00
  -1  -3  16  140.49    6.40
   0   3 -16  307.87    9.80
   0  -3  16  301.87   10.20
   0  -3  16  314.57    9.60
   0  -3  16  300.17   11.30
   0  -3  16  316.37    9.90
   0  -3  16  304.67   10.70
   0  -3  16  311.17    9.80
   0  -3  16  311.67    9.90
   0  -3  16  318.67   11.50
   0  -3  16  314.77    9.80
  -1   3 -16 1016.40   24.60
   1  -3  16 1018.20   25.10
   1  -3  16 1081.69   27.00
   1  -3  16 1057.49   26.30
   1  -3  16 1053.89   25.10
   1  -3  16  993.80   25.20
   1  -3  16 1066.89   25.10
   1  -3  16 1102.09   25.20
   1  -3  16 1014.00   25.20
   1  -3  16 1058.39   26.70
   2  -3  16    8.20    1.70
   2  -3  16   10.30    2.00
   2  -3  16    9.90    1.60
   2  -3  16    8.40    1.60
   2  -3  16    8.00    1.50
   2  -3  16    9.90    1.60
   2  -3  16    7.80    1.80
   2  -3  16    7.90    1.40
   3  -3  16   37.60    2.90
   3  -3  16   37.70    3.10
   3  -3  16   35.50    3.00
   3  -3  16   36.80    2.40
   3  -3  16   32.20    2.10
   3  -3  16   36.80    2.20
   3  -3  16   33.60    2.50
   3  -3  16   36.10    2.30
   4  -3  16  383.96    9.70
   4  -3  16  385.46    9.60
   4  -3  16  377.96    9.50
   4  -3  16  371.96    9.80
   4  -3  16  391.06    9.40
   4  -3  16  378.46    9.30
   4  -3  16  385.96    9.30
   5   2 -16  214.18    6.90
   5   2 -16  223.18    7.10
  -5  -2  16  198.58    7.50
  -5  -2  16  202.88    7.00
  -5  -2  16  218.68    8.30
   4   2 -16    0.00    0.60
   4   2 -16    3.60    1.30
   4   2 -16   -0.40    0.60
  -4  -2  16    0.20    1.20
  -4  -2  16   -0.10    0.90
  -4  -2  16    0.40    1.00
   3   2 -16  302.37    9.90
   3   2 -16  276.97    9.00
  -3  -2  16  293.97   11.00
  -3  -2  16  274.37   10.20
  -3  -2  16  288.77    8.70
  -3  -2  16  305.47   11.60
   2   2 -16 1210.48   30.10
  -2  -2  16 1222.98   31.10
  -2  -2  16 1255.97   32.60
  -2  -2  16 1264.97   29.00
  -2  -2  16 1299.27   30.50
  -2  -2  16 1211.68   31.80
  -2  -2  16 1220.88   29.40
  -2  -2  16 1284.87   29.80
   1   2 -16   20.00    2.70
  -1  -2  16   25.20    3.60
  -1  -2  16   19.30    2.90
  -1  -2  16   20.60    2.60
  -1  -2  16   25.20    2.90
  -1  -2  16   17.80    3.20
  -1  -2  16   19.30    2.50
  -1  -2  16   24.60    2.90
  -1  -2  16   17.60    2.70
  -1  -2  16   23.70    3.00
   0  -2  16  316.47   10.10
   0  -2  16  321.77   11.00
   0  -2  16  328.17   10.80
   0  -2  16  328.47   10.30
   0  -2  16  314.17   10.20
   0  -2  16  326.07   10.80
   0  -2  16  330.57   10.40
   0  -2  16  333.07   12.00
   0  -2  16  340.17   11.90
   1  -2  16   34.60    3.50
   1  -2  16   34.40    3.10
   1  -2  16   35.50    3.40
   1  -2  16   34.20    3.90
   1  -2  16   31.80    3.10
   1  -2  16   35.30    3.30
   1  -2  16   32.70    3.40
   1  -2  16   31.70    3.20
   1  -2  16   31.50    3.60
   2  -2  16  862.11   21.10
   2  -2  16  878.11   21.50
   2  -2  16  895.91   21.40
   2  -2  16  905.51   21.80
   2  -2  16  900.41   22.30
   2  -2  16  896.51   22.00
   2  -2  16  875.41   21.50
   2  -2  16  867.11   20.90
   2  -2  16  876.41   22.30
   3  -2  16  107.29    4.50
   3  -2  16  102.79    4.00
   3  -2  16   99.19    3.80
   3  -2  16   99.59    4.30
   3  -2  16  103.89    4.40
   3  -2  16   98.79    4.00
   3  -2  16   99.89    4.10
   3  -2  16   99.29    3.90
   6   1 -16  307.77    8.40
   5   1 -16   92.69    4.20
   5   1 -16   93.49    4.30
  -5  -1  16   89.29    4.70
  -5  -1  16  100.29    5.00
  -5  -1  16   97.19    5.40
   4   1 -16   80.29    4.30
   4   1 -16   80.69    4.10
  -4  -1  16   79.09    4.90
  -4  -1  16   85.09    5.50
  -4  -1  16   72.29    4.80
   3   1 -16  169.08    6.40
   3   1 -16  172.98    7.10
  -3  -1  16  160.28    7.20
  -3  -1  16  172.58    6.60
  -3  -1  16  160.08    8.20
  -3  -1  16  175.68    7.90
  -3  -1  16  177.08    7.90
  -3  -1  16  167.58    6.30
  -2  -1  16    0.70    1.00
  -2  -1  16    0.70    1.30
  -2  -1  16    1.70    1.30
  -2  -1  16    0.40    1.10
  -2  -1  16    2.00    1.50
  -2  -1  16    2.10    1.30
  -2  -1  16    2.00    1.10
  -2  -1  16    1.30    0.90
  -2  -1  16    0.90    0.90
  -1  -1  16  594.64   16.00
  -1  -1  16  550.94   15.70
  -1  -1  16  580.44   17.00
  -1  -1  16  600.14   18.10
  -1  -1  16  574.74   15.90
  -1  -1  16  538.05   16.60
  -1  -1  16  574.44   16.60
  -1  -1  16  561.34   15.70
  -1  -1  16  577.94   17.40
   0  -1  16  780.82   20.80
   0  -1  16  803.92   20.20
   0  -1  16  770.72   20.90
   0  -1  16  759.12   20.10
   0  -1  16  808.52   22.00
   0  -1  16  784.32   20.10
   0  -1  16  763.42   20.90
   0  -1  16  770.12   21.30
   0  -1  16  746.93   19.50
   1  -1  16   30.40    3.30
   1  -1  16   26.00    3.10
   1  -1  16   27.20    2.90
   1  -1  16   23.90    2.70
   1  -1  16   26.20    3.20
   1  -1  16   26.10    3.00
   1  -1  16   30.60    2.90
   1  -1  16   28.70    3.10
   2  -1  16   58.89    3.40
   2  -1  16   56.29    3.40
   2  -1  16   53.39    3.20
   2  -1  16   52.59    3.50
   2  -1  16   52.89    3.10
   2  -1  16   52.19    3.00
   2  -1  16   49.40    3.40
   3  -1  16  147.89    5.00
   3  -1  16  154.78    5.30
   3  -1  16  156.18    5.40
   3  -1  16  152.58    5.20
   3  -1  16  151.68    5.10
   3  -1  16  149.49    4.90
   3  -1  16  154.28    5.50
   6   0 -16    5.10    1.20
   6   0 -16    5.90    1.10
  -6   0  16    7.90    1.70
  -6   0  16    4.40    1.30
   5   0 -16   16.40    2.00
   5   0 -16   19.60    2.30
   5   0 -16   13.90    1.90
  -5   0  16   12.40    2.40
  -5   0  16   10.10    2.00
  -5   0  16   17.40    2.40
   4   0 -16   15.00    2.00
   4   0 -16   11.40    1.80
  -4   0  16   13.90    2.70
  -4   0  16   10.40    2.40
  -4   0  16   13.80    2.40
  -4   0  16   10.70    1.70
   3   0 -16 1147.69   27.30
  -3   0  16 1158.18   28.10
  -3   0  16 1104.39   29.40
  -3   0  16 1161.28   28.40
  -3   0  16 1173.38   27.40
  -3   0  16 1199.48   27.90
  -3   0  16 1193.08   29.90
  -3   0  16 1153.08   28.80
  -3   0  16 1145.69   27.60
  -3   0  16 1178.68   30.60
  -2   0  16    4.80    2.00
  -2   0  16    0.90    1.30
  -2   0  16    1.60    1.00
  -2   0  16    2.20    1.10
  -2   0  16    4.90    1.50
  -2   0  16   -0.20    1.10
  -2   0  16    1.80    1.20
  -2   0  16    2.30    1.50
  -2   0  16    2.60    1.20
  -2   0  16    1.60    1.60
  -1   0  16  254.27    9.70
  -1   0  16  263.17    9.80
  -1   0  16  259.77    9.20
  -1   0  16  262.37   10.40
  -1   0  16  264.47    8.70
  -1   0  16  272.37    9.10
  -1   0  16  193.18    8.80
  -1   0  16  205.78    8.10
  -1   0  16  271.87    9.00
  -1   0  16  271.37   10.00
   0   0  16   11.10    2.20
   0   0  16    8.40    1.80
   0   0  16   10.10    2.10
   0   0  16    9.00    1.90
   0   0  16    9.10    1.80
   0   0  16    7.20    1.90
   0   0  16    8.80    2.00
   0   0  16   10.70    1.90
   0   0  16   10.30    2.30
   1   0  16  810.12   20.90
   1   0  16  826.42   20.60
   1   0  16  780.32   20.20
   1   0  16  840.72   20.90
   1   0  16  825.12   21.40
   1   0  16  844.62   21.30
   1   0  16  785.32   20.00
   1   0  16  849.22   21.10
   2   0  16   64.29    3.40
   2   0  16   71.09    3.70
   2   0  16   70.79    3.70
   2   0  16   71.29    3.60
   2   0  16   68.29    3.50
   2   0  16   67.69    3.30
   2   0  16   72.09    3.80
   3   0  16   30.60    2.00
   3   0  16   32.80    1.80
   3   0  16   33.60    2.10
   3   0  16   32.00    1.90
   3   0  16   33.60    2.00
   3   0  16   34.60    2.10
   6  -1 -16  110.19    4.20
   6  -1 -16  103.89    3.90
   6  -1 -16  105.59    4.20
  -6   1  16  106.39    4.50
  -6   1  16  111.89    5.00
  -6   1  16  101.49    4.80
   5  -1 -16  132.09    5.10
   5  -1 -16  125.69    5.20
   5  -1 -16  120.29    4.90
  -5   1  16  136.19    6.20
  -5   1  16  122.39    4.60
  -5   1  16  124.79    6.20
  -5   1  16  119.89    5.80
   4  -1 -16  120.69    5.00
  -4   1  16  119.89    6.40
  -4   1  16  115.39    4.80
  -4   1  16  118.89    6.40
  -4   1  16  118.09    6.20
  -4   1  16  127.29    5.50
  -4   1  16  112.79    5.80
  -4   1  16  121.59    5.10
   3  -1 -16    6.20    1.40
  -3   1  16   10.10    1.80
  -3   1  16    8.40    2.10
  -3   1  16    9.80    2.00
  -3   1  16    5.90    2.10
  -3   1  16   11.10    2.00
  -3   1  16    7.50    1.80
  -3   1  16    6.40    1.60
  -3   1  16    6.10    1.90
  -3   1  16    7.40    2.20
  -2   1  16  325.27   10.50
  -2   1  16  315.87   10.30
  -2   1  16  315.77   10.50
  -2   1  16  333.27   11.90
  -2   1  16  343.47   11.80
  -2   1  16  324.27   11.70
  -2   1  16  312.37   10.70
  -2   1  16  327.37   11.60
  -2   1  16  332.77   10.50
  -1   1  16  370.56   12.40
  -1   1  16  362.96   11.40
  -1   1  16  350.16   12.40
  -1   1  16  348.27   11.50
  -1   1  16  364.36   11.10
  -1   1  16  374.96   11.40
  -1   1  16  390.76   12.70
  -1   1  16  374.66   12.30
   0   1  16  120.39    5.90
   0   1  16  114.49    5.50
   0   1  16  116.39    5.70
   0   1  16  125.99    5.50
   0   1  16  116.19    5.80
   0   1  16  116.19    5.00
   0   1  16  119.49    5.30
   0   1  16  123.19    5.90
   1   1  16   22.90    2.70
   1   1  16   24.20    2.50
   1   1  16   25.30    2.50
   1   1  16   26.10    2.70
   1   1  16   22.40    2.60
   1   1  16   24.50    2.70
   1   1  16   24.10    2.60
   2   1  16   56.79    2.90
   2   1  16   55.99    2.80
   2   1  16   61.89    3.10
   2   1  16   52.69    2.80
   2   1  16   58.99    3.10
   6  -2 -16   86.49    3.60
   6  -2 -16   91.09    3.70
   6  -2 -16   96.39    3.80
  -6   2  16   94.69    4.40
  -6   2  16   92.09    4.50
  -6   2  16   93.59    4.40
   5  -2 -16   20.40    2.20
   5  -2 -16   14.70    1.90
  -5   2  16   16.90    2.50
  -5   2  16   15.80    2.40
  -5   2  16   14.60    2.40
  -5   2  16   16.30    2.00
  -5   2  16   16.00    2.50
  -5   2  16   16.60    1.90
   4  -2 -16  581.64   14.70
  -4   2  16  582.64   16.70
  -4   2  16  588.64   15.30
  -4   2  16  594.54   16.90
  -4   2  16  549.25   14.60
  -4   2  16  536.95   15.00
  -4   2  16  563.44   14.70
  -4   2  16  570.64   16.50
  -4   2  16  530.65   14.60
  -3   2  16   41.10    4.20
  -3   2  16   43.20    3.60
  -3   2  16   48.90    4.70
  -3   2  16   40.40    4.20
  -3   2  16   39.70    3.70
  -3   2  16   45.80    3.70
  -3   2  16   43.90    3.70
  -3   2  16   40.50    3.60
  -2   2  16  360.76   10.80
  -2   2  16  362.86   11.00
  -2   2  16  346.47   11.70
  -2   2  16  339.87   11.80
  -2   2  16  362.26   12.20
  -2   2  16  344.57   11.00
  -2   2  16  344.07   11.30
  -2   2  16  332.27   10.60
  -1   2  16   28.50    2.90
  -1   2  16   28.30    3.20
  -1   2  16   25.70    2.90
  -1   2  16   28.30    3.20
  -1   2  16   25.10    3.10
  -1   2  16   23.80    3.10
  -1   2  16   24.20    2.90
   0   2  16   88.69    4.50
   0   2  16   92.09    4.90
   0   2  16   89.99    4.40
   0   2  16   92.59    4.60
   0   2  16   90.39    4.80
   0   2  16   94.39    4.40
   1   2  16    0.10    0.70
   1   2  16    1.90    0.90
   1   2  16    2.00    0.90
   1   2  16    3.10    1.10
   1   2  16    1.60    0.90
   1   2  16    1.10    0.80
   1   2  16    1.30    1.00
   2   2  16  142.89    4.50
   2   2  16  149.59    4.60
   2   2  16  155.38    4.80
   6  -3 -16   11.40    1.20
   6  -3 -16    6.70    1.10
   6  -3 -16    5.80    1.10
  -6   3  16    6.40    1.40
  -6   3  16    3.90    1.30
   5  -3 -16  210.58    6.50
   5  -3 -16  196.58    6.40
  -5   3  16  197.68    7.50
  -5   3  16  195.58    7.50
  -5   3  16  203.28    6.30
  -5   3  16  204.88    7.80
  -5   3  16  205.88    6.70
  -4   3  16  149.99    6.90
  -4   3  16  151.18    6.10
  -4   3  16  154.48    5.80
  -4   3  16  159.68    6.00
  -4   3  16  159.28    7.00
  -4   3  16  152.38    6.70
  -4   3  16  152.68    5.80
  -4   3  16  164.58    5.90
  -3   3  16   29.20    3.50
  -3   3  16   33.60    3.40
  -3   3  16   36.00    3.20
  -3   3  16   32.40    3.00
  -3   3  16   33.50    3.50
  -3   3  16   36.50    3.90
  -3   3  16   35.20    3.30
  -3   3  16   31.60    3.00
  -3   3  16   30.30    2.50
  -2   3  16  253.57    8.50
  -2   3  16  269.27    9.10
  -2   3  16  240.78    9.20
  -2   3  16  258.97    9.50
  -2   3  16  266.97    9.10
  -2   3  16  252.87    8.30
  -2   3  16  247.28    8.60
  -2   3  16  237.78    8.10
  -1   3  16  454.15   13.60
  -1   3  16  449.95   13.20
  -1   3  16  462.15   13.00
  -1   3  16  459.15   12.70
  -1   3  16  445.36   12.30
  -1   3  16  447.16   12.60
  -1   3  16  461.35   13.10
   0   3  16   65.29    3.30
   0   3  16   72.29    3.70
   0   3  16   67.79    3.80
   0   3  16   66.29    3.40
   0   3  16   66.79    3.50
   1   3  16   76.29    3.30
   1   3  16   75.09    3.10
   1   3  16   73.29    3.10
   5  -4 -16   99.29    3.90
   5  -4 -16  106.29    4.00
  -5   4  16   99.79    4.90
  -5   4  16  102.39    4.50
  -5   4  16   96.19    4.10
  -5   4  16  102.59    3.80
  -5   4  16  105.29    4.10
  -5   4  16  103.99    4.90
  -4   4  16   51.89    3.00
  -4   4  16   50.99    3.10
  -4   4  16   52.79    4.30
  -4   4  16   54.09    3.00
  -4   4  16   50.59    4.30
  -4   4  16   55.59    3.10
  -4   4  16   52.79    3.30
  -4   4  16   56.59    4.00
  -4   4  16   57.09    2.80
  -3   4  16  137.79    4.80
  -3   4  16  147.59    5.80
  -3   4  16  144.09    6.50
  -3   4  16  149.88    6.10
  -3   4  16  148.59    5.60
  -3   4  16  139.19    5.50
  -3   4  16  146.99    5.60
  -3   4  16  139.09    6.10
  -2   4  16  203.08    7.00
  -2   4  16  211.28    7.30
  -2   4  16  208.58    7.50
  -2   4  16  201.18    6.70
  -2   4  16  202.78    6.90
  -2   4  16  213.98    7.50
  -2   4  16  201.38    7.70
  -1   4  16  122.19    4.90
  -1   4  16  113.49    4.80
  -1   4  16  116.59    4.50
  -1   4  16  113.89    4.60
  -1   4  16  115.09    5.10
  -1   4  16  113.59    4.80
   0   4  16  126.89    4.60
   0   4  16  120.19    4.20
   0   4  16  121.79    4.40
   0   4  16  122.29    4.30
   5  -5 -16  259.97    7.00
  -5   5  16  252.77    7.10
  -5   5  16  287.07    8.80
  -5   5  16  258.87    8.10
  -5   5  16  241.78    7.70
  -5   5  16  247.28    7.30
  -4   5  16    6.90    1.40
  -4   5  16    7.10    1.30
  -4   5  16    5.80    1.00
  -4   5  16    8.50    1.70
  -4   5  16    6.30    1.20
  -4   5  16    7.10    1.20
  -4   5  16    5.40    1.20
  -4   5  16    7.10    1.20
  -3   5  16   41.00    3.00
  -3   5  16   35.20    3.10
  -3   5  16   36.40    2.40
  -3   5  16   38.20    2.00
  -3   5  16   32.90    2.80
  -3   5  16   37.00    2.40
  -3   5  16   39.80    2.60
  -3   5  16   42.40    2.60
  -2   5  16   74.49    3.30
  -2   5  16   72.49    3.50
  -2   5  16   78.09    3.40
  -2   5  16   74.29    3.40
  -2   5  16   74.89    3.60
  -2   5  16   76.09    3.70
  -1   5  16   94.29    3.60
  -1   5  16   98.69    3.70
  -1   5  16   95.89    3.60
  -1   5  16   93.39    3.60
   1   6 -17   86.19    3.60
   1   6 -17   79.79    3.20
  -1  -6  17   82.29    3.90
  -1  -6  17   80.69    3.90
   0   6 -17   63.69    3.00
   0   6 -17   57.89    2.90
   0  -6  17   59.59    3.30
   0  -6  17   61.79    3.40
  -1   6 -17  185.88    5.90
  -1   6 -17  181.08    5.40
   1  -6  17  194.28    6.40
   1  -6  17  171.08    5.80
   1  -6  17  192.48    6.10
   3   5 -17  368.06   10.30
   3   5 -17  398.66   10.50
  -3  -5  17  396.26   10.90
   2   5 -17   13.00    1.70
   2   5 -17   10.40    1.70
  -2  -5  17   11.00    2.70
  -2  -5  17   10.00    1.70
  -2  -5  17   10.80    1.90
   1   5 -17   68.29    3.20
   1   5 -17   64.09    3.50
   1   5 -17   68.69    3.40
  -1  -5  17   72.39    3.70
  -1  -5  17   71.69    4.10
  -1  -5  17   64.79    3.70
   0   5 -17   85.99    3.80
   0   5 -17   89.39    3.90
   0  -5  17   84.19    4.50
   0  -5  17   74.49    4.10
   0  -5  17   81.79    4.00
  -1   5 -17    5.10    1.10
  -1   5 -17    5.40    1.10
   1  -5  17    3.80    1.20
   1  -5  17    6.50    1.40
   1  -5  17    5.80    1.30
   1  -5  17    5.00    1.10
  -2   5 -17   17.30    1.70
  -2   5 -17   15.20    1.60
   2  -5  17   15.60    1.60
   2  -5  17   16.50    1.50
   2  -5  17   14.80    1.80
   2  -5  17   18.00    1.90
   2  -5  17   15.30    1.50
   3   4 -17    2.50    1.00
   3   4 -17    2.50    0.80
  -3  -4  17    1.90    1.00
  -3  -4  17    2.80    1.10
  -3  -4  17    2.50    1.10
   2   4 -17   52.99    3.00
   2   4 -17   51.99    2.70
   2   4 -17   55.29    3.30
  -2  -4  17   50.29    4.10
  -2  -4  17   49.30    4.30
  -2  -4  17   44.40    3.50
   1   4 -17   51.89    3.20
   1   4 -17   56.79    3.30
   1   4 -17   49.60    2.90
  -1  -4  17   50.69    4.50
  -1  -4  17   47.60    4.10
  -1  -4  17   49.90    3.90
  -1  -4  17   46.80    2.60
   0   4 -17  144.39    5.40
   0   4 -17  141.39    5.40
   0  -4  17  135.79    5.80
   0  -4  17  139.39    6.00
   0  -4  17  140.69    5.10
   0  -4  17  147.69    6.50
  -1   4 -17   83.49    3.70
  -1   4 -17   75.29    3.40
   1  -4  17   83.19    3.60
   1  -4  17   79.29    4.10
   1  -4  17   84.29    4.40
   1  -4  17   84.89    3.50
   1  -4  17   74.29    3.30
   1  -4  17   78.59    4.20
  -2   4 -17  128.49    4.50
   2  -4  17  129.09    4.20
   2  -4  17  125.29    4.50
   2  -4  17  127.29    4.30
   2  -4  17  129.29    4.40
   2  -4  17  131.79    4.50
   2  -4  17  139.09    5.20
   2  -4  17  125.69    4.80
   2  -4  17  127.19    5.10
  -3   4 -17   32.20    1.70
   3  -4  17   33.50    2.10
   3  -4  17   26.80    2.10
   4   3 -17  205.98    6.00
   4   3 -17  204.68    6.30
   4   3 -17  208.78    6.80
  -4  -3  17  195.28    7.20
  -4  -3  17  219.98    7.60
   3   3 -17    0.80    0.70
   3   3 -17    0.00    0.70
  -3  -3  17    0.50    1.00
  -3  -3  17    0.10    1.00
   2   3 -17  196.68    7.10
   2   3 -17  189.38    6.70
  -2  -3  17  204.18    8.20
  -2  -3  17  194.98    6.40
  -2  -3  17  198.98    8.10
  -2  -3  17  181.78    6.80
   1   3 -17   24.30    2.60
   1   3 -17   29.60    2.80
  -1  -3  17   24.20    2.70
  -1  -3  17   25.30    3.30
  -1  -3  17   25.40    3.20
  -1  -3  17   30.00    2.50
  -1  -3  17   28.50    2.70
  -1  -3  17   25.30    2.80
   0   3 -17  252.37    7.90
   0  -3  17  227.88    7.60
   0  -3  17  257.77    9.30
   0  -3  17  244.98    8.10
   0  -3  17  246.88    7.60
   0  -3  17  228.38    7.60
   0  -3  17  246.28    8.00
   0  -3  17  255.37    8.50
   0  -3  17  266.27    9.30
   0  -3  17  252.57    7.80
  -1   3 -17  199.78    6.90
   1  -3  17  223.38    8.10
   1  -3  17  222.78    7.70
   1  -3  17  216.18    7.80
   1  -3  17  218.08    6.90
   1  -3  17  217.08    7.00
   1  -3  17  220.48    6.90
   1  -3  17  232.18    7.20
   1  -3  17  220.58    7.10
  -2   3 -17  240.38    7.00
   2  -3  17  254.17    7.20
   2  -3  17  246.98    7.70
   2  -3  17  252.97    8.00
   2  -3  17  235.78    7.10
   2  -3  17  250.07    7.20
   2  -3  17  250.77    7.40
   2  -3  17  238.88    7.60
   2  -3  17  249.28    7.20
  -3   3 -17  774.82   17.80
   3  -3  17  780.92   18.30
   3  -3  17  751.02   18.00
   3  -3  17  777.82   17.70
   3  -3  17  800.32   17.90
   3  -3  17  802.22   18.00
   3  -3  17  788.42   17.50
   3  -3  17  795.72   17.60
   5   2 -17  115.19    4.10
   5   2 -17  108.19    4.00
  -5  -2  17  108.59    4.80
   4   2 -17   54.19    3.00
   4   2 -17   48.30    2.80
   4   2 -17   44.90    2.50
  -4  -2  17   50.59    4.30
  -4  -2  17   48.30    3.60
  -4  -2  17   48.00    3.80
   3   2 -17   69.39    3.80
   3   2 -17   62.19    3.40
   3   2 -17   62.59    3.30
  -3  -2  17   68.49    4.30
  -3  -2  17   65.99    5.30
  -3  -2  17   62.39    3.90
  -3  -2  17   70.39    3.30
   2   2 -17   48.10    3.80
  -2  -2  17   47.20    2.80
  -2  -2  17   45.90    4.00
  -2  -2  17   50.59    3.90
  -2  -2  17   47.70    4.50
  -2  -2  17   51.99    4.80
  -2  -2  17   53.19    3.10
   1   2 -17  213.68    7.60
  -1  -2  17  207.68    7.50
  -1  -2  17  229.18    7.50
  -1  -2  17  224.08    7.30
  -1  -2  17  250.87    9.30
  -1  -2  17  223.78    8.20
  -1  -2  17  221.48    7.90
  -1  -2  17  220.28    8.80
  -1  -2  17  238.88    7.70
   0  -2  17  285.87    9.20
   0  -2  17  278.87    9.10
   0  -2  17  296.87    9.10
   0  -2  17  321.87   10.60
   0  -2  17  286.87    8.90
   0  -2  17  302.67    9.10
   0  -2  17  281.67    9.40
   0  -2  17  292.87   10.20
   1  -2  17  250.27    8.60
   1  -2  17  249.78    8.10
   1  -2  17  242.88    7.70
   1  -2  17  259.07    7.90
   1  -2  17  255.47    8.00
   1  -2  17  251.87    8.70
   1  -2  17  249.88    7.80
   1  -2  17  259.07    8.20
   1  -2  17  235.08    8.00
   2  -2  17  222.58    6.80
   2  -2  17  229.78    7.40
   2  -2  17  223.28    6.80
   2  -2  17  225.08    7.10
   2  -2  17  230.78    6.90
   2  -2  17  234.58    7.00
   2  -2  17  236.48    7.10
   2  -2  17  219.18    7.30
   3  -2  17  272.77    7.30
   3  -2  17  273.17    7.00
   3  -2  17  276.27    7.10
   3  -2  17  267.87    7.20
   3  -2  17  260.27    7.40
   3  -2  17  260.37    7.00
   5   1 -17   -1.40    0.40
   5   1 -17    0.60    0.70
  -5  -1  17    0.10    0.80
  -5  -1  17    2.10    1.00
  -5  -1  17    0.60    1.50
   4   1 -17  195.28    7.00
   4   1 -17  202.48    6.60
   4   1 -17  198.38    6.40
  -4  -1  17  208.98    7.50
  -4  -1  17  207.78    8.20
  -4  -1  17  212.58    7.70
   3   1 -17  562.14   14.90
   3   1 -17  510.85   13.80
  -3  -1  17  557.44   15.70
  -3  -1  17  549.15   16.40
  -3  -1  17  523.45   13.70
  -3  -1  17  518.15   14.80
  -3  -1  17  538.25   15.50
  -3  -1  17  565.64   14.40
   2   1 -17  132.49    5.60
  -2  -1  17  113.09    5.30
  -2  -1  17  110.09    4.90
  -2  -1  17  132.59    5.30
  -2  -1  17  122.59    5.80
  -2  -1  17  130.29    6.30
  -2  -1  17  124.99    5.10
  -2  -1  17  129.49    5.40
  -2  -1  17  136.79    6.20
  -2  -1  17  132.29    6.70
   1   1 -17  466.55   13.50
  -1  -1  17  515.05   13.80
  -1  -1  17  509.05   13.70
  -1  -1  17  485.75   15.20
  -1  -1  17  519.45   15.10
  -1  -1  17  493.15   13.60
  -1  -1  17  499.75   14.40
  -1  -1  17  510.65   14.60
  -1  -1  17  505.85   13.70
  -1  -1  17  497.75   14.20
   0  -1  17  445.96   12.90
   0  -1  17  445.36   13.00
   0  -1  17  450.45   13.60
   0  -1  17  449.06   13.30
   0  -1  17  466.65   12.60
   0  -1  17  433.66   12.40
   0  -1  17  436.36   12.40
   0  -1  17  433.36   12.00
   0  -1  17  447.06   12.90
   1  -1  17  350.36   10.10
   1  -1  17  373.36   11.00
   1  -1  17  377.76   10.80
   1  -1  17  373.96   10.50
   1  -1  17  381.26   11.30
   1  -1  17  372.86   10.50
   1  -1  17  381.16   10.90
   1  -1  17  375.16   10.80
   2  -1  17  459.95   11.70
   2  -1  17  463.15   11.80
   2  -1  17  478.75   11.90
   2  -1  17  450.05   11.50
   2  -1  17  462.55   12.20
   2  -1  17  456.55   12.00
   2  -1  17  472.25   12.10
   5   0 -17  259.87    7.40
   5   0 -17  243.08    7.50
  -5   0  17  260.37    8.30
  -5   0  17  249.08    8.60
   4   0 -17   41.60    3.40
   4   0 -17   34.40    2.80
  -4   0  17   37.10    3.60
  -4   0  17   33.20    2.70
  -4   0  17   36.90    3.30
  -4   0  17   31.00    3.40
   3   0 -17  292.67    8.70
   3   0 -17  298.57    9.50
  -3   0  17  294.07   10.00
  -3   0  17  312.27    9.10
  -3   0  17  289.27    8.70
  -3   0  17  287.67    9.50
  -3   0  17  319.37    9.30
  -3   0  17  318.87   11.10
  -3   0  17  318.87   10.70
  -2   0  17   69.69    4.40
  -2   0  17   68.19    3.80
  -2   0  17   69.29    3.80
  -2   0  17   64.19    3.60
  -2   0  17   71.09    4.70
  -2   0  17   60.09    3.60
  -2   0  17   68.39    4.40
  -2   0  17   62.59    4.10
  -1   0  17  240.88    8.80
  -1   0  17  251.87    8.30
  -1   0  17  245.08    8.80
  -1   0  17  236.48    8.10
  -1   0  17  233.18    8.00
  -1   0  17  246.58    8.30
  -1   0  17  243.58    8.80
  -1   0  17  255.77    9.40
   0   0  17  222.58    7.20
   0   0  17  229.88    8.20
   0   0  17  226.88    7.60
   0   0  17  238.08    8.20
   0   0  17  227.28    8.40
   0   0  17  233.38    7.70
   0   0  17  228.28    8.00
   0   0  17  232.18    7.80
   1   0  17  148.19    5.80
   1   0  17  147.09    5.60
   1   0  17  157.18    5.80
   1   0  17  151.28    5.50
   1   0  17  151.48    5.40
   1   0  17  145.79    5.10
   1   0  17  153.08    5.50
   1   0  17  152.88    5.80
   2   0  17  206.08    5.90
   2   0  17  215.38    6.50
   2   0  17  216.48    6.50
   2   0  17  208.18    6.20
   2   0  17  216.48    6.40
   2   0  17  210.38    6.20
   2   0  17  218.88    6.30
   5  -1 -17   78.09    3.50
   5  -1 -17   84.89    3.70
  -5   1  17   75.59    4.20
  -5   1  17   77.59    3.80
  -5   1  17   74.99    4.00
   4  -1 -17  381.46   10.30
  -4   1  17  384.76   10.30
  -4   1  17  370.76   10.00
  -4   1  17  390.16   11.60
  -4   1  17  380.16   11.90
  -4   1  17  350.76   10.80
  -4   1  17  381.16   11.80
   3  -1 -17    2.00    1.00
  -3   1  17    2.50    1.30
  -3   1  17    4.60    1.20
  -3   1  17    3.30    1.10
  -3   1  17    3.50    1.20
  -3   1  17    3.50    1.40
  -3   1  17    4.60    1.20
  -3   1  17    5.20    1.60
  -3   1  17    1.70    1.00
  -3   1  17    4.00    1.50
  -2   1  17  236.58    8.70
  -2   1  17  238.68    8.00
  -2   1  17  248.58    7.90
  -2   1  17  240.38    8.90
  -2   1  17  237.68    8.70
  -2   1  17  231.38    7.90
  -2   1  17  229.88    8.10
  -2   1  17  236.48    7.90
  -2   1  17  234.48    8.90
  -1   1  17  288.27    9.40
  -1   1  17  254.37    8.40
  -1   1  17  257.77    9.10
  -1   1  17  268.87    8.70
  -1   1  17  268.07    9.10
  -1   1  17  268.97    9.30
  -1   1  17  248.78    8.20
  -1   1  17  268.07    8.60
   0   1  17  127.19    5.50
   0   1  17  123.59    5.00
   0   1  17  127.29    5.20
   0   1  17  128.49    5.40
   0   1  17  113.89    4.80
   0   1  17  124.59    5.20
   0   1  17  130.39    5.40
   1   1  17   30.20    2.50
   1   1  17   32.10    2.00
   1   1  17   30.80    2.40
   1   1  17   33.10    2.50
   1   1  17   31.00    2.60
   1   1  17   32.00    2.60
   1   1  17   33.50    2.50
   2   1  17   79.19    3.30
   5  -2 -17   10.50    1.60
   5  -2 -17    9.10    1.30
  -5   2  17    8.40    1.60
  -5   2  17    9.90    1.20
  -5   2  17    6.70    1.50
  -5   2  17   10.30    1.50
   4  -2 -17  314.67    8.80
  -4   2  17  322.97   10.20
  -4   2  17  314.57   10.10
  -4   2  17  302.17    8.80
  -4   2  17  303.37    9.70
  -4   2  17  312.87    8.90
  -4   2  17  298.97    8.60
  -4   2  17  323.67    9.30
  -4   2  17  325.77    8.80
   3  -2 -17  145.09    5.10
  -3   2  17  146.29    5.50
  -3   2  17  145.89    5.70
  -3   2  17  144.99    5.80
  -3   2  17  155.58    5.70
  -3   2  17  146.69    6.30
  -3   2  17  155.88    5.70
  -3   2  17  160.88    6.60
  -3   2  17  147.59    6.40
  -2   2  17  325.27    9.60
  -2   2  17  326.27   10.30
  -2   2  17  335.07    9.80
  -2   2  17  337.77   10.70
  -2   2  17  339.47    9.90
  -2   2  17  341.57   10.10
  -2   2  17  308.37   10.40
  -2   2  17  319.17    9.60
  -1   2  17  219.48    7.30
  -1   2  17  219.58    7.40
  -1   2  17  216.08    7.00
  -1   2  17  234.28    7.60
  -1   2  17  231.78    8.10
  -1   2  17  216.58    7.80
  -1   2  17  219.48    7.50
   0   2  17  244.78    7.80
   0   2  17  246.38    8.00
   0   2  17  247.18    7.40
   0   2  17  256.57    7.60
   0   2  17  250.27    7.60
   0   2  17  247.68    7.70
   1   2  17  305.17    8.00
   1   2  17  300.27    8.00
   1   2  17  311.87    8.30
   1   2  17  302.37    8.00
   1   2  17  305.67    8.10
   5  -3 -17   40.50    2.20
  -5   3  17   35.40    2.80
  -5   3  17   37.40    2.80
  -5   3  17   34.40    2.90
   4  -3 -17  173.08    5.50
  -4   3  17  173.48    6.30
  -4   3  17  170.58    5.50
  -4   3  17  175.18    6.50
  -4   3  17  179.08    5.90
  -4   3  17  162.98    6.50
  -4   3  17  177.08    5.90
  -4   3  17  175.38    5.60
  -4   3  17  175.48    5.70
   3  -3 -17    5.00    1.10
  -3   3  17    4.10    1.20
  -3   3  17    4.60    1.30
  -3   3  17    5.00    1.10
  -3   3  17    4.10    1.40
  -3   3  17    5.20    1.20
  -3   3  17    5.00    1.30
  -3   3  17    4.80    1.50
  -3   3  17    5.30    1.20
  -2   3  17   52.69    3.40
  -2   3  17   46.20    2.80
  -2   3  17   45.10    2.80
  -2   3  17   52.89    3.10
  -2   3  17   48.50    2.90
  -2   3  17   43.80    2.70
  -2   3  17   46.70    3.70
  -2   3  17   49.40    3.00
  -1   3  17  760.02   17.70
  -1   3  17  735.83   18.00
  -1   3  17  759.42   18.70
  -1   3  17  751.02   18.20
  -1   3  17  731.93   17.60
  -1   3  17  760.42   18.40
  -1   3  17  748.83   18.00
   0   3  17   14.50    1.60
   0   3  17   13.30    1.40
   0   3  17   11.70    1.40
   0   3  17   16.30    1.60
   0   3  17   10.00    1.20
   4  -4 -17   77.09    3.00
  -4   4  17   76.89    3.20
  -4   4  17   79.89    3.20
  -4   4  17   80.29    3.80
  -4   4  17   79.89    3.50
  -4   4  17   77.29    3.30
  -4   4  17   82.09    3.20
  -4   4  17   77.09    3.80
   3  -4 -17  241.98    6.60
  -3   4  17  258.17    7.60
  -3   4  17  251.87    7.30
  -3   4  17  257.67    7.50
  -3   4  17  239.78    7.20
  -3   4  17  243.68    7.90
  -3   4  17  248.58    7.20
  -3   4  17  243.88    7.70
  -2   4  17   79.79    3.40
  -2   4  17   82.19    3.60
  -2   4  17   87.89    3.60
  -2   4  17   79.29    3.80
  -2   4  17   78.49    3.30
  -2   4  17   78.79    3.30
  -2   4  17   73.79    3.50
  -1   4  17   45.00    2.30
  -1   4  17   45.00    2.30
  -1   4  17   42.50    2.30
  -1   4  17   46.10    2.50
   1   5 -18   45.60    2.70
   1   5 -18   48.80    2.50
  -1  -5  18   45.10    2.70
  -1  -5  18   41.30    2.50
   0   5 -18    1.90    0.70
   0   5 -18    0.90    0.60
   0  -5  18    0.80    0.70
   0  -5  18    0.30    0.70
   2   4 -18    0.60    0.80
   2   4 -18    0.50    0.60
   2   4 -18    0.00    0.70
  -2  -4  18    0.70    0.80
  -2  -4  18    1.00    0.80
   1   4 -18   23.00    2.10
   1   4 -18   19.00    1.80
  -1  -4  18   20.10    2.00
  -1  -4  18   19.60    2.30
  -1  -4  18   23.80    2.40
   0   4 -18    1.50    0.70
   0   4 -18    3.10    0.90
   0  -4  18    0.70    0.60
   0  -4  18    0.30    0.80
   0  -4  18    0.90    0.70
   0  -4  18    1.40    0.90
  -1   4 -18    2.60    0.80
   1  -4  18    2.40    0.70
   1  -4  18    2.10    0.90
   1  -4  18    2.70    0.90
   1  -4  18    2.80    0.80
   3   3 -18    1.20    0.70
   3   3 -18    1.40    0.70
  -3  -3  18    0.90    0.90
  -3  -3  18    1.30    1.00
   2   3 -18  131.19    4.80
   2   3 -18  134.29    5.10
   2   3 -18  125.29    4.40
  -2  -3  18  141.59    5.70
  -2  -3  18  130.59    4.70
  -2  -3  18  131.79    5.60
   1   3 -18    6.10    1.20
  -1  -3  18    3.90    1.30
  -1  -3  18    7.30    1.20
  -1  -3  18    5.70    1.50
  -1  -3  18   -0.10    0.80
  -1  -3  18    4.30    1.10
   0   3 -18   14.20    1.70
   0  -3  18   12.30    1.60
   0  -3  18   14.40    1.80
   0  -3  18   13.50    2.00
   0  -3  18   15.10    1.50
   0  -3  18   10.90    1.90
   0  -3  18   13.90    1.70
  -1   3 -18  122.59    4.20
   1  -3  18  114.19    3.90
   1  -3  18  115.59    4.00
   1  -3  18  127.29    4.70
   1  -3  18  115.39    4.60
   1  -3  18  119.49    4.10
   1  -3  18  112.89    4.00
   1  -3  18  108.09    4.20
   1  -3  18  115.89    4.00
   4   2 -18   31.00    2.00
  -4  -2  18   26.10    2.50
   3   2 -18   82.39    3.70
   3   2 -18   71.89    3.30
  -3  -2  18   77.39    4.20
  -3  -2  18   76.19    3.60
  -3  -2  18   73.59    3.90
   2   2 -18   60.19    3.00
   2   2 -18   51.69    3.00
  -2  -2  18   47.80    3.80
  -2  -2  18   54.19    2.80
  -2  -2  18   57.09    3.70
  -2  -2  18   49.30    3.90
  -2  -2  18   53.29    3.20
   1   2 -18   54.79    3.00
  -1  -2  18   51.29    4.70
  -1  -2  18   55.39    3.50
  -1  -2  18   55.49    2.70
  -1  -2  18   55.09    3.00
  -1  -2  18   51.99    3.20
  -1  -2  18   56.29    3.00
  -1  -2  18   56.09    2.80
  -1  -2  18   61.79    3.80
   0   2 -18  261.07    7.50
   0  -2  18  257.97    7.70
   0  -2  18  250.57    8.30
   0  -2  18  259.57    7.50
   0  -2  18  264.37    8.50
   0  -2  18  253.27    7.40
   0  -2  18  247.28    7.60
   0  -2  18  252.67    7.60
   0  -2  18  252.17    7.70
   1  -2  18  101.59    3.80
   1  -2  18   95.09    3.70
   1  -2  18   97.19    3.80
   1  -2  18   96.49    3.70
   1  -2  18   97.59    4.20
   1  -2  18   93.49    4.00
   1  -2  18  100.79    3.70
   4   1 -18   82.49    3.20
   4   1 -18   81.59    3.60
   4   1 -18   80.99    3.30
  -4  -1  18   84.09    3.80
  -4  -1  18   83.69    4.20
   3   1 -18  312.17    9.10
   3   1 -18  302.77    8.60
  -3  -1  18  309.47    8.20
  -3  -1  18  303.17    9.20
  -3  -1  18  316.77    9.40
  -3  -1  18  302.97    9.90
  -3  -1  18  286.47    8.60
   2   1 -18  285.27    8.60
  -2  -1  18  286.07    8.10
  -2  -1  18  287.47    8.30
  -2  -1  18  279.07    8.30
  -2  -1  18  286.47    8.70
  -2  -1  18  295.97    9.80
  -2  -1  18  286.87    9.10
  -2  -1  18  290.57    9.10
  -1  -1  18    5.70    1.30
  -1  -1  18    6.20    1.20
  -1  -1  18    5.40    1.50
  -1  -1  18    8.00    1.70
  -1  -1  18    5.00    1.40
  -1  -1  18    4.80    1.10
  -1  -1  18    6.10    1.30
  -1  -1  18    9.20    1.40
   0   1 -18   59.19    2.80
   0  -1  18   62.59    3.10
   0  -1  18   65.49    3.20
   0  -1  18   63.99    3.30
   0  -1  18   60.59    3.20
   0  -1  18   66.09    3.40
   0  -1  18   57.39    3.00
   0  -1  18   54.69    3.20
   0  -1  18   66.69    3.70
   1  -1  18  174.58    5.80
   1  -1  18  170.08    5.20
   1  -1  18  163.18    5.30
   1  -1  18  166.98    5.50
   1  -1  18  176.48    5.60
   1  -1  18  173.28    5.50
   1  -1  18  178.68    5.50
   1  -1  18  174.58    5.50
   4   0 -18  146.99    5.10
   4   0 -18  140.49    4.60
   4   0 -18  135.49    4.60
  -4   0  18  139.79    5.60
  -4   0  18  144.89    5.00
  -4   0  18  144.59    5.50
   3   0 -18   96.59    4.20
  -3   0  18   91.59    4.20
  -3   0  18   98.59    4.60
  -3   0  18  101.59    4.10
  -3   0  18  101.29    3.90
  -3   0  18   94.39    4.40
  -3   0  18   87.99    4.60
   2   0 -18  346.97   10.00
  -2   0  18  376.96   10.70
  -2   0  18  363.26   10.50
  -2   0  18  344.17   10.20
  -2   0  18  354.26    9.70
  -2   0  18  351.86    9.90
  -2   0  18  338.87    9.60
  -2   0  18  358.46    9.80
  -2   0  18  347.07   10.90
  -1   0  18  173.98    6.00
  -1   0  18  182.48    6.40
  -1   0  18  184.28    6.50
  -1   0  18  185.68    6.10
  -1   0  18  181.08    6.50
  -1   0  18  171.48    5.90
  -1   0  18  166.88    6.60
  -1   0  18  185.38    6.10
   0   0  18    7.00    1.40
   0   0  18    7.20    1.30
   0   0  18    6.50    1.30
   0   0  18    9.80    1.50
   0   0  18   10.00    1.40
   0   0  18    9.50    1.50
   0   0  18    9.20    1.40
   1   0  18    6.10    1.00
   1   0  18    6.10    1.00
   1   0  18    3.70    0.90
   1   0  18    6.20    1.10
   1   0  18    6.50    1.10
   1   0  18    4.50    0.90
   4  -1 -18  111.99    4.30
  -4   1  18  105.89    4.50
  -4   1  18  110.69    4.60
  -4   1  18  111.39    4.00
  -4   1  18  114.39    4.60
   3  -1 -18  204.28    6.70
  -3   1  18  221.58    6.60
  -3   1  18  201.98    6.80
  -3   1  18  208.88    6.40
  -3   1  18  222.48    7.30
  -3   1  18  200.58    6.20
  -3   1  18  211.08    7.20
  -3   1  18  211.98    7.20
  -3   1  18  205.88    6.20
   2  -1 -18  111.69    4.50
  -2   1  18  117.29    5.00
  -2   1  18  114.29    4.50
  -2   1  18  123.29    4.70
  -2   1  18  113.69    4.50
  -2   1  18  116.99    5.00
  -2   1  18  122.09    5.10
  -2   1  18  120.09    5.00
  -2   1  18  115.89    4.50
  -1   1  18  127.89    4.70
  -1   1  18  136.59    4.90
  -1   1  18  140.49    5.10
  -1   1  18  135.09    5.00
  -1   1  18  136.59    5.30
  -1   1  18  145.79    5.50
  -1   1  18  133.19    5.20
  -1   1  18  139.49    5.20
   0   1  18  188.58    5.80
   0   1  18  188.08    5.80
   0   1  18  182.38    5.70
   0   1  18  189.28    6.00
   0   1  18  187.68    5.90
   0   1  18  179.28    5.60
   0   1  18  191.78    6.10
   4  -2 -18    8.20    1.30
  -4   2  18   13.40    1.70
  -4   2  18   10.70    1.30
  -4   2  18    9.20    1.50
  -4   2  18   10.60    2.10
  -3   2  18   77.29    3.70
  -3   2  18   83.09    3.50
  -3   2  18   83.39    3.90
  -3   2  18   81.09    3.40
  -3   2  18   84.59    3.50
  -3   2  18   84.19    4.00
  -3   2  18   78.09    3.30
  -2   2  18   24.30    2.40
  -2   2  18   22.90    2.20
  -2   2  18   25.80    2.20
  -2   2  18   20.70    2.20
  -2   2  18   23.90    2.10
  -2   2  18   21.00    2.00
  -2   2  18   26.40    2.20
  -1   2  18  150.88    5.40
  -1   2  18  144.19    4.70
  -1   2  18  144.29    4.90
  -1   2  18  150.88    5.00
  -1   2  18  146.29    5.00
  -1   2  18  162.48    5.30
  -1   2  18  159.68    5.20
  -3   3  18  160.48    5.00
  -3   3  18  161.88    5.50
  -3   3  18  160.28    5.00
  -3   3  18  150.28    5.30
  -3   3  18  159.68    5.00
  -3   3  18  156.68    4.90
  -2   3  18  145.89    4.70
  -2   3  18  144.09    4.80
  -2   3  18  153.58    4.80
  -2   3  18  154.48    4.90
  -2   3  18  153.28    5.20
  -2   3  18  147.99    5.00
   1   2 -19  200.08    5.70
  -1  -2  19  188.08    5.70
  -1  -2  19  179.88    6.50
  -1  -2  19  193.88    6.20
   2   1 -19   38.20    2.10
  -2  -1  19   40.10    2.10
  -2  -1  19   35.30    2.20
  -2  -1  19   41.40    2.60
   1   1 -19  114.69    3.90
  -1  -1  19  112.19    3.90
  -1  -1  19  111.59    4.00
  -1  -1  19  109.89    4.30
  -1  -1  19  109.49    4.00
  -1  -1  19  117.29    3.80
   2   0 -19   55.09    2.50
  -2   0  19   56.99    2.50
  -2   0  19   54.79    2.70
  -2   0  19   58.49    2.80
  -2   0  19   57.29    3.00
   0   0   0    0.00    0.00

_computing_structure_solution     'SHELXT 2014/5 (Sheldrick, 2014)'
;
_shelx_hkl_checksum              18034
_olex2_exptl_crystal_mounting_method 'mounted on a cryoloop'
_olex2_submission_original_sample_id NR-172-2
_olex2_submission_special_instructions 'No special instructions were received'
loop_
_space_group_symop_operation_xyz
'x, y, z'
'-x, -y, -z'
loop_
_atom_site_label
_atom_site_type_symbol
_atom_site_fract_x
_atom_site_fract_y
_atom_site_fract_z
_atom_site_U_iso_or_equiv
_atom_site_adp_type
_atom_site_occupancy
_atom_site_site_symmetry_order
_atom_site_calc_flag
_atom_site_refinement_flags_posn
_atom_site_refinement_flags_adp
_atom_site_refinement_flags_occupancy
_atom_site_disorder_assembly
_atom_site_disorder_group
Cu1 Cu 1.000000 0.500000 1.000000 0.01263(10) Uani 1 2 d S TU P . .
O1 O 0.68689(15) 0.42305(12) 0.92836(7) 0.0193(2) Uani 1 1 d . U . . .
O2 O 0.61954(15) 0.20877(12) 0.96700(7) 0.0171(2) Uani 1 1 d . U . . .
O3 O 0.44743(16) 0.13445(12) 0.08821(8) 0.0196(3) Uani 1 1 d . U . . .
O4 O 0.59180(16) 0.34861(12) 0.16613(8) 0.0236(3) Uani 1 1 d . U . . .
N1 N 1.06616(19) 0.50895(16) 0.88100(9) 0.0188(3) Uani 1 1 d . U . . .
N2 N 1.00959(19) 0.30363(14) 0.98791(10) 0.0184(3) Uani 1 1 d . U . . .
C1 C 0.9822(2) 0.5812(2) 0.81950(11) 0.0254(4) Uani 1 1 d . U . . .
H1A H 0.850946 0.528067 0.803001 0.031 Uiso 1 1 calc R . . . .
H1B H 1.033552 0.582928 0.765772 0.031 Uiso 1 1 calc R . . . .
C2 C 1.0365(2) 0.36357(19) 0.84341(11) 0.0243(4) Uani 1 1 d . U . . .
H2A H 1.103227 0.363773 0.795092 0.029 Uiso 1 1 calc R . . . .
H2B H 0.906490 0.312629 0.819863 0.029 Uiso 1 1 calc R . . . .
C3 C 1.1027(2) 0.29234(19) 0.91457(12) 0.0240(3) Uani 1 1 d . U . . .
H3A H 1.076261 0.192449 0.892239 0.029 Uiso 1 1 calc R . . . .
H3B H 1.234851 0.338062 0.934449 0.029 Uiso 1 1 calc R . . . .
C4 C 1.0864(2) 0.25869(19) 1.06697(13) 0.0247(4) Uani 1 1 d . U . . .
H4A H 1.215307 0.318050 1.085954 0.030 Uiso 1 1 calc R . . . .
H4B H 1.079391 0.160428 1.052838 0.030 Uiso 1 1 calc R . . . .
C5 C 0.9872(2) 0.2694(2) 1.14117(13) 0.0284(4) Uani 1 1 d . U . . .
H5A H 1.026160 0.220514 1.187814 0.034 Uiso 1 1 calc R . . . .
H5B H 0.856325 0.219843 1.119289 0.034 Uiso 1 1 calc R . . . .
C6 C 0.5983(2) 0.29501(17) 0.91584(10) 0.0143(3) Uani 1 1 d . U . . .
C7 C 0.4621(2) 0.23363(16) 0.83175(10) 0.0133(3) Uani 1 1 d . U . . .
C8 C 0.4335(2) 0.31936(16) 0.77101(10) 0.0147(3) Uani 1 1 d . U . . .
H8 H 0.496356 0.417779 0.783712 0.018 Uiso 1 1 calc R . . . .
C9 C 0.3140(2) 0.26238(16) 0.69223(10) 0.0142(3) Uani 1 1 d . U . . .
H9 H 0.296784 0.321794 0.651067 0.017 Uiso 1 1 calc R . . . .
C10 C 0.2186(2) 0.11767(16) 0.67300(10) 0.0134(3) Uani 1 1 d . U . . .
C11 C 0.2460(2) 0.03236(16) 0.73474(10) 0.0149(3) Uani 1 1 d . U . . .
H11 H 0.181194 -0.065837 0.722794 0.018 Uiso 1 1 calc R . . . .
C12 C 0.3666(2) 0.08957(16) 0.81313(10) 0.0144(3) Uani 1 1 d . U . . .
H12 H 0.384212 0.030384 0.854377 0.017 Uiso 1 1 calc R . . . .
C13 C 0.0987(2) 0.05649(16) 0.58592(10) 0.0134(3) Uani 1 1 d . U . . .
C14 C 0.1707(2) 0.09602(16) 0.51267(10) 0.0140(3) Uani 1 1 d . U . . .
H14 H 0.289263 0.163339 0.521508 0.017 Uiso 1 1 calc R . . . .
C15 C 0.0782(2) 0.04213(16) 0.42684(10) 0.0134(3) Uani 1 1 d . U . . .
C16 C 0.1768(2) 0.08794(16) 0.35510(10) 0.0139(3) Uani 1 1 d . U . . .
C17 C 0.1711(2) -0.00687(16) 0.28382(10) 0.0151(3) Uani 1 1 d . U . . .
H17 H 0.098273 -0.102890 0.279205 0.018 Uiso 1 1 calc R . . . .
C18 C 0.2702(2) 0.03702(17) 0.21960(10) 0.0157(3) Uani 1 1 d . U . . .
H18 H 0.264137 -0.028657 0.171305 0.019 Uiso 1 1 calc R . . . .
C19 C 0.3787(2) 0.17760(17) 0.22599(10) 0.0150(3) Uani 1 1 d . U . . .
C20 C 0.3880(2) 0.27268(17) 0.29763(11) 0.0167(3) Uani 1 1 d . U . . .
H20 H 0.463446 0.368158 0.302910 0.020 Uiso 1 1 calc R . . . .
C21 C 0.2877(2) 0.22844(17) 0.36127(10) 0.0160(3) Uani 1 1 d . U . . .
H21 H 0.294237 0.294246 0.409607 0.019 Uiso 1 1 calc R . . . .
C22 C 0.4845(2) 0.22947(17) 0.15740(10) 0.0162(3) Uani 1 1 d . U . . .
O1A O 0.3007(2) 0.46985(14) 0.53463(9) 0.0341(3) Uani 1 1 d . U . . .
N1A N 0.2559(2) 0.66746(18) 0.49766(13) 0.0386(4) Uani 1 1 d . U . . .
C1A C 0.3118(3) 0.5591(2) 0.48735(14) 0.0313(4) Uani 1 1 d . U . . .
H1AA H 0.365822 0.550830 0.438113 0.038 Uiso 1 1 calc R . . . .
C2A C 0.1768(4) 0.6905(3) 0.5720(2) 0.0658(8) Uani 1 1 d . U . . .
H2AA H 0.056602 0.693965 0.551700 0.099 Uiso 1 1 calc GR . . . .
H2AB H 0.253540 0.779588 0.608358 0.099 Uiso 1 1 calc GR . . . .
H2AC H 0.166507 0.613686 0.606433 0.099 Uiso 1 1 calc GR . . . .
C3A C 0.2713(4) 0.7643(3) 0.4334(3) 0.0750(10) Uani 1 1 d . U . . .
H3AA H 0.343044 0.859909 0.462454 0.112 Uiso 1 1 calc GR . . . .
H3AB H 0.150608 0.760607 0.406780 0.112 Uiso 1 1 calc GR . . . .
H3AC H 0.330465 0.737238 0.388067 0.112 Uiso 1 1 calc GR . . . .
H1 H 1.179(3) 0.553(2) 0.8915(13) 0.020(5) Uiso 1 1 d . . . . .
H2 H 0.897(3) 0.256(2) 0.9748(14) 0.022(5) Uiso 1 1 d . . . . .
H3 H 0.505(4) 0.164(3) 0.0486(18) 0.045(7) Uiso 1 1 d . . . . .
loop_
_atom_site_aniso_label
_atom_site_aniso_U_11
_atom_site_aniso_U_22
_atom_site_aniso_U_33
_atom_site_aniso_U_23
_atom_site_aniso_U_13
_atom_site_aniso_U_12
Cu1 0.01420(17) 0.01274(17) 0.01104(17) 0.00103(12) 0.00253(12) 0.00500(13)
O1 0.0173(5) 0.0178(5) 0.0181(6) 0.0001(5) -0.0022(4) 0.0030(4)
O2 0.0154(5) 0.0230(6) 0.0120(5) 0.0054(5) 0.0021(4) 0.0053(5)
O3 0.0256(6) 0.0190(6) 0.0151(6) 0.0039(5) 0.0097(5) 0.0060(5)
O4 0.0241(6) 0.0204(6) 0.0236(6) 0.0026(5) 0.0119(5) 0.0014(5)
N1 0.0140(6) 0.0260(7) 0.0136(6) 0.0016(5) 0.0026(5) 0.0036(5)
N2 0.0131(6) 0.0145(6) 0.0263(7) 0.0004(5) 0.0009(5) 0.0052(5)
C1 0.0192(8) 0.0377(9) 0.0151(7) 0.0088(7) 0.0012(6) 0.0042(7)
C2 0.0188(7) 0.0293(8) 0.0200(8) -0.0085(7) 0.0049(6) 0.0048(6)
C3 0.0181(7) 0.0219(7) 0.0297(8) -0.0081(7) 0.0037(6) 0.0075(6)
C4 0.0178(7) 0.0200(7) 0.0353(9) 0.0098(7) -0.0014(6) 0.0069(6)
C5 0.0190(8) 0.0304(9) 0.0338(9) 0.0198(8) -0.0002(7) 0.0047(7)
C6 0.0119(6) 0.0191(7) 0.0119(7) 0.0008(6) 0.0035(5) 0.0052(5)
C7 0.0120(6) 0.0163(6) 0.0112(6) 0.0004(5) 0.0028(5) 0.0048(5)
C8 0.0145(6) 0.0134(6) 0.0143(7) 0.0008(6) 0.0026(5) 0.0029(5)
C9 0.0155(6) 0.0149(7) 0.0115(6) 0.0025(5) 0.0019(5) 0.0049(5)
C10 0.0135(6) 0.0153(6) 0.0112(6) 0.0010(5) 0.0029(5) 0.0048(5)
C11 0.0153(6) 0.0138(6) 0.0141(7) 0.0014(6) 0.0025(5) 0.0035(5)
C12 0.0154(6) 0.0153(7) 0.0123(7) 0.0028(6) 0.0028(5) 0.0050(5)
C13 0.0155(6) 0.0127(6) 0.0123(6) 0.0017(5) 0.0015(5) 0.0060(5)
C14 0.0141(6) 0.0130(6) 0.0137(7) 0.0012(5) 0.0015(5) 0.0041(5)
C15 0.0162(7) 0.0129(6) 0.0124(6) 0.0022(5) 0.0027(5) 0.0067(5)
C16 0.0143(6) 0.0160(6) 0.0119(6) 0.0034(5) 0.0011(5) 0.0062(5)
C17 0.0162(7) 0.0142(7) 0.0136(7) 0.0021(6) 0.0021(6) 0.0040(5)
C18 0.0171(7) 0.0171(7) 0.0132(7) 0.0017(6) 0.0025(6) 0.0070(6)
C19 0.0147(6) 0.0180(7) 0.0137(6) 0.0047(6) 0.0028(5) 0.0072(5)
C20 0.0172(7) 0.0155(7) 0.0166(7) 0.0041(6) 0.0026(6) 0.0045(6)
C21 0.0179(7) 0.0164(7) 0.0135(7) 0.0012(6) 0.0027(6) 0.0061(6)
C22 0.0157(7) 0.0193(7) 0.0168(7) 0.0062(6) 0.0039(6) 0.0091(6)
O1A 0.0496(9) 0.0294(7) 0.0284(7) 0.0073(6) 0.0061(6) 0.0202(7)
N1A 0.0359(9) 0.0270(8) 0.0530(10) -0.0011(8) -0.0026(8) 0.0178(7)
C1A 0.0340(9) 0.0258(9) 0.0358(10) 0.0023(8) 0.0021(8) 0.0154(8)
C2A 0.0568(16) 0.0701(19) 0.076(2) -0.0222(16) 0.0028(15) 0.0421(15)
C3A 0.0701(19) 0.0511(16) 0.124(3) 0.0443(18) 0.0230(19) 0.0377(15)
loop_
_atom_type_symbol
_atom_type_description
_atom_type_scat_dispersion_real
_atom_type_scat_dispersion_imag
_atom_type_scat_source
C C 0.0181 0.0091 'International Tables Vol C Tables 4.2.6.8 and 6.1.1.4'
H H 0.0000 0.0000 'International Tables Vol C Tables 4.2.6.8 and 6.1.1.4'
Cu Cu -1.9646 0.5888 'International Tables Vol C Tables 4.2.6.8 and 6.1.1.4'
N N 0.0311 0.0180 'International Tables Vol C Tables 4.2.6.8 and 6.1.1.4'
O O 0.0492 0.0322 'International Tables Vol C Tables 4.2.6.8 and 6.1.1.4'
loop_
_geom_angle_atom_site_label_1
_geom_angle_atom_site_label_2
_geom_angle_atom_site_label_3
_geom_angle
_geom_angle_site_symmetry_1
_geom_angle_site_symmetry_3
_geom_angle_publ_flag
O1 Cu1 O1 180.0 2_767 . ?
N1 Cu1 O1 91.99(5) 2_767 . ?
N1 Cu1 O1 88.01(5) . . ?
N1 Cu1 O1 91.99(5) . 2_767 ?
N1 Cu1 O1 88.01(5) 2_767 2_767 ?
N1 Cu1 N1 180.0 . 2_767 ?
N1 Cu1 N2 93.74(6) 2_767 . ?
N1 Cu1 N2 86.26(6) 2_767 2_767 ?
N1 Cu1 N2 93.74(6) . 2_767 ?
N1 Cu1 N2 86.26(6) . . ?
N2 Cu1 O1 93.83(5) . . ?
N2 Cu1 O1 86.17(5) . 2_767 ?
N2 Cu1 O1 86.17(5) 2_767 . ?
N2 Cu1 O1 93.83(5) 2_767 2_767 ?
N2 Cu1 N2 180.0 . 2_767 ?
C6 O1 Cu1 117.97(10) . . ?
C22 O3 H3 113.5(18) . . ?
Cu1 N1 H1 104.2(14) . . ?
C1 N1 Cu1 118.38(11) . . ?
C1 N1 H1 107.6(14) . . ?
C2 N1 Cu1 106.48(10) . . ?
C2 N1 C1 112.29(14) . . ?
C2 N1 H1 107.2(14) . . ?
Cu1 N2 H2 99.6(14) . . ?
C3 N2 Cu1 106.18(10) . . ?
C3 N2 C4 112.65(14) . . ?
C3 N2 H2 112.4(14) . . ?
C4 N2 Cu1 117.31(11) . . ?
C4 N2 H2 108.1(14) . . ?
N1 C1 H1A 109.2 . . ?
N1 C1 H1B 109.2 . . ?
N1 C1 C5 111.96(14) . 2_767 ?
H1A C1 H1B 107.9 . . ?
C5 C1 H1A 109.2 2_767 . ?
C5 C1 H1B 109.2 2_767 . ?
N1 C2 H2A 110.0 . . ?
N1 C2 H2B 110.0 . . ?
N1 C2 C3 108.33(14) . . ?
H2A C2 H2B 108.4 . . ?
C3 C2 H2A 110.0 . . ?
C3 C2 H2B 110.0 . . ?
N2 C3 C2 108.22(13) . . ?
N2 C3 H3A 110.1 . . ?
N2 C3 H3B 110.1 . . ?
C2 C3 H3A 110.1 . . ?
C2 C3 H3B 110.1 . . ?
H3A C3 H3B 108.4 . . ?
N2 C4 H4A 109.3 . . ?
N2 C4 H4B 109.3 . . ?
N2 C4 C5 111.80(14) . . ?
H4A C4 H4B 107.9 . . ?
C5 C4 H4A 109.3 . . ?
C5 C4 H4B 109.3 . . ?
C1 C5 H5A 108.7 2_767 . ?
C1 C5 H5B 108.7 2_767 . ?
C4 C5 C1 114.30(15) . 2_767 ?
C4 C5 H5A 108.7 . . ?
C4 C5 H5B 108.7 . . ?
H5A C5 H5B 107.6 . . ?
O1 C6 O2 124.95(14) . . ?
O1 C6 C7 118.33(14) . . ?
O2 C6 C7 116.62(14) . . ?
C8 C7 C6 120.58(14) . . ?
C8 C7 C12 119.20(14) . . ?
C12 C7 C6 120.19(13) . . ?
C7 C8 H8 119.7 . . ?
C9 C8 C7 120.64(14) . . ?
C9 C8 H8 119.7 . . ?
C8 C9 H9 119.8 . . ?
C8 C9 C10 120.36(14) . . ?
C10 C9 H9 119.8 . . ?
C9 C10 C13 119.86(13) . . ?
C11 C10 C9 118.77(14) . . ?
C11 C10 C13 121.28(14) . . ?
C10 C11 H11 119.6 . . ?
C12 C11 C10 120.71(14) . . ?
C12 C11 H11 119.6 . . ?
C7 C12 H12 119.8 . . ?
C11 C12 C7 120.31(14) . . ?
C11 C12 H12 119.8 . . ?
C14 C13 C10 117.07(14) . . ?
C14 C13 C15 118.41(14) . 2_556 ?
C15 C13 C10 124.47(14) 2_556 . ?
C13 C14 H14 118.2 . . ?
C13 C14 C15 123.65(15) . . ?
C15 C14 H14 118.2 . . ?
C13 C15 C16 124.44(14) 2_556 . ?
C14 C15 C13 117.94(14) . 2_556 ?
C14 C15 C16 117.56(14) . . ?
C17 C16 C15 121.95(14) . . ?
C17 C16 C21 118.42(14) . . ?
C21 C16 C15 119.51(14) . . ?
C16 C17 H17 119.5 . . ?
C18 C17 C16 121.03(14) . . ?
C18 C17 H17 119.5 . . ?
C17 C18 H18 120.0 . . ?
C17 C18 C19 120.01(15) . . ?
C19 C18 H18 120.0 . . ?
C18 C19 C22 121.62(14) . . ?
C20 C19 C18 119.48(14) . . ?
C20 C19 C22 118.89(14) . . ?
C19 C20 H20 119.9 . . ?
C21 C20 C19 120.26(15) . . ?
C21 C20 H20 119.9 . . ?
C16 C21 H21 119.6 . . ?
C20 C21 C16 120.79(15) . . ?
C20 C21 H21 119.6 . . ?
O3 C22 C19 113.18(14) . . ?
O4 C22 O3 124.77(15) . . ?
O4 C22 C19 122.05(15) . . ?
C1A N1A C2A 120.5(2) . . ?
C1A N1A C3A 120.7(2) . . ?
C2A N1A C3A 118.8(2) . . ?
O1A C1A N1A 126.5(2) . . ?
O1A C1A H1AA 116.8 . . ?
N1A C1A H1AA 116.8 . . ?
N1A C2A H2AA 109.5 . . ?
N1A C2A H2AB 109.5 . . ?
N1A C2A H2AC 109.5 . . ?
H2AA C2A H2AB 109.5 . . ?
H2AA C2A H2AC 109.5 . . ?
H2AB C2A H2AC 109.5 . . ?
N1A C3A H3AA 109.5 . . ?
N1A C3A H3AB 109.5 . . ?
N1A C3A H3AC 109.5 . . ?
H3AA C3A H3AB 109.5 . . ?
H3AA C3A H3AC 109.5 . . ?
H3AB C3A H3AC 109.5 . . ?
loop_
_geom_bond_atom_site_label_1
_geom_bond_atom_site_label_2
_geom_bond_distance
_geom_bond_site_symmetry_2
_geom_bond_publ_flag
Cu1 O1 2.4175(11) . ?
Cu1 O1 2.4175(11) 2_767 ?
Cu1 N1 2.0153(13) . ?
Cu1 N1 2.0153(14) 2_767 ?
Cu1 N2 2.0275(13) . ?
Cu1 N2 2.0275(13) 2_767 ?
O1 C6 1.245(2) . ?
O2 C6 1.2780(19) . ?
O3 C22 1.315(2) . ?
O3 H3 0.85(3) . ?
O4 C22 1.216(2) . ?
N1 C1 1.479(2) . ?
N1 C2 1.476(2) . ?
N1 H1 0.84(2) . ?
N2 C3 1.477(2) . ?
N2 C4 1.478(2) . ?
N2 H2 0.85(2) . ?
C1 H1A 0.9900 . ?
C1 H1B 0.9900 . ?
C1 C5 1.520(3) 2_767 ?
C2 H2A 0.9900 . ?
C2 H2B 0.9900 . ?
C2 C3 1.509(3) . ?
C3 H3A 0.9900 . ?
C3 H3B 0.9900 . ?
C4 H4A 0.9900 . ?
C4 H4B 0.9900 . ?
C4 C5 1.519(3) . ?
C5 H5A 0.9900 . ?
C5 H5B 0.9900 . ?
C6 C7 1.511(2) . ?
C7 C8 1.394(2) . ?
C7 C12 1.395(2) . ?
C8 H8 0.9500 . ?
C8 C9 1.386(2) . ?
C9 H9 0.9500 . ?
C9 C10 1.401(2) . ?
C10 C11 1.399(2) . ?
C10 C13 1.492(2) . ?
C11 H11 0.9500 . ?
C11 C12 1.386(2) . ?
C12 H12 0.9500 . ?
C13 C14 1.393(2) . ?
C13 C15 1.411(2) 2_556 ?
C14 H14 0.9500 . ?
C14 C15 1.398(2) . ?
C15 C16 1.491(2) . ?
C16 C17 1.397(2) . ?
C16 C21 1.401(2) . ?
C17 H17 0.9500 . ?
C17 C18 1.389(2) . ?
C18 H18 0.9500 . ?
C18 C19 1.395(2) . ?
C19 C20 1.393(2) . ?
C19 C22 1.494(2) . ?
C20 H20 0.9500 . ?
C20 C21 1.388(2) . ?
C21 H21 0.9500 . ?
O1A C1A 1.215(2) . ?
N1A C1A 1.332(3) . ?
N1A C2A 1.445(4) . ?
N1A C3A 1.463(3) . ?
C1A H1AA 0.9500 . ?
C2A H2AA 0.9800 . ?
C2A H2AB 0.9800 . ?
C2A H2AC 0.9800 . ?
C3A H3AA 0.9800 . ?
C3A H3AB 0.9800 . ?
C3A H3AC 0.9800 . ?
loop_
_geom_hbond_atom_site_label_D
_geom_hbond_atom_site_label_H
_geom_hbond_atom_site_label_A
_geom_hbond_distance_DH
_geom_hbond_distance_HA
_geom_hbond_distance_DA
_geom_hbond_angle_DHA
_geom_hbond_site_symmetry_A
_geom_hbond_publ_flag
C1 H1A O1 0.99 2.64 3.206(2) 116.7 . yes
C4 H4A O1 0.99 2.54 3.142(2) 119.1 2_767 yes
N1 H1 O4 0.84(2) 2.15(2) 2.8838(18) 144.5(19) 2_766 yes
N2 H2 O2 0.85(2) 2.09(2) 2.9019(18) 158.5(19) . yes
O3 H3 O2 0.85(3) 1.69(3) 2.5365(15) 175(3) 1_554 yes
loop_
_geom_torsion_atom_site_label_1
_geom_torsion_atom_site_label_2
_geom_torsion_atom_site_label_3
_geom_torsion_atom_site_label_4
_geom_torsion
_geom_torsion_site_symmetry_1
_geom_torsion_site_symmetry_2
_geom_torsion_site_symmetry_3
_geom_torsion_site_symmetry_4
_geom_torsion_publ_flag
Cu1 O1 C6 O2 34.08(19) . . . . ?
Cu1 O1 C6 C7 -142.29(10) . . . . ?
Cu1 N1 C1 C5 55.04(18) . . . 2_767 ?
Cu1 N1 C2 C3 -40.87(15) . . . . ?
Cu1 N2 C3 C2 -40.58(15) . . . . ?
Cu1 N2 C4 C5 56.99(17) . . . . ?
O1 C6 C7 C8 -1.7(2) . . . . ?
O1 C6 C7 C12 176.78(14) . . . . ?
O2 C6 C7 C8 -178.37(14) . . . . ?
O2 C6 C7 C12 0.1(2) . . . . ?
N1 C2 C3 N2 55.55(18) . . . . ?
N2 C4 C5 C1 -69.90(19) . . . 2_767 ?
C1 N1 C2 C3 -171.93(14) . . . . ?
C2 N1 C1 C5 179.78(14) . . . 2_767 ?
C3 N2 C4 C5 -179.27(14) . . . . ?
C4 N2 C3 C2 -170.28(14) . . . . ?
C6 C7 C8 C9 177.30(14) . . . . ?
C6 C7 C12 C11 -177.83(14) . . . . ?
C7 C8 C9 C10 0.8(2) . . . . ?
C8 C7 C12 C11 0.7(2) . . . . ?
C8 C9 C10 C11 0.1(2) . . . . ?
C8 C9 C10 C13 -176.38(14) . . . . ?
C9 C10 C11 C12 -0.6(2) . . . . ?
C9 C10 C13 C14 48.7(2) . . . . ?
C9 C10 C13 C15 -134.06(16) . . . 2_556 ?
C10 C11 C12 C7 0.2(2) . . . . ?
C10 C13 C14 C15 176.64(14) . . . . ?
C11 C10 C13 C14 -127.74(16) . . . . ?
C11 C10 C13 C15 49.5(2) . . . 2_556 ?
C12 C7 C8 C9 -1.2(2) . . . . ?
C13 C10 C11 C12 175.81(14) . . . . ?
C13 C14 C15 C13 0.8(2) . . . 2_556 ?
C13 C14 C15 C16 -176.40(14) . . . . ?
C13 C15 C16 C17 -42.0(2) 2_556 . . . ?
C13 C15 C16 C21 142.02(16) 2_556 . . . ?
C14 C15 C16 C17 135.00(16) . . . . ?
C14 C15 C16 C21 -41.0(2) . . . . ?
C15 C13 C14 C15 -0.8(2) 2_556 . . . ?
C15 C16 C17 C18 -177.17(14) . . . . ?
C15 C16 C21 C20 176.78(14) . . . . ?
C16 C17 C18 C19 0.5(2) . . . . ?
C17 C16 C21 C20 0.6(2) . . . . ?
C17 C18 C19 C20 0.7(2) . . . . ?
C17 C18 C19 C22 -178.79(14) . . . . ?
C18 C19 C20 C21 -1.2(2) . . . . ?
C18 C19 C22 O3 7.5(2) . . . . ?
C18 C19 C22 O4 -173.17(15) . . . . ?
C19 C20 C21 C16 0.5(2) . . . . ?
C20 C19 C22 O3 -171.97(14) . . . . ?
C20 C19 C22 O4 7.3(2) . . . . ?
C21 C16 C17 C18 -1.1(2) . . . . ?
C22 C19 C20 C21 178.31(14) . . . . ?
C2A N1A C1A O1A 1.7(3) . . . . ?
C3A N1A C1A O1A -177.5(2) . . . . ?
