#------------------------------------------------------------------------------
#$Date: 2021-07-05 20:38:50 +0300 (Mon, 05 Jul 2021) $
#$Revision: 267178 $
#$URL: file:///home/coder/svn-repositories/cod/cif/7/70/73/7707385.cif $
#------------------------------------------------------------------------------
#
# This file is available in the Crystallography Open Database (COD),
# http://www.crystallography.net/
#
# All data on this site have been placed in the public domain by the
# contributors.
#
data_7707385
loop_
_publ_author_name
'Dissem, Nour'
'Essalhi, Mohamed'
'Ferhi, Najmeddine'
'Abidi, Adela'
'Maris, Thierry'
'Duong, Adam'
_publ_section_title
;
 Flexible and porous 2D layered structures based on mixed-linker
 metal-organic frameworks for gas sorption studies.
;
_journal_issue                   25
_journal_name_full
'Dalton transactions (Cambridge, England : 2003)'
_journal_page_first              8727
_journal_page_last               8735
_journal_paper_doi               10.1039/d1dt00426c
_journal_volume                  50
_journal_year                    2021
_chemical_formula_moiety         'C44 H44 N4 O8 Zn, 2(C H2 Cl2)'
_chemical_formula_sum            'C46 H48 Cl4 N4 O8 Zn'
_chemical_formula_weight         992.05
_space_group_crystal_system      triclinic
_space_group_IT_number           2
_space_group_name_Hall           '-P 1'
_space_group_name_H-M_alt        'P -1'
_atom_sites_solution_hydrogens   geom
_atom_sites_solution_primary     dual
_audit_creation_date             2020-02-07
_audit_creation_method
;
Olex2 1.3
(compiled Nov 21 2019 18:26:39 for OlexSys, GUI svn.r6003)
;
_audit_update_record
;
2020-11-22 deposited with the CCDC.	2021-05-13 downloaded from the CCDC.
;
_cell_angle_alpha                96.284(4)
_cell_angle_beta                 99.271(4)
_cell_angle_gamma                110.636(4)
_cell_formula_units_Z            1
_cell_length_a                   8.2596(5)
_cell_length_b                   9.9708(6)
_cell_length_c                   15.6266(9)
_cell_measurement_reflns_used    3417
_cell_measurement_temperature    100
_cell_measurement_theta_max      69.978
_cell_measurement_theta_min      2.913
_cell_volume                     1169.21(13)
_computing_cell_refinement
;
SAINT (2017) V8.38A; Integration Software for Single Crystal Data.
Bruker AXS Inc., Madison, WI 53719-1173.
;
_computing_data_collection
;
APEX 3 (2019) Bruker AXS Inc., Madison, WI 53719-1173.
;
_computing_data_reduction
;
SAINT (2017) V8.38A; Integration Software for Single Crystal Data.
Bruker AXS Inc., Madison, WI 53719-1173.
;
_computing_molecular_graphics    'Olex2 1.3 (Dolomanov et al., 2009)'
_computing_publication_material  'Olex2 1.3 (Dolomanov et al., 2009)'
_computing_structure_refinement  'XL  (Sheldrick, 2008)'
_computing_structure_solution    'SHELXT 2014/5 (Sheldrick, 2014)'
_diffrn_ambient_temperature      100
_diffrn_detector                 'CCD area detector'
_diffrn_detector_area_resol_mean 8.3
_diffrn_detector_type            'Bruker APEX2 CCD'
_diffrn_measured_fraction_theta_full 0.957
_diffrn_measured_fraction_theta_max 0.946
_diffrn_measurement_device       'three-circle diffractometer'
_diffrn_measurement_device_type  'Bruker Smart APEX'
_diffrn_measurement_method       '\w scans'
_diffrn_radiation_collimation    'Focusing mirrors'
_diffrn_radiation_monochromator  'Quazar MX Mirror Optics'
_diffrn_radiation_probe          x-ray
_diffrn_radiation_type           CuK\a
_diffrn_radiation_wavelength     1.54178
_diffrn_reflns_av_R_equivalents  0.0328
_diffrn_reflns_av_unetI/netI     0.0402
_diffrn_reflns_Laue_measured_fraction_full 0.957
_diffrn_reflns_Laue_measured_fraction_max 0.946
_diffrn_reflns_limit_h_max       10
_diffrn_reflns_limit_h_min       -10
_diffrn_reflns_limit_k_max       11
_diffrn_reflns_limit_k_min       -12
_diffrn_reflns_limit_l_max       19
_diffrn_reflns_limit_l_min       -19
_diffrn_reflns_number            10190
_diffrn_reflns_point_group_measured_fraction_full 0.957
_diffrn_reflns_point_group_measured_fraction_max 0.946
_diffrn_reflns_theta_full        67.679
_diffrn_reflns_theta_max         70.062
_diffrn_reflns_theta_min         2.913
_diffrn_source                   'Microfocus Source'
_diffrn_source_current           0.65
_diffrn_source_power             0.02912
_diffrn_source_target            Cu
_diffrn_source_type              'Incoatec I\mS High Brilliance Microsource'
_diffrn_source_voltage           44.8
_exptl_absorpt_coefficient_mu    3.296
_exptl_absorpt_correction_T_max  0.7533
_exptl_absorpt_correction_T_min  0.6552
_exptl_absorpt_correction_type   multi-scan
_exptl_absorpt_process_details
;
SADABS-2016/2 (Bruker,2016/2) was used for absorption correction.
wR2(int) was 0.0831 before and 0.0453 after correction.
The Ratio of minimum to maximum transmission is 0.8698.
The \l/2 correction factor is Not present.
;
_exptl_crystal_colour            'clear light colourless'
_exptl_crystal_colour_lustre     clear
_exptl_crystal_colour_modifier   light
_exptl_crystal_colour_primary    colourless
_exptl_crystal_density_diffrn    1.409
_exptl_crystal_description       block
_exptl_crystal_F_000             514
_exptl_crystal_size_max          0.12
_exptl_crystal_size_mid          0.071
_exptl_crystal_size_min          0.067
_refine_diff_density_max         0.894
_refine_diff_density_min         -1.094
_refine_diff_density_rms         0.074
_refine_ls_extinction_method     none
_refine_ls_goodness_of_fit_ref   1.065
_refine_ls_hydrogen_treatment    constr
_refine_ls_matrix_type           full
_refine_ls_number_parameters     287
_refine_ls_number_reflns         4192
_refine_ls_number_restraints     0
_refine_ls_restrained_S_all      1.065
_refine_ls_R_factor_all          0.0581
_refine_ls_R_factor_gt           0.0534
_refine_ls_shift/su_max          0.000
_refine_ls_shift/su_mean         0.000
_refine_ls_structure_factor_coef Fsqd
_refine_ls_weighting_details
'w=1/[\s^2^(Fo^2^)+(0.0679P)^2^+1.4452P] where P=(Fo^2^+2Fc^2^)/3'
_refine_ls_weighting_scheme      calc
_refine_ls_wR_factor_gt          0.1368
_refine_ls_wR_factor_ref         0.1405
_reflns_Friedel_coverage         0.000
_reflns_number_gt                3727
_reflns_number_total             4192
_reflns_threshold_expression     'I > 2\s(I)'
_cod_data_source_file            d1dt00426c2.cif
_cod_data_source_block           ada256
_cod_depositor_comments
;
The following automatic conversions were performed:

data item '_diffrn_radiation_probe' value 'X-ray' was changed to
'x-ray' in accordance with the
/home/data/users/saulius/crontab/automatic-downloads/rss-feeds/RSC/lib/dictionaries/cif_core.dic
dictionary named 'cif_core.dic' version 2.4.2 last updated on
2011-04-26.

Automatic conversion script
Id: cif_fix_values 7556 2019-12-06 15:28:31Z antanas 

 Adding full bibliography for 7707385--7707390.cif.
;
_cod_original_cell_volume        1169.21(12)
_cod_database_code               7707385
_shelx_shelxl_version_number     2018/3
_shelx_space_group_comment
;
The symmetry employed for this shelxl refinement is uniquely defined
by the following loop, which should always be used as a source of
symmetry information in preference to the above space-group names.
They are only intended as comments.
;
_shelx_estimated_absorpt_t_max   0.809
_shelx_estimated_absorpt_t_min   0.693
_olex2_refinement_description
;
1. Fixed Uiso
 At 1.2 times of:
  All C(H) groups, All C(H,H) groups, All N(H) groups
 At 1.5 times of:
  All O(H) groups
2.a Ternary CH refined with riding coordinates:
 N1(H1), N2(H2A)
2.b Secondary CH2 refined with riding coordinates:
 C18(H18A,H18B), C19(H19A,H19B), C20(H20A,H20B), C21(H21A,H21B), C22(H22A,
 H22B), C1A(H1AA,H1AB)
2.c Aromatic/amide H refined with riding coordinates:
 C3(H3), C4(H4), C6(H6), C7(H7), C9(H9), C12(H12), C13(H13), C15(H15), C16(H16)
2.d Idealised tetrahedral OH refined as rotating group:
 O2(H2)
;
_shelx_res_file
;
TITL ada256_a.res in P-1
    ada256.res
    created by SHELXL-2018/3 at 15:42:57 on 07-Feb-2020
REM Old TITL ada256 in P-1
REM SHELXT solution in P-1
REM R1 0.158, Rweak 0.012, Alpha 0.056, Orientation as input
REM Formula found by SHELXT: C48 N2 O10 Cl2 Zn
CELL 1.54178 8.2596 9.9708 15.6266 96.284 99.271 110.636
ZERR 1 0.0005 0.0006 0.0009 0.004 0.004 0.004
LATT 1
SFAC C H Cl N O Zn
UNIT 46 48 4 4 8 1

L.S. 4 0 0
PLAN  4
SIZE 0.067 0.071 0.12
TEMP 23
CONF
BOND $H
list 4
MORE -1
fmap 2 53
acta
REM <olex2.extras>
REM <HklSrc "%.\\ada256.hkl">
REM </olex2.extras>

WGHT    0.067900    1.445200
FVAR       0.68906
ZN1   6    1.000000    1.000000    1.000000    10.50000    0.02006    0.02042 =
         0.01810    0.00364    0.00528    0.00678
O1    5    0.573159    0.853446    0.166265    11.00000    0.03199    0.02643 =
         0.03351    0.00606    0.01790    0.00545
O2    5    0.432727    0.624762    0.091060    11.00000    0.03192    0.02710 =
         0.02250    0.00706    0.01223    0.00922
AFIX 147
H2    2    0.486034    0.658355    0.053523    11.00000   -1.50000
AFIX   0
O3    5    0.613915    0.712782    0.975178    11.00000    0.02157    0.02705 =
         0.01890    0.00757    0.00456    0.00581
O4    5    0.723547    0.920672    0.925360    11.00000    0.01763    0.02379 =
         0.02431    0.00424    0.00076    0.00306
N1    4    1.075245    1.033243    0.880418    11.00000    0.02099    0.04637 =
         0.01964    0.00534    0.00607    0.00504
AFIX  13
H1    2    1.203621    1.087642    0.894124    11.00000   -1.20000
AFIX   0
N2    4    1.009006    0.791340    0.969884    11.00000    0.02249    0.02089 =
         0.04482   -0.00008    0.00065    0.00631
AFIX  13
H2A   2    0.887395    0.721520    0.946465    11.00000   -1.20000
AFIX   0
C1    1    0.469734    0.728811    0.159353    11.00000    0.02057    0.02743 =
         0.02354    0.00804    0.00686    0.01044
C2    1    0.368942    0.679470    0.228930    11.00000    0.02048    0.02488 =
         0.02097    0.00653    0.00436    0.00793
C3    1    0.363059    0.782477    0.294481    11.00000    0.02221    0.02584 =
         0.02406    0.00675    0.00589    0.00477
AFIX  43
H3    2    0.425426    0.880942    0.295882    11.00000   -1.20000
AFIX   0
C4    1    0.265472    0.740231    0.357698    11.00000    0.02478    0.02486 =
         0.01954    0.00114    0.00500    0.00520
AFIX  43
H4    2    0.261376    0.810474    0.400736    11.00000   -1.20000
AFIX   0
C5    1    0.172541    0.592047    0.357360    11.00000    0.01813    0.02643 =
         0.01838    0.00488    0.00204    0.00285
C6    1    0.181838    0.489120    0.292273    11.00000    0.02495    0.02396 =
         0.02251    0.00590    0.00604    0.00292
AFIX  43
H6    2    0.122634    0.390490    0.291858    11.00000   -1.20000
AFIX   0
C7    1    0.277678    0.531313    0.228312    11.00000    0.02299    0.02662 =
         0.02126    0.00331    0.00469    0.00717
AFIX  43
H7    2    0.281463    0.461354    0.184977    11.00000   -1.20000
AFIX   0
C8    1    0.076228    0.545498    0.428223    11.00000    0.02541    0.02495 =
         0.01876    0.00296    0.00474    0.00512
C9    1    0.167667    0.603316    0.515192    11.00000    0.02086    0.02549 =
         0.02206    0.00203    0.00508    0.00037
AFIX  43
H9    2    0.281411    0.673964    0.525411    11.00000   -1.20000
AFIX   0
C10   1    0.097269    0.560618    0.587911    11.00000    0.02293    0.02455 =
         0.01972    0.00244    0.00342    0.00467
C11   1    0.216098    0.620865    0.676785    11.00000    0.01937    0.02760 =
         0.01775    0.00261    0.00593    0.00366
C12   1    0.236944    0.530423    0.736195    11.00000    0.02199    0.02087 =
         0.02174    0.00156    0.00610    0.00231
AFIX  43
H12   2    0.167329    0.431418    0.722545    11.00000   -1.20000
AFIX   0
C13   1    0.360337    0.586520    0.815389    11.00000    0.02219    0.02292 =
         0.02113    0.00622    0.00758    0.00725
AFIX  43
H13   2    0.371805    0.525114    0.854663    11.00000   -1.20000
AFIX   0
C14   1    0.467198    0.734199    0.836501    11.00000    0.01622    0.02470 =
         0.01858    0.00250    0.00659    0.00623
C15   1    0.445260    0.825648    0.778046    11.00000    0.02052    0.02061 =
         0.02153    0.00305    0.00578    0.00343
AFIX  43
H15   2    0.514771    0.924669    0.791890    11.00000   -1.20000
AFIX   0
C16   1    0.320423    0.769739    0.699439    11.00000    0.02505    0.02623 =
         0.01908    0.00708    0.00536    0.00739
AFIX  43
H16   2    0.305822    0.831929    0.661291    11.00000   -1.20000
AFIX   0
C17   1    0.610422    0.794652    0.919606    11.00000    0.01687    0.02656 =
         0.01893    0.00271    0.00785    0.00815
C18   1    0.993152    1.119525    0.828742    11.00000    0.02825    0.06841 =
         0.02805    0.02481    0.00445    0.01105
AFIX  23
H18A  2    0.867415    1.062921    0.807865    11.00000   -1.20000
H18B  2    1.045014    1.136673    0.777568    11.00000   -1.20000
AFIX   0
C19   1    1.043366    0.888943    0.833064    11.00000    0.02791    0.05672 =
         0.02783   -0.00927    0.00831    0.00991
AFIX  23
H19A  2    1.107417    0.897699    0.785783    11.00000   -1.20000
H19B  2    0.918046    0.838226    0.807394    11.00000   -1.20000
AFIX   0
C20   1    1.105135    0.803781    0.896832    11.00000    0.02675    0.03869 =
         0.05131   -0.01564    0.00779    0.01045
AFIX  23
H20A  2    1.083723    0.707277    0.865953    11.00000   -1.20000
H20B  2    1.231431    0.852804    0.920567    11.00000   -1.20000
AFIX   0
C21   1    1.085274    0.741402    1.045328    11.00000    0.02652    0.02362 =
         0.06690    0.01090   -0.00441    0.00673
AFIX  23
H21A  2    1.207457    0.806925    1.068186    11.00000   -1.20000
H21B  2    1.084318    0.645193    1.026178    11.00000   -1.20000
AFIX   0
C22   1    0.981945    0.735667    1.118281    11.00000    0.02958    0.04523 =
         0.05857    0.03300   -0.00064    0.00506
AFIX  23
H22A  2    0.856912    0.685038    1.091932    11.00000   -1.20000
H22B  2    1.015115    0.677765    1.158603    11.00000   -1.20000
AFIX   0

CL1A  3    0.168535    0.155129    0.591050    11.00000    0.07525    0.09977 =
         0.08118   -0.00366    0.02491    0.00809
CL2A  3    0.319517    0.233402    0.439614    11.00000    0.08183    0.33820 =
         0.06266    0.04826    0.02726    0.10758
C1A   1    0.302766    0.291401    0.546225    11.00000    0.10601    0.11909 =
         0.08499    0.04707    0.04833    0.08588
AFIX  23
H1AA  2    0.420331    0.332056    0.583978    11.00000   -1.20000
H1AB  2    0.256840    0.368469    0.545150    11.00000   -1.20000
AFIX   0
HKLF 4




REM  ada256_a.res in P-1
REM wR2 = 0.140460, GooF = S = 1.06451, Restrained GooF = 1.06451 for all data
REM R1 = 0.053381 for 3727 Fo > 4sig(Fo) and 0.058136 for all 4192 data
REM 287 parameters refined using 0 restraints

END

WGHT      0.0681      1.4443

REM Highest difference peak  0.894,  deepest hole -1.094,  1-sigma level  0.074
Q1    1   0.3373  0.1770  0.4550  11.00000  0.05    0.89
Q2    1   0.2469  0.1801  0.4181  11.00000  0.05    0.68
Q3    1   0.3605  0.3180  0.4479  11.00000  0.05    0.63
Q4    1   0.1923  0.0679  0.5726  11.00000  0.05    0.53
;
_shelx_res_checksum              55832
_shelx_hkl_file
;
  -1   0   0  499.15   17.90
  -1   0   0  529.85   17.90
  -1   0   0  498.05   17.40
   1   0   0  505.05   17.60
   1   0   0  516.35   17.30
   1   0   0  502.15   18.20
  -2   0   0  120.69    6.70
  -2   0   0  112.69    6.30
  -2   0   0  117.79    5.90
   2   0   0  112.79    5.40
   2   0   0  112.79    6.00
   2   0   0  122.19    7.10
  -3   0   0  807.42   31.20
  -3   0   0  834.92   31.80
  -3   0   0  809.12   30.10
   3   0   0  818.52   30.40
   3   0   0  814.42   29.40
   3   0   0  855.41   32.90
  -4   0   0   28.80    4.70
  -4   0   0   29.50    5.20
   4   0   0   25.80    4.80
   4   0   0   39.30    5.20
  -5   0   0  239.08   15.40
   5   0   0  221.38   16.50
  -6   0   0   91.19    8.60
   6   0   0   86.79    7.40
  -7   0   0   60.59    7.20
   7   0   0   75.09    7.80
  -8   0   0   13.60    3.30
  -9   0   0    7.90    1.90
  -9   1   0    0.50    1.20
   8  -1   0  232.88   12.70
  -8   1   0  225.68   13.10
   7  -1   0  146.39   10.20
  -7   1   0  150.38   10.30
   6  -1   0  174.58   19.60
  -6   1   0  178.18   12.10
  -6   1   0  152.48   15.50
   5  -1   0   73.29    8.20
   5  -1   0   71.59    9.90
  -5   1   0   71.99    9.20
  -5   1   0   82.99    9.90
   4  -1   0  546.15   25.20
   4  -1   0  536.55   22.40
  -4   1   0  501.55   23.70
  -4   1   0  545.35   23.60
   3  -1   0  160.88    8.80
   3  -1   0  170.78   10.10
   3  -1   0  169.58    7.70
  -3   1   0  159.68    7.30
  -3   1   0  165.38    9.10
  -3   1   0  173.98    9.80
   2  -1   0  730.43   25.00
   2  -1   0  750.92   26.20
   2  -1   0  721.03   27.10
  -2   1   0  749.42   26.10
  -2   1   0  716.83   27.00
  -2   1   0  703.33   24.30
   1  -1   0  609.24   20.60
   1  -1   0  585.14   21.10
   1  -1   0  569.04   20.00
  -1   1   0  597.24   20.10
  -1   1   0  594.44   21.10
   0  -1   0    6.90    1.10
   0  -1   0    5.60    0.90
   0  -1   0    5.60    0.80
   0  -1   0    5.60    1.10
   0   1   0    6.80    0.70
   0   1   0    5.30    0.80
  -1  -1   0  825.92   31.30
  -1  -1   0  913.71   31.70
  -1  -1   0  933.21   31.50
  -1  -1   0  924.41   30.00
   1   1   0  925.51   32.20
   1   1   0  931.81   30.80
  -2  -1   0 2015.70   69.39
  -2  -1   0 2089.29   69.89
  -2  -1   0 2009.20   67.99
   2   1   0 2088.09   68.69
   2   1   0 2020.80   68.39
   2   1   0 2057.29   70.79
  -3  -1   0 1246.08   46.50
  -3  -1   0 1251.67   45.50
  -3  -1   0 1355.06   48.00
   3   1   0 1283.17   48.50
   3   1   0 1319.87   45.40
   3   1   0 1245.58   45.00
  -4  -1   0  374.26   19.70
  -4  -1   0  346.57   18.00
   4   1   0  377.96   20.30
  -5  -1   0  390.76   22.60
   5   1   0  362.26   22.90
  -6  -1   0   19.70    4.30
   6   1   0   12.70    3.50
  -7  -1   0  209.18   12.70
  -8  -1   0   29.70    4.50
  -9   2   0   16.10    3.10
   8  -2   0   10.00    3.40
  -8   2   0   18.00    4.10
   7  -2   0   26.50    4.80
  -7   2   0   23.40    4.40
   6  -2   0   11.50    5.10
  -6   2   0   20.50    5.90
  -6   2   0   25.10    5.30
   5  -2   0   91.19   12.00
   5  -2   0   96.59    9.70
  -5   2   0  110.49   12.10
  -5   2   0  101.79   10.50
   4  -2   0    3.20    2.70
   4  -2   0    1.60    1.60
  -4   2   0    2.60    1.80
  -4   2   0    2.50    2.40
   3  -2   0  111.19    5.90
   3  -2   0  102.59    6.80
   3  -2   0  109.09    7.90
  -3   2   0  114.19    8.00
  -3   2   0  105.79    6.60
   2  -2   0   15.90    2.50
   2  -2   0   14.20    2.70
   2  -2   0   17.10    2.20
  -2   2   0   14.70    2.00
  -2   2   0   14.00    2.70
   0  -2   0 1686.33   56.39
   0  -2   0 1679.33   55.29
   0  -2   0 1793.82   56.49
   0   2   0 1493.05   55.39
   0   2   0 1711.63   54.69
  -1  -2   0    0.60    1.10
  -1  -2   0   -0.40    1.00
  -1  -2   0    1.40    1.10
   1   2   0    1.60    1.30
   1   2   0    1.90    1.00
  -2  -2   0   59.59    6.20
  -2  -2   0   62.99    6.20
   2   2   0   65.99    4.60
   2   2   0   55.09    6.40
  -3  -2   0   60.09    7.60
  -3  -2   0   52.99    6.60
   3   2   0   61.89    6.00
   3   2   0   66.69    6.70
   3   2   0   47.50    6.70
  -4  -2   0  938.31   38.90
  -4  -2   0  938.51   40.00
   4   2   0  872.21   40.00
  -5  -2   0   45.30    6.00
  -6  -2   0    2.60    2.40
  -7  -2   0   12.10    3.30
  -8  -2   0    2.00    1.50
   9  -3   0   22.80    3.90
  -9   3   0   22.60    3.80
   8  -3   0   22.60    4.50
  -8   3   0   35.80    5.40
   7  -3   0    0.10    1.90
  -7   3   0    2.10    2.30
   6  -3   0   34.40    7.30
   6  -3   0   34.70    6.60
  -6   3   0   40.90    8.10
  -6   3   0   36.20    6.60
   5  -3   0  350.36   21.40
   5  -3   0  358.56   18.30
  -5   3   0  335.17   18.10
  -5   3   0  375.16   21.50
   4  -3   0   91.99   10.30
   4  -3   0  103.79    9.30
  -4   3   0   89.29   10.10
  -4   3   0   89.09    6.90
   3  -3   0  113.89    6.60
   3  -3   0  121.29    7.70
   3  -3   0  126.29    9.20
  -3   3   0  119.59    6.80
  -3   3   0  112.29    8.40
   2  -3   0  628.14   23.50
   2  -3   0  598.94   21.80
   2  -3   0  677.03   25.80
   2  -3   0  632.24   24.10
  -2   3   0  626.74   22.30
  -2   3   0  613.14   24.90
   1  -3   0  234.48   11.60
   1  -3   0  218.98   10.10
   1  -3   0  203.68    8.90
   1  -3   0  232.58   10.70
  -1   3   0  229.28   10.40
  -1   3   0  254.27   10.60
   0  -3   0  436.96   17.50
   0  -3   0  420.26   17.30
   0  -3   0  394.86   15.60
   0   3   0  416.46   18.00
   0   3   0  387.76   14.50
   0   3   0  412.56   16.20
  -1  -3   0   82.29    6.00
  -1  -3   0   95.49    7.10
  -1  -3   0   85.59    6.60
   1   3   0  102.99    7.60
   1   3   0   86.89    5.60
  -2  -3   0  362.36   18.00
  -2  -3   0  396.06   19.40
  -2  -3   0  389.06   18.20
   2   3   0  391.36   19.70
   2   3   0  379.56   16.40
  -3  -3   0  452.15   22.80
  -3  -3   0  452.45   22.90
   3   3   0  431.56   20.50
   3   3   0  420.16   23.00
  -4  -3   0   11.60    4.20
  -4  -3   0   22.50    7.30
   4   3   0   11.10    2.40
  -5  -3   0    1.20    2.40
  -6  -3   0  242.28   13.70
  -7  -3   0    2.80    2.00
   9  -4   0   15.60    3.30
  -9   4   0   13.90    2.80
   8  -4   0   54.99    6.90
  -8   4   0   78.99    7.70
   7  -4   0   19.30    4.50
   7  -4   0   25.50    4.50
  -7   4   0   22.50    4.60
   6  -4   0   69.79   11.60
   6  -4   0   76.59    9.80
  -6   4   0   79.29   12.50
   5  -4   0   13.60    4.00
   5  -4   0   12.80    5.10
  -5   4   0   15.80    3.90
  -5   4   0   20.30    4.40
   4  -4   0 1003.90   42.30
   4  -4   0 1039.40   40.00
  -4   4   0 1050.99   42.60
  -4   4   0  970.20   37.70
   3  -4   0 1494.35   56.99
   3  -4   0 1474.95   53.69
   3  -4   0 1571.84   55.09
  -3   4   0 1497.65   56.39
  -3   4   0 1564.54   52.29
   2  -4   0  244.58   13.60
   2  -4   0  228.98   10.40
   2  -4   0  247.28   12.00
  -2   4   0  224.78   12.10
  -2   4   0  209.58    8.40
  -2   4   0  220.18    9.30
   1  -4   0 1259.47   44.20
   1  -4   0 1352.66   49.10
   1  -4   0 1276.97   46.90
   1  -4   0 1311.67   47.50
  -1   4   0 1351.26   46.20
  -1   4   0 1326.67   46.70
   0  -4   0  426.06   17.80
   0  -4   0  480.25   20.60
   0  -4   0  453.65   20.60
   0   4   0  439.66   18.60
   0   4   0  478.45   21.40
  -1  -4   0   50.79    6.50
  -1  -4   0   40.30    6.10
  -1  -4   0   48.40    5.70
   1   4   0   61.99    8.20
   1   4   0   54.29    5.70
  -2  -4   0   97.99    9.40
  -2  -4   0  107.89   11.60
  -2  -4   0   85.29    9.20
   2   4   0   84.59   10.30
  -3  -4   0  459.05   24.10
  -3  -4   0  470.65   25.90
   3   4   0  478.45   23.10
   3   4   0  469.15   26.30
  -4  -4   0    6.80    2.80
  -4  -4   0    1.70    2.40
  -5  -4   0   40.40    5.80
  -6  -4   0   11.50    3.20
   9  -5   0   62.79    6.40
   8  -5   0   41.50    6.20
   8  -5   0   42.60    5.40
   7  -5   0   79.19    8.70
   7  -5   0   94.59    8.90
   6  -5   0  367.26   18.70
   6  -5   0  363.46   17.60
   5  -5   0  184.78   15.10
   5  -5   0  187.68   13.30
  -5   5   0  183.48   15.20
   4  -5   0    0.80    1.70
   4  -5   0    1.70    3.20
  -4   5   0    2.70    2.30
   3  -5   0   10.50    3.30
   3  -5   0    8.90    3.90
  -3   5   0    3.90    2.20
   2  -5   0   29.40    4.30
   2  -5   0   17.90    4.60
   2  -5   0   26.70    5.10
  -2   5   0   27.10    4.40
  -2   5   0   22.60    4.10
   1  -5   0   11.50    3.70
   1  -5   0   25.70    5.30
  -1   5   0   19.40    3.70
   0  -5   0  343.57   18.70
   0  -5   0  356.06   18.20
   0   5   0  324.87   18.60
   0   5   0  331.17   16.00
  -1  -5   0  711.23   33.60
  -1  -5   0  711.13   32.20
   1   5   0  760.02   34.20
  -2  -5   0  303.67   20.20
   2   5   0  329.87   20.80
  -3  -5   0   36.20    5.70
  -3  -5   0   30.90    4.90
  -4  -5   0    1.00    2.20
  -4  -5   0    3.30    2.20
   9  -6   0   55.89    4.70
   9  -6   0   58.59    6.20
   8  -6   0    1.70    1.90
   8  -6   0    3.30    2.70
   7  -6   0   19.40    4.70
   7  -6   0   18.40    4.00
   6  -6   0    2.40    2.00
   6  -6   0    4.10    2.80
   5  -6   0  846.22   43.00
  -5   6   0  991.00   44.10
   4  -6   0  426.16   25.10
  -4   6   0  471.25   25.00
  -4   6   0  417.86   22.10
   3  -6   0    3.00    3.50
   3  -6   0    6.60    4.00
  -3   6   0    0.40    1.60
  -3   6   0   -0.40    1.90
   2  -6   0  405.06   22.90
   2  -6   0  378.36   20.60
  -2   6   0  401.06   19.60
   1  -6   0    5.60    2.70
   1  -6   0   10.00    4.30
  -1   6   0    4.20    2.30
  -1   6   0    8.70    3.90
   0  -6   0   12.00    4.40
   0  -6   0    8.90    3.90
   0   6   0   10.20    4.40
  -1  -6   0   96.29   12.10
  -1  -6   0  102.89   11.50
   1   6   0  122.99   14.10
  -2  -6   0   10.60    3.60
  -2  -6   0   -0.20    3.00
  -2  -6   0    6.60    3.00
  -3  -6   0   15.50    3.80
  -3  -6   0   13.40    3.70
  -4  -6   0   45.20    5.70
  -4  -6   0   42.40    5.80
  -5  -6   0   10.50    3.00
   9  -7   0    5.10    1.90
   9  -7   0    5.50    2.10
   8  -7   0   20.70    4.40
   8  -7   0   23.50    4.20
   7  -7   0  137.79   10.80
   7  -7   0  150.78   10.10
   6  -7   0   70.89    7.30
   6  -7   0   76.69    8.60
   5  -7   0   31.20    5.30
   5  -7   0   24.80    4.30
   4  -7   0   11.90    5.90
  -4   7   0   13.10    4.30
   3  -7   0   63.89    9.90
   3  -7   0   73.69   11.80
  -3   7   0   76.39    9.70
   2  -7   0  409.06   23.40
  -2   7   0  438.36   21.80
   1  -7   0  260.37   18.50
  -1   7   0  286.17   19.60
  -1   7   0  308.17   19.80
   0  -7   0  153.68   10.80
   0  -7   0  183.48   21.80
   0  -7   0  167.68   17.40
   0   7   0  130.89   16.40
  -1  -7   0   -0.50    2.10
  -1  -7   0    2.50    2.20
  -1  -7   0   -1.10    1.70
  -2  -7   0  121.49    9.70
  -2  -7   0  129.79   10.00
  -3  -7   0    2.40    2.30
  -3  -7   0    2.70    2.30
  -4  -7   0   35.90    4.70
  -4  -7   0   32.80    4.80
   9  -8   0   26.20    3.40
   9  -8   0   19.40    3.30
   8  -8   0    1.10    1.50
   8  -8   0    0.60    1.90
   7  -8   0   10.50    3.40
   7  -8   0   13.50    3.50
   6  -8   0  187.68   12.60
   6  -8   0  181.78   11.30
   5  -8   0  168.88   11.50
   5  -8   0  169.98   11.90
   5  -8   0  166.88   10.60
   4  -8   0  638.64   28.50
   4  -8   0  686.63   29.60
   3  -8   0   47.80    6.50
   3  -8   0   62.39    8.10
   2  -8   0  108.69    8.80
   2  -8   0   84.19    8.80
   1  -8   0  137.99   10.10
   1  -8   0  130.49    9.70
   1  -8   0  140.49   10.20
   0  -8   0   73.49    8.20
   0  -8   0   59.39    7.00
   0  -8   0   61.59    6.90
  -1  -8   0    5.30    2.70
  -1  -8   0    9.70    3.60
  -1  -8   0    6.20    2.60
  -2  -8   0   44.10    6.30
  -2  -8   0   71.79    8.00
  -3  -8   0    5.50    2.40
  -3  -8   0    6.60    2.70
  -4  -8   0   16.90    3.00
  -4  -8   0   14.50    2.50
   8  -9   0   76.69    5.70
   8  -9   0   77.69    6.50
   7  -9   0   33.40    4.60
   7  -9   0   24.60    4.70
   6  -9   0  136.89   10.40
   6  -9   0  129.89    8.80
   5  -9   0   30.60    5.90
   5  -9   0   18.00    4.70
   4  -9   0    4.00    2.80
   4  -9   0    0.80    2.10
   3  -9   0  776.32   33.80
   3  -9   0  826.52   34.10
   2  -9   0  194.08   12.70
   2  -9   0  194.68   12.80
   1  -9   0   64.49    7.50
   1  -9   0   73.09    8.50
   1  -9   0   87.29    9.20
   0  -9   0    0.20    1.90
   0  -9   0    0.80    1.70
   0  -9   0   -1.40    1.70
  -1  -9   0  200.98   12.40
  -1  -9   0  199.38   12.70
  -2  -9   0    9.70    2.80
  -2  -9   0   10.40    2.90
  -3  -9   0   70.29    4.90
  -3  -9   0   66.19    5.30
   8 -10   0    9.70    2.00
   8 -10   0   11.10    2.50
   7 -10   0   29.20    5.00
   7 -10   0   22.00    3.30
   6 -10   0   32.80    6.20
   6 -10   0   39.50    5.80
   5 -10   0  700.13   30.30
   5 -10   0  722.13   29.90
   4 -10   0   28.30    5.10
   4 -10   0   37.00    6.00
   3 -10   0   76.29    8.20
   3 -10   0  106.59    8.60
   2 -10   0   21.50    4.30
   2 -10   0   22.10    4.30
   1 -10   0   11.90    3.50
   1 -10   0   11.00    3.70
   1 -10   0   13.20    3.20
   0 -10   0   40.80    5.30
   0 -10   0   40.20    5.50
  -1 -10   0   39.60    5.00
  -1 -10   0   37.00    4.80
  -2 -10   0    1.30    1.10
  -2 -10   0    0.10    1.10
   7 -11   0   18.20    2.90
   6 -11   0    7.60    2.40
   5 -11   0   17.00    3.40
   5 -11   0   12.00    3.10
   4 -11   0  174.38   10.60
   4 -11   0  208.38   11.20
   3 -11   0   41.00    5.40
   3 -11   0   25.60    4.00
   2 -11   0   45.30    5.10
   2 -11   0   40.50    5.40
   1 -11   0    4.00    1.70
   0 -11   0   42.50    4.40
   0 -11   0   42.50    4.50
   4 -12   0   37.50    4.20
   3 -12   0    9.40    2.10
   3 -12   1   48.40    3.90
   3 -12   1   38.50    4.00
   4 -12   1    9.30    2.00
   4 -12   1   10.80    2.10
   0 -11   1   69.89    5.30
   0 -11   1   65.19    4.90
   1 -11   1   24.40    3.70
   1 -11   1   24.30    3.50
   2 -11   1   29.50    4.50
   2 -11   1   26.10    4.10
   3 -11   1    6.80    2.40
   3 -11   1   10.00    2.70
   4 -11   1    0.80    2.00
   4 -11   1    4.00    2.20
   5 -11   1   15.60    3.20
   5 -11   1   10.40    3.00
   6 -11   1  148.99    9.00
   7 -11   1   13.30    2.60
  -2 -10   1   14.50    2.70
  -2 -10   1   18.00    2.70
  -1 -10   1   73.29    6.10
  -1 -10   1   65.29    6.60
   0 -10   1   19.20    3.70
   0 -10   1   15.20    3.70
   0 -10   1   23.00    4.20
   1 -10   1   16.80    4.80
   1 -10   1   23.30    4.00
   1 -10   1   20.50    4.00
   2 -10   1   96.49    8.10
   2 -10   1  106.09    8.70
   3 -10   1  244.88   14.80
   3 -10   1  269.87   15.20
   4 -10   1   53.09    7.30
   4 -10   1   52.49    7.10
   5 -10   1   31.10    5.60
   5 -10   1   31.00    5.30
   6 -10   1    4.10    2.50
   6 -10   1    0.70    2.20
   6 -10   1    0.80    1.70
   7 -10   1   57.09    6.50
   7 -10   1   60.89    4.90
   8 -10   1   16.10    2.90
   8 -10   1   13.80    2.30
  -3  -9   1    7.30    2.30
  -3  -9   1    6.80    2.00
  -2  -9   1   23.50    4.30
  -2  -9   1   29.60    4.30
  -1  -9   1  198.48   12.60
  -1  -9   1  200.88   12.30
  -1  -9   1  201.68   11.70
   0  -9   1    0.50    2.10
   0  -9   1    4.70    2.60
   0  -9   1    5.50    2.70
   1  -9   1   80.59    8.40
   1  -9   1   72.39    7.70
   1  -9   1   72.59    8.00
   2  -9   1    4.60    2.80
   2  -9   1    0.90    2.40
   3  -9   1    3.50    2.80
   3  -9   1    4.40    2.80
   4  -9   1  316.87   17.30
   4  -9   1  297.17   17.40
   5  -9   1  207.68   11.90
   5  -9   1  240.88   14.10
   5  -9   1  240.78   14.70
   6  -9   1  242.78   13.40
   6  -9   1  225.68   12.30
   6  -9   1  199.38   13.40
   7  -9   1   28.40    4.10
   7  -9   1   27.20    4.80
   8  -9   1   15.60    3.30
   8  -9   1   20.00    3.20
  -4  -8   1    2.90    1.70
  -3  -8   1   54.69    6.50
  -3  -8   1   56.09    6.00
  -2  -8   1  224.78   13.50
  -2  -8   1  204.08   12.80
  -1  -8   1   14.10    4.10
  -1  -8   1    9.80    3.00
  -1  -8   1   20.30    4.60
   0  -8   1    4.90    2.70
   0  -8   1    6.00    2.90
   0  -8   1   14.80    4.00
   1  -8   1   14.80    3.90
   1  -8   1   16.80    4.40
   1  -8   1   12.30    3.80
   2  -8   1  274.47   15.40
   2  -8   1  255.47   15.20
   3  -8   1  146.09   11.00
   3  -8   1  148.99   10.70
   4  -8   1   13.90    3.90
   4  -8   1   14.80    4.10
   5  -8   1    2.40    2.40
   5  -8   1    1.20    2.40
   5  -8   1    2.90    2.30
   6  -8   1  181.78   11.30
   6  -8   1  176.48   12.30
   6  -8   1  186.08   12.00
   7  -8   1    5.60    3.00
   7  -8   1    5.90    2.40
   8  -8   1   68.89    5.80
   8  -8   1   62.59    7.00
   9  -8   1   60.89    4.90
   9  -8   1   67.59    4.70
  -5  -7   1   23.70    3.40
  -4  -7   1   40.60    5.40
  -4  -7   1   45.50    5.40
   3   7  -1   73.79    7.40
  -3  -7   1   61.29    7.20
  -3  -7   1   80.19    8.80
  -2  -7   1  268.47   15.60
  -2  -7   1  265.87   14.70
  -2  -7   1  278.47   15.40
  -1  -7   1    0.90    2.30
  -1  -7   1    1.50    2.00
  -1  -7   1   -1.40    1.60
   0   7  -1    5.50    4.00
   0  -7   1    3.70    4.60
   0  -7   1    8.90    4.80
  -1   7  -1   12.30    4.10
  -1   7  -1    9.50    4.30
   1  -7   1    5.10    4.20
  -2   7  -1   71.09    8.50
   2  -7   1   75.79   11.20
  -3   7  -1  643.14   30.00
   3  -7   1  652.43   33.20
   3  -7   1  643.64   31.20
  -4   7  -1  155.28   13.90
  -4   7  -1  153.68   14.80
   4  -7   1  139.89   16.00
   5  -7   1  434.96   20.20
   5  -7   1  448.86   21.50
   5  -7   1  437.46   21.00
   6  -7   1   55.49    7.00
   6  -7   1   65.59    8.30
   7  -7   1   23.00    4.50
   7  -7   1   21.80    4.90
   8  -7   1   10.70    3.00
   8  -7   1    7.90    3.00
   9  -7   1   41.70    4.20
   9  -7   1   33.20    4.20
  -5  -6   1   17.10    3.60
   4   6  -1  149.39   10.90
  -4  -6   1  137.89    9.40
  -4  -6   1  135.29    9.80
   3   6  -1  161.28   10.40
  -3  -6   1  165.68   11.00
  -3  -6   1  170.18   11.50
  -2  -6   1   12.90    3.50
  -2  -6   1   21.50    4.40
  -2  -6   1   14.40    3.60
   1   6  -1   25.80    5.10
  -1  -6   1   29.70    7.10
  -1  -6   1   19.00    5.20
   0   6  -1  163.28   11.30
   0   6  -1  155.98   13.10
   0  -6   1  167.38   12.60
   0  -6   1  172.28   13.10
  -1   6  -1  177.18   13.60
  -1   6  -1  188.58   11.80
   1  -6   1  181.88   13.20
   1  -6   1  169.58   11.90
  -2   6  -1  358.36   17.70
   2  -6   1  302.37   18.70
   2  -6   1  287.17   17.50
  -3   6  -1   14.80    3.70
  -3   6  -1   11.60    3.80
   3  -6   1   13.60    4.50
   3  -6   1   21.30    5.40
  -4   6  -1    3.10    1.10
  -4   6  -1    4.80    3.70
   4  -6   1    1.70    2.30
   4  -6   1    1.90    1.40
  -5   6  -1  155.38   16.80
  -5   6  -1  154.08   14.70
   5  -6   1  104.39   14.40
   6  -6   1   21.00    4.30
   6  -6   1   19.50    4.70
   7  -6   1  241.18   13.40
   7  -6   1  227.38   14.50
   8  -6   1   29.30    5.10
   8  -6   1   31.40    4.50
   9  -6   1   47.90    5.20
   9  -6   1   44.80    4.50
   4   5  -1    1.70    1.80
  -4  -5   1    1.50    2.00
  -3  -5   1   51.09    6.20
   2   5  -1  157.68   13.10
  -2  -5   1  167.48   13.00
  -2  -5   1  155.18   12.30
   1   5  -1  368.36   20.40
   1   5  -1  325.07   17.20
  -1  -5   1  399.26   20.10
  -1  -5   1  363.86   20.60
   0   5  -1  122.69    9.90
   0   5  -1  125.19    8.70
   0  -5   1  131.59   10.20
   0  -5   1  130.29    9.90
  -1   5  -1  715.13   28.90
   1  -5   1  698.83   29.70
   1  -5   1  682.53   29.10
   1  -5   1  751.72   32.10
  -2   5  -1  908.81   36.40
  -2   5  -1  956.30   36.40
   2  -5   1  948.41   38.90
   2  -5   1  910.41   36.80
  -3   5  -1  368.76   18.00
  -3   5  -1  348.07   19.00
   3  -5   1  365.46   17.90
   3  -5   1  350.66   19.60
  -4   5  -1   69.09    9.80
   4  -5   1   80.09    8.20
   4  -5   1   61.79    8.80
  -5   5  -1  296.57   20.00
   5  -5   1  275.07   19.70
   5  -5   1  317.97   17.90
   6  -5   1   95.09    7.50
   6  -5   1   86.99    8.80
   7  -5   1   18.00    3.90
   7  -5   1   17.00    4.40
   8  -5   1   50.19    6.60
   8  -5   1   69.79    6.70
   9  -5   1  102.29    7.30
  -6  -4   1  187.98   13.30
   5   4  -1   95.09    7.70
   4   4  -1    2.40    2.00
  -4  -4   1    1.00    2.10
   3   4  -1    8.10    4.80
   3   4  -1    3.50    1.60
  -3  -4   1    6.40    3.50
   2   4  -1  116.59    8.50
   2   4  -1  131.29   10.40
  -2  -4   1  132.19   10.00
  -2  -4   1  143.29   11.20
  -2  -4   1  135.69   10.00
   1   4  -1 1288.37   45.70
   1   4  -1 1260.17   48.50
  -1  -4   1 1152.28   45.90
  -1  -4   1 1221.08   47.90
  -1  -4   1 1328.77   47.40
   0   4  -1   88.59    7.10
   0   4  -1   99.39    6.50
   0  -4   1   62.49    6.60
   0  -4   1   95.89    7.40
  -1   4  -1  687.63   26.90
  -1   4  -1  700.03   26.50
   1  -4   1  677.53   27.50
   1  -4   1  675.13   26.60
   1  -4   1  739.33   29.30
  -2   4  -1  254.37   12.50
  -2   4  -1  240.28   12.90
   2  -4   1  236.68   12.20
   2  -4   1  235.28   10.40
   2  -4   1  262.47   14.30
  -3   4  -1  306.17   16.40
   3  -4   1  281.17   14.00
   3  -4   1  277.87   15.90
   3  -4   1  308.37   14.90
  -4   4  -1  300.17   15.00
  -4   4  -1  324.47   18.50
   4  -4   1  301.77   17.80
   4  -4   1  298.87   14.60
   4  -4   1  311.67   16.20
  -5   4  -1  398.76   23.90
   5  -4   1  404.66   23.40
   5  -4   1  442.36   21.40
  -6   4  -1   73.29   12.50
   6  -4   1   67.39   12.60
   6  -4   1   67.89    8.60
   7  -4   1   40.90    5.60
   7  -4   1   34.40    5.60
  -8   4  -1  116.39    8.40
   8  -4   1  124.59    9.30
   9  -4   1    2.70    3.30
  -7  -3   1   17.20    3.30
   6   3  -1   90.89    8.60
  -6  -3   1   68.99    7.60
   5   3  -1   15.10    3.50
  -5  -3   1   27.60    4.90
   4   3  -1   70.29   11.10
  -4  -3   1   84.99   11.60
  -4  -3   1   69.99   10.10
   3   3  -1  437.46   23.40
   3   3  -1  420.56   20.10
  -3  -3   1  453.85   22.10
  -3  -3   1  460.85   22.80
   2   3  -1  519.55   23.70
   2   3  -1  504.65   21.00
  -2  -3   1  527.45   23.30
  -2  -3   1  501.65   21.90
  -2  -3   1  493.05   21.90
   1   3  -1   97.19    7.30
   1   3  -1   86.69    5.90
  -1  -3   1   91.89    5.80
  -1  -3   1   83.59    6.70
  -1  -3   1   87.89    6.50
   0   3  -1 1027.20   35.10
   0   3  -1 1030.50   36.60
   0  -3   1 1098.89   37.60
   0  -3   1  988.90   34.80
   0  -3   1 1028.30   37.20
  -1   3  -1 1041.80   38.00
  -1   3  -1 1105.89   38.10
   1  -3   1 1123.09   39.70
   1  -3   1 1053.39   38.10
   1  -3   1 1058.59   37.20
  -2   3  -1 1086.69   37.00
  -2   3  -1 1123.19   40.50
   2  -3   1 1170.78   39.40
   2  -3   1 1123.29   40.80
   2  -3   1 1060.09   38.70
   2  -3   1 1021.90   36.10
  -3   3  -1  104.09    8.20
  -3   3  -1  111.09    6.40
   3  -3   1   96.89    6.40
   3  -3   1  104.59    7.10
   3  -3   1  109.59    8.40
  -4   3  -1 1116.39   43.20
  -4   3  -1 1161.48   46.90
   4  -3   1 1180.08   44.00
   4  -3   1 1260.77   47.70
   4  -3   1 1153.78   42.20
  -5   3  -1   45.50    8.30
  -5   3  -1   48.90    6.70
   5  -3   1   50.39    6.70
   5  -3   1   70.89   10.00
  -6   3  -1    6.20    3.40
  -6   3  -1    6.80    5.30
   6  -3   1    9.60    4.00
  -7   3  -1   13.20    3.30
   7  -3   1   11.60    3.50
  -8   3  -1   16.60    3.60
   8  -3   1   11.90    3.60
  -9   3  -1   29.10    4.00
  -8  -2   1   20.50    3.20
   7   2  -1  593.04   25.20
  -7  -2   1  600.24   25.70
   6   2  -1   26.40    4.90
  -6  -2   1   21.30    4.50
   5   2  -1  199.78   16.30
  -5  -2   1  225.78   16.60
   4   2  -1   86.19   11.30
  -4  -2   1   78.99    9.10
  -4  -2   1   90.99   10.70
   3   2  -1  411.16   18.20
   3   2  -1  401.96   17.70
   3   2  -1  414.36   20.80
  -3  -2   1  427.06   19.90
  -3  -2   1  420.16   19.80
   2   2  -1  797.92   31.20
   2   2  -1  752.52   28.90
  -2  -2   1  798.72   29.30
  -2  -2   1  777.22   29.70
  -2  -2   1  770.52   30.20
   1   2  -1   23.00    3.40
   1   2  -1   34.50    3.60
  -1  -2   1   30.00    3.20
  -1  -2   1   25.00    3.40
  -1  -2   1   29.30    3.50
   0   2  -1    3.80    0.90
   0   2  -1    4.50    1.20
   0  -2   1    4.30    0.80
   0  -2   1    5.90    1.50
   0  -2   1    4.30    1.30
   0  -2   1    2.40    1.20
  -1   2  -1  449.36   17.40
  -1   2  -1  431.96   15.20
   1  -2   1  475.85   18.00
   1  -2   1  451.45   16.90
   1  -2   1  456.05   15.80
  -2   2  -1 6111.89  200.38
  -2   2  -1 5908.31  197.88
   2  -2   1 6276.47  198.58
   2  -2   1 5986.00  198.68
   2  -2   1 6280.97  200.68
  -3   2  -1 1819.92   63.79
  -3   2  -1 1822.82   66.09
   3  -2   1 1826.62   63.89
   3  -2   1 1916.21   66.39
   3  -2   1 1900.81   63.09
  -4   2  -1 1166.48   44.00
  -4   2  -1 1153.58   46.20
   4  -2   1 1183.98   42.40
   4  -2   1 1161.08   43.30
   4  -2   1 1200.48   46.70
  -5   2  -1   16.50    4.80
  -5   2  -1   16.20    4.50
   5  -2   1   14.20    3.50
   5  -2   1   15.60    3.90
  -6   2  -1  295.77   18.60
   6  -2   1  272.47   18.90
  -7   2  -1    0.30    1.90
   7  -2   1    2.10    2.20
  -8   2  -1   50.49    6.10
  -9   2  -1   27.30    3.80
  -8  -1   1   83.39    8.00
   7   1  -1   34.80    5.30
  -7  -1   1   28.50    5.10
   6   1  -1    3.60    2.20
  -6  -1   1    3.50    2.60
   5   1  -1   51.69    8.70
  -5  -1   1   34.60    6.50
   4   1  -1  585.64   28.20
   4   1  -1  575.74   25.00
  -4  -1   1  599.04   25.80
  -4  -1   1  614.04   27.10
   3   1  -1   59.69    5.80
   3   1  -1   53.29    4.10
   3   1  -1   55.09    6.90
  -3  -1   1   60.69    6.30
  -3  -1   1   58.79    6.20
  -3  -1   1   52.99    4.40
   2   1  -1  108.29    6.10
   2   1  -1  105.99    6.90
  -2  -1   1   98.29    6.20
  -2  -1   1  102.39    6.30
  -2  -1   1  100.19    5.40
   1   1  -1 1684.23   55.59
   1   1  -1 1676.13   57.09
   1   1  -1 1781.22   56.49
  -1  -1   1 1649.54   56.69
  -1  -1   1 1705.43   56.29
  -1  -1   1 1669.03   56.09
   0   1  -1 1655.63   52.49
   0   1  -1 1616.64   52.49
   0  -1   1 1583.64   52.79
   0  -1   1 1583.84   52.49
   0  -1   1 1575.94   51.49
   0  -1   1 1583.64   52.39
  -1   1  -1 1666.63   53.79
  -1   1  -1 1611.14   54.99
   1  -1   1 1680.13   54.09
   1  -1   1 1575.64   53.99
   1  -1   1 1631.84   54.79
   1  -1   1 1666.43   52.89
  -2   1  -1  143.89    5.70
  -2   1  -1  133.19    7.10
  -2   1  -1  140.09    7.90
   2  -1   1  127.99    6.60
   2  -1   1  149.19    6.80
   2  -1   1  144.99    8.00
  -3   1  -1  980.30   35.60
  -3   1  -1 1080.69   39.50
  -3   1  -1 1026.40   38.30
   3  -1   1 1084.89   36.90
   3  -1   1 1050.59   39.80
   3  -1   1 1041.90   37.30
  -4   1  -1   35.00    5.60
  -4   1  -1   50.69    6.70
   4  -1   1   37.80    4.70
   4  -1   1   38.70    4.90
   4  -1   1   41.20    7.00
  -5   1  -1    1.80    2.30
  -5   1  -1    0.10    1.20
   5  -1   1    0.90    0.70
  -6   1  -1   86.59    8.70
  -7   1  -1    1.30    2.30
  -8   1  -1  181.08   11.20
  -9   1  -1    6.00    1.90
  -9   0   1   33.80    3.90
   8   0  -1  405.76   18.40
  -8   0   1  376.06   18.50
   7   0  -1   44.40    6.30
  -7   0   1   46.70    6.50
   6   0  -1   57.29    7.10
  -6   0   1   61.09    6.90
   5   0  -1  138.09   12.40
   5   0  -1  144.89   10.30
  -5   0   1  139.89   10.70
   4   0  -1  683.43   27.30
   4   0  -1  679.03   29.90
  -4   0   1  643.84   27.50
  -4   0   1  675.53   28.40
  -4   0   1  653.73   26.30
   3   0  -1  363.66   15.80
   3   0  -1  346.37   13.70
   3   0  -1  353.96   17.00
  -3   0   1  368.56   15.10
  -3   0   1  363.56   16.10
  -3   0   1  381.86   16.50
   2   0  -1 3649.03  118.29
   2   0  -1 3725.43  120.99
   2   0  -1 3530.25  119.99
  -2   0   1 3720.33  120.29
  -2   0   1 3663.63  119.49
   1   0  -1   54.19    3.20
   1   0  -1   63.09    3.60
   1   0  -1   55.29    3.20
  -1   0   1   59.79    2.60
  -1   0   1   54.19    2.90
  -1   0   1   59.39    2.30
  -1   0   1   55.29    3.00
   0   0  -1 1193.38   37.60
   0   0  -1 1147.39   37.80
   0   0  -1 1138.79   37.10
   0   0   1 1161.48   37.30
   0   0   1 1086.29   36.90
  -1   0  -1   47.30    2.80
  -1   0  -1   43.80    3.00
  -1   0  -1   48.10    3.10
   1   0   1   46.60    2.80
   1   0   1   48.40    2.40
   1   0   1   44.20    3.10
  -2   0  -1 9999.00  308.47
  -2   0  -1 9549.14  308.07
  -2   0  -1 9568.94  307.17
   2   0   1 8683.53  306.47
   2   0   1 9788.42  309.07
  -3   0  -1 2076.69   71.29
  -3   0  -1 1948.11   70.39
  -3   0  -1 2092.59   69.49
   3   0   1 2079.39   68.89
   3   0   1 2002.30   68.99
   3   0   1 2000.50   71.99
  -4   0  -1  225.78   13.00
  -4   0  -1  229.98   13.90
   4   0   1  237.38   14.90
   4   0   1  215.98   13.20
  -5   0  -1  695.23   32.50
   5   0   1  692.43   33.90
  -6   0  -1   18.60    4.20
  -7   0  -1  189.88   12.10
  -8   0  -1   65.89    7.20
  -9   0  -1   12.00    2.30
  -9   1   1   12.50    2.80
   8  -1  -1   89.99    7.50
  -8   1   1  100.09    9.20
   7  -1  -1   65.99    7.20
  -7   1   1   75.29    8.10
   6  -1  -1  245.18   19.80
  -6   1   1  258.37   17.50
   5  -1  -1  223.68   16.10
   5  -1  -1  229.98   13.50
  -5   1   1  263.17   15.40
  -5   1   1  222.98   14.60
   4  -1  -1  216.68   13.50
   4  -1  -1  223.88   12.20
  -4   1   1  211.88   12.80
  -4   1   1  225.68   12.60
   3  -1  -1   75.19    3.80
   3  -1  -1   79.79    6.40
   3  -1  -1   76.19    5.70
  -3   1   1   72.59    4.30
  -3   1   1   81.49    5.80
  -3   1   1   77.99    6.30
   2  -1  -1   13.30    2.30
   2  -1  -1   18.90    3.00
   2  -1  -1   16.30    1.40
   2  -1  -1   18.70    3.10
  -2   1   1   15.00    1.60
  -2   1   1   19.50    2.50
   1  -1  -1  825.22   28.30
   1  -1  -1  774.32   26.50
   1  -1  -1  802.12   27.40
   1  -1  -1  813.32   27.60
  -1   1   1  785.32   26.70
   0  -1  -1 3516.55  116.49
   0  -1  -1 3685.23  116.59
   0  -1  -1 3760.22  116.29
   0  -1  -1 3515.45  116.59
   0   1   1 3450.05  116.39
  -1  -1  -1 4827.62  157.38
  -1  -1  -1 4847.81  155.98
  -1  -1  -1 4752.42  157.38
   1   1   1 4763.12  155.48
   1   1   1 4935.11  157.78
  -2  -1  -1 1745.53   60.29
  -2  -1  -1 1730.53   60.69
  -2  -1  -1 1773.52   58.99
   2   1   1 1750.92   61.39
   2   1   1 1769.62   59.59
   2   1   1 1699.13   58.19
  -3  -1  -1  869.51   34.60
  -3  -1  -1  873.11   33.60
   3   1   1  903.21   35.50
   3   1   1  840.32   32.20
   3   1   1  839.52   31.30
  -4  -1  -1  192.18   13.40
  -4  -1  -1  164.18   11.40
   4   1   1  181.58   13.30
  -5  -1  -1  233.38   17.20
   5   1   1  247.78   18.00
  -6  -1  -1   12.30    3.60
  -7  -1  -1  484.65   22.20
  -8  -1  -1   18.10    3.30
   9  -2  -1   22.50    3.80
  -9   2   1   20.00    3.60
   8  -2  -1   56.19    6.80
  -8   2   1   61.69    7.20
   7  -2  -1  112.89    9.00
  -7   2   1  111.59    8.70
   6  -2  -1    6.00    3.60
   6  -2  -1   14.50    6.50
  -6   2   1    9.40    3.30
  -6   2   1   11.50    4.30
   5  -2  -1  458.85   25.00
   5  -2  -1  487.05   22.70
  -5   2   1  466.35   24.50
  -5   2   1  511.45   23.60
   4  -2  -1  161.18   11.30
   4  -2  -1  167.88   10.30
  -4   2   1  162.98   10.10
  -4   2   1  167.38   11.50
   3  -2  -1  394.16   18.20
   3  -2  -1  386.36   14.60
   3  -2  -1  443.36   17.60
  -3   2   1  395.06   16.60
  -3   2   1  394.76   14.00
  -3   2   1  406.46   18.60
   2  -2  -1 3976.20  135.09
   2  -2  -1 4406.56  138.39
   2  -2  -1 4261.77  137.89
   2  -2  -1 4252.87  136.89
  -2   2   1 4102.89  134.69
  -2   2   1 4060.09  135.89
  -2   2   1 4122.89  134.59
   1  -2  -1  101.29    5.60
   1  -2  -1   88.59    4.90
   1  -2  -1   91.49    4.90
   1  -2  -1   94.79    4.90
   1  -2  -1   83.69    4.80
   1  -2  -1   92.79    5.60
   0  -2  -1   12.50    1.60
   0  -2  -1   18.60    2.70
   0  -2  -1   14.70    2.30
   0  -2  -1   20.90    2.60
   0   2   1   18.40    2.00
   0   2   1   16.50    2.60
  -1  -2  -1  516.25   20.50
  -1  -2  -1  530.65   21.10
  -1  -2  -1  514.35   20.50
   1   2   1  509.75   18.60
   1   2   1  516.55   21.20
  -2  -2  -1    1.00    1.50
  -2  -2  -1   -0.20    1.60
   2   2   1    0.90    1.50
   2   2   1    1.00    0.90
   2   2   1   -0.50    1.00
  -3  -2  -1  274.47   15.80
  -3  -2  -1  296.47   16.80
   3   2   1  280.57   14.70
   3   2   1  319.47   17.40
  -4  -2  -1  247.88   17.20
  -4  -2  -1  232.98   15.20
   4   2   1  225.48   16.20
  -5  -2  -1    1.40    2.30
  -6  -2  -1  502.25   23.10
  -7  -2  -1    1.00    1.80
  -8  -2  -1    1.60    1.60
   9  -3  -1    2.80    2.00
  -9   3   1   -0.10    1.40
   8  -3  -1  135.49   10.20
  -8   3   1  142.59    9.70
   7  -3  -1  306.37   16.60
  -7   3   1  309.17   15.70
   6  -3  -1    6.20    5.70
   6  -3  -1    6.60    3.10
  -6   3   1    6.40    3.50
  -6   3   1    7.70    3.50
   5  -3  -1  116.79   12.90
   5  -3  -1  130.69   10.00
  -5   3   1  138.09   14.40
  -5   3   1  115.39    9.30
   4  -3  -1    4.50    2.20
   4  -3  -1    5.60    3.20
  -4   3   1    1.30    0.70
  -4   3   1    4.60    2.10
   3  -3  -1  109.89    8.30
   3  -3  -1  120.09    7.70
   3  -3  -1  105.79    6.00
  -3   3   1  118.09    8.70
  -3   3   1  108.99    6.50
   2  -3  -1 1218.18   45.20
   2  -3  -1 1392.86   48.70
   2  -3  -1 1405.16   47.10
   2  -3  -1 1330.77   46.20
  -2   3   1 1331.87   44.30
  -2   3   1 1328.77   45.60
  -2   3   1 1373.56   48.30
   1  -3  -1 1503.45   54.29
   1  -3  -1 1535.95   52.99
   1  -3  -1 1495.05   52.19
   1  -3  -1 1623.14   53.39
   0  -3  -1  804.52   30.10
   0  -3  -1  842.12   31.20
   0  -3  -1  848.82   31.60
   0   3   1  834.12   31.80
   0   3   1  776.32   28.20
   0   3   1  884.31   29.70
  -1  -3  -1   67.49    6.70
  -1  -3  -1   63.09    6.80
  -1  -3  -1   68.59    6.80
   1   3   1   64.39    7.00
   1   3   1   61.79    4.30
  -2  -3  -1   57.49    7.50
  -2  -3  -1   43.00    6.70
   2   3   1   38.10    5.80
   2   3   1   49.00    7.30
  -3  -3  -1   97.69   11.30
  -3  -3  -1   85.49   10.40
   3   3   1   84.49    9.10
   3   3   1   87.89   10.90
  -4  -3  -1    2.50    3.20
  -4  -3  -1   12.40    6.50
   4   3   1    6.90    4.00
  -5  -3  -1    0.20    2.20
  -5  -3  -1    1.60    2.00
  -6  -3  -1  288.47   15.30
  -7  -3  -1   24.00    3.90
   9  -4  -1   48.80    5.80
  -9   4   1   44.70    5.10
   8  -4  -1  321.37   15.90
   8  -4  -1  335.17   17.80
  -8   4   1  339.27   16.40
   7  -4  -1    2.30    2.10
   7  -4  -1   -1.50    1.80
  -7   4   1    1.10    2.10
   6  -4  -1  202.48   20.60
   6  -4  -1  215.48   14.80
  -6   4   1  199.48   14.00
  -6   4   1  189.48   17.10
   5  -4  -1  258.17   15.10
   5  -4  -1  231.88   17.20
  -5   4   1  214.18   13.40
  -5   4   1  238.78   16.30
   4  -4  -1    4.80    2.40
   4  -4  -1   -0.30    2.40
  -4   4   1    2.60    1.70
  -4   4   1    0.40    1.70
   3  -4  -1   21.40    4.80
   3  -4  -1   15.70    3.00
   3  -4  -1   14.50    2.90
  -3   4   1   19.80    4.50
  -3   4   1   22.40    3.30
   2  -4  -1  529.25   22.20
   2  -4  -1  547.45   21.60
   2  -4  -1  554.54   24.20
   2  -4  -1  543.95   22.30
  -2   4   1  570.94   19.30
  -2   4   1  553.44   20.60
  -2   4   1  543.65   23.30
   1  -4  -1 2670.53   92.89
   1  -4  -1 2714.53   90.69
   1  -4  -1 2728.03   94.49
   1  -4  -1 2809.02   92.79
  -1   4   1 2713.83   91.29
  -1   4   1 2679.73   91.49
   0  -4  -1 1246.98   44.90
   0  -4  -1 1136.69   44.80
   0  -4  -1 1127.79   42.60
   0   4   1 1209.08   45.50
   0   4   1 1212.58   42.20
  -1  -4  -1   24.40    4.70
  -1  -4  -1   30.70    5.20
  -1  -4  -1   25.00    4.20
   1   4   1   32.60    6.00
  -2  -4  -1  396.36   22.00
  -2  -4  -1  378.56   20.20
   2   4   1  413.76   22.50
   2   4   1  410.86   21.00
  -3  -4  -1  163.78   16.50
  -3  -4  -1  125.59   12.70
   3   4   1  155.58   13.80
   3   4   1  145.29   13.50
  -4  -4  -1   31.80    5.30
  -4  -4  -1   32.90    5.40
  -4  -4  -1   30.10    4.70
  -5  -4  -1  111.49    9.70
  -5  -4  -1   95.09    7.70
  -6  -4  -1   45.80    5.60
  -7  -4  -1    1.50    2.20
   9  -5  -1   38.60    5.30
   8  -5  -1  224.58   14.10
   8  -5  -1  239.78   12.90
   7  -5  -1    3.90    2.70
   7  -5  -1    3.70    2.40
   6  -5  -1   29.90    5.30
   6  -5  -1   30.30    4.90
   5  -5  -1   67.69    8.90
   5  -5  -1   54.59    9.80
  -5   5   1   72.69   10.70
   4  -5  -1  300.37   19.10
   4  -5  -1  305.67   16.60
  -4   5   1  303.07   18.40
   3  -5  -1  610.24   25.90
   3  -5  -1  615.84   28.50
   3  -5  -1  568.74   24.90
  -3   5   1  582.64   26.90
   2  -5  -1 1115.59   42.00
   2  -5  -1 1082.79   43.80
   2  -5  -1 1001.60   40.20
  -2   5   1 1119.99   41.50
  -2   5   1 1105.29   41.10
   1  -5  -1  781.82   32.10
   1  -5  -1  777.42   32.30
  -1   5   1  777.92   30.60
   0  -5  -1   23.20    5.70
   0  -5  -1   21.00    4.00
   0   5   1   20.10    3.70
   0   5   1   16.90    4.50
  -1  -5  -1  248.58   15.80
  -1  -5  -1  256.37   17.00
   1   5   1  251.47   16.80
  -2  -5  -1  163.68   16.60
   2   5   1  180.18   13.90
   2   5   1  173.28   14.80
  -3  -5  -1   96.29    8.20
  -3  -5  -1  117.09   10.50
  -4  -5  -1   92.79    7.70
  -4  -5  -1   68.29    7.70
  -5  -5  -1   11.60    3.20
   9  -6  -1   54.89    6.20
   9  -6  -1   71.59    5.30
   8  -6  -1    3.10    2.20
   8  -6  -1    1.90    2.50
   7  -6  -1   54.89    6.50
   7  -6  -1   63.09    7.90
   6  -6  -1  204.48   12.20
   6  -6  -1  209.98   13.50
   5  -6  -1    2.00    4.30
  -5   6   1    2.50    3.40
   4  -6  -1   64.09   10.50
  -4   6   1   89.19   11.50
   3  -6  -1   24.00    5.00
   3  -6  -1   21.70    6.30
  -3   6   1   35.20    6.40
  -3   6   1   17.70    4.20
   2  -6  -1  201.38   13.40
   2  -6  -1  190.98   15.10
  -2   6   1  209.38   12.50
   1  -6  -1  100.29   10.80
   1  -6  -1  120.59   12.20
  -1   6   1  152.58   12.10
  -1   6   1  104.99    8.40
   0  -6  -1    7.00    3.30
   0  -6  -1    2.00    1.30
   0   6   1    3.30    3.10
  -1  -6  -1  135.39   15.10
   1   6   1  140.29   15.00
  -2  -6  -1   74.49    8.40
  -2  -6  -1   72.59    7.70
  -3  -6  -1   83.39    9.10
  -3  -6  -1   71.59    8.10
  -4  -6  -1   -0.20    1.80
  -4  -6  -1    1.60    2.10
  -5  -6  -1  152.98    8.70
   9  -7  -1    1.40    1.70
   9  -7  -1    0.10    1.10
   8  -7  -1    7.00    3.00
   8  -7  -1   11.60    3.10
   7  -7  -1   43.50    6.20
   7  -7  -1   37.80    6.50
   6  -7  -1   91.89    9.60
   6  -7  -1  100.99    8.10
   5  -7  -1  259.57   14.10
   5  -7  -1  275.17   15.50
   4  -7  -1  143.89   16.50
  -4   7   1  116.49   11.80
   3  -7  -1  436.96   24.00
   3  -7  -1  452.95   27.70
  -3   7   1  516.35   24.20
   2  -7  -1  195.18   17.50
  -2   7   1  183.48   15.00
  -2   7   1  176.88   12.30
   1  -7  -1   64.49    8.50
   1  -7  -1   80.19   10.40
  -1   7   1   95.49   12.10
   0  -7  -1    5.20    2.60
   0  -7  -1    7.90    3.10
  -1  -7  -1  124.09    9.50
  -1  -7  -1  118.19   11.30
  -2  -7  -1   33.50    5.80
  -2  -7  -1   27.90    5.00
  -3  -7  -1   49.60    6.70
  -3  -7  -1   52.49    6.70
  -4  -7  -1   14.10    3.10
  -4  -7  -1   11.30    2.80
   9  -8  -1   25.20    3.20
   9  -8  -1   23.60    3.70
   8  -8  -1    0.80    1.70
   8  -8  -1    0.70    1.60
   7  -8  -1   63.79    6.90
   7  -8  -1   55.79    7.10
   6  -8  -1   15.20    4.20
   6  -8  -1   10.10    3.00
   5  -8  -1   25.40    4.90
   5  -8  -1   27.70    4.60
   4  -8  -1   47.70    6.80
   4  -8  -1   55.09    7.60
   3  -8  -1   58.79    7.50
   3  -8  -1   65.89    8.10
   2  -8  -1  392.46   19.80
   2  -8  -1  405.16   19.80
   1  -8  -1  116.49    9.20
   1  -8  -1  121.29    9.20
   1  -8  -1  109.29    9.10
   0  -8  -1  220.88   13.60
   0  -8  -1  199.48   12.80
  -1  -8  -1  157.78   11.10
  -1  -8  -1  138.39   10.80
  -2  -8  -1   40.90    6.10
  -2  -8  -1   50.79    6.90
  -3  -8  -1    1.60    1.80
  -3  -8  -1    1.90    1.80
  -4  -8  -1   62.79    4.50
  -4  -8  -1   74.69    5.10
   8  -9  -1    5.80    2.30
   8  -9  -1    4.30    1.70
   7  -9  -1  130.89    8.40
   7  -9  -1  131.79    9.70
   6  -9  -1  111.59    8.00
   6  -9  -1  120.89    9.70
   5  -9  -1   83.79    9.40
   5  -9  -1   66.09    8.90
   4  -9  -1  169.58   11.50
   4  -9  -1  140.89   11.10
   3  -9  -1  140.89   10.40
   3  -9  -1  144.39   10.60
   2  -9  -1    9.90    3.30
   2  -9  -1    9.10    3.20
   1  -9  -1   59.69    7.10
   1  -9  -1   63.29    7.70
   1  -9  -1   61.39    7.60
   0  -9  -1   67.29    7.90
   0  -9  -1  102.59    8.50
  -1  -9  -1   97.09    9.50
  -1  -9  -1  136.49    9.60
  -2  -9  -1   46.30    5.50
  -2  -9  -1   34.20    4.80
  -3  -9  -1   12.10    2.40
  -3  -9  -1   14.30    2.40
   8 -10  -1   53.39    5.30
   8 -10  -1   49.70    3.70
   7 -10  -1   29.60    3.80
   7 -10  -1   27.50    4.50
   6 -10  -1    2.20    2.00
   5 -10  -1  123.59    9.10
   5 -10  -1  123.09    9.40
   4 -10  -1   11.30    3.50
   4 -10  -1   12.40    3.60
   3 -10  -1  185.08   11.80
   3 -10  -1  196.58   11.90
   2 -10  -1   22.60    4.30
   2 -10  -1   19.00    3.90
   1 -10  -1   91.49    8.70
   1 -10  -1   76.39    7.80
   0 -10  -1  123.39    8.60
   0 -10  -1  115.69    8.50
  -1 -10  -1    8.30    2.40
  -1 -10  -1    6.50    2.50
   7 -11  -1   23.00    3.20
   6 -11  -1   54.09    5.40
   5 -11  -1   -1.10    1.30
   4 -11  -1   29.00    4.20
   4 -11  -1   34.20    4.60
   3 -11  -1   37.10    4.70
   3 -11  -1   42.60    5.30
   2 -11  -1   16.70    3.50
   1 -11  -1    0.20    1.40
   0 -11  -1   33.10    3.90
   3 -12   2   18.10    2.60
   3 -12   2   17.80    2.80
   4 -12   2    8.70    2.00
   4 -12   2    6.80    1.90
   0  11  -2   44.90    3.70
   0 -11   2   40.60    4.40
   0 -11   2   49.70    4.70
   1 -11   2   17.10    3.30
   1 -11   2   15.90    3.00
   2 -11   2   64.49    6.30
   2 -11   2   50.49    5.80
   3 -11   2  133.29    8.70
   3 -11   2  124.59    8.80
   4 -11   2   -0.20    1.80
   4 -11   2    0.60    1.80
   5 -11   2   44.80    5.30
   5 -11   2   39.20    5.30
   6 -11   2   42.20    4.50
   6 -11   2   39.80    5.00
   7 -11   2   10.60    2.30
  -2 -10   2    4.80    1.70
  -2 -10   2    1.40    1.50
   1  10  -2    2.30    1.70
  -1 -10   2    2.50    2.00
  -1 -10   2    4.40    2.30
   0 -10   2   61.69    7.00
   0 -10   2   67.99    7.00
   0 -10   2   66.89    7.30
   1 -10   2    1.10    1.70
   1 -10   2    0.60    2.00
   2 -10   2  142.79   10.20
   2 -10   2  128.49   10.00
   3 -10   2  118.79   11.40
   3 -10   2  104.99    9.10
   4 -10   2  124.49    9.90
   4 -10   2  142.89   10.50
   5 -10   2    3.40    2.30
   5 -10   2    0.50    1.90
   6 -10   2  153.98   10.50
   6 -10   2  159.68    9.10
   6 -10   2  155.78   10.20
   7 -10   2  126.09    8.50
   7 -10   2  124.29    7.40
   8 -10   2    4.90    1.80
  -3  -9   2   29.80    4.50
   2   9  -2    4.00    2.00
  -2  -9   2    5.10    2.60
  -2  -9   2    3.10    2.10
  -1  -9   2   99.59    7.80
  -1  -9   2   80.89    8.40
  -1  -9   2  105.79    8.60
   0  -9   2   32.30    5.30
   0  -9   2   36.90    5.60
   0  -9   2   31.00    4.90
   1  -9   2   43.20    5.90
   1  -9   2   72.19    8.30
   1  -9   2   53.29    7.20
   2  -9   2  253.87   15.20
   2  -9   2  256.57   15.40
   3  -9   2   67.89    8.10
   3  -9   2   79.09    8.90
   4  -9   2  143.59   11.30
   4  -9   2  152.08   11.10
   5  -9   2   48.90    7.10
   5  -9   2   40.70    6.30
   5  -9   2   41.50    5.30
   6  -9   2   33.90    6.10
   6  -9   2   32.70    5.00
   6  -9   2   24.20    4.80
   7  -9   2   44.30    5.40
   7  -9   2   43.70    5.90
   8  -9   2    8.20    2.30
   8  -9   2    8.50    2.40
  -4  -8   2    7.10    2.50
   3   8  -2    1.70    1.80
  -3  -8   2    1.30    2.10
  -3  -8   2    0.80    1.80
  -2  -8   2    2.90    2.60
  -2  -8   2    4.70    2.50
  -1  -8   2   32.10    5.20
  -1  -8   2   30.80    5.40
  -1  -8   2   24.80    4.70
   0  -8   2    2.60    2.20
   0  -8   2    1.90    2.40
   0  -8   2    1.60    2.30
   1  -8   2    3.20    2.70
   1  -8   2    2.60    2.30
   1  -8   2    2.00    2.40
   2  -8   2    7.80    3.20
   2  -8   2    2.30    2.50
   3  -8   2   17.30    4.60
   3  -8   2    6.90    3.50
   4  -8   2   -1.20    2.00
   4  -8   2   -0.90    1.70
   4  -8   2    0.60    2.20
   5  -8   2   56.09    6.70
   5  -8   2   61.79    7.90
   5  -8   2   60.49    7.70
   6  -8   2  152.38   10.10
   6  -8   2  147.49   11.10
   6  -8   2  163.68   11.20
   7  -8   2   38.30    6.00
   7  -8   2   42.00    5.60
   8  -8   2   31.80    4.10
   8  -8   2   29.10    4.40
   9  -8   2   31.50    3.60
   9  -8   2   35.30    3.60
  -5  -7   2    8.70    2.30
   4   7  -2   10.20    2.70
  -4  -7   2   12.70    3.40
   3   7  -2   14.70    3.20
  -3  -7   2   11.40    3.50
  -3  -7   2   12.50    3.50
  -2  -7   2  267.87   14.50
  -2  -7   2  241.28   14.20
  -2  -7   2  250.57   14.80
  -1  -7   2   13.30    3.70
  -1  -7   2   13.90    3.80
  -1  -7   2   10.00    3.10
   0   7  -2  127.89   15.40
   0   7  -2  160.38   14.70
   0  -7   2  137.59   14.20
   0  -7   2   92.09   11.10
  -1   7  -2  462.05   25.80
  -1   7  -2  445.66   23.10
   1  -7   2  461.35   24.70
  -2   7  -2   14.50    4.30
   2  -7   2   29.20    7.40
  -3   7  -2   51.39    7.50
   3  -7   2   44.80    8.30
   3  -7   2   45.70    7.30
  -4   7  -2   40.00    6.80
  -4   7  -2   43.10    8.10
   4  -7   2   35.30    7.80
   4  -7   2   49.00    7.40
   5  -7   2  306.17   16.70
   5  -7   2  342.67   17.60
   6  -7   2   77.19    8.70
   6  -7   2   64.59    7.60
   6  -7   2   53.69    6.50
   7  -7   2    3.00    2.00
   7  -7   2    8.40    3.30
   8  -7   2   51.89    5.60
   8  -7   2   42.90    5.60
   9  -7   2   71.79    5.20
   9  -7   2   63.79    4.80
   5   6  -2   20.20    3.60
  -5  -6   2   22.70    4.10
   4   6  -2    2.30    1.90
  -4  -6   2    3.80    2.40
   3   6  -2   69.99    7.70
  -3  -6   2   60.49    7.20
  -3  -6   2   79.59    8.10
  -2  -6   2  142.49   15.40
  -2  -6   2  176.08   14.10
  -2  -6   2  163.58   10.50
  -2  -6   2  176.98   11.00
   1   6  -2  167.38   12.30
   1   6  -2  188.88   15.30
  -1  -6   2  179.78   13.80
  -1  -6   2  177.28   17.80
   0   6  -2    4.50    2.70
   0   6  -2    6.40    4.10
   0  -6   2    6.20    3.50
   0  -6   2    5.80    3.20
  -1   6  -2   19.00    4.30
   1  -6   2   16.10    3.80
   1  -6   2   18.60    4.20
  -2   6  -2  339.17   18.00
   2  -6   2  319.47   18.60
   2  -6   2  348.97   20.40
  -3   6  -2  385.26   19.40
  -3   6  -2  339.67   19.70
   3  -6   2  344.57   19.40
   3  -6   2  377.76   21.80
  -4   6  -2  214.88   16.00
  -4   6  -2  211.38   14.20
   4  -6   2  226.18   14.10
   4  -6   2  196.98   16.10
  -5   6  -2  260.97   19.30
  -5   6  -2  245.78   17.50
   5  -6   2  238.38   19.00
   6  -6   2  114.69    8.90
   6  -6   2  108.29    8.40
   6  -6   2  107.79   10.70
   7  -6   2   13.00    3.40
   7  -6   2   11.80    3.80
   8  -6   2   94.69    7.80
   8  -6   2   89.19    7.00
   9  -6   2    3.80    2.60
   9  -6   2    4.30    1.80
   5   5  -2  146.89    9.90
  -5  -5   2  153.98   12.40
   4   5  -2   92.79    7.60
  -4  -5   2   80.39    7.90
   3   5  -2  287.47   34.60
  -3  -5   2  204.48   27.20
  -3  -5   2  179.28   12.20
   2   5  -2  820.62   38.30
  -2  -5   2  821.92   36.00
  -2  -5   2  829.22   37.80
   1   5  -2   34.30    7.10
   1   5  -2   27.80    5.00
  -1  -5   2   37.90    6.10
  -1  -5   2   41.80    7.10
   0   5  -2  495.45   22.60
   0   5  -2  527.85   25.30
   0  -5   2  514.65   23.70
   0  -5   2  524.15   24.20
  -1   5  -2  410.36   18.90
   1  -5   2  390.46   20.90
   1  -5   2  403.46   18.70
   1  -5   2  409.26   19.60
  -2   5  -2    3.00    1.90
  -2   5  -2    3.20    2.00
   2  -5   2    5.30    3.00
   2  -5   2    3.30    2.50
  -3   5  -2    0.50    0.70
  -3   5  -2    2.10    2.10
   3  -5   2    0.30    2.20
   3  -5   2   -0.80    1.70
  -4   5  -2 1305.97   50.69
  -4   5  -2 1348.97   54.09
   4  -5   2 1296.57   49.90
  -5   5  -2  340.37   22.00
   5  -5   2  350.46   22.20
   6  -5   2   11.50    4.70
   6  -5   2    6.30    2.50
   6  -5   2   12.50    3.60
   7  -5   2  197.88   11.60
   7  -5   2  193.78   12.70
   8  -5   2  103.79    8.50
   8  -5   2  105.19    7.40
   6   4  -2   13.20    3.40
   5   4  -2    6.30    2.50
   4   4  -2  154.28   10.00
  -4  -4   2  166.68   10.40
   3   4  -2  452.95   25.10
  -3  -4   2  462.05   24.80
   2   4  -2   42.70    6.00
   2   4  -2   59.29    8.60
  -2  -4   2   51.09    7.60
  -2  -4   2   40.80    6.10
   1   4  -2   42.10    6.40
   1   4  -2   47.20    5.60
  -1  -4   2   41.00    5.60
  -1  -4   2   32.60    5.40
   0   4  -2    5.40    2.30
   0   4  -2    5.00    1.90
   0  -4   2    4.80    2.30
   0  -4   2    3.60    2.40
  -1   4  -2  681.03   26.90
  -1   4  -2  667.13   26.50
   1  -4   2  682.53   27.10
   1  -4   2  643.14   25.90
   1  -4   2  742.93   29.10
  -2   4  -2 1100.79   42.80
  -2   4  -2 1114.29   41.70
   2  -4   2 1127.29   42.00
   2  -4   2 1216.68   44.50
  -3   4  -2 1727.93   63.39
   3  -4   2 1718.33   60.79
   3  -4   2 1672.73   63.39
  -4   4  -2  395.86   21.60
   4  -4   2  357.86   17.90
   4  -4   2  388.46   21.50
   4  -4   2  420.36   19.40
  -5   4  -2   48.50    8.80
   5  -4   2   41.50    7.60
   5  -4   2   51.59    7.20
   6  -4   2   11.70    3.20
   6  -4   2   16.90    4.70
   7  -4   2  106.59    7.90
   7  -4   2  128.69    9.70
   8  -4   2   21.50    6.10
  -8  -3   2   12.60    2.90
   7   3  -2   78.09    6.50
  -7  -3   2   95.49    7.10
   6   3  -2   84.79    8.70
  -6  -3   2   70.79    7.70
   5   3  -2   33.90    4.90
  -5  -3   2   44.90    5.70
   4   3  -2   41.80    8.10
  -4  -3   2   43.50    8.00
  -4  -3   2   55.69    8.60
   3   3  -2 1432.96   55.69
   3   3  -2 1313.97   51.89
  -3  -3   2 1481.25   54.79
  -3  -3   2 1429.86   53.09
   2   3  -2  804.22   32.10
   2   3  -2  830.42   34.30
  -2  -3   2  825.32   32.40
  -2  -3   2  859.61   32.10
  -2  -3   2  863.61   34.00
   1   3  -2  320.07   15.80
   1   3  -2  322.77   14.80
  -1  -3   2  335.07   13.60
  -1  -3   2  332.27   15.00
  -1  -3   2  351.56   15.90
   0   3  -2 1107.19   38.40
   0   3  -2 1045.70   37.20
   0  -3   2 1067.39   39.60
   0  -3   2 1092.69   38.70
   0  -3   2 1056.29   38.50
  -1   3  -2  102.59    6.00
  -1   3  -2   89.99    6.00
   1  -3   2   97.89    6.80
   1  -3   2   89.99    5.90
   1  -3   2   77.39    4.90
  -2   3  -2 1698.93   58.19
  -2   3  -2 1579.84   53.99
   2  -3   2 1595.24   56.29
   2  -3   2 1641.44   58.09
  -3   3  -2    3.20    2.10
  -3   3  -2    9.70    2.20
   3  -3   2    1.20    1.40
   3  -3   2    2.80    1.70
   3  -3   2    2.50    1.90
  -4   3  -2  503.35   25.00
  -4   3  -2  490.25   21.80
   4  -3   2  509.35   21.70
   4  -3   2  528.35   25.50
   4  -3   2  501.35   22.10
  -5   3  -2   51.19    7.00
  -5   3  -2   36.90    7.80
   5  -3   2   57.59    7.20
   5  -3   2   59.09    9.50
  -6   3  -2  413.46   25.90
  -6   3  -2  410.86   22.90
  -7   3  -2   19.70    4.10
  -8   3  -2    3.20    2.10
  -9   3  -2    9.80    2.40
   8   2  -2    0.00    1.80
  -8  -2   2    1.10    1.40
   7   2  -2    2.00    1.90
  -7  -2   2    0.80    1.80
   6   2  -2   10.60    3.10
  -6  -2   2   13.30    3.50
   5   2  -2   70.89   10.70
  -5  -2   2   89.39   11.30
   4   2  -2  264.57   17.10
   4   2  -2  254.67   14.60
  -4  -2   2  277.67   16.30
  -4  -2   2  254.77   15.50
   3   2  -2  431.56   19.60
   3   2  -2  419.06   21.40
  -3  -2   2  457.15   20.40
  -3  -2   2  465.45   20.80
   2   2  -2    4.30    1.80
   2   2  -2    4.10    1.90
  -2  -2   2    7.90    2.20
  -2  -2   2    5.30    1.80
  -2  -2   2    3.80    1.80
   1   2  -2   47.30    4.20
   1   2  -2   49.20    3.20
   1   2  -2   44.80    4.40
  -1  -2   2   46.50    4.30
  -1  -2   2   49.30    3.40
  -1  -2   2   48.80    4.90
   0   2  -2  108.49    5.70
   0   2  -2  109.89    5.80
   0  -2   2  106.59    5.70
   0  -2   2  106.29    6.10
   0  -2   2  102.59    5.70
  -1   2  -2  191.58    7.20
  -1   2  -2  198.48    8.70
  -1   2  -2  188.58    9.30
   1  -2   2  187.58    7.60
   1  -2   2  199.98    8.90
   1  -2   2  192.48    9.30
  -2   2  -2 2940.11   97.09
  -2   2  -2 2763.62   94.29
   2  -2   2 2921.61   95.19
   2  -2   2 2793.62   94.89
   2  -2   2 2902.41   96.99
  -3   2  -2   75.39    5.70
  -3   2  -2   85.19    7.40
   3  -2   2   69.29    5.30
   3  -2   2   85.09    5.70
   3  -2   2   86.29    7.20
  -4   2  -2   30.00    6.00
  -4   2  -2   21.60    4.20
   4  -2   2   25.50    3.90
   4  -2   2   29.20    4.20
   4  -2   2   35.70    6.50
  -5   2  -2    3.50    2.50
  -5   2  -2    2.40    3.60
   5  -2   2    3.50    3.00
  -6   2  -2   30.40    4.60
  -7   2  -2  158.18   10.60
  -8   2  -2   36.10    5.20
  -9   2  -2    4.00    1.70
  -9  -1   2   47.80    4.20
   8   1  -2  346.67   16.40
  -8  -1   2  358.26   16.90
   7   1  -2   45.80    6.40
  -7  -1   2   43.50    5.90
   6   1  -2   60.19    7.50
  -6  -1   2   58.89    6.90
   5   1  -2   85.99   11.70
  -5  -1   2   72.69    9.90
   4   1  -2   52.79    8.30
   4   1  -2   47.90    6.30
  -4  -1   2   40.30    5.60
  -4  -1   2   49.80    7.20
   3   1  -2  170.28   10.60
   3   1  -2  158.38    9.30
   3   1  -2  153.38    7.40
  -3  -1   2  153.68    8.60
  -3  -1   2  166.28    9.80
  -3  -1   2  153.28    9.20
   2   1  -2  195.78   10.00
   2   1  -2  182.38    9.20
   2   1  -2  199.58    8.90
  -2  -1   2  164.18    8.00
  -2  -1   2  199.88    9.30
  -2  -1   2  189.98    9.40
   1   1  -2  349.57   13.70
   1   1  -2  346.57   13.70
   1   1  -2  344.87   13.70
  -1  -1   2  354.86   13.00
  -1  -1   2  338.77   13.60
  -1  -1   2  373.16   13.10
   0   1  -2 1314.67   45.00
   0   1  -2 1322.87   44.30
   0   1  -2 1314.37   43.60
   0  -1   2 1304.97   44.20
   0  -1   2 1358.46   44.40
   0  -1   2 1363.96   44.20
  -1   1  -2 4395.36  144.99
  -1   1  -2 4295.17  143.49
   1  -1   2 4510.05  144.39
   1  -1   2 4505.85  142.79
  -2   1  -2 6501.85  211.58
  -2   1  -2 6335.07  209.88
  -2   1  -2 6686.13  213.08
   2  -1   2 6582.14  212.78
   2  -1   2 6527.85  211.28
   2  -1   2 6403.56  210.48
  -3   1  -2  263.57   13.30
  -3   1  -2  267.17   14.10
  -3   1  -2  252.07   11.10
   3  -1   2  282.87   12.00
   3  -1   2  271.47   14.30
   3  -1   2  275.77   12.40
  -4   1  -2  465.55   22.20
  -4   1  -2  457.35   22.90
   4  -1   2  484.65   20.40
   4  -1   2  500.35   24.10
  -5   1  -2  315.87   19.00
   5  -1   2  346.37   21.20
  -6   1  -2   98.59    9.10
  -7   1  -2   20.70    4.30
  -8   1  -2   57.99    6.80
  -9   1  -2    2.40    1.60
   9   0  -2    0.60    1.50
  -9   0   2   -0.10    1.30
   8   0  -2   51.19    6.30
  -8   0   2   49.90    6.10
   7   0  -2   43.10    5.80
  -7   0   2   45.20    6.20
   6   0  -2   32.80    5.40
  -6   0   2   34.00    5.30
   5   0  -2    0.00    2.10
   5   0  -2   -1.30    2.30
  -5   0   2    0.40    1.90
   4   0  -2  244.38   13.10
   4   0  -2  242.88   14.70
  -4   0   2  223.98   12.70
  -4   0   2  236.78   13.20
  -4   0   2  222.88   11.90
   3   0  -2   42.20    4.90
   3   0  -2   51.19    6.20
  -3   0   2   33.70    4.40
  -3   0   2   46.30    4.60
   2   0  -2  172.48    8.50
   2   0  -2  176.38    8.60
   2   0  -2  167.18    8.80
  -2   0   2  171.08    7.80
  -2   0   2  176.28    8.20
   1   0  -2 2174.48   70.79
   1   0  -2 2198.68   71.59
   1   0  -2 2145.49   72.49
  -1   0   2 2141.89   69.99
  -1   0   2 2233.18   70.39
  -1   0   2 2114.09   71.09
  -1   0   2 2174.68   71.19
   0   0  -2  577.54   20.30
   0   0  -2  582.34   19.30
   0   0  -2  565.64   20.80
   0   0   2  559.74   19.00
   0   0   2  594.14   20.00
   0   0   2  573.74   19.90
  -1   0  -2 1461.25   49.99
  -1   0  -2 1449.95   49.30
  -1   0  -2 1481.75   49.80
   1   0   2 1476.55   49.60
   1   0   2 1502.05   49.40
   1   0   2 1436.86   47.60
  -2   0  -2  271.67   12.60
  -2   0  -2  261.67   11.60
  -2   0  -2  282.67   12.70
   2   0   2  272.67   10.40
   2   0   2  244.68   11.50
   2   0   2  285.07   13.10
  -3   0  -2 1104.79   42.00
  -3   0  -2 1115.29   40.50
  -3   0  -2 1162.58   42.50
   3   0   2 1155.98   43.30
   3   0   2 1075.19   38.90
   3   0   2 1118.49   40.60
  -4   0  -2  264.47   15.80
   4   0   2  267.97   16.50
   4   0   2  256.87   13.20
  -5   0  -2   54.49    8.50
   5   0   2   68.09   10.10
  -6   0  -2  125.39    9.30
  -7   0  -2  215.08   13.00
  -8   0  -2    8.60    2.70
   9  -1  -2  332.77   15.30
  -9   1   2  341.07   15.60
   8  -1  -2   45.70    6.40
  -8   1   2   59.29    7.10
   7  -1  -2  176.08   11.50
  -7   1   2  171.18   11.10
   6  -1  -2  323.37   18.40
   6  -1  -2  318.37   21.50
  -6   1   2  303.67   19.20
   5  -1  -2  191.88   14.60
   5  -1  -2  190.58   12.50
  -5   1   2  215.78   13.60
  -5   1   2  186.78   13.00
   4  -1  -2  949.51   39.40
   4  -1  -2 1021.90   38.20
  -4   1   2  999.30   38.10
  -4   1   2  961.90   39.00
   3  -1  -2  107.79    7.50
   3  -1  -2  109.49    7.10
   3  -1  -2  101.69    7.60
  -3   1   2  107.59    5.70
  -3   1   2  103.99    6.80
   2  -1  -2 2159.68   71.19
   2  -1  -2 2027.80   69.69
   2  -1  -2 2121.89   69.79
  -2   1   2 2034.90   67.89
  -2   1   2 2021.60   68.19
  -2   1   2 2071.49   69.29
   1  -1  -2 2879.71  109.69
   1  -1  -2 3715.03  109.79
   1  -1  -2 3659.03  109.29
   1  -1  -2 2994.30  110.89
  -1   1   2 3543.45  109.49
   0  -1  -2  379.06   12.60
   0  -1  -2  408.06   14.60
   0  -1  -2  388.06   14.50
   0  -1  -2  341.67   14.20
   0   1   2  303.77   13.70
   0   1   2  390.36   13.70
  -1  -1  -2 1320.87   46.60
  -1  -1  -2 1354.46   46.50
  -1  -1  -2 1337.47   45.80
   1   1   2 1273.47   46.30
   1   1   2 1397.76   46.20
  -2  -1  -2  900.71   32.90
  -2  -1  -2  919.01   33.90
  -2  -1  -2  916.11   34.60
   2   1   2  960.50   34.90
   2   1   2  888.91   33.20
   2   1   2  852.91   30.60
  -3  -1  -2 1444.26   53.09
  -3  -1  -2 1486.25   54.79
   3   1   2 1456.65   54.99
   3   1   2 1440.26   52.19
  -4  -1  -2  653.73   30.60
   4   1   2  668.33   31.40
   4   1   2  643.64   27.40
  -5  -1  -2  782.02   37.20
   5   1   2  741.13   37.20
  -6  -1  -2   30.10    5.20
   6   1   2   31.00    6.70
  -7  -1  -2   -1.90    1.40
  -8  -1  -2    3.10    2.00
   9  -2  -2   60.69    6.30
  -9   2   2   55.59    6.10
   8  -2  -2   64.39    7.40
  -8   2   2   65.39    7.50
   7  -2  -2   84.59    8.60
  -7   2   2  100.79    9.30
   6  -2  -2   71.49   11.00
   6  -2  -2   65.69    8.70
  -6   2   2   75.59   10.60
  -6   2   2   75.49   10.10
   5  -2  -2  125.19   11.40
   5  -2  -2  126.19   11.30
  -5   2   2  123.89    9.90
  -5   2   2  122.99   10.80
   4  -2  -2  316.27   15.90
   4  -2  -2  332.87   17.50
  -4   2   2  315.07   15.60
  -4   2   2  318.27   17.40
   3  -2  -2   79.79    6.50
   3  -2  -2   89.69    7.30
   3  -2  -2   86.49    6.20
  -3   2   2   74.89    4.20
  -3   2   2   83.99    5.70
   2  -2  -2 1966.20   67.09
   2  -2  -2 2072.79   69.49
   2  -2  -2 2130.79   69.09
   2  -2  -2 2153.58   70.79
  -2   2   2 2135.59   67.09
  -2   2   2 1719.13   67.19
  -2   2   2 2139.89   68.59
   1  -2  -2   26.50    2.90
   1  -2  -2   27.30    3.20
   1  -2  -2   23.30    3.20
   1  -2  -2   26.60    3.20
   1  -2  -2   26.70    3.20
   1  -2  -2   27.90    2.90
   0  -2  -2 1441.16   48.20
   0  -2  -2 1404.46   48.00
   0  -2  -2 1459.75   48.60
   0  -2  -2 1305.17   47.20
   0   2   2 1362.66   45.90
   0   2   2 1351.26   47.80
  -1  -2  -2  121.49    7.60
  -1  -2  -2  126.29    7.90
  -1  -2  -2  110.59    5.80
   1   2   2  111.19    5.10
   1   2   2  125.19    7.70
   1   2   2  130.59    7.60
  -2  -2  -2  597.14   24.90
  -2  -2  -2  583.34   25.00
   2   2   2  568.74   25.00
   2   2   2  542.55   23.50
  -3  -2  -2  647.34   29.70
  -3  -2  -2  641.24   28.60
   3   2   2  645.04   29.70
   3   2   2  646.04   27.10
  -4  -2  -2   27.90    6.10
  -4  -2  -2   22.90    6.90
   4   2   2   30.90    7.40
   4   2   2   27.90    4.70
  -5  -2  -2   12.70    3.60
  -5  -2  -2    9.20    2.90
  -6  -2  -2  430.26   20.70
  -7  -2  -2    1.80    1.90
  -8  -2  -2    3.90    1.60
   9  -3  -2   53.89    6.20
  -9   3   2   58.49    6.10
   8  -3  -2   42.90    6.20
  -8   3   2   64.59    7.20
   7  -3  -2   62.69    7.40
   7  -3  -2   53.29    8.80
   6  -3  -2  105.79   13.60
   6  -3  -2   74.39    9.40
  -6   3   2   76.19   11.40
  -6   3   2   86.59   10.40
   5  -3  -2 1533.95   61.29
   5  -3  -2 1581.24   58.59
  -5   3   2 1562.14   61.09
  -5   3   2 1518.85   57.79
   4  -3  -2  166.18   10.60
   4  -3  -2  155.18   11.50
  -4   3   2  161.18    9.80
  -4   3   2  161.48   11.70
   3  -3  -2    1.90    0.60
   3  -3  -2    2.20    1.00
   3  -3  -2    1.40    1.50
  -3   3   2    3.10    1.10
  -3   3   2    1.40    1.20
  -3   3   2    1.60    1.20
   2  -3  -2  480.85   19.10
   2  -3  -2  485.25   20.20
   2  -3  -2  462.05   18.30
   2  -3  -2  480.15   20.60
   2  -3  -2  448.06   18.30
   1  -3  -2  217.18    9.80
   1  -3  -2  220.38   10.90
   1  -3  -2  218.58   10.70
   1  -3  -2  218.08   11.20
   1  -3  -2  217.28   10.40
   1  -3  -2  216.78   10.60
   0  -3  -2 1136.49   40.60
   0  -3  -2 1042.40   39.30
   0  -3  -2 1066.69   39.90
   0   3   2 1109.19   40.30
   0   3   2 1078.89   37.40
  -1  -3  -2    1.40    1.80
  -1  -3  -2    3.10    1.80
   1   3   2    3.30    2.00
  -2  -3  -2  361.86   19.10
  -2  -3  -2  348.77   18.60
   2   3   2  360.36   19.30
   2   3   2  350.56   17.80
  -3  -3  -2   97.69   11.80
  -3  -3  -2  104.69   11.20
   3   3   2  126.69   13.90
   3   3   2   99.69   10.00
  -4  -3  -2   47.20    8.50
  -4  -3  -2   75.49   11.20
   4   3   2   39.50    8.80
  -5  -3  -2    3.20    2.00
  -5  -3  -2   -1.80    1.70
  -6  -3  -2   19.70    4.30
  -7  -3  -2   93.49    6.60
  10  -4  -2   13.30    3.20
   9  -4  -2   61.59    6.80
  -9   4   2   52.89    5.50
   8  -4  -2  125.79   10.10
   8  -4  -2  140.09    9.20
  -8   4   2  147.89    9.60
   7  -4  -2   39.40    6.20
   7  -4  -2   39.90    5.80
   6  -4  -2  222.68   18.30
   6  -4  -2  238.68   15.80
  -6   4   2  219.38   17.40
  -6   4   2  232.18   15.30
   5  -4  -2  424.66   21.30
   5  -4  -2  425.26   23.50
  -5   4   2  399.26   22.60
  -5   4   2  389.96   19.80
   4  -4  -2    7.90    2.30
   4  -4  -2    6.90    3.50
  -4   4   2    6.00    3.00
  -4   4   2    3.70    1.90
   3  -4  -2 1428.06   55.19
   3  -4  -2 1475.15   53.59
   3  -4  -2 1437.06   51.69
  -3   4   2 1526.15   51.99
  -3   4   2 1494.35   55.79
  -3   4   2 1494.05   49.90
   2  -4  -2 1588.64   54.89
   2  -4  -2 1555.24   55.09
   2  -4  -2 1538.35   54.89
   2  -4  -2 1539.25   56.89
   1  -4  -2  446.26   20.00
   1  -4  -2  432.56   18.70
   1  -4  -2  444.96   19.90
  -1   4   2  463.55   18.40
   0  -4  -2  661.33   27.40
   0  -4  -2  638.24   27.80
   0  -4  -2  629.64   26.30
   0   4   2  669.23   28.00
   0   4   2  634.04   24.30
  -1  -4  -2 1431.06   55.49
  -1  -4  -2 1424.76   54.19
   1   4   2 1485.95   55.99
  -2  -4  -2 1314.17   52.09
  -2  -4  -2 1237.18   50.59
   2   4   2 1200.48   49.50
   2   4   2 1312.47   52.39
  -3  -4  -2   29.80    6.90
  -3  -4  -2   17.40    5.30
   3   4   2   31.30    7.40
   3   4   2   24.40    6.10
  -4  -4  -2   36.50    5.80
  -4  -4  -2   34.50    5.50
  -4  -4  -2   37.90    5.80
  -5  -4  -2  274.27   14.40
  -5  -4  -2  255.57   14.40
  -6  -4  -2   13.30    3.40
  10  -5  -2  116.79    6.70
   9  -5  -2   48.90    6.00
   9  -5  -2   42.20    4.60
   8  -5  -2   47.60    5.90
   8  -5  -2   45.20    6.50
   7  -5  -2   94.39    8.90
   7  -5  -2   58.19    7.40
   6  -5  -2  415.36   29.10
   6  -5  -2  392.36   19.60
   6  -5  -2  374.26   18.00
   5  -5  -2  240.88   15.50
   5  -5  -2  246.38   17.50
  -5   5   2  260.57   18.10
   4  -5  -2   35.00    6.10
   4  -5  -2   27.20    6.10
  -4   5   2   36.10    6.80
   3  -5  -2    9.90    3.90
   3  -5  -2   16.40    3.60
   3  -5  -2    7.90    3.40
  -3   5   2   10.70    3.50
   2  -5  -2    6.20    2.80
   2  -5  -2    6.10    2.40
   2  -5  -2    3.70    3.10
  -2   5   2    8.50    2.90
  -2   5   2    4.70    2.10
   1  -5  -2 2219.98   80.19
   1  -5  -2 2193.38   80.09
  -1   5   2 2260.97   81.19
  -1   5   2 2282.87   77.49
   0  -5  -2  231.28   15.50
   0  -5  -2  245.88   14.60
   0   5   2  262.67   16.10
  -1  -5  -2 1199.18   50.29
   1   5   2 1199.78   49.99
  -2  -5  -2  589.34   31.60
   2   5   2  591.84   29.90
   2   5   2  656.33   32.70
  -3  -5  -2   24.60    4.70
  -3  -5  -2   23.10    4.90
  -4  -5  -2  156.38   10.60
  -4  -5  -2  145.69   10.40
  -5  -5  -2    7.40    2.60
   9  -6  -2   22.60    3.60
   9  -6  -2   16.90    3.70
   8  -6  -2    4.60    2.90
   8  -6  -2    3.90    2.30
   7  -6  -2   38.70    6.30
   7  -6  -2   35.00    5.20
   6  -6  -2  302.17   15.50
   6  -6  -2  314.17   17.30
   5  -6  -2   42.00    8.20
   5  -6  -2   37.40    9.60
  -5   6   2   41.30    8.90
   4  -6  -2  148.99   12.80
  -4   6   2  147.29   12.80
   3  -6  -2   35.20    6.80
   3  -6  -2   51.29    7.20
  -3   6   2   47.70    6.90
  -3   6   2   43.40    7.20
   2  -6  -2  142.99   13.10
  -2   6   2  121.29    9.10
   1  -6  -2   63.99    9.30
   1  -6  -2   47.60    8.10
  -1   6   2   70.69    9.50
   0  -6  -2   42.50    7.90
   0  -6  -2   51.59    7.60
   0   6   2   52.49    9.00
  -1  -6  -2   96.29   13.10
   1   6   2  115.09   13.40
   1   6   2   97.99   12.20
  -2  -6  -2   11.60    3.50
  -2  -6  -2   12.90    3.80
  -3  -6  -2   42.10    6.30
  -3  -6  -2   45.00    6.40
  -4  -6  -2   55.99    6.50
  -4  -6  -2   56.39    6.60
  -5  -6  -2   47.10    4.80
   9  -7  -2    5.30    1.80
   9  -7  -2    4.70    2.40
   8  -7  -2   13.30    3.80
   8  -7  -2   15.90    3.60
   7  -7  -2   12.20    3.20
   7  -7  -2   12.20    3.90
   6  -7  -2   42.10    6.00
   6  -7  -2   26.10    5.50
   5  -7  -2    9.10    3.40
   5  -7  -2    9.30    2.90
   4  -7  -2   -3.10    5.00
  -4   7   2    4.90    3.50
   3  -7  -2  116.69   12.00
  -3   7   2  102.89   10.30
   2  -7  -2   20.40    5.90
  -2   7   2   29.60    7.10
   1  -7  -2   76.99    9.70
   1  -7  -2  107.59   13.40
  -1   7   2  122.69   14.50
   0  -7  -2   80.89    9.00
   0  -7  -2   69.69    7.60
  -1  -7  -2   37.80    6.00
  -1  -7  -2   61.39    7.70
  -2  -7  -2   69.89    8.20
  -2  -7  -2   95.79   10.20
  -3  -7  -2   24.50    4.90
  -3  -7  -2   26.50    4.80
  -4  -7  -2   12.20    3.10
  -4  -7  -2   10.80    2.70
   9  -8  -2    9.60    2.10
   9  -8  -2    7.40    2.20
   8  -8  -2   -0.30    1.50
   8  -8  -2    0.30    1.30
   7  -8  -2   67.09    8.00
   7  -8  -2   47.70    5.80
   6  -8  -2    0.80    1.60
   6  -8  -2    1.00    2.20
   5  -8  -2   30.70    4.60
   5  -8  -2   34.90    5.90
   4  -8  -2    1.70    2.90
   4  -8  -2    1.90    2.40
   3  -8  -2  362.06   19.10
   3  -8  -2  384.46   19.00
   2  -8  -2  436.96   21.20
   2  -8  -2  453.95   21.30
   1  -8  -2    2.60    2.30
   1  -8  -2    1.90    2.30
   0  -8  -2    8.80    3.40
   0  -8  -2   25.10    5.00
  -1  -8  -2   74.79    8.50
  -1  -8  -2   62.69    8.10
  -2  -8  -2  101.89    8.40
  -2  -8  -2  114.69    9.10
  -3  -8  -2    3.40    2.30
  -3  -8  -2    3.50    2.00
  -4  -8  -2   24.60    4.40
   8  -9  -2    2.30    2.10
   8  -9  -2    6.40    2.00
   7  -9  -2   50.09    6.50
   7  -9  -2   57.59    5.90
   6  -9  -2    1.00    2.10
   6  -9  -2    6.00    2.30
   5  -9  -2   96.19    9.90
   4  -9  -2  119.29    9.80
   4  -9  -2  126.09    9.60
   3  -9  -2   16.90    4.30
   3  -9  -2   11.10    3.40
   2  -9  -2  258.87   16.60
   2  -9  -2  280.87   15.40
   1  -9  -2   28.00    5.30
   1  -9  -2   19.50    4.10
   0  -9  -2  209.68   13.00
   0  -9  -2  196.38   12.50
  -1  -9  -2   44.40    6.00
  -1  -9  -2   50.79    6.10
  -2  -9  -2   37.60    5.00
  -2  -9  -2   33.70    4.30
   8 -10  -2   36.90    3.50
   8 -10  -2   34.80    4.10
   7 -10  -2   88.59    7.20
   7 -10  -2  102.59    6.10
   6 -10  -2   69.99    7.60
   5 -10  -2   -0.60    1.90
   4 -10  -2   93.39    7.60
   4 -10  -2   75.39    8.10
   3 -10  -2  139.49    9.60
   3 -10  -2  156.88   10.20
   2 -10  -2    0.70    1.80
   1 -10  -2    3.10    2.50
   1 -10  -2   -0.60    1.70
   0 -10  -2   38.10    5.10
   0 -10  -2   39.40    5.30
  -1 -10  -2   18.80    3.00
  -1 -10  -2   21.90    3.40
   7 -11  -2    0.30    1.40
   6 -11  -2   50.09    4.90
   5 -11  -2   25.00    3.70
   4 -11  -2    5.50    2.20
   4 -11  -2    4.70    2.10
   3 -11  -2   68.79    5.80
   2 -11  -2    5.70    2.20
   1 -11  -2   46.90    4.80
   2 -12   3    6.00    1.70
   3 -12   3   22.50    3.30
   3 -12   3   23.30    3.20
   4 -12   3    3.10    1.50
   4 -12   3    3.60    1.50
   0 -11   3   29.10    3.60
   0 -11   3   26.70    3.50
   1 -11   3    7.40    2.40
   1 -11   3    7.60    2.30
   2 -11   3   51.59    5.90
   2 -11   3   51.69    5.80
   3 -11   3   93.79    7.70
   3 -11   3   88.19    7.10
   4 -11   3    3.50    2.00
   4 -11   3    2.80    2.20
   5 -11   3   32.60    4.50
   5 -11   3   26.90    4.10
   6 -11   3    0.40    1.40
   6 -11   3    2.10    1.60
   2  10  -3   47.30    3.80
  -2 -10   3   48.40    4.50
  -2 -10   3   49.40    5.00
  -1 -10   3   20.80    4.00
  -1 -10   3   14.50    3.10
   0 -10   3  183.18   11.10
   0 -10   3  194.98   11.60
   0 -10   3  176.88   10.90
   1 -10   3    1.10    1.90
   1 -10   3    0.80    2.10
   2 -10   3  369.56   19.40
   2 -10   3  417.56   19.80
   3 -10   3    3.10    2.50
   3 -10   3   10.00    3.50
   4 -10   3  127.29    9.90
   4 -10   3  106.89    9.00
   5 -10   3  293.37   15.90
   5 -10   3  293.97   16.00
   6 -10   3   68.19    7.40
   6 -10   3   63.99    6.70
   6 -10   3   57.69    5.80
   7 -10   3    2.60    2.20
   7 -10   3    5.40    2.40
   7 -10   3    4.10    1.60
   3   9  -3    6.50    2.00
  -3  -9   3    6.60    2.40
   2   9  -3  122.89    8.40
  -2  -9   3  146.29    9.60
  -2  -9   3  132.39    8.70
  -1  -9   3    5.90    2.70
  -1  -9   3    4.20    2.60
  -1  -9   3    6.70    3.00
   0  -9   3   20.80    4.50
   0  -9   3   12.40    3.70
   0  -9   3   12.10    3.50
   1  -9   3   10.50    3.50
   1  -9   3    6.60    4.10
   1  -9   3   16.80    4.20
   2  -9   3   76.99    8.60
   2  -9   3   93.69    9.90
   3  -9   3   17.10    4.30
   3  -9   3   30.30    5.60
   4  -9   3   33.50    5.60
   4  -9   3   51.99    7.40
   5  -9   3   16.00    4.00
   5  -9   3   12.50    3.30
   5  -9   3   11.00    3.80
   6  -9   3  101.29   10.00
   6  -9   3   88.49    7.10
   6  -9   3   88.19    8.70
   7  -9   3  123.39    8.10
   7  -9   3  107.59    8.40
   7  -9   3  111.79    8.00
   8  -9   3    1.00    1.60
   8  -9   3    0.50    1.20
   4   8  -3   32.00    3.90
  -4  -8   3   34.40    4.50
   3   8  -3   31.00    4.90
  -3  -8   3   20.70    4.10
  -2  -8   3   33.10    5.10
  -2  -8   3   36.80    6.10
  -1  -8   3   38.70    5.80
  -1  -8   3   30.20    4.80
  -1  -8   3   33.70    5.60
   0  -8   3    1.30    2.30
   0  -8   3   -0.30    2.10
   0  -8   3    1.60    2.00
   1  -8   3   67.09    7.90
   1  -8   3   97.49    9.60
   2  -8   3   93.49    9.30
   2  -8   3   80.79    8.70
   3  -8   3    2.70    2.10
   3  -8   3   -0.20    1.90
   4  -8   3    1.10    2.20
   4  -8   3    2.90    2.20
   4  -8   3    1.60    2.30
   5  -8   3    0.30    1.60
   5  -8   3    0.20    2.20
   5  -8   3    4.00    2.40
   6  -8   3   29.50    5.50
   6  -8   3   31.40    5.80
   6  -8   3   32.70    5.30
   7  -8   3    3.10    2.30
   7  -8   3    0.90    1.60
   7  -8   3    2.30    2.30
   8  -8   3    3.80    2.10
   8  -8   3    3.60    2.00
   5   7  -3    0.80    1.30
  -5  -7   3    0.70    1.60
   4   7  -3    1.40    1.60
  -4  -7   3   -0.10    1.60
   3   7  -3  230.68   13.20
  -3  -7   3  224.98   13.80
  -2  -7   3   21.40    4.50
  -2  -7   3   22.50    4.80
  -2  -7   3   21.00    4.40
  -1  -7   3   -0.70    1.80
  -1  -7   3    0.60    1.90
  -1  -7   3    1.10    2.00
   0   7  -3   -0.20    3.10
   0   7  -3    0.10    2.20
   0  -7   3   -0.70    2.80
   0  -7   3   -1.10    2.80
  -1   7  -3  362.86   20.00
  -1   7  -3  320.87   21.70
   1  -7   3  365.06   20.90
  -2   7  -3   23.10    5.50
   2  -7   3    9.70    4.20
   2  -7   3   18.60    6.00
  -3   7  -3   31.20    6.00
   3  -7   3   27.10    6.80
   3  -7   3   35.90    7.40
  -4   7  -3    3.80    3.40
   4  -7   3    0.30    2.10
   4  -7   3    4.00    2.80
   5  -7   3   71.99    8.50
   5  -7   3   66.69    7.20
   5  -7   3   68.39    7.80
   6  -7   3    3.90    2.70
   6  -7   3    6.00    2.90
   6  -7   3    5.50    2.50
   7  -7   3   15.40    3.90
   7  -7   3   17.90    3.90
   7  -7   3   16.00    3.80
   8  -7   3  144.79    9.60
   8  -7   3  175.48    9.80
   5   6  -3  176.98   10.30
  -5  -6   3  158.28   10.00
   4   6  -3  115.19    8.80
  -4  -6   3  115.79    9.10
  -3  -6   3  116.89   10.80
  -2  -6   3   34.20    5.50
  -2  -6   3   34.10    5.30
  -2  -6   3   40.50    7.90
   1   6  -3  181.68   18.00
   1   6  -3  170.98   12.50
  -1  -6   3  159.08   16.10
  -1  -6   3  171.98   13.30
   0   6  -3  103.09   10.70
   0   6  -3   89.39   10.90
   0  -6   3   79.29    9.30
   0  -6   3   87.39   10.70
  -1   6  -3  962.10   38.10
   1  -6   3  892.71   38.40
   1  -6   3  888.31   37.20
  -2   6  -3  298.07   16.50
   2  -6   3  282.87   17.10
   2  -6   3  284.47   18.30
  -3   6  -3    1.30    0.80
  -3   6  -3    1.30    2.00
   3  -6   3    5.00    2.80
   3  -6   3    0.70    2.00
  -4   6  -3  307.47   20.00
  -4   6  -3  271.67   17.30
   4  -6   3  312.77   17.50
   4  -6   3  267.97   19.50
  -5   6  -3   24.80    5.20
  -5   6  -3   29.30   11.70
   5  -6   3   46.60   10.90
   5  -6   3   18.30    3.80
   5  -6   3   30.70    6.40
   6  -6   3  138.59   10.40
   6  -6   3  138.89    9.60
   6  -6   3  134.39    9.80
   7  -6   3   -0.90    2.10
   7  -6   3    0.80    1.80
   7  -6   3   -0.40    2.00
   8  -6   3  165.08   10.00
   8  -6   3  147.89    9.20
   6   5  -3  175.78   10.10
   5   5  -3   41.40    5.80
  -5  -5   3   44.40    5.60
   4   5  -3  238.68   13.40
  -4  -5   3  216.78   12.90
   3   5  -3   22.80    7.80
  -3  -5   3   24.70    5.10
  -3  -5   3   22.90    7.90
   2   5  -3  110.39   13.40
   2   5  -3  105.59   11.10
  -2  -5   3  108.49   12.50
  -2  -5   3   81.99    9.90
   1   5  -3  158.68   12.90
   1   5  -3  174.08   11.70
  -1  -5   3  179.28   12.40
  -1  -5   3  206.28   13.90
   0   5  -3  791.42   34.70
   0   5  -3  858.31   33.20
   0  -5   3  768.72   33.30
   0  -5   3  798.62   33.50
  -1   5  -3    5.30    2.40
  -1   5  -3    6.50    2.60
   1  -5   3    4.10    1.80
   1  -5   3    6.90    2.40
   1  -5   3    9.80    3.40
  -2   5  -3  451.25   21.50
  -2   5  -3  454.65   22.40
   2  -5   3  508.05   22.80
   2  -5   3  530.15   24.50
  -3   5  -3  192.98   12.20
  -3   5  -3  182.68   13.20
   3  -5   3  188.08   13.70
   3  -5   3  183.78   12.00
  -4   5  -3  220.18   16.00
  -4   5  -3  218.88   14.00
   4  -5   3  227.88   13.80
   4  -5   3  216.88   16.00
  -5   5  -3  279.87   17.20
  -5   5  -3  276.47   19.90
   5  -5   3  267.77   19.20
   6  -5   3  205.48   12.30
   6  -5   3  219.38   12.30
   6  -5   3  217.78   13.50
   7  -5   3   89.89    7.20
   7  -5   3   76.09    8.30
   7  -5   3   88.39    7.50
   8  -5   3    1.20    1.60
   7   4  -3   30.40    4.00
   6   4  -3   73.09    7.70
   5   4  -3  126.79    9.40
   4   4  -3   53.79    6.70
  -4  -4   3   38.50    6.10
   3   4  -3  112.29   11.10
   3   4  -3  141.39   15.00
  -3  -4   3  142.39   14.50
   2   4  -3  333.27   16.90
   2   4  -3  326.27   18.80
  -2  -4   3  338.77   18.20
  -2  -4   3  292.67   16.30
   1   4  -3   50.99    6.10
   1   4  -3   54.29    7.20
  -1  -4   3   47.30    6.50
  -1  -4   3   49.00    6.20
   0   4  -3 1234.98   43.80
   0   4  -3 1122.29   42.40
   0  -4   3 1161.38   43.80
   0  -4   3 1218.68   44.20
  -1   4  -3   63.39    5.50
  -1   4  -3   51.29    5.80
   1  -4   3   59.59    5.70
   1  -4   3   45.70    5.20
   1  -4   3   62.39    7.30
  -2   4  -3   68.09    6.80
  -2   4  -3   73.39    6.80
   2  -4   3   79.89    8.50
   2  -4   3   74.19    7.30
  -3   4  -3  733.83   30.70
  -3   4  -3  807.32   33.70
   3  -4   3  783.82   31.10
   3  -4   3  765.32   33.20
  -4   4  -3    7.30    3.50
   4  -4   3    7.60    3.50
   4  -4   3    4.30    2.40
  -5   4  -3 1192.98   53.39
   5  -4   3 1303.97   54.09
   6  -4   3   49.40    5.80
   6  -4   3   51.59    6.60
   7  -4   3  121.89    8.90
   7   3  -3  234.18   12.50
  -7  -3   3  212.88   11.80
   6   3  -3   38.50    6.00
  -6  -3   3   30.10    4.90
   5   3  -3   -0.40    1.60
  -5  -3   3   -1.80    2.20
   4   3  -3   12.50    4.20
   4   3  -3   17.60    5.20
  -4  -3   3   23.80    6.00
  -4  -3   3   22.90    4.10
   3   3  -3  356.16   18.00
   3   3  -3  345.47   19.60
  -3  -3   3  351.36   18.90
  -3  -3   3  346.67   17.50
   2   3  -3  521.95   24.40
   2   3  -3  509.65   23.00
  -2  -3   3  532.85   22.10
  -2  -3   3  623.64   25.00
  -2  -3   3  561.04   22.90
   1   3  -3  127.29    8.00
   1   3  -3  114.19    6.60
   1   3  -3  137.29    8.70
  -1  -3   3  129.69    8.50
  -1  -3   3  133.79    6.60
  -1  -3   3  132.69    8.00
   0   3  -3    5.30    1.80
   0   3  -3    3.80    1.60
   0  -3   3    7.60    2.10
   0  -3   3    4.80    1.80
   0  -3   3    5.60    2.10
  -1   3  -3  820.52   29.70
  -1   3  -3  781.32   30.40
   1  -3   3  818.12   30.80
   1  -3   3  753.82   29.50
   1  -3   3  787.12   28.40
  -2   3  -3    5.40    1.40
  -2   3  -3    6.60    1.90
  -2   3  -3    5.30    2.10
   2  -3   3    6.30    1.20
   2  -3   3    3.30    1.80
   2  -3   3    6.90    2.30
  -3   3  -3   64.09    8.10
  -3   3  -3   72.39    6.40
   3  -3   3   61.99    6.40
   3  -3   3   60.39    7.70
  -4   3  -3 3503.75  123.39
  -4   3  -3 3927.51  128.99
   4  -3   3 3437.86  122.99
   4  -3   3 3737.23  123.89
   4  -3   3 3666.33  128.19
  -5   3  -3    6.60    3.20
  -5   3  -3    7.40    3.80
   5  -3   3    3.30    3.20
   6  -3   3    1.60    2.10
  -7   3  -3  292.47   15.20
  -8   3  -3   54.49    5.90
  -9   3  -3   27.00    3.50
   8   2  -3    8.30    2.40
  -8  -2   3   11.60    2.90
   7   2  -3   72.89    7.90
  -7  -2   3   62.29    7.10
   6   2  -3   63.39    7.60
  -6  -2   3   57.39    6.80
   5   2  -3    6.80    3.50
  -5  -2   3   10.70    4.80
   4   2  -3  404.76   20.30
   4   2  -3  423.26   22.50
  -4  -2   3  406.16   21.00
  -4  -2   3  416.96   20.90
   3   2  -3  272.57   15.40
   3   2  -3  263.57   14.20
  -3  -2   3  274.17   14.60
  -3  -2   3  265.57   14.00
   2   2  -3  132.19    8.20
   2   2  -3  123.99    7.00
   2   2  -3  130.39    8.60
  -2  -2   3  135.69    8.60
  -2  -2   3  143.99    7.60
  -2  -2   3  144.09    7.90
   1   2  -3   63.09    4.80
   1   2  -3   67.89    4.80
   1   2  -3   65.29    4.90
  -1  -2   3   62.59    4.50
  -1  -2   3   59.09    3.80
  -1  -2   3   72.19    5.10
   0   2  -3  395.26   15.50
   0   2  -3  365.36   15.80
   0  -2   3  386.46   15.50
   0  -2   3  400.66   12.90
   0  -2   3  401.26   15.40
   0  -2   3  392.26   15.20
   0  -2   3  363.56   13.20
  -1   2  -3    0.50    1.10
  -1   2  -3    0.50    0.70
  -1   2  -3    0.80    0.90
   1  -2   3    1.70    1.10
   1  -2   3    6.60    1.80
   1  -2   3    1.20    0.70
  -2   2  -3  980.40   35.40
  -2   2  -3 1016.00   38.20
   2  -2   3 1018.40   37.60
   2  -2   3 1016.30   36.30
   2  -2   3  991.60   33.50
  -3   2  -3    2.50    1.60
  -3   2  -3    1.00    1.90
   3  -2   3    3.70    1.50
   3  -2   3    8.10    2.30
   3  -2   3   22.50    4.60
  -4   2  -3 1441.86   56.69
  -4   2  -3 1452.55   54.09
   4  -2   3 1498.05   56.69
   4  -2   3 1452.65   52.59
   4  -2   3 1413.06   52.39
  -5   2  -3   53.09    7.80
  -5   2  -3   84.29   11.40
   5  -2   3   82.89   11.50
  -6   2  -3   34.80    5.30
   6  -2   3   33.20    5.10
  -7   2  -3  227.28   13.20
  -8   2  -3    1.10    1.70
  -9   2  -3    4.60    1.80
  -9  -1   3    7.80    1.90
   8   1  -3  519.15   22.40
  -8  -1   3  517.55   22.30
   7   1  -3    1.90    2.10
  -7  -1   3    7.50    2.80
   6   1  -3   28.40    4.70
  -6  -1   3   30.50    4.90
   5   1  -3    1.40    2.30
   5   1  -3   -1.30    1.30
  -5  -1   3    3.30    4.20
   4   1  -3  397.76   20.70
   4   1  -3  381.56   18.90
  -4  -1   3  380.46   18.60
  -4  -1   3  390.36   19.50
   3   1  -3  493.55   20.70
   3   1  -3  523.25   22.40
   3   1  -3  490.25   21.40
  -3  -1   3  501.65   21.20
  -3  -1   3  492.25   21.20
   2   1  -3  246.98   11.80
   2   1  -3  257.57   11.90
   2   1  -3  247.08   11.90
  -2  -1   3  244.18   11.20
  -2  -1   3  253.07   10.10
  -2  -1   3  256.17   11.60
   1   1  -3    4.80    1.40
   1   1  -3    4.60    1.60
   1   1  -3    4.20    1.20
  -1  -1   3    4.50    1.40
  -1  -1   3    8.00    1.50
  -1  -1   3    6.00    1.00
  -1  -1   3    5.00    1.20
   0   1  -3   11.20    1.70
   0   1  -3   15.90    2.70
   0   1  -3   13.50    1.80
   0  -1   3   11.70    1.80
   0  -1   3   12.10    1.80
   0  -1   3   13.00    1.60
  -1   1  -3  985.50   34.90
  -1   1  -3  927.21   33.10
  -1   1  -3  937.61   32.30
   1  -1   3  936.41   33.30
   1  -1   3  947.51   33.40
   1  -1   3  963.50   32.50
  -2   1  -3  245.58   12.50
  -2   1  -3  224.88   11.10
   2  -1   3  221.88   11.50
   2  -1   3  238.08   10.90
  -3   1  -3 6070.89  201.78
  -3   1  -3 5974.60  203.18
  -3   1  -3 6220.88  203.48
   3  -1   3 6087.09  202.98
   3  -1   3 6123.59  198.58
   3  -1   3 6152.68  200.58
  -4   1  -3  465.65   23.70
  -4   1  -3  472.25   22.90
   4  -1   3  480.65   24.10
   4  -1   3  458.35   20.70
  -5   1  -3    6.60    3.70
   5  -1   3    8.60    4.60
  -6   1  -3  319.37   16.10
   6  -1   3  288.07   14.90
  -7   1  -3   37.60    5.90
  -8   1  -3  114.39    8.10
  -9   1  -3   19.00    2.70
   9   0  -3    0.70    1.50
  -9   0   3    0.30    1.10
   8   0  -3   70.39    7.50
  -8   0   3   84.99    8.40
   7   0  -3    3.00    2.50
  -7   0   3    2.30    2.30
   6   0  -3   19.00    7.80
   6   0  -3   13.80    3.50
   5   0  -3 1204.28   49.60
   5   0  -3 1203.58   47.30
  -5   0   3 1182.78   48.00
   4   0  -3  211.88   13.40
   4   0  -3  220.48   12.80
  -4   0   3  215.08   11.60
  -4   0   3  202.28   12.50
  -4   0   3  213.98   12.60
   3   0  -3   30.40    4.60
   3   0  -3   26.60    4.20
   3   0  -3   25.30    4.00
  -3   0   3   28.50    3.70
  -3   0   3   27.60    4.10
   2   0  -3 5032.70  162.68
   2   0  -3 4916.61  160.68
  -2   0   3 4961.70  160.78
  -2   0   3 4698.13  160.38
  -2   0   3 4989.20  159.28
   1   0  -3 1363.06   46.70
   1   0  -3 1384.76   44.90
   1   0  -3 1358.26   48.00
   1   0  -3 1359.06   46.40
  -1   0   3 1365.36   46.40
  -1   0   3 1388.76   45.20
   0   0  -3  134.29    5.40
   0   0  -3  123.19    6.50
   0   0  -3  123.59    7.00
   0   0   3  133.89    6.10
   0   0   3  121.99    4.90
   0   0   3  128.59    6.20
  -1   0  -3  357.36   12.40
  -1   0  -3  382.96   15.40
  -1   0  -3  354.46   14.70
  -1   0  -3  377.86   15.80
   1   0   3  388.56   14.90
   1   0   3  349.87   14.50
  -2   0  -3  468.15   18.10
  -2   0  -3  426.86   18.90
  -2   0  -3  455.65   19.10
   2   0   3  448.96   18.90
   2   0   3  415.36   15.20
   2   0   3  418.26   17.90
  -3   0  -3  207.68   12.40
  -3   0  -3  210.18   11.20
  -3   0  -3  208.58   12.60
   3   0   3  212.28   12.80
   3   0   3  205.98   11.20
  -4   0  -3   24.20    5.70
   4   0   3   15.20    4.40
   4   0   3   16.10    3.20
  -5   0  -3   23.50    5.90
   5   0   3   32.50    7.10
  -6   0  -3  115.49    9.10
   6   0   3  118.99    8.50
  -7   0  -3   34.20    5.60
  -8   0  -3   66.29    6.60
   9  -1  -3  116.69    7.80
  -9   1   3  124.79    8.10
   8  -1  -3   18.50    4.30
  -8   1   3   20.00    4.00
   7  -1  -3  126.19    9.70
  -7   1   3  131.19    9.40
   6  -1  -3   15.80    5.00
   6  -1  -3   18.90    5.50
  -6   1   3   23.10    5.60
   5  -1  -3   74.89    8.90
   5  -1  -3   70.59    9.60
  -5   1   3   84.49   10.00
  -5   1   3   79.59   10.00
   4  -1  -3  283.47   15.80
   4  -1  -3  289.87   15.10
  -4   1   3  284.37   13.10
  -4   1   3  295.27   15.00
   3  -1  -3   25.50    4.40
   3  -1  -3   24.80    3.90
   3  -1  -3   24.10    4.00
  -3   1   3   24.10    3.70
  -3   1   3   30.30    3.50
   2  -1  -3    9.50    2.10
   2  -1  -3    6.50    2.20
   2  -1  -3    6.70    1.60
  -2   1   3    5.90    1.20
  -2   1   3    7.80    1.70
  -2   1   3    6.20    1.70
   1  -1  -3   13.00    2.00
   1  -1  -3   14.50    1.60
   1  -1  -3   12.20    2.30
   1  -1  -3   23.60    3.70
  -1   1   3   10.40    1.90
  -1   1   3   12.40    1.70
   0  -1  -3    3.80    1.50
   0  -1  -3    4.50    0.80
   0  -1  -3    4.30    1.60
   0  -1  -3    4.40    1.70
   0   1   3    4.30    1.10
   0   1   3    3.90    1.30
  -1  -1  -3  726.33   27.60
  -1  -1  -3  751.72   28.10
  -1  -1  -3  709.83   27.60
   1   1   3  751.42   27.40
   1   1   3  708.03   27.10
  -2  -1  -3  576.24   24.00
  -2  -1  -3  590.24   24.70
  -2  -1  -3  581.44   23.70
   2   1   3  557.74   24.20
   2   1   3  598.54   23.60
  -3  -1  -3   18.20    4.00
  -3  -1  -3   12.40    3.30
   3   1   3   20.50    4.10
   3   1   3   23.60    5.20
  -4  -1  -3  345.87   20.30
   4   1   3  384.26   21.60
   4   1   3  351.06   18.10
  -5  -1  -3   52.89    6.80
  -5  -1  -3   40.20    5.20
  -6  -1  -3  278.17   15.20
   6   1   3  258.87   13.80
  -7  -1  -3   64.49    6.70
  -8  -1  -3    5.00    2.00
   9  -2  -3  168.28   10.30
  -9   2   3  168.88   10.00
   8  -2  -3    3.70    2.40
  -8   2   3    3.60    2.60
   7  -2  -3   45.00    6.40
   6  -2  -3  883.41   37.90
   6  -2  -3  868.81   41.00
  -6   2   3  885.01   38.70
  -6   2   3  824.02   39.30
   5  -2  -3  277.07   17.80
   5  -2  -3  278.07   15.80
  -5   2   3  253.17   16.90
  -5   2   3  277.27   15.90
   4  -2  -3   66.99    7.20
   4  -2  -3   71.79    8.40
  -4   2   3   67.99    7.40
   3  -2  -3 2218.08   76.19
   3  -2  -3 2105.69   74.19
   3  -2  -3 2183.38   74.09
  -3   2   3 2093.99   71.39
  -3   2   3 2146.49   71.19
  -3   2   3 2089.69   73.19
   2  -2  -3 3232.08  104.69
   2  -2  -3 3006.70  104.29
   2  -2  -3 3247.88  107.09
  -2   2   3 3106.99  103.79
   1  -2  -3    4.70    1.70
   1  -2  -3    6.30    1.50
   1  -2  -3    5.10    1.70
   1  -2  -3    5.80    1.50
   1  -2  -3    4.90    2.10
   0  -2  -3    3.00    1.60
   0  -2  -3    1.90    1.30
   0  -2  -3    6.00    2.00
   0   2   3    3.40    1.40
   0   2   3    3.10    1.60
   0   2   3    3.70    0.80
  -1  -2  -3  646.14   26.40
  -1  -2  -3  631.04   24.50
  -1  -2  -3  657.23   26.40
   1   2   3  652.83   25.70
   1   2   3  633.34   25.80
  -2  -2  -3  108.79    8.50
  -2  -2  -3   88.29    9.30
   2   2   3  105.89    8.40
   2   2   3   82.59    8.20
  -3  -2  -3   -1.20    1.90
  -3  -2  -3    1.00    1.80
   3   2   3    1.60    2.20
   3   2   3    2.60    2.30
  -4  -2  -3  100.39   12.10
   4   2   3  115.29   13.90
   4   2   3  132.09    9.70
  -5  -2  -3   29.60    5.40
  -5  -2  -3   30.00    4.80
  -6  -2  -3  110.99   10.20
  -7  -2  -3   14.40    3.20
  10  -3  -3   24.20    3.60
 -10   3   3   30.90    3.50
   9  -3  -3   80.09    8.00
  -9   3   3   68.39    6.60
   8  -3  -3  161.78   11.30
  -8   3   3  163.78   10.60
   7  -3  -3   76.29    7.20
   7  -3  -3   64.99    7.80
   7  -3  -3   61.19    6.30
   6  -3  -3   14.40    4.60
   6  -3  -3    8.90    3.90
  -6   3   3   13.10    4.20
  -6   3   3    8.60    4.80
   5  -3  -3  121.49   11.70
   5  -3  -3  103.09   12.10
  -5   3   3  100.29   10.20
  -5   3   3  119.69   13.50
   4  -3  -3   25.90    4.10
   4  -3  -3   25.90    5.00
  -4   3   3   33.00    4.90
   3  -3  -3   37.30    5.20
   3  -3  -3   31.10    4.60
   3  -3  -3   43.80    6.60
  -3   3   3   35.50    3.50
  -3   3   3   35.70    3.70
  -3   3   3   44.50    5.20
   2  -3  -3 1875.71   63.49
   2  -3  -3 1790.72   62.09
   2  -3  -3 1759.92   63.49
   2  -3  -3 1864.41   65.09
   2  -3  -3 1841.72   62.79
   1  -3  -3  303.17   14.60
   1  -3  -3  309.17   12.90
   1  -3  -3  308.37   14.10
   1  -3  -3  307.47   14.40
   1  -3  -3  332.67   15.00
   0  -3  -3  856.31   33.20
   0  -3  -3  861.81   30.90
   0  -3  -3  843.32   32.60
   0   3   3  801.92   28.90
   0   3   3  817.22   32.20
  -1  -3  -3  198.28   12.30
  -1  -3  -3  179.58   11.90
   1   3   3  204.58   11.60
   1   3   3  187.58   11.70
  -2  -3  -3   95.59   10.30
  -2  -3  -3   79.29    9.30
   2   3   3   99.79   10.60
   2   3   3   85.49    8.90
  -3  -3  -3  205.28   15.90
  -3  -3  -3  203.68   15.00
   3   3   3  190.08   13.20
   3   3   3  208.98   15.30
  -4  -3  -3   47.50    6.40
  -4  -3  -3   40.50    5.90
  -5  -3  -3  564.64   24.80
  -5  -3  -3  532.25   24.00
  -6  -3  -3    0.40    1.90
  -7  -3  -3   -0.30    1.20
  10  -4  -3   94.09    6.00
   9  -4  -3   53.49    6.30
  -9   4   3   47.10    5.20
   8  -4  -3   74.09    7.30
   8  -4  -3   70.69    8.40
  -8   4   3   82.89    8.00
   7  -4  -3  185.18   11.00
   7  -4  -3  165.38    9.90
   7  -4  -3  189.98   12.40
   6  -4  -3   95.99   11.10
   6  -4  -3   92.49   12.00
  -6   4   3   92.09   10.50
  -6   4   3   89.79   12.50
   5  -4  -3   22.50    6.60
   5  -4  -3   20.60    5.10
  -5   4   3   33.60    6.60
  -5   4   3   31.90    5.60
   4  -4  -3    6.00    2.60
   4  -4  -3    6.70    3.70
  -4   4   3    6.50    3.30
  -4   4   3    7.70    2.60
   3  -4  -3 1234.28   47.30
   3  -4  -3 1178.18   44.00
   3  -4  -3 1245.18   45.90
  -3   4   3 1240.68   44.70
  -3   4   3 1278.67   42.50
   2  -4  -3  427.16   19.10
   2  -4  -3  413.46   18.40
   2  -4  -3  427.86   18.80
   2  -4  -3  449.86   19.10
   2  -4  -3  425.36   19.90
   2  -4  -3  433.86   20.10
   1  -4  -3 1115.69   41.60
   1  -4  -3 1054.39   40.70
   1  -4  -3 1070.29   40.20
   1  -4  -3  992.50   39.40
  -1   4   3 1081.59   41.20
  -1   4   3 1132.29   38.70
   0  -4  -3  467.95   22.00
   0  -4  -3  473.75   22.80
   0  -4  -3  463.95   21.70
   0   4   3  483.55   22.40
  -1  -4  -3  153.58   11.60
  -1  -4  -3  149.09   11.40
   1   4   3  143.09   10.50
   1   4   3  137.79   11.00
  -2  -4  -3  606.44   29.60
  -2  -4  -3  558.24   28.80
   2   4   3  569.24   28.80
   2   4   3  541.15   27.00
  -3  -4  -3  403.16   22.80
  -3  -4  -3  540.65   28.40
  -3  -4  -3  494.65   27.70
   3   4   3  524.05   28.30
   3   4   3  514.55   25.90
  -4  -4  -3    8.60    3.20
  -4  -4  -3    8.30    3.40
  -4  -4  -3   10.80    3.50
  -5  -4  -3  118.09    8.90
  -5  -4  -3  113.99    8.60
  -6  -4  -3   -0.30    1.40
   6   4   3    0.40    1.50
  10  -5  -3    9.60    2.20
   9  -5  -3   41.60    5.60
   9  -5  -3   42.30    4.70
  -9   5   3   46.60    5.30
   8  -5  -3   90.09    9.50
   8  -5  -3   80.19    7.80
  -8   5   3   87.59    6.90
   7  -5  -3   39.90    6.50
   7  -5  -3   41.90    5.90
   6  -5  -3  104.99    7.80
   6  -5  -3   94.89    9.60
   6  -5  -3   98.89   16.20
   5  -5  -3  114.99   13.80
   5  -5  -3  165.78   15.10
  -5   5   3  159.58   16.80
   4  -5  -3   38.70    7.50
   4  -5  -3   22.60    4.90
  -4   5   3   26.30    5.90
  -4   5   3   27.70    5.30
   3  -5  -3 1014.20   41.60
   3  -5  -3 1000.60   39.20
   3  -5  -3  991.30   38.40
  -3   5   3  987.00   35.10
  -3   5   3 1010.90   37.60
  -3   5   3 1003.70   41.50
   2  -5  -3    4.20    2.90
   2  -5  -3    1.00    1.80
   2  -5  -3    4.90    1.80
   2  -5  -3    0.40    1.00
  -2   5   3    2.10    1.90
  -2   5   3    1.50    1.40
   1  -5  -3  700.53   30.60
   1  -5  -3  711.33   31.10
   1  -5  -3  688.23   28.90
  -1   5   3  708.23   31.00
   0  -5  -3  124.19   11.70
   0  -5  -3  125.49   13.20
   0   5   3  112.79   10.20
  -1  -5  -3  453.95   24.70
   1   5   3  418.86   22.90
   1   5   3  469.95   24.90
  -2  -5  -3  940.71   39.60
  -2  -5  -3  972.70   44.70
   2   5   3  977.20   44.10
   2   5   3  887.11   41.10
  -3  -5  -3  193.08   12.10
  -3  -5  -3  169.78   11.70
  -4  -5  -3  715.83   30.70
  -4  -5  -3  667.83   31.50
  -4  -5  -3  811.72   31.20
  -5  -5  -3   25.30    4.00
  -5  -5  -3   32.80    5.20
   6   5   3   51.99    4.40
   9  -6  -3   17.90    3.60
   9  -6  -3   13.00    2.70
   8  -6  -3   14.20    4.00
   8  -6  -3   16.30    3.50
   7  -6  -3   -0.80    1.30
   7  -6  -3    0.70    2.10
   6  -6  -3   37.00    5.40
   6  -6  -3   41.80    6.50
   5  -6  -3  224.28   15.80
   5  -6  -3  192.98   15.90
  -5   6   3  243.58   17.90
   4  -6  -3   28.10    6.80
  -4   6   3   43.80    7.90
   3  -6  -3   16.30    5.70
  -3   6   3   15.10    4.00
   2  -6  -3  254.17   15.80
   2  -6  -3  264.57   16.70
  -2   6   3  287.77   17.50
   1  -6  -3  249.08   17.10
   1  -6  -3  249.28   16.90
  -1   6   3  262.97   17.00
   0  -6  -3   17.90    5.90
   0   6   3    8.50    4.00
  -1  -6  -3  355.86   18.00
  -1  -6  -3  357.66   18.20
  -2  -6  -3  201.58   12.70
  -2  -6  -3  190.38   12.70
  -3  -6  -3   10.20    3.30
  -3  -6  -3   13.80    4.20
  -4  -6  -3   96.29    7.70
  -4  -6  -3   97.79    7.70
  -5  -6  -3    5.40    1.80
   9  -7  -3    0.20    1.20
   9  -7  -3    0.30    1.60
   8  -7  -3   -1.70    1.60
   8  -7  -3    0.10    1.40
   7  -7  -3    0.90    2.40
   7  -7  -3    1.50    2.00
   6  -7  -3   70.09    7.60
   6  -7  -3   58.49    7.60
   5  -7  -3    0.20    2.20
   5  -7  -3    5.70    2.60
   4  -7  -3   25.00    6.50
   4  -7  -3   55.59    7.00
  -4   7   3   64.09   11.90
   2  -7  -3   23.50    6.40
  -2   7   3   23.90    6.70
   1  -7  -3  160.08   16.30
   1  -7  -3  152.98   11.00
   1  -7  -3  161.38   10.50
  -1   7   3  195.58   23.10
   0  -7  -3   27.00    5.00
   0  -7  -3   20.00    4.40
  -1  -7  -3  169.78   11.80
  -1  -7  -3  180.78   12.30
  -2  -7  -3    1.20    2.30
  -2  -7  -3    2.10    2.30
  -3  -7  -3    1.80    2.20
  -3  -7  -3    0.80    1.90
  -4  -7  -3   12.40    2.70
  -4  -7  -3   10.90    2.60
   9  -8  -3   35.70    4.50
   9  -8  -3   47.00    3.90
   8  -8  -3    8.60    2.50
   8  -8  -3    5.80    2.80
   7  -8  -3   25.70    4.50
   7  -8  -3   19.20    4.20
   6  -8  -3   10.80    3.70
   6  -8  -3   11.00    3.10
   5  -8  -3    3.10    2.50
   5  -8  -3    2.30    2.00
   4  -8  -3   16.10    4.40
   3  -8  -3  314.67   16.90
   3  -8  -3  303.57   16.30
   2  -8  -3   20.80    4.50
   1  -8  -3  106.09    8.60
   1  -8  -3   74.59    8.30
   0  -8  -3  261.27   15.60
   0  -8  -3  275.17   15.50
  -1  -8  -3   36.70    5.80
  -1  -8  -3   28.60    5.30
  -2  -8  -3   11.30    3.40
  -2  -8  -3    6.40    2.70
  -3  -8  -3    3.20    1.80
  -3  -8  -3    2.70    1.70
   8  -9  -3   65.99    5.00
   8  -9  -3   58.89    6.30
   7  -9  -3  198.78   12.30
   7  -9  -3  210.68   11.10
   6  -9  -3   13.20    3.70
   6  -9  -3   10.30    2.80
   5  -9  -3    1.40    2.30
   4  -9  -3    7.40    3.50
   3  -9  -3    0.70    1.90
   2  -9  -3  347.67   17.80
   1  -9  -3    4.60    2.80
   1  -9  -3   -0.50    1.90
   0  -9  -3  408.56   20.00
   0  -9  -3  427.06   20.70
  -1  -9  -3   64.69    6.70
  -1  -9  -3   45.60    6.10
  -2  -9  -3    4.10    1.90
  -2  -9  -3    1.90    1.60
   8 -10  -3   37.00    4.40
   8 -10  -3   30.80    3.70
   7 -10  -3    7.60    2.20
   7 -10  -3    8.90    2.60
   6 -10  -3  110.39    8.10
   5 -10  -3    4.10    2.60
   4 -10  -3   66.99    7.00
   3 -10  -3    7.30    2.80
   2 -10  -3   20.10    3.90
   1 -10  -3    7.10    2.60
   1 -10  -3    5.70    2.40
   0 -10  -3    7.20    2.30
   0 -10  -3    4.30    2.00
  -1 -10  -3   15.60    2.50
  -1 -10  -3   22.00    3.10
   6 -11  -3    1.00    1.60
   3 -11  -3   82.79    6.20
   2 -11  -3   -1.00    1.40
   1 -11  -3   98.99    6.20
   3 -12   4   21.70    3.00
   3 -12   4   19.90    2.80
   4 -12   4    0.90    1.20
   4 -12   4    0.70    1.00
   0 -11   4   37.40    4.10
   0 -11   4   36.20    4.00
   1 -11   4   52.69    5.40
   1 -11   4   49.60    5.30
   2 -11   4   25.10    4.10
   2 -11   4   24.10    4.10
   3 -11   4   65.79    7.20
   3 -11   4   72.69    7.10
   4 -11   4    0.50    1.50
   4 -11   4   -2.10    1.30
   5 -11   4   10.20    2.70
   5 -11   4   10.50    2.70
   6 -11   4   23.40    3.30
   6 -11   4   20.90    3.40
   2  10  -4   35.80    3.80
  -2 -10   4   33.80    4.10
  -1 -10   4   36.60    5.00
  -1 -10   4   34.50    4.60
   0 -10   4   58.39    6.60
   0 -10   4   60.59    6.70
   0 -10   4   81.79    8.00
   1 -10   4   -0.10    1.70
   1 -10   4    1.80    2.10
   2 -10   4  498.05   23.30
   2 -10   4  489.15   22.60
   3 -10   4   18.10    4.40
   3 -10   4    8.80    3.30
   4 -10   4   43.80    6.50
   4 -10   4   56.49    7.20
   5 -10   4  198.18   12.20
   5 -10   4  190.68   12.00
   6 -10   4    4.00    2.10
   6 -10   4    4.30    2.30
   7 -10   4   65.59    5.30
   7 -10   4   65.29    5.30
   3   9  -4    9.20    2.30
  -3  -9   4    8.80    2.50
   2   9  -4   46.70    5.60
  -2  -9   4   47.20    6.00
  -2  -9   4   55.29    6.00
  -1  -9   4    6.50    2.80
  -1  -9   4    5.10    2.60
  -1  -9   4    9.20    2.90
   0  -9   4  123.39    9.70
   0  -9   4  143.69   10.30
   0  -9   4  148.39   10.40
   1  -9   4   56.59    6.90
   1  -9   4   48.80    6.80
   2  -9   4    1.00    2.30
   2  -9   4    0.20    1.90
   3  -9   4   47.30    6.80
   3  -9   4   59.39    7.60
   4  -9   4   26.10    5.50
   4  -9   4   45.10    6.90
   5  -9   4   99.99   10.00
   5  -9   4   91.99    9.60
   5  -9   4   93.49    8.80
   6  -9   4   66.09    6.90
   6  -9   4   60.39    7.20
   6  -9   4   57.49    7.40
   7  -9   4   56.49    6.10
   7  -9   4   54.29    5.70
   7  -9   4   41.50    5.40
   8  -9   4   25.00    3.30
   4   8  -4    2.50    1.70
  -4  -8   4    1.60    1.80
   3   8  -4   65.99    6.70
  -3  -8   4   65.39    7.40
  -2  -8   4  189.28   12.40
  -2  -8   4  195.78   11.70
  -1  -8   4   33.40    5.30
  -1  -8   4   21.10    4.10
  -1  -8   4   21.80    4.20
   0  -8   4   12.70    3.80
   0  -8   4   10.90    3.40
   0  -8   4   15.30    4.00
   1  -8   4  284.17   16.40
   1  -8   4  302.87   16.40
   2  -8   4   37.90    6.20
   2  -8   4   39.40    6.20
   3  -8   4  126.69   10.00
   3  -8   4  105.09    9.00
   4  -8   4   10.40    3.80
   4  -8   4    4.70    2.90
   4  -8   4    3.30    2.10
   5  -8   4    4.80    3.10
   5  -8   4    1.60    2.00
   5  -8   4    2.90    2.30
   6  -8   4   30.40    5.30
   6  -8   4   31.10    5.70
   6  -8   4   23.40    4.20
   7  -8   4    0.60    1.50
   7  -8   4    2.90    2.20
   7  -8   4    4.30    2.50
   8  -8   4    8.10    2.30
   8  -8   4    6.60    2.20
   5   7  -4   87.39    6.10
  -5  -7   4   97.39    6.50
   4   7  -4   21.70    4.00
  -4  -7   4   23.60    4.60
   3   7  -4   74.09    8.10
  -3  -7   4   77.99    8.10
  -2  -7   4   24.70    4.90
  -2  -7   4   29.30    5.10
  -2  -7   4   19.80    4.80
  -1  -7   4  222.98   13.30
  -1  -7   4  220.98   13.20
  -1  -7   4  231.08   13.20
   0   7  -4  149.09   16.40
   0  -7   4  160.98   12.50
   0  -7   4  127.39   14.00
   0  -7   4  127.99   10.00
  -1   7  -4   49.80    8.00
  -1   7  -4   43.30    9.40
   1  -7   4   53.69    9.00
  -2   7  -4  195.88   14.20
   2  -7   4  213.78   17.10
   2  -7   4  205.48   16.00
  -3   7  -4   78.99    9.20
   3  -7   4   59.09    9.50
   3  -7   4   66.99   10.10
   4  -7   4    1.40    1.80
   4  -7   4    0.40    1.90
   4  -7   4    1.80    2.50
   5  -7   4   13.60    3.90
   5  -7   4   11.40    3.50
   5  -7   4    9.60    3.00
   6  -7   4    1.70    2.20
   6  -7   4    0.20    2.00
   6  -7   4    4.70    2.40
   7  -7   4    2.80    2.20
   7  -7   4    1.70    1.80
   7  -7   4    2.90    2.50
   8  -7   4   43.90    4.90
  -9   7  -4    0.40    1.70
   6   6  -4   40.50    4.20
   5   6  -4    2.60    1.90
  -5  -6   4    1.60    2.00
   4   6  -4   96.39    8.10
  -4  -6   4  103.29    9.70
  -3  -6   4  279.87   15.30
  -2  -6   4   62.89    7.00
  -2  -6   4   64.19    7.20
  -2  -6   4   58.09    9.30
   1   6  -4  122.19   12.90
   1   6  -4   97.99   11.80
  -1  -6   4  113.29   13.60
  -1  -6   4  136.49   14.10
   0   6  -4   84.39    9.50
   0   6  -4   94.29   11.80
   0  -6   4   99.99   11.40
   0  -6   4   75.89    9.70
  -1   6  -4  513.85   25.10
   1  -6   4  552.04   26.40
  -2   6  -4  122.09   11.50
   2  -6   4   84.29   10.40
   2  -6   4  121.79   13.40
  -3   6  -4   18.70    5.30
  -3   6  -4   12.70    4.30
   3  -6   4   10.40    4.20
   3  -6   4   24.00    5.50
  -4   6  -4  708.03   34.90
  -4   6  -4  682.03   31.30
   4  -6   4  615.24   33.70
   4  -6   4  690.73   31.80
   5  -6   4  102.19    8.50
   5  -6   4  104.09    8.00
   5  -6   4  125.09    9.20
   6  -6   4   27.40    4.60
   6  -6   4   29.70    5.20
   6  -6   4   28.70    4.90
   7  -6   4   11.80    3.20
   7  -6   4   11.40    3.40
   8  -6   4  105.49    7.30
   6   5  -4  176.48   10.30
   5   5  -4    1.90    2.20
  -5  -5   4    3.60    2.50
   4   5  -4  524.45   23.80
  -4  -5   4  531.75   23.50
   3   5  -4  365.46   24.10
  -3  -5   4  366.06   17.70
   2   5  -4  165.18   13.60
   2   5  -4  148.79   11.60
  -2  -5   4  148.39   11.70
  -2  -5   4  170.68   16.30
   1   5  -4   23.30    5.70
   1   5  -4   28.60    5.50
  -1  -5   4   27.30    5.30
  -1  -5   4   26.90    5.60
   0   5  -4   10.10    3.90
   0   5  -4    8.30    2.90
   0  -5   4    9.00    3.20
   0  -5   4   11.80    3.80
  -1   5  -4  462.35   22.30
  -1   5  -4  515.65   22.80
   1  -5   4  551.64   23.70
   1  -5   4  479.75   24.00
   1  -5   4  481.25   21.60
  -2   5  -4  569.04   27.50
  -2   5  -4  617.24   26.70
   2  -5   4  623.04   28.60
   2  -5   4  656.23   27.70
  -3   5  -4  108.59   10.10
  -3   5  -4   96.99    9.80
   3  -5   4  108.09   12.20
   3  -5   4   99.29   10.40
  -4   5  -4  670.73   30.70
  -4   5  -4  718.03   35.20
   4  -5   4  772.02   32.40
  -5   5  -4   29.10    7.50
  -5   5  -4   41.60    5.90
   5  -5   4   31.50    7.40
   6  -5   4   19.10    4.10
   6  -5   4   20.70    4.30
   7  -5   4  347.27   17.10
   7  -5   4  339.67   16.50
   7   4  -4    0.50    1.40
   6   4  -4  164.28   10.70
   5   4  -4   59.99    7.20
   4   4  -4  154.28   10.00
  -4  -4   4  135.89    9.30
   3   4  -4  213.08   13.90
   3   4  -4  188.88   14.40
  -3  -4   4  203.38   14.70
   2   4  -4  165.68   11.40
   2   4  -4  170.58   12.50
  -2  -4   4  163.88   10.90
  -2  -4   4  167.58   11.70
   1   4  -4  256.67   14.90
   1   4  -4  275.27   14.70
  -1  -4   4  256.57   14.10
  -1  -4   4  276.87   15.20
   0   4  -4  878.41   34.50
   0   4  -4  881.31   35.00
   0  -4   4  910.01   35.20
   0  -4   4  948.31   35.40
  -1   4  -4  165.28   10.60
  -1   4  -4  164.48   10.00
   1  -4   4  178.98   10.50
   1  -4   4  167.68   10.90
   1  -4   4  172.18    9.40
  -2   4  -4  805.02   34.30
  -2   4  -4  819.72   32.40
   2  -4   4  808.82   32.80
   2  -4   4  889.71   34.90
  -3   4  -4  567.84   27.50
  -3   4  -4  583.94   24.50
   3  -4   4  575.24   25.30
   3  -4   4  562.24   26.70
  -4   4  -4    8.30    3.00
  -4   4  -4    2.30    2.00
   4  -4   4    2.40    2.50
   4  -4   4    3.30    3.00
  -5   4  -4  334.17   22.70
   5  -4   4  334.97   21.90
   6  -4   4    3.50    2.40
   6  -4   4    4.30    2.20
   7  -4   4  317.97   16.20
   8   3  -4   41.40    4.30
   7   3  -4    1.60    1.80
  -7  -3   4   -0.70    1.90
   6   3  -4   21.20    4.40
  -6  -3   4   18.70    4.10
   5   3  -4  195.78   12.10
   4   3  -4  393.66   23.60
   4   3  -4  421.16   22.10
  -4  -3   4  465.75   23.90
   3   3  -4   12.00    3.70
   3   3  -4   11.30    4.00
  -3  -3   4   11.10    2.20
  -3  -3   4    7.70    3.20
   2   3  -4  108.99    8.20
   2   3  -4   98.39    8.30
  -2  -3   4  112.89   10.40
  -2  -3   4  106.09    6.90
  -2  -3   4  102.09    7.30
   1   3  -4  605.04   24.10
   1   3  -4  524.55   22.70
   1   3  -4  566.64   23.80
  -1  -3   4  572.94   23.20
  -1  -3   4  623.34   24.40
  -1  -3   4  569.64   21.00
   0   3  -4  488.95   20.00
   0   3  -4  480.45   20.50
   0  -3   4  463.05   20.10
   0  -3   4  467.85   19.60
   0  -3   4  484.25   19.80
  -1   3  -4  171.18   10.30
  -1   3  -4  168.58    9.10
   1  -3   4  172.68    8.40
   1  -3   4  170.48    9.90
   1  -3   4  166.68    9.40
  -2   3  -4   15.70    2.40
  -2   3  -4   13.90    3.60
  -2   3  -4   17.00    3.00
   2  -3   4   15.50    3.50
   2  -3   4   12.60    3.10
  -3   3  -4 1080.29   39.40
  -3   3  -4  996.50   39.30
  -3   3  -4 1109.29   43.90
   3  -3   4 1094.49   40.90
   3  -3   4 1092.79   42.90
  -4   3  -4   61.89    6.50
  -4   3  -4   73.39   10.50
  -4   3  -4   67.39    7.80
   4  -3   4   82.09    8.80
   4  -3   4   72.79    9.50
  -5   3  -4    5.90    4.60
   5  -3   4    6.80    4.00
   6  -3   4  425.46   19.70
  -7   3  -4   94.69    8.60
   7  -3   4   88.29    7.30
  -8   3  -4   32.50    4.40
   8   2  -4   56.99    5.90
  -8  -2   4   56.29    5.50
   7   2  -4  784.82   32.30
  -7  -2   4  783.02   31.60
   6   2  -4   46.20    6.60
  -6  -2   4   51.59    6.60
   5   2  -4   90.69   11.90
   5   2  -4   83.79   10.50
  -5  -2   4   66.29    9.10
  -5  -2   4   87.09   11.90
   4   2  -4  235.08   15.80
   4   2  -4  242.58   14.80
  -4  -2   4  238.28   14.90
  -4  -2   4  247.48   15.10
   3   2  -4   40.00    5.90
   3   2  -4   45.20    6.30
  -3  -2   4   49.10    6.10
  -3  -2   4   46.50    6.30
   2   2  -4    2.50    1.50
   2   2  -4    2.90    1.90
   2   2  -4    2.60    1.70
  -2  -2   4    1.40    1.20
  -2  -2   4    1.40    1.60
  -2  -2   4    2.80    1.40
   1   2  -4 1022.90   38.40
   1   2  -4 1000.40   37.30
   1   2  -4 1096.39   38.40
  -1  -2   4 1065.29   37.10
  -1  -2   4 1098.89   38.10
  -1  -2   4 1023.20   35.90
   0   2  -4 2019.00   67.19
   0   2  -4 1956.10   68.69
   0  -2   4 1963.80   66.59
   0  -2   4 1995.40   66.89
   0  -2   4 1964.20   67.09
  -1   2  -4   14.00    2.30
  -1   2  -4    9.90    1.80
  -1   2  -4    9.20    2.60
   1  -2   4   15.00    2.70
   1  -2   4   10.90    2.20
   1  -2   4   11.60    1.90
  -2   2  -4  161.58   10.60
  -2   2  -4  156.38    8.10
  -2   2  -4  160.18    8.60
   2  -2   4  164.58    9.20
   2  -2   4  159.88    7.30
   2  -2   4  179.38   10.10
  -3   2  -4   20.20    3.20
  -3   2  -4   17.90    3.70
  -3   2  -4   26.40    5.50
   3  -2   4   13.70    3.30
   3  -2   4   18.90    4.30
  -4   2  -4  670.73   31.80
  -4   2  -4  664.73   29.20
   4  -2   4  657.13   28.10
   4  -2   4  676.43   31.10
  -5   2  -4  376.66   21.70
  -5   2  -4  395.96   23.70
   5  -2   4  394.36   23.60
  -6   2  -4  288.57   14.80
   6  -2   4  263.87   14.30
  -7   2  -4  103.09    9.40
   7  -2   4   84.09    7.00
  -8   2  -4   90.29    6.90
  -9   2  -4   39.80    4.40
   9   1  -4   56.99    4.20
  -9  -1   4   49.20    4.40
   8   1  -4  193.68   11.40
  -8  -1   4  205.78   11.40
   7   1  -4  162.08   11.20
  -7  -1   4  177.58   11.20
   6   1  -4  202.58   12.40
  -6  -1   4  207.38   12.00
   5   1  -4  666.43   30.00
   5   1  -4  629.04   31.00
  -5  -1   4  598.74   29.70
   4   1  -4  120.09    9.60
   4   1  -4  145.29   11.00
  -4  -1   4  129.09    9.50
  -4  -1   4  133.79   10.40
   3   1  -4   23.90    4.40
   3   1  -4   19.30    3.90
   3   1  -4   21.40    4.10
  -3  -1   4   19.30    4.00
  -3  -1   4   25.20    4.20
   2   1  -4  885.71   32.80
   2   1  -4  883.21   31.90
   2   1  -4  892.11   33.70
  -2  -1   4  845.82   32.10
  -2  -1   4  862.81   31.40
  -2  -1   4  840.32   29.90
   1   1  -4  590.94   21.10
   1   1  -4  592.24   22.50
   1   1  -4  594.04   23.90
  -1  -1   4  582.54   21.50
  -1  -1   4  592.24   21.40
  -1  -1   4  597.44   22.30
  -1  -1   4  588.24   20.40
   0   1  -4    3.70    1.70
   0   1  -4    4.50    1.50
   0   1  -4    3.60    1.30
   0  -1   4    2.70    1.20
   0  -1   4    3.40    1.00
   0  -1   4    2.80    1.10
  -1   1  -4   23.20    2.40
  -1   1  -4   24.80    4.10
  -1   1  -4   27.20    3.50
   1  -1   4   25.60    2.90
   1  -1   4   25.60    3.30
   1  -1   4   22.80    3.00
  -2   1  -4  544.25   23.70
  -2   1  -4  548.45   22.20
  -2   1  -4  544.05   19.60
   2  -1   4  546.65   22.50
   2  -1   4  514.35   21.60
   2  -1   4  539.05   20.30
  -3   1  -4  252.57   15.30
  -3   1  -4  265.87   14.40
   3  -1   4  258.17   13.50
   3  -1   4  275.27   15.00
  -4   1  -4  144.89   12.00
  -4   1  -4  159.68   11.90
   4  -1   4  143.39   12.00
   4  -1   4  156.68   10.50
  -5   1  -4  249.58   17.60
   5  -1   4  268.87   18.90
  -6   1  -4   18.80    4.10
   6  -1   4   22.10    4.40
  -7   1  -4   83.29    8.20
   7  -1   4   97.39    7.50
  -8   1  -4   12.10    2.90
   9   0  -4   27.00    3.60
  -9   0   4   26.50    3.70
   8   0  -4  353.06   17.90
  -8   0   4  374.46   17.80
   7   0  -4    5.00    2.70
  -7   0   4    3.60    2.40
   6   0  -4  203.38   16.70
   6   0  -4  197.88   10.80
   6   0  -4  191.08   11.90
   5   0  -4  270.67   17.20
   5   0  -4  288.47   16.70
  -5   0   4  252.97   16.40
   4   0  -4  361.06   17.90
   4   0  -4  347.67   18.20
   4   0  -4  318.87   17.50
  -4   0   4  369.66   17.80
  -4   0   4  336.27   16.40
   3   0  -4 3416.36  117.99
   3   0  -4 3509.35  117.09
   3   0  -4 3470.95  116.49
  -3   0   4 3364.26  115.39
  -3   0   4 3559.54  116.19
   2   0  -4   33.30    4.90
   2   0  -4   32.30    3.40
   2   0  -4   26.00    3.60
  -2   0   4   25.10    2.60
  -2   0   4   32.90    3.80
  -2   0   4   40.30    4.20
  -2   0   4   30.30    1.80
   1   0  -4  605.34   24.00
   1   0  -4  601.74   22.30
   1   0  -4  567.84   21.60
  -1   0   4  557.94   20.60
  -1   0   4  583.44   21.80
   0   0  -4   48.90    4.90
   0   0  -4   41.60    2.70
   0   0  -4   44.40    5.20
   0   0   4   41.10    3.30
   0   0   4   31.70    3.40
   0   0   4   36.50    2.10
  -1   0  -4  625.34   23.90
  -1   0  -4  632.84   24.50
  -1   0  -4  624.44   25.40
   1   0   4  625.34   23.80
   1   0   4  606.74   23.10
  -2   0  -4   10.00    2.60
  -2   0  -4   13.40    3.40
  -2   0  -4    6.90    2.40
   2   0   4    9.00    2.50
   2   0   4    9.10    2.60
  -3   0  -4   16.10    4.40
  -3   0  -4   14.30    3.30
  -3   0  -4   10.00    3.30
   3   0   4   15.90    3.90
   3   0   4   10.70    3.00
  -4   0  -4  829.32   36.70
   4   0   4  810.72   36.50
   4   0   4  797.82   33.40
  -5   0  -4  116.19   15.20
  -5   0  -4  162.68   11.00
   5   0   4  165.48   14.70
  -6   0  -4  113.59   10.30
   6   0   4   87.69    7.50
  -7   0  -4   40.00    5.40
   7   0   4   47.40    5.50
  -8   0  -4    6.80    2.20
   9  -1  -4  156.48    9.50
  -9   1   4  159.58    9.30
   8  -1  -4    0.40    1.80
  -8   1   4   -0.20    1.70
   7  -1  -4    1.60    2.10
   6  -1  -4   47.30    7.80
   6  -1  -4   59.39    8.60
  -6   1   4   49.10    8.00
   5  -1  -4  210.48   13.90
   5  -1  -4  213.68   14.40
  -5   1   4  213.98   14.90
  -5   1   4  208.98   13.40
   4  -1  -4  157.18   10.60
   4  -1  -4  172.88   11.90
   4  -1  -4  158.18   10.90
  -4   1   4  158.98    9.10
  -4   1   4  159.58   10.10
   3  -1  -4  101.09    6.80
   3  -1  -4  104.89    8.40
   3  -1  -4  103.79    7.30
  -3   1   4   93.89    5.40
  -3   1   4   94.59    6.10
  -3   1   4  103.19    6.90
   2  -1  -4 1116.59   40.10
   2  -1  -4 1198.68   41.90
   2  -1  -4 1270.97   44.90
  -2   1   4 1172.28   41.60
  -2   1   4 1160.78   41.20
  -2   1   4 1195.28   39.90
  -2   1   4 1134.29   38.60
   1  -1  -4    9.50    2.70
   1  -1  -4    8.40    1.70
   1  -1  -4    8.90    2.20
  -1   1   4    6.00    1.70
  -1   1   4    9.50    1.70
   0  -1  -4  432.96   17.80
   0  -1  -4  380.66   13.90
   0  -1  -4  399.56   17.90
   0  -1  -4  432.86   17.30
   0   1   4  409.36   16.40
   0   1   4  398.86   15.10
  -1  -1  -4   36.20    5.00
  -1  -1  -4   34.70    4.70
  -1  -1  -4   34.30    4.60
   1   1   4   39.90    4.40
   1   1   4   33.70    4.20
  -2  -1  -4 1020.00   39.70
  -2  -1  -4  994.60   38.50
  -2  -1  -4 1050.29   39.20
   2   1   4  961.10   38.30
   2   1   4  987.40   38.00
  -3  -1  -4  424.56   21.60
  -3  -1  -4  371.76   19.20
   3   1   4  382.66   19.00
   3   1   4  387.56   20.50
  -4  -1  -4   17.50    5.20
   4   1   4   28.70    5.60
   4   1   4   25.60    6.20
  -5  -1  -4  136.59    9.80
  -5  -1  -4  130.09    9.10
  -6  -1  -4  118.99    9.20
   6   1   4  123.59    8.80
  -7  -1  -4   49.60    5.80
   7   1   4   51.99    5.50
   9  -2  -4   70.59    7.20
  -9   2   4   64.39    6.60
   8  -2  -4   18.40    4.30
  -8   2   4   19.90    4.00
   7  -2  -4   89.79    7.00
   7  -2  -4   87.79    9.10
   6  -2  -4   32.40    7.00
   6  -2  -4   33.00    6.80
  -6   2   4   38.80    7.90
  -6   2   4   35.90    7.40
   5  -2  -4   66.89    8.70
   5  -2  -4   90.69    9.80
  -5   2   4   64.29    8.10
  -5   2   4   71.89   10.00
   4  -2  -4 4065.59  137.09
   4  -2  -4 3939.71  134.49
   4  -2  -4 3806.12  134.59
  -4   2   4 4024.80  133.69
   3  -2  -4  476.15   22.50
   3  -2  -4  445.06   19.70
   3  -2  -4  452.25   20.40
  -3   2   4  481.25   18.90
  -3   2   4  487.65   18.10
  -3   2   4  493.45   20.20
   2  -2  -4   11.90    2.30
   2  -2  -4   12.20    2.60
   2  -2  -4   10.10    3.10
   2  -2  -4   11.90    2.80
  -2   2   4   10.80    2.30
  -2   2   4   13.30    2.00
   1  -2  -4    1.40    1.50
   1  -2  -4    1.40    0.90
   1  -2  -4    1.40    1.60
   1  -2  -4    1.50    1.30
  -1   2   4    1.70    0.90
  -1   2   4    2.70    1.30
   0  -2  -4   43.70    5.50
   0  -2  -4   55.99    6.40
   0  -2  -4   46.80    5.70
   0   2   4   47.80    5.20
   0   2   4   45.40    4.00
   0   2   4   45.50    2.40
  -1  -2  -4  595.34   24.90
  -1  -2  -4  545.85   23.40
  -1  -2  -4  558.34   24.90
   1   2   4  571.54   23.70
   1   2   4  583.04   24.00
  -2  -2  -4    3.50    2.80
  -2  -2  -4    7.50    3.00
   2   2   4    2.80    2.10
   2   2   4    0.00    1.60
  -3  -2  -4  458.95   25.10
   3   2   4  438.86   23.50
   3   2   4  456.75   22.30
  -4  -2  -4   87.49   13.60
   4   2   4   92.69   12.50
   4   2   4   74.09    9.50
  -5  -2  -4  130.09    9.60
  -5  -2  -4  112.29    8.70
  -6  -2  -4   34.40    5.60
   6   2   4   22.40    4.10
  -7  -2  -4    2.60    1.80
   7   2   4    3.60    1.80
  10  -3  -4  136.89    7.40
 -10   3   4  135.19    6.90
   9  -3  -4    3.10    2.20
  -9   3   4    7.20    2.60
   8  -3  -4  133.99   10.10
  -8   3   4  134.29    9.40
   7  -3  -4   52.19    6.40
   7  -3  -4   41.00    6.10
   7  -3  -4   39.20    5.20
   6  -3  -4  140.19   13.70
  -6   3   4  156.68   14.50
  -6   3   4  184.88   13.70
   5  -3  -4  528.05   27.00
   5  -3  -4  576.14   26.50
  -5   3   4  532.85   28.70
  -5   3   4  569.34   25.80
   4  -3  -4   18.00    5.00
   4  -3  -4   12.80    3.30
   4  -3  -4   15.00    3.80
  -4   3   4   13.50    2.50
  -4   3   4   15.40    3.50
   3  -3  -4  134.09    8.90
   3  -3  -4  129.49    8.70
   3  -3  -4  116.99    9.80
  -3   3   4  145.29    7.10
  -3   3   4  133.59    7.70
  -3   3   4  139.89    8.60
   2  -3  -4  503.05   22.90
   2  -3  -4  489.35   20.60
   2  -3  -4  506.95   21.50
   2  -3  -4  492.85   20.20
  -2   3   4  500.85   20.40
   1  -3  -4   29.60    4.80
   1  -3  -4   37.20    5.10
   1  -3  -4   27.40    4.50
   1  -3  -4   38.40    3.90
  -1   3   4   37.80    4.70
  -1   3   4   38.20    4.80
   0  -3  -4  104.99    7.70
   0  -3  -4  118.89   10.60
   0  -3  -4  112.99    8.40
   0   3   4  123.69    8.50
   0   3   4  123.29    8.20
  -1  -3  -4  467.95   22.50
  -1  -3  -4  459.55   22.60
   1   3   4  438.16   21.40
   1   3   4  464.85   21.40
  -2  -3  -4  462.35   24.40
  -2  -3  -4  438.16   23.20
   2   3   4  422.56   21.90
   2   3   4  445.46   22.80
  -3  -3  -4   61.09    8.70
  -3  -3  -4   50.89    9.50
   3   3   4   77.19   10.60
   3   3   4   70.59    9.20
  -4  -3  -4  541.25   24.30
  -4  -3  -4  548.15   24.50
  -5  -3  -4  114.29    8.80
  -5  -3  -4  123.39    9.50
  -6  -3  -4  102.99    8.10
   6   3   4  111.19    7.60
  -7  -3  -4    3.30    1.60
  10  -4  -4   13.80    2.60
   9  -4  -4  134.29    9.40
  -9   4   4  125.49    8.10
   8  -4  -4   10.70    3.60
   8  -4  -4   12.10    3.20
   7  -4  -4   23.30    4.90
   7  -4  -4   32.90    4.70
   7  -4  -4   30.10    4.70
   6  -4  -4  275.57   15.60
   6  -4  -4  225.98   15.20
   6  -4  -4  197.58   21.40
  -6   4   4  263.67   22.80
  -6   4   4  264.27   16.70
   5  -4  -4  743.83   32.70
   5  -4  -4  698.43   33.20
  -5   4   4  739.43   35.80
  -5   4   4  729.63   31.50
   4  -4  -4    3.10    2.30
   4  -4  -4    0.80    2.30
  -4   4   4    2.20    1.80
  -4   4   4    2.90    1.50
   3  -4  -4   53.69    6.30
   3  -4  -4   52.09    6.60
   3  -4  -4   68.59    8.90
  -3   4   4   67.19    6.20
  -3   4   4   48.70    5.80
  -3   4   4   48.40    4.50
   2  -4  -4   26.80    5.10
   2  -4  -4   31.40    4.60
   2  -4  -4   22.90    4.30
   2  -4  -4   32.30    5.50
   2  -4  -4   31.20    4.90
   2  -4  -4   30.20    4.80
   1  -4  -4  358.06   17.30
   1  -4  -4  350.46   18.20
   1  -4  -4  324.17   16.30
  -1   4   4  343.47   16.90
   0  -4  -4  538.65   25.50
   0  -4  -4  517.15   24.50
   0   4   4  556.84   24.70
   0   4   4  505.75   24.10
  -1  -4  -4  581.24   28.30
  -1  -4  -4  577.64   27.80
   1   4   4  535.55   26.90
   1   4   4  606.04   27.10
  -2  -4  -4  250.07   17.80
  -2  -4  -4  288.47   19.30
   2   4   4  241.88   16.20
   2   4   4  264.37   17.70
  -3  -4  -4  100.29    9.40
  -3  -4  -4   90.49    7.80
  -3  -4  -4   87.49    8.40
  -4  -4  -4  161.58   11.20
  -4  -4  -4  194.78   12.20
  -4  -4  -4  209.98   12.60
  -5  -4  -4  155.08   10.30
  -5  -4  -4  145.49    9.90
  -6  -4  -4    0.40    1.50
   6   4   4    0.60    1.50
  10  -5  -4   12.30    2.50
   9  -5  -4  257.77   12.30
   9  -5  -4  256.07   14.10
  -9   5   4  248.38   12.10
   8  -5  -4   17.60    3.90
   8  -5  -4   15.60    4.20
   7  -5  -4   63.89    8.10
   7  -5  -4   56.89    6.40
   7  -5  -4   54.39    5.50
   6  -5  -4  417.56   19.20
   6  -5  -4  397.36   20.30
   5  -5  -4    0.50    1.50
  -5   5   4    5.60    3.90
  -5   5   4    9.60    3.80
   4  -5  -4   27.10    4.90
   4  -5  -4   37.60    6.80
  -4   5   4   47.60    8.80
  -4   5   4   27.60    3.70
  -4   5   4   28.90    4.90
   3  -5  -4  618.34   26.50
   3  -5  -4  635.34   27.90
  -3   5   4  589.94   22.70
  -3   5   4  565.14   25.00
   2  -5  -4  126.39    9.70
   2  -5  -4  119.49    9.70
   2  -5  -4  113.69    8.60
  -2   5   4  113.09    8.10
   1  -5  -4  309.37   16.60
   1  -5  -4  320.67   18.30
  -1   5   4  304.27   17.20
   0  -5  -4   90.19   10.80
   0  -5  -4   86.29    9.10
   0   5   4  104.49   11.00
   0   5   4   90.99   10.40
  -1  -5  -4  240.68   16.80
  -1  -5  -4  236.88   15.90
   1   5   4  237.68   15.70
   1   5   4  238.88   16.90
  -2  -5  -4  413.76   20.10
  -2  -5  -4  395.86   19.70
  -3  -5  -4   16.60    4.00
  -3  -5  -4   16.60    4.40
  -3  -5  -4   11.50    3.70
  -4  -5  -4  372.66   18.40
  -4  -5  -4  395.06   18.70
  -4  -5  -4  366.26   18.50
  -5  -5  -4  169.58    9.70
  -5  -5  -4  153.88    9.50
   9  -6  -4    4.00    1.90
   9  -6  -4    4.30    2.00
   8  -6  -4   26.40    5.10
   8  -6  -4   17.90    3.90
   7  -6  -4  231.48   14.80
   7  -6  -4  244.38   13.50
   6  -6  -4    4.00    2.90
   6  -6  -4    8.20    2.90
   5  -6  -4   99.59   11.10
   5  -6  -4   99.79    7.70
  -5   6   4  133.19   20.00
   4  -6  -4   -0.30    3.50
   4  -6  -4    7.90    3.40
  -4   6   4    4.70    3.80
  -3   6   4   22.10    4.80
   2  -6  -4  183.58   12.60
  -2   6   4  174.38   13.30
   1  -6  -4   43.70    9.20
  -1   6   4   42.00    7.80
  -1   6   4   50.89    8.30
   0  -6  -4  432.66   27.10
   0   6   4  463.05   25.70
   0   6   4  479.25   25.40
  -1  -6  -4   10.20    3.30
  -1  -6  -4    9.00    3.40
  -2  -6  -4   25.90    4.80
  -2  -6  -4   41.40    6.50
  -3  -6  -4   80.39    8.40
  -3  -6  -4  116.39    9.00
  -4  -6  -4  281.17   14.20
  -4  -6  -4  288.67   14.60
   9  -7  -4    4.10    1.80
   9  -7  -4    5.40    2.40
   8  -7  -4   17.50    3.70
   8  -7  -4   10.00    3.50
   7  -7  -4   50.89    6.10
   7  -7  -4   46.00    7.00
   6  -7  -4    4.10    2.40
   6  -7  -4    3.60    2.90
   5  -7  -4   15.30    3.50
   5  -7  -4   16.70    4.10
   4  -7  -4  179.28   11.60
   2  -7  -4  139.59    9.80
   1  -7  -4    5.80    2.60
   1  -7  -4    7.50    3.10
   0  -7  -4   58.99    8.00
   0  -7  -4   55.19    7.20
  -1  -7  -4   12.70    3.80
  -1  -7  -4   22.90    4.80
  -2  -7  -4    5.30    2.80
  -2  -7  -4    1.90    2.40
  -3  -7  -4   25.40    4.30
  -3  -7  -4   16.30    3.70
  -4  -7  -4    6.20    2.10
  -4  -7  -4    6.30    2.00
   9  -8  -4   39.40    4.40
   9  -8  -4   37.80    3.90
   8  -8  -4   38.10    4.90
   8  -8  -4   29.30    4.80
   7  -8  -4    2.70    2.30
   7  -8  -4    1.10    1.60
   6  -8  -4   30.10    5.30
   6  -8  -4   30.00    4.90
   5  -8  -4    5.10    3.00
   4  -8  -4   23.30    5.00
   2  -8  -4   19.80    4.50
   1  -8  -4  410.76   19.90
   1  -8  -4  378.26   19.70
   0  -8  -4   85.09    9.50
   0  -8  -4   88.49    9.30
  -1  -8  -4   80.79    8.70
  -1  -8  -4  107.69    8.60
  -2  -8  -4   15.10    3.40
  -2  -8  -4   20.20    4.00
  -3  -8  -4   37.70    4.40
  -3  -8  -4   31.30    4.00
   8  -9  -4   46.50    4.50
   8  -9  -4   42.80    5.20
   7  -9  -4   46.20    5.70
   7  -9  -4   41.80    4.80
   6  -9  -4   65.79    7.50
   6  -9  -4   41.70    5.20
   5  -9  -4   21.00    4.60
   3  -9  -4   51.09    6.30
   2  -9  -4   20.60    4.30
   1  -9  -4    3.10    2.50
   1  -9  -4    4.80    2.60
   0  -9  -4   54.69    6.60
   0  -9  -4   59.39    7.30
  -1  -9  -4   83.49    6.70
  -1  -9  -4   68.09    6.90
  -2  -9  -4   77.79    5.60
  -2  -9  -4   82.69    5.70
   7 -10  -4    5.40    2.30
   6 -10  -4   64.69    6.40
   3 -10  -4    0.20    2.10
   2 -10  -4   11.00    2.90
   1 -10  -4   80.49    6.50
   1 -10  -4   72.69    6.00
   0 -10  -4  119.39    7.40
   0 -10  -4  113.19    7.10
   2 -11  -4    0.60    1.50
   3 -12   5   13.60    2.10
   3 -12   5   18.60    2.80
   0 -11   5   47.10    4.10
   1 -11   5   76.89    6.00
   1 -11   5   73.89    5.80
   2 -11   5    5.60    2.20
   2 -11   5    4.80    2.20
   3 -11   5   32.70    4.50
   3 -11   5   35.50    4.80
   4 -11   5    0.30    1.60
   4 -11   5    2.60    1.70
   5 -11   5   22.30    3.90
   5 -11   5   18.50    3.40
   6 -11   5   27.90    3.60
   6 -11   5   24.00    3.30
   2  10  -5   33.50    3.70
  -2 -10   5   37.50    4.20
  -1 -10   5   84.99    6.50
  -1 -10   5   80.39    6.00
   0 -10   5    3.00    2.30
   0 -10   5    0.40    1.40
   0 -10   5    2.10    2.00
   1 -10   5   90.69    8.80
   1 -10   5   67.39    7.10
   2 -10   5  160.88   11.00
   2 -10   5  159.18   10.70
   3 -10   5  110.59   10.40
   3 -10   5   82.59    8.40
   4 -10   5  102.59    8.60
   4 -10   5  120.89    9.20
  -5  10  -5   75.69    6.50
   5 -10   5   99.49    9.00
   5 -10   5   90.89    7.60
  -6  10  -5    0.60    1.60
   6 -10   5    2.00    1.70
   6 -10   5    0.00    1.60
  -7  10  -5  148.39    8.00
   7 -10   5  145.69    7.80
   7 -10   5  110.49    7.10
   3   9  -5   18.20    3.10
  -3  -9   5   17.10    3.10
   2   9  -5  153.38    9.50
  -2  -9   5  132.49    9.50
  -1  -9   5   91.19    7.50
  -1  -9   5   82.69    8.20
  -1  -9   5  105.09    8.30
   0  -9   5   24.30    4.90
   0  -9   5   19.10    4.20
   0  -9   5   26.10    4.90
   1  -9   5  339.57   17.70
   1  -9   5  316.17   17.50
   2  -9   5    6.70    3.20
   2  -9   5    3.50    2.60
   3  -9   5   62.19    7.70
   3  -9   5   41.40    6.30
   4  -9   5   55.29    7.20
   4  -9   5   64.39    7.90
   5  -9   5   86.09    8.80
   5  -9   5   86.09    8.90
   5  -9   5   85.29    7.10
   6  -9   5   41.10    5.60
   6  -9   5   53.49    6.20
   6  -9   5   40.60    5.70
   7  -9   5    5.80    2.30
   7  -9   5    7.30    2.60
  -8   9  -5   13.20    2.40
   4   8  -5   17.80    3.10
  -4  -8   5   21.70    3.80
   3   8  -5   88.59    7.10
  -3  -8   5   75.39    7.70
  -2  -8   5   76.09    8.60
  -1  -8   5    1.10    2.10
  -1  -8   5    0.20    1.80
  -1  -8   5    2.40    2.10
   0  -8   5   19.70    4.60
   0  -8   5   14.50    4.00
   0  -8   5   13.40    3.80
   1  -8   5  129.89   10.10
   1  -8   5  123.79    9.80
   2  -8   5  110.79    9.10
   2  -8   5  109.99    9.20
   3  -8   5   -0.10    2.40
   3  -8   5    1.70    2.00
   4  -8   5   24.00    4.90
   4  -8   5   19.20    4.20
   4  -8   5   13.30    4.20
   5  -8   5    0.80    1.70
   5  -8   5    1.00    2.40
   5  -8   5    3.50    2.70
   6  -8   5   44.70    6.30
   6  -8   5   42.80    5.90
   6  -8   5   47.00    6.50
   7  -8   5    0.20    1.80
   7  -8   5   -1.20    1.70
   7  -8   5   -1.10    1.40
   8  -8   5  178.58    9.20
   5   7  -5   61.19    5.70
  -5  -7   5   48.20    5.00
   4   7  -5    4.80    2.40
  -4  -7   5    1.70    2.20
   3   7  -5  175.28   11.50
  -3  -7   5  176.88   11.60
  -2  -7   5   21.90    4.40
  -2  -7   5   18.10    4.40
  -1  -7   5    0.00    1.80
  -1  -7   5    2.70    2.40
  -1  -7   5    3.30    2.40
   0   7  -5 1139.09   54.39
   0  -7   5  972.30   37.80
   0  -7   5  792.62   39.60
   0  -7   5  979.40   37.60
  -1   7  -5    1.20    2.70
  -1   7  -5    0.90    2.00
   1  -7   5    3.10    3.60
  -2   7  -5  255.87   16.40
   2  -7   5  288.67   20.00
   2  -7   5  244.08   18.10
  -3   7  -5   33.50    9.70
   3  -7   5   52.99   10.30
   3  -7   5   46.60    6.40
   3  -7   5   62.79   11.60
   3  -7   5   58.59   10.40
   4  -7   5    0.80    2.10
   4  -7   5    1.00    1.50
   4  -7   5    0.70    1.90
   5  -7   5  126.09    9.70
   5  -7   5  106.69    8.90
   5  -7   5   97.69    8.10
   6  -7   5   31.70    5.60
   6  -7   5   34.00    5.70
   6  -7   5   34.50    5.40
   7  -7   5    0.40    1.60
   7  -7   5    0.50    1.70
   8  -7   5   25.90    3.80
   6   6  -5   96.39    6.20
   5   6  -5    0.40    1.70
  -5  -6   5    0.10    1.80
   4   6  -5    2.80    2.20
  -4  -6   5    0.80    1.90
  -3  -6   5   78.79    7.80
  -2  -6   5    7.40    3.10
  -2  -6   5   10.10    3.10
   1   6  -5  104.59   11.90
   1   6  -5  122.79   14.30
  -1  -6   5  103.29   12.60
  -1  -6   5  119.89   12.90
   0   6  -5  336.97   19.80
   0   6  -5  342.87   20.60
   0  -6   5  378.96   20.60
   0  -6   5  360.46   20.40
  -1   6  -5  497.65   24.00
   1  -6   5  450.35   24.10
  -2   6  -5   94.99   14.30
  -2   6  -5  123.29   12.00
   2  -6   5  126.89   13.10
   2  -6   5   83.69   10.60
  -3   6  -5  360.06   21.70
  -3   6  -5  363.86   19.90
   3  -6   5  346.27   20.70
   3  -6   5  326.57   20.90
  -4   6  -5  382.16   21.30
  -4   6  -5  401.66   24.80
   4  -6   5  379.96   24.00
   4  -6   5  368.26   21.90
   5  -6   5   81.59    8.60
   5  -6   5   47.10    5.80
   6  -6   5   30.30    5.40
   6  -6   5   34.40    5.30
   7  -6   5  297.87   15.60
   7  -6   5  293.87   15.20
   8  -6   5   27.60    4.00
   7   5  -5   14.40    2.40
   6   5  -5   62.29    6.70
   5   5  -5  187.38   11.90
  -5  -5   5  179.48   11.20
   4   5  -5  217.88   13.00
  -4  -5   5  210.68   12.60
   3   5  -5   55.19    9.50
   3   5  -5   69.39   11.40
  -3  -5   5   67.09    6.90
   2   5  -5   33.20    7.30
   2   5  -5   48.50    8.10
  -2  -5   5   32.20    6.10
  -2  -5   5   30.70    6.80
   1   5  -5  975.00   40.20
   1   5  -5  947.81   41.10
  -1  -5   5  986.70   41.00
  -1  -5   5  950.30   39.60
   0   5  -5   55.99    7.50
   0   5  -5   60.49    7.50
   0  -5   5   62.79    8.10
   0  -5   5   41.00    6.10
  -1   5  -5  128.59   10.30
  -1   5  -5  139.99   10.00
   1  -5   5  148.99    9.30
   1  -5   5  146.39   10.70
   1  -5   5  145.49   11.20
  -2   5  -5  208.98   14.30
  -2   5  -5  215.98   13.10
   2  -5   5  220.28   13.90
   2  -5   5  221.78   14.50
  -3   5  -5  133.89   10.10
  -3   5  -5  133.09   12.00
   3  -5   5  143.09   12.90
   3  -5   5  117.69   13.20
  -4   5  -5  623.84   32.50
  -4   5  -5  633.94   28.20
   4  -5   5  622.54   29.20
   4  -5   5  583.74   31.10
   5  -5   5    0.80    1.60
   5  -5   5    1.90    1.90
   6  -5   5  296.37   15.80
   6  -5   5  306.57   15.50
   7  -5   5  106.79    7.90
   7  -5   5   99.29    8.10
   8  -5   5   98.39    7.00
   7   4  -5  133.89    8.40
   6   4  -5    8.20    2.80
   5   4  -5   75.59    8.20
   4   4  -5  282.47   14.90
  -4  -4   5  269.77   14.20
   3   4  -5   97.29   11.50
   3   4  -5  105.89   11.70
  -3  -4   5  105.69   11.80
   2   4  -5  448.26   23.20
   2   4  -5  512.15   23.40
  -2  -4   5  434.66   21.30
  -2  -4   5  459.45   23.00
   1   4  -5  258.07   14.90
   1   4  -5  276.47   15.00
  -1  -4   5  259.77   15.00
  -1  -4   5  241.88   13.90
   0   4  -5    0.60    1.70
   0   4  -5   -1.10    0.40
   0  -4   5    2.60    2.10
   0  -4   5    1.60    1.60
  -1   4  -5   79.69    8.90
  -1   4  -5  100.49    9.00
   1  -4   5   78.59    7.90
   1  -4   5   78.99    6.20
   1  -4   5   88.09    7.50
  -2   4  -5   62.09    8.20
  -2   4  -5   71.89    7.60
   2  -4   5   70.89    7.70
   2  -4   5   53.89    7.00
  -3   4  -5   86.59   11.20
  -3   4  -5   61.99    7.10
   3  -4   5   61.49    8.20
   3  -4   5   66.39    7.90
  -4   4  -5   62.99    9.10
  -4   4  -5   74.19    8.00
   4  -4   5   64.99    8.60
   4  -4   5   59.19    9.00
  -5   4  -5  103.79   13.50
   5  -4   5  129.39   14.90
   6  -4   5    0.30    1.80
   6  -4   5   -0.20    1.70
   7  -4   5    0.90    2.00
   8  -4   5   52.89    5.60
   8   3  -5    2.30    1.50
   7   3  -5   31.20    4.90
   6   3  -5  147.49   10.50
   5   3  -5    1.30    2.00
   4   3  -5  301.17   18.20
   4   3  -5  295.67   18.50
  -4  -3   5  309.77   19.00
   3   3  -5  139.89   11.10
   3   3  -5  155.28   11.30
  -3  -3   5  150.68   11.50
   2   3  -5   42.50    6.10
   2   3  -5   48.40    6.80
  -2  -3   5   38.20    5.70
  -2  -3   5   50.29    5.60
   1   3  -5  379.86   17.60
   1   3  -5  367.16   17.50
   1   3  -5  376.76   17.00
  -1  -3   5  361.96   17.40
  -1  -3   5  363.16   16.50
   0   3  -5  188.28   10.60
   0   3  -5  179.28   11.20
   0  -3   5  186.38   10.00
   0  -3   5  183.78   10.20
   0  -3   5  188.38   10.30
  -1   3  -5   31.70    4.40
  -1   3  -5   24.90    4.60
   1  -3   5   27.40    3.70
   1  -3   5   33.90    4.80
   1  -3   5   22.40    3.70
  -2   3  -5    5.30    1.70
  -2   3  -5    4.50    2.50
   2  -3   5    5.00    2.30
   2  -3   5    7.90    2.70
  -3   3  -5    8.40    2.20
  -3   3  -5   11.70    3.70
   3  -3   5   15.60    4.30
   3  -3   5   14.50    4.10
  -4   3  -5  267.57   18.30
   4  -3   5  290.97   18.10
   4  -3   5  264.37   15.70
  -5   3  -5  191.48   17.00
   5  -3   5  270.97   18.80
   6  -3   5    3.70    2.30
   7  -3   5   50.99    6.30
   8  -3   5  227.78   11.50
   8   2  -5  197.68   10.40
  -8  -2   5  156.98    9.30
   7   2  -5   78.49    8.30
  -7  -2   5   73.89    7.60
   6   2  -5   11.00    3.30
  -6  -2   5   20.70    4.30
   5   2  -5  460.65   21.60
   5   2  -5  472.25   25.00
  -5  -2   5  498.05   25.00
  -5  -2   5  486.25   25.40
   4   2  -5  117.19   12.20
   4   2  -5   88.09    9.90
  -4  -2   5   87.89    9.80
  -4  -2   5   91.29    9.50
   3   2  -5  535.35   25.20
   3   2  -5  589.74   26.30
  -3  -2   5  601.74   26.20
  -3  -2   5  628.04   25.20
   2   2  -5  440.46   20.00
   2   2  -5  434.06   19.10
   2   2  -5  453.65   20.40
  -2  -2   5  430.16   19.50
  -2  -2   5  425.46   18.00
  -2  -2   5  454.45   18.00
   1   2  -5   97.99    6.10
   1   2  -5  104.49    7.10
   1   2  -5  101.49    7.70
  -1  -2   5  102.29    6.30
  -1  -2   5  102.39    5.60
  -1  -2   5   99.99    6.80
  -1  -2   5  105.49    4.80
   0   2  -5  768.12   26.60
   0   2  -5  712.43   30.00
   0   2  -5  734.33   28.00
   0  -2   5  748.93   26.90
   0  -2   5  731.13   27.90
   0  -2   5  737.03   27.60
  -1   2  -5  338.67   16.90
  -1   2  -5  315.37   13.90
  -1   2  -5  333.37   14.00
   1  -2   5  334.17   13.70
   1  -2   5  328.17   14.40
   1  -2   5  323.87   14.80
  -2   2  -5  414.26   17.50
  -2   2  -5  454.95   18.90
  -2   2  -5  446.56   21.60
   2  -2   5  491.25   19.90
   2  -2   5  424.96   19.70
   2  -2   5  438.66   17.20
  -3   2  -5 2229.68   78.69
  -3   2  -5 2279.27   82.39
   3  -2   5 2161.38   78.49
   3  -2   5 2281.67   80.49
  -4   2  -5  172.68   12.40
  -4   2  -5  185.68   14.60
   4  -2   5  185.68   13.80
   4  -2   5  176.68   12.20
  -5   2  -5  286.37   20.30
  -5   2  -5  294.57   19.00
   5  -2   5  313.47   20.80
  -6   2  -5   63.29    7.10
   6  -2   5   71.39    7.80
  -7   2  -5   53.89    6.60
   7  -2   5   47.10    5.90
  -8   2  -5    3.20    1.90
   8  -2   5    2.40    2.00
   9   1  -5  105.09    6.10
  -9  -1   5   90.89    5.50
   8   1  -5   32.50    5.00
  -8  -1   5   33.80    4.70
   7   1  -5  424.36   21.00
  -7  -1   5  445.76   20.50
   6   1  -5  259.57   14.50
   5   1  -5 2180.18   78.99
  -5  -1   5 2023.10   77.79
   4   1  -5 1049.20   42.90
   4   1  -5 1122.79   43.60
  -4  -1   5 1076.89   42.50
  -4  -1   5 1066.79   42.40
   3   1  -5    4.00    2.20
   3   1  -5    6.40    2.40
   3   1  -5    4.60    2.40
  -3  -1   5    4.90    2.20
  -3  -1   5    3.30    2.20
   2   1  -5  501.75   22.50
   2   1  -5  489.15   19.40
   2   1  -5  501.05   21.10
  -2  -1   5  501.75   18.30
  -2  -1   5  495.05   20.00
  -2  -1   5  488.05   18.40
  -2  -1   5  516.05   20.90
   1   1  -5   22.00    3.50
   1   1  -5   26.00    2.10
   1   1  -5   29.80    4.80
  -1  -1   5   22.80    3.20
  -1  -1   5   27.00    3.20
   0   1  -5 2311.67   78.89
   0   1  -5 2214.88   75.89
   0   1  -5 2280.67   75.29
   0  -1   5 2232.78   75.69
   0  -1   5 2193.88   75.59
  -1   1  -5  377.06   18.10
  -1   1  -5  373.86   16.10
  -1   1  -5  360.76   14.20
   1  -1   5  348.17   14.90
   1  -1   5  371.36   16.00
   1  -1   5  358.36   15.10
  -2   1  -5   75.29    8.80
  -2   1  -5   66.69    7.20
   2  -1   5   65.19    6.90
   2  -1   5   70.59    7.10
   2  -1   5   64.49    4.90
  -3   1  -5  105.99    9.90
  -3   1  -5  125.19   11.60
   3  -1   5  113.39    9.40
   3  -1   5  122.69    9.20
  -4   1  -5  218.68   15.00
  -4   1  -5  230.98   15.90
   4  -1   5  197.78   14.90
   4  -1   5  230.18   14.20
  -5   1  -5  203.88   16.00
   5  -1   5  181.08   11.60
   5  -1   5  211.38   16.50
  -6   1  -5  401.86   19.50
   6  -1   5  407.46   19.00
  -7   1  -5  350.96   17.10
   7  -1   5  341.07   16.50
  -8   1  -5    0.40    1.30
   9   0  -5   -0.10    1.20
  -9   0   5   -1.00    1.10
   8   0  -5   37.70    5.50
  -8   0   5   45.30    5.90
   7   0  -5   31.10    5.30
   6   0  -5  322.87   15.10
   6   0  -5  314.07   16.60
   5   0  -5  165.08   12.60
  -5   0   5  179.98   12.90
   4   0  -5  765.72   34.00
   4   0  -5  847.52   34.00
   4   0  -5  807.62   33.10
  -4   0   5  807.62   32.90
  -4   0   5  794.52   32.10
   3   0  -5 1684.83   58.99
   3   0  -5 1732.73   60.69
   3   0  -5 1682.93   62.19
  -3   0   5 1665.73   57.09
  -3   0   5 1664.13   59.49
  -3   0   5 1667.83   59.29
   2   0  -5    7.20    2.80
   2   0  -5    4.10    1.80
   2   0  -5    5.20    1.30
  -2   0   5    5.30    1.10
  -2   0   5    5.10    1.80
  -2   0   5    5.20    1.30
  -2   0   5    5.10    1.70
   1   0  -5 1487.55   52.69
   1   0  -5 1546.25   55.99
   1   0  -5 1524.25   53.69
  -1   0   5 1529.45   51.79
  -1   0   5 1567.44   53.29
   0   0  -5  650.33   22.70
   0   0  -5  646.94   26.70
   0   0  -5  654.43   25.30
   0   0   5  655.23   24.10
   0   0   5  645.74   24.50
   0   0   5  591.64   21.50
  -1   0  -5   40.50    5.70
  -1   0  -5   43.60    5.30
   1   0   5   40.90    4.80
   1   0   5   47.90    3.90
  -2   0  -5 2612.34   93.89
  -2   0  -5 2617.24   91.19
  -2   0  -5 2733.73   92.99
   2   0   5 2660.03   91.49
   2   0   5 2692.93   91.49
  -3   0  -5   24.10    5.10
  -3   0  -5   29.20    6.10
  -3   0  -5   15.80    3.80
   3   0   5   14.00    4.10
   3   0   5   17.00    4.10
  -4   0  -5   30.80    6.50
   4   0   5   35.00    6.40
   4   0   5   45.50    8.30
  -5   0  -5   65.09    7.60
  -6   0  -5   27.80    4.90
   6   0   5   28.80    5.00
  -7   0  -5   97.09    7.60
   7   0   5   87.69    6.80
  -8   0  -5   65.79    5.20
   9  -1  -5    0.00    1.50
  -9   1   5    2.70    1.70
   8  -1  -5    6.40    2.90
  -8   1   5    5.30    2.50
   7  -1  -5   72.99    8.50
   7  -1  -5   71.29    7.30
   6  -1  -5  158.48   16.00
   6  -1  -5  137.09    8.60
   6  -1  -5  132.89    9.70
  -6   1   5  156.78   20.90
   5  -1  -5  281.57   16.80
  -5   1   5  240.18   15.20
   4  -1  -5   29.70    5.70
   4  -1  -5   28.40    4.80
   4  -1  -5   28.80    5.10
  -4   1   5   34.50    4.80
  -4   1   5   31.00    5.00
   3  -1  -5  694.83   29.10
   3  -1  -5  676.73   27.20
   3  -1  -5  746.83   31.50
  -3   1   5  729.83   26.30
  -3   1   5  766.72   28.90
  -3   1   5  717.73   27.70
   2  -1  -5  342.57   17.40
   2  -1  -5  308.67   14.20
   2  -1  -5  309.77   11.90
  -2   1   5  307.07   11.90
  -2   1   5  318.37   14.10
   1  -1  -5 3231.48  104.89
   1  -1  -5 3143.69  102.79
   1  -1  -5 2807.22   99.99
  -1   1   5 3003.50  101.59
  -1   1   5 2991.30  100.19
   0  -1  -5   11.00    3.20
   0  -1  -5   13.00    1.40
   0  -1  -5   12.70    3.20
   0   1   5   23.60    3.50
   0   1   5   16.70    2.20
  -1  -1  -5    1.60    1.70
  -1  -1  -5    0.10    1.30
  -1  -1  -5    2.00    1.60
   1   1   5    1.70    1.30
   1   1   5    0.10    1.10
  -2  -1  -5  101.09    9.60
  -2  -1  -5   92.89    8.30
  -2  -1  -5   94.69    9.80
   2   1   5   90.79    8.80
   2   1   5   96.99    7.80
  -3  -1  -5  109.79   11.80
  -3  -1  -5  127.49   10.20
   3   1   5  121.39   10.30
   3   1   5  134.19   12.30
  -4  -1  -5  234.78   17.60
   4   1   5  224.78   16.50
   4   1   5  232.08   15.10
  -5  -1  -5  449.06   21.20
  -6  -1  -5  137.39   10.00
   6   1   5  147.39    9.70
  -7  -1  -5    2.30    1.70
   7   1   5    2.40    1.80
   9  -2  -5   11.30    3.00
  -9   2   5   10.60    2.80
   8  -2  -5  109.29    8.90
  -8   2   5  110.19    8.50
   7  -2  -5    3.50    2.40
   7  -2  -5    4.10    2.20
   6  -2  -5   62.79    9.60
  -6   2   5   74.09   10.70
  -6   2   5   59.99   10.40
   5  -2  -5    4.20    2.60
  -5   2   5    2.10    2.30
   4  -2  -5   41.30    7.00
   4  -2  -5   39.90    6.70
   4  -2  -5   45.50    6.90
  -4   2   5   47.30    4.80
  -4   2   5   45.90    5.30
  -4   2   5   53.59    6.50
   3  -2  -5   45.70    6.00
   3  -2  -5   39.70    4.60
   3  -2  -5   54.09    7.80
  -3   2   5   45.20    5.00
  -3   2   5   41.70    5.60
  -3   2   5   44.30    4.30
   2  -2  -5 1186.78   41.50
   2  -2  -5 1063.09   39.30
   2  -2  -5 1159.78   43.60
   2  -2  -5  995.40   37.60
  -2   2   5 1075.29   37.70
  -2   2   5 1092.19   39.80
   1  -2  -5 1150.28   40.50
   1  -2  -5 1219.28   45.50
   1  -2  -5 1224.08   44.20
  -1   2   5 1169.28   42.00
  -1   2   5 1137.29   40.30
   0  -2  -5  123.39    9.20
   0  -2  -5  135.89    9.70
   0  -2  -5  134.29    9.20
   0   2   5  128.69    7.40
   0   2   5  129.29    8.30
  -1  -2  -5  849.22   35.20
  -1  -2  -5  846.72   34.60
  -1  -2  -5  816.92   33.90
   1   2   5  805.12   32.70
   1   2   5  899.01   33.80
  -2  -2  -5   27.30    5.90
  -2  -2  -5   23.80    5.30
   2   2   5   28.20    5.20
   2   2   5   39.70    6.30
  -3  -2  -5  232.18   20.70
  -3  -2  -5  219.98   15.10
   3   2   5  213.68   14.60
   3   2   5  197.28   14.60
  -4  -2  -5   13.80    3.50
  -4  -2  -5   13.00    3.30
  -5  -2  -5   33.20    5.70
  -5  -2  -5   25.40    4.70
  -6  -2  -5  173.68   11.00
   6   2   5  174.38   10.50
  -7  -2  -5   -1.10    1.40
   7   2   5    1.20    1.50
   9  -3  -5  103.79    8.00
  -9   3   5   99.29    7.10
   8  -3  -5  217.48   13.50
   7  -3  -5    2.80    2.40
   7  -3  -5    1.70    1.90
   7  -3  -5    2.90    2.20
   6  -3  -5  367.86   22.40
  -6   3   5  331.97   23.20
  -6   3   5  386.26   21.60
   5  -3  -5  439.26   22.30
  -5   3   5  431.96   21.90
   4  -3  -5  674.23   29.80
   4  -3  -5  722.53   32.90
  -4   3   5  716.13   29.80
  -4   3   5  704.83   26.80
   3  -3  -5 1464.85   56.29
   3  -3  -5 1444.26   52.79
   3  -3  -5 1371.56   52.19
  -3   3   5 1492.35   51.89
  -3   3   5 1491.65   50.09
  -3   3   5 1449.46   52.79
   2  -3  -5  285.17   16.10
   2  -3  -5  255.47   12.70
   2  -3  -5  282.37   14.80
   2  -3  -5  270.17   12.90
  -2   3   5  281.87   12.70
  -2   3   5  253.07   13.40
   1  -3  -5  295.67   15.90
   1  -3  -5  319.67   13.80
   1  -3  -5  277.47   15.90
   1  -3  -5  299.57   15.70
  -1   3   5  286.17   13.60
  -1   3   5  311.87   14.70
   0  -3  -5    6.60    2.50
   0  -3  -5    5.80    2.50
   0  -3  -5    8.70    3.70
   0   3   5    9.10    2.70
   0   3   5    6.20    2.30
  -1  -3  -5   35.30    6.80
  -1  -3  -5   30.30    5.70
   1   3   5   31.10    5.50
   1   3   5   41.00    6.30
  -2  -3  -5   23.10    6.00
  -2  -3  -5   27.90    6.70
   2   3   5   22.10    5.50
   2   3   5   17.70    4.50
  -3  -3  -5  608.24   33.20
  -3  -3  -5  588.44   30.40
   3   3   5  544.95   28.30
   3   3   5  581.44   30.10
  -4  -3  -5  379.36   18.60
  -4  -3  -5  362.56   18.80
  -5  -3  -5   23.60    4.50
  -5  -3  -5   23.30    4.30
  -6  -3  -5   12.00    3.20
   6   3   5   14.10    3.20
  -7  -3  -5    4.80    1.70
  10  -4  -5    1.70    1.30
   9  -4  -5   38.50    5.50
  -9   4   5   35.50    4.70
   8  -4  -5    8.80    2.90
   8  -4  -5    9.10    2.80
   8  -4  -5    8.30    3.20
   7  -4  -5  197.38   11.70
   7  -4  -5  195.18   12.90
   7  -4  -5  184.58   10.70
   6  -4  -5   73.89    7.40
   6  -4  -5   62.89    7.40
   6  -4  -5   86.79    7.80
   5  -4  -5   13.00    4.50
  -5   4   5    8.50    3.30
  -5   4   5    5.40    3.90
   4  -4  -5  443.86   22.30
   4  -4  -5  458.85   25.20
  -4   4   5  488.15   19.30
  -4   4   5  475.95   22.10
   3  -4  -5  410.16   19.40
   3  -4  -5  406.56   22.10
  -3   4   5  420.26   19.50
  -3   4   5  438.96   19.20
  -3   4   5  406.86   16.90
   2  -4  -5  250.57   12.60
   2  -4  -5  279.17   15.10
   2  -4  -5  238.78   15.10
  -2   4   5  266.97   13.60
   1  -4  -5   65.19    8.30
   1  -4  -5   49.70    6.40
   1  -4  -5   75.19    9.40
  -1   4   5   68.29    7.90
  -1   4   5   76.09    6.70
   0  -4  -5   66.89    9.40
   0  -4  -5   59.79    9.20
   0   4   5   72.09    8.70
   0   4   5   55.99    7.60
  -1  -4  -5   52.39    8.70
  -1  -4  -5   55.19    8.90
   1   4   5   53.69    7.50
   1   4   5   52.09    8.00
  -2  -4  -5  195.18   19.10
  -2  -4  -5  123.29   13.70
   2   4   5  154.88   13.20
   2   4   5  132.99   13.50
  -3  -4  -5   25.40    4.90
  -3  -4  -5   35.00    5.60
  -3  -4  -5   35.20    5.80
  -4  -4  -5  110.39    8.50
  -4  -4  -5  109.09    8.80
  -4  -4  -5  121.69   10.80
  -5  -4  -5  140.59    9.30
  -5  -4  -5  132.39    9.40
  -6  -4  -5    3.30    2.00
   6   4   5    2.60    1.50
   9  -5  -5   78.69    7.90
   9  -5  -5   68.39    5.50
  -9   5   5   64.99    6.00
   8  -5  -5   35.10    6.00
   8  -5  -5   35.90    5.30
   8  -5  -5   23.70    3.70
   7  -5  -5  123.59    8.80
   7  -5  -5   97.39    9.90
   7  -5  -5  114.39    7.80
   6  -5  -5  125.79    8.90
   6  -5  -5  118.29    8.00
   6  -5  -5  128.99    9.90
   5  -5  -5    2.90    4.40
  -5   5   5    3.80    3.40
  -5   5   5    1.10    2.50
   4  -5  -5  675.73   30.10
  -4   5   5  670.03   29.20
  -4   5   5  681.63   26.10
   3  -5  -5   21.10    5.20
   3  -5  -5   13.90    3.40
  -3   5   5   16.20    3.80
  -3   5   5   15.40    2.70
   2  -5  -5    3.80    1.50
  -2   5   5    1.90    2.20
   1  -5  -5   15.80    5.20
   1  -5  -5   16.20    4.30
  -1   5   5   13.40    4.00
   0  -5  -5   22.10    6.20
   0  -5  -5   29.30    6.20
   0   5   5   28.50    6.10
  -1  -5  -5  551.04   29.60
  -1  -5  -5  596.94   30.90
   1   5   5  613.24   29.80
  -2  -5  -5  455.15   22.10
  -2  -5  -5  490.85   22.60
  -2  -5  -5  480.95   22.20
  -3  -5  -5  129.89   10.00
  -3  -5  -5  129.69    9.90
  -3  -5  -5  140.09   10.10
  -4  -5  -5   45.80    6.10
  -4  -5  -5   43.10    5.80
  -4  -5  -5   57.99    6.90
  -5  -5  -5   13.80    3.00
   9  -6  -5   37.70    5.30
   9  -6  -5   38.20    4.40
   8  -6  -5   29.70    5.60
   8  -6  -5   32.90    4.70
   7  -6  -5  203.58   13.60
   7  -6  -5  207.78   12.20
   6  -6  -5    9.70    3.10
   6  -6  -5    8.70    3.50
   5  -6  -5  268.27   14.00
   5  -6  -5  271.57   15.40
   4  -6  -5   91.89    9.80
  -4   6   5  116.39   13.50
   2  -6  -5   28.00    4.50
  -2   6   5   31.10    6.40
   1  -6  -5   48.30    9.10
  -1   6   5   55.09    8.60
   0  -6  -5  141.99    9.90
   0  -6  -5  140.69   10.10
  -1  -6  -5   36.30    5.90
  -1  -6  -5   44.40    6.90
  -2  -6  -5   -1.10    1.90
  -2  -6  -5    1.40    1.90
  -3  -6  -5   19.10    4.30
  -3  -6  -5   16.80    3.90
  -4  -6  -5   46.40    5.30
  -4  -6  -5   61.39    6.00
   5   6   5   88.59    5.00
   9  -7  -5   14.20    2.70
   9  -7  -5   19.80    3.40
   8  -7  -5   35.10    4.70
   8  -7  -5   35.60    5.50
   7  -7  -5   25.50    5.20
   7  -7  -5   38.60    5.60
   6  -7  -5  143.89   10.80
   6  -7  -5  146.49    9.70
   5  -7  -5   57.69    6.70
   5  -7  -5   64.69    7.60
   2  -7  -5    0.60    2.70
   1  -7  -5   10.00    3.60
   1  -7  -5   11.80    3.50
   0  -7  -5  699.53   30.50
   0  -7  -5  691.63   29.80
  -1  -7  -5   97.09   10.00
  -1  -7  -5   77.39    8.30
  -2  -7  -5    0.40    2.00
  -2  -7  -5    0.30    1.90
  -3  -7  -5   10.60    2.80
  -3  -7  -5    8.10    2.60
  -4  -7  -5   13.50    2.30
  -4  -7  -5   10.30    2.10
   9  -8  -5    1.30    1.20
   9  -8  -5    2.30    1.60
   8  -8  -5  251.97   12.70
   8  -8  -5  263.77   13.70
   7  -8  -5   75.89    8.00
   7  -8  -5   56.89    6.10
   6  -8  -5   57.69    7.20
   6  -8  -5   51.49    6.00
   5  -8  -5   20.70    5.50
   2  -8  -5  124.19    9.30
   1  -8  -5  129.99    9.90
   1  -8  -5  126.99    9.60
   0  -8  -5    9.50    3.50
   0  -8  -5   12.70    3.80
  -1  -8  -5   44.40    5.90
  -1  -8  -5   65.69    7.70
  -2  -8  -5    1.80    1.80
  -2  -8  -5    4.50    2.10
  -3  -8  -5   18.80    2.60
  -3  -8  -5   21.80    2.90
   8  -9  -5   20.80    3.40
   8  -9  -5   19.70    3.00
   7  -9  -5   80.49    7.60
   7  -9  -5   72.39    5.70
   6  -9  -5   27.60    4.80
   2  -9  -5    6.30    2.70
   1  -9  -5  307.27   15.80
   1  -9  -5  307.37   15.90
   0  -9  -5   77.19    7.50
   0  -9  -5   78.69    6.70
  -1  -9  -5  116.19    7.60
  -1  -9  -5   95.49    6.90
   2 -10  -5   -1.60    1.70
   1 -10  -5   -0.10    1.70
   1 -10  -5    0.10    1.50
   0 -10  -5    1.30    1.40
   0 -10  -5   -0.60    1.30
   0 -11   6    0.00    1.20
   1 -11   6    8.00    2.20
   1 -11   6    7.10    2.20
   2 -11   6   41.10    5.00
   2 -11   6   49.60    5.30
   3 -11   6   24.00    3.90
   3 -11   6   20.00    3.60
   4 -11   6    9.10    2.60
   4 -11   6    9.30    2.60
   5 -11   6   28.20    4.00
   5 -11   6   25.60    3.50
   6 -11   6    0.80    1.30
   2  10  -6    0.30    1.10
  -2 -10   6   -0.60    1.20
  -1 -10   6  186.18   10.20
   0 -10   6   47.00    5.30
   0 -10   6   54.39    5.90
   0 -10   6   73.99    7.00
   1 -10   6  340.87   16.80
   1 -10   6  329.97   16.80
   2 -10   6   15.10    3.80
   2 -10   6   13.80    3.80
   3 -10   6    1.60    2.10
   3 -10   6    2.10    2.20
   4 -10   6   47.20    6.30
   4 -10   6   72.09    7.90
  -5  10  -6   58.39    6.10
   5 -10   6   59.59    6.50
   5 -10   6   76.29    7.70
  -6  10  -6   10.10    2.60
   6 -10   6    9.70    2.50
   6 -10   6    7.90    2.40
  -7  10  -6   -0.20    1.10
   7 -10   6   -0.40    1.00
   3   9  -6   24.80    3.60
  -3  -9   6   21.30    3.80
   2   9  -6  103.99    7.50
  -2  -9   6   83.09    7.90
  -1  -9   6   24.50    4.60
  -1  -9   6   26.30    4.80
   0  -9   6   28.00    5.00
   0  -9   6   11.20    3.20
   0  -9   6   23.20    4.40
   1  -9   6  339.17   17.90
   1  -9   6  348.37   18.20
   2  -9   6   99.69    9.90
   2  -9   6  117.69   10.90
   3  -9   6   86.19    8.80
   3  -9   6  103.19   10.30
   4  -9   6  121.69    9.60
   4  -9   6  114.69    9.30
   5  -9   6  103.59    8.60
   5  -9   6   94.79    8.10
   6  -9   6  110.89    8.20
   6  -9   6  132.09    9.10
  -7   9  -6   14.50    3.10
   7  -9   6   22.30    3.60
   4   8  -6   56.99    5.50
  -4  -8   6   66.59    6.30
   3   8  -6   21.50    3.90
  -3  -8   6   25.50    4.50
  -2  -8   6  177.18   11.50
  -1  -8   6   96.79    9.90
  -1  -8   6   84.49    8.50
   0  -8   6  575.64   25.20
   0  -8   6  540.15   25.30
   0  -8   6  578.34   25.60
   1  -8   6    2.10    2.30
   1  -8   6    0.50    2.10
   2  -8   6    7.40    3.30
   2  -8   6    5.90    2.90
   3  -8   6  164.28   11.80
   3  -8   6  193.58   12.30
   4  -8   6   38.70    5.80
   4  -8   6   30.70    5.30
   5  -8   6    3.60    2.40
   5  -8   6    1.40    2.50
   5  -8   6   -0.70    1.80
   6  -8   6   12.70    3.60
   6  -8   6   10.60    4.20
   6  -8   6   18.70    3.90
   7  -8   6   -0.10    1.50
  -8   8  -6   88.99    6.20
   8  -8   6  100.99    6.10
   5   7  -6    0.40    1.30
  -5  -7   6   -0.50    1.50
   4   7  -6    7.50    2.70
  -4  -7   6    7.40    2.70
   3   7  -6   80.39    8.40
  -3  -7   6   60.79    7.20
  -2  -7   6   95.29    9.40
  -2  -7   6   93.59    9.20
  -1  -7   6   93.59    9.20
  -1  -7   6   85.49    8.30
   0  -7   6  471.95   22.10
   0  -7   6  495.85   22.30
   0  -7   6  471.85   21.60
  -1   7  -6   38.50    6.70
   1  -7   6   50.39    6.80
   1  -7   6   42.50    7.30
   2  -7   6  262.87   14.80
   2  -7   6  273.17   15.80
   3  -7   6    9.10    3.10
   3  -7   6   11.90    3.60
   3  -7   6    9.50    3.20
   4  -7   6  123.69    9.00
   4  -7   6  117.39    9.60
   4  -7   6  132.59    9.60
   5  -7   6  116.79    9.20
   5  -7   6  108.19    8.60
   6  -7   6    4.30    2.50
   6  -7   6    5.80    2.90
   7  -7   6  104.19    7.90
   7  -7   6   99.69    7.60
  -8   7  -6   21.20    3.40
   8  -7   6   20.10    3.30
   6   6  -6   18.20    3.10
   5   6  -6    0.60    1.70
  -5  -6   6    1.40    1.70
   4   6  -6  230.58   13.70
  -4  -6   6  235.98   13.50
  -3  -6   6  215.88   13.00
  -2  -6   6   29.00    5.00
  -2  -6   6   28.10    5.00
   1   6  -6  264.57   17.70
   1   6  -6  267.17   18.10
  -1  -6   6  272.97   17.60
  -1  -6   6  281.87   18.30
   0   6  -6    1.30    1.50
   0   6  -6    0.30    2.10
   0  -6   6    2.30    2.20
   0  -6   6    0.60    2.60
  -1   6  -6  120.49   12.50
   1  -6   6  119.09   12.40
  -2   6  -6  471.55   26.20
  -2   6  -6  460.05   24.10
   2  -6   6  504.25   26.10
   2  -6   6  477.95   24.70
  -3   6  -6  327.77   18.70
  -3   6  -6  323.17   21.30
   3  -6   6  311.87   19.60
   3  -6   6  313.27   20.30
  -4   6  -6   24.70    5.40
   4  -6   6   26.20    4.50
   4  -6   6   21.70    9.00
   4  -6   6   11.40    5.20
   4  -6   6   25.00    4.80
   5  -6   6  123.79    9.50
   5  -6   6  135.39    9.40
   6  -6   6   60.59    7.20
   6  -6   6   60.29    6.90
   7  -6   6  389.66   18.70
   7  -6   6  400.96   18.40
  -8   6  -6   59.19    5.80
   8  -6   6   66.59    5.50
   7   5  -6   34.40    3.70
   6   5  -6   26.10    4.30
   5   5  -6  151.88   10.60
  -5  -5   6  158.68   10.10
   4   5  -6    6.80    2.80
  -4  -5   6    8.40    3.10
  -3  -5   6  197.18   11.70
   2   5  -6   10.70    3.20
   2   5  -6   11.40    4.60
  -2  -5   6    8.20    4.90
   1   5  -6  310.27   17.70
   1   5  -6  261.77   16.80
  -1  -5   6  289.67   16.80
  -1  -5   6  264.27   17.10
   0   5  -6  116.79    9.90
   0   5  -6  123.19    9.60
   0  -5   6  130.79   12.40
   0  -5   6  124.99   11.80
  -1   5  -6  910.51   40.00
  -1   5  -6  971.80   38.80
   1  -5   6  930.01   39.50
   1  -5   6 1004.20   39.40
   1  -5   6  914.31   42.50
  -2   5  -6   23.30    5.80
  -2   5  -6   26.50    5.50
   2  -5   6   17.90    4.40
   2  -5   6   16.90    4.70
  -3   5  -6  103.19   12.40
  -3   5  -6  132.19   11.90
   3  -5   6   99.69   11.50
   3  -5   6  139.09   13.40
  -4   5  -6  417.56   25.60
  -4   5  -6  353.86   26.40
   4  -5   6  404.16   21.90
   4  -5   6  421.96   24.50
   5  -5   6  147.59    9.80
   5  -5   6  153.08   10.30
   6  -5   6  399.56   18.90
   6  -5   6  386.86   19.20
   7  -5   6   48.20    6.10
   8  -5   6  104.99    7.10
   7   4  -6   15.50    3.20
   6   4  -6   21.00    4.20
   5   4  -6  434.46   21.10
  -5  -4   6  442.06   23.70
   4   4  -6  485.85   22.10
  -4  -4   6  476.85   21.40
   3   4  -6   10.70    3.90
  -3  -4   6   11.40    4.00
   2   4  -6   37.00    5.70
   2   4  -6   32.30    5.80
  -2  -4   6   32.40    6.60
  -2  -4   6   28.90    7.50
   1   4  -6   78.59    8.80
   1   4  -6   82.29    9.50
  -1  -4   6   64.89    8.20
  -1  -4   6   61.39    7.30
   0   4  -6  268.67   16.00
   0   4  -6  277.77   15.50
   0   4  -6  274.27   14.90
   0  -4   6  309.77   15.50
   0  -4   6  290.97   15.10
  -1   4  -6   44.60    7.00
  -1   4  -6   35.30    5.40
   1  -4   6   40.50    6.00
   1  -4   6   39.00    5.10
   1  -4   6   35.60    5.50
  -2   4  -6    1.70    1.40
  -2   4  -6    2.60    2.60
   2  -4   6    1.00    1.70
   2  -4   6    2.70    1.50
  -3   4  -6   99.99    7.50
  -3   4  -6  102.49   12.30
   3  -4   6   87.99    9.80
   3  -4   6   70.79    9.10
  -4   4  -6    2.50    1.70
   4  -4   6   -2.10    1.40
   4  -4   6    1.30    2.50
   5  -4   6  506.05   22.10
   5  -4   6  469.45   21.20
   6  -4   6  333.67   16.50
   6  -4   6  342.47   17.30
   7  -4   6  309.77   15.80
   8  -4   6   25.90    3.90
   8   3  -6   51.69    4.40
   7   3  -6   11.10    3.10
   6   3  -6  196.18   12.40
   5   3  -6  308.07   16.40
   4   3  -6   16.20    4.70
  -4  -3   6   16.10    4.70
   3   3  -6    6.40    3.00
  -3  -3   6    9.80    4.00
   2   3  -6   13.40    3.90
   2   3  -6   17.00    3.40
  -2  -3   6   16.90    3.90
  -2  -3   6   13.70    3.00
   1   3  -6 1159.08   43.80
   1   3  -6 1196.88   45.40
   1   3  -6 1192.08   46.30
  -1  -3   6 1239.28   45.10
  -1  -3   6 1195.48   44.00
   0   3  -6  935.81   39.70
   0   3  -6 1001.20   38.00
   0  -3   6  983.80   37.10
   0  -3   6 1035.00   37.60
  -1   3  -6    3.80    2.80
  -1   3  -6    4.90    2.00
   1  -3   6    3.40    2.10
   1  -3   6    3.00    1.40
   1  -3   6    3.20    1.80
  -2   3  -6  520.25   25.50
  -2   3  -6  474.65   20.80
   2  -3   6  521.05   22.80
   2  -3   6  501.45   22.50
  -3   3  -6   23.40    5.20
   3  -3   6   16.40    4.20
   3  -3   6   13.60    3.90
  -4   3  -6   86.89   12.40
   4  -3   6   87.59    9.70
   4  -3   6   65.39    9.50
   5  -3   6    2.20    3.90
   5  -3   6    3.00    2.10
   6  -3   6  144.29    9.90
   7  -3   6   13.20    3.30
   8  -3   6   14.00    2.90
   8   2  -6   50.39    5.50
  -8  -2   6   57.79    5.40
   7   2  -6   50.79    6.70
  -7  -2   6   40.10    5.30
   6   2  -6  148.79   10.50
  -6  -2   6  146.29    9.80
   5   2  -6  457.65   24.20
   5   2  -6  439.06   21.00
  -5  -2   6  451.65   26.50
  -5  -2   6  478.55   24.60
   4   2  -6  100.09   11.70
  -4  -2   6   84.59   10.50
  -4  -2   6   91.09    9.50
   3   2  -6   45.30    6.50
  -3  -2   6   57.69    7.70
  -3  -2   6   54.89    6.50
   2   2  -6   25.40    4.40
   2   2  -6   24.10    3.80
   2   2  -6   23.30    4.80
  -2  -2   6   31.70    5.00
  -2  -2   6   19.80    3.20
  -2  -2   6   23.80    3.40
   1   2  -6  717.83   27.70
   1   2  -6  747.93   30.00
   1   2  -6  763.32   32.10
  -1  -2   6  771.82   29.90
  -1  -2   6  786.12   26.40
  -1  -2   6  751.42   27.80
  -1  -2   6  797.12   28.90
   0   2  -6  173.58    8.60
   0   2  -6  164.28   11.30
   0   2  -6  176.88    9.40
   0  -2   6  152.18    8.80
   0  -2   6  149.88    9.00
   0  -2   6  152.58    7.80
  -1   2  -6   92.19    6.40
  -1   2  -6   95.09    8.60
  -1   2  -6   86.39    6.00
   1  -2   6   99.39    7.10
   1  -2   6   99.39    6.50
   1  -2   6   91.89    6.10
  -2   2  -6   56.59    4.70
  -2   2  -6   78.19    9.50
  -2   2  -6   68.89    7.10
   2  -2   6   75.79    7.80
   2  -2   6   65.09    4.90
   2  -2   6   76.99    6.10
  -3   2  -6  179.48   11.50
  -3   2  -6  167.18   13.70
   3  -2   6  161.68   11.80
   3  -2   6  165.28   11.30
  -4   2  -6   69.49   10.80
  -4   2  -6   63.69    8.80
   4  -2   6   77.39   10.30
   4  -2   6   70.69    8.70
  -5   2  -6  144.29    9.80
  -5   2  -6  191.78   21.30
  -5   2  -6  179.18   23.30
   5  -2   6  142.89    9.60
  -6   2  -6  265.67   14.00
   6  -2   6  244.48   13.90
  -7   2  -6   14.50    3.50
   7  -2   6   17.70    3.50
  -8   2  -6    0.50    1.50
   8  -2   6    1.40    1.50
   9   1  -6  133.79    7.20
  -9  -1   6  119.69    7.70
   8   1  -6   82.39    7.00
  -8  -1   6   75.19    7.10
   7   1  -6  415.86   20.10
  -7  -1   6  373.96   18.60
   6   1  -6   11.30    3.30
   6   1  -6   10.50    2.90
   5   1  -6  237.58   16.50
  -5  -1   6  237.48   15.80
  -5  -1   6  252.67   16.00
   4   1  -6  737.13   31.00
  -4  -1   6  646.64   29.10
  -4  -1   6  615.44   28.50
   3   1  -6  500.85   22.90
   3   1  -6  499.15   24.00
  -3  -1   6  511.75   22.40
  -3  -1   6  470.65   21.20
   2   1  -6 5072.39  181.38
   2   1  -6 5614.04  179.68
  -2  -1   6 5748.72  179.18
  -2  -1   6 5275.97  175.78
  -2  -1   6 5337.87  175.48
  -2  -1   6 5375.26  177.68
   1   1  -6  873.71   35.60
   1   1  -6  866.61   32.30
   1   1  -6  870.21   32.60
  -1  -1   6  825.82   31.20
  -1  -1   6  883.91   32.60
   0   1  -6  142.29    7.80
   0   1  -6  157.68   10.80
   0   1  -6  150.38    8.70
   0  -1   6  134.39    8.10
   0  -1   6  141.39    8.20
  -1   1  -6   25.90    5.20
  -1   1  -6   26.10    3.10
  -1   1  -6   26.70    4.40
   1  -1   6   20.40    3.20
   1  -1   6   24.80    4.00
   1  -1   6   25.30    3.40
  -2   1  -6 1894.41   71.19
  -2   1  -6 1877.61   68.19
   2  -1   6 1889.71   67.49
   2  -1   6 1953.50   67.19
   2  -1   6 1872.81   65.89
  -3   1  -6  848.82   38.50
  -3   1  -6  878.61   36.30
   3  -1   6  808.72   35.50
   3  -1   6  877.71   35.40
  -4   1  -6   74.99   10.50
  -4   1  -6   72.79   11.30
   4  -1   6   51.19    8.20
   4  -1   6   71.89    8.90
  -5   1  -6  326.47   16.20
   5  -1   6  312.67   16.00
  -6   1  -6    2.80    2.10
   6  -1   6    1.50    2.00
  -7   1  -6    0.50    1.60
   7  -1   6    0.30    1.40
  -8   1  -6   97.69    6.40
   8  -1   6  100.09    5.90
   9   0  -6   23.70    3.50
  -9   0   6   17.40    3.00
   8   0  -6  121.19    9.00
  -8   0   6  116.89    8.50
   7   0  -6    6.40    2.80
   6   0  -6  308.37   16.40
   6   0  -6  306.47   14.80
   5   0  -6  913.11   39.60
  -5   0   6  893.81   38.90
   4   0  -6 1104.29   43.30
   4   0  -6 1064.49   44.10
  -4   0   6 1039.30   41.20
  -4   0   6 1074.99   42.10
   3   0  -6   77.49    8.20
   3   0  -6   96.49   10.90
  -3   0   6   99.09    7.60
  -3   0   6   93.89    7.20
  -3   0   6   97.29    6.00
   2   0  -6 2520.85   88.79
   2   0  -6 2606.64   85.49
  -2   0   6 2599.24   85.09
  -2   0   6 2481.45   84.59
  -2   0   6 2455.95   82.29
  -2   0   6 2253.37   81.79
   1   0  -6  758.62   32.30
   1   0  -6  777.12   28.60
   1   0  -6  749.23   29.80
  -1   0   6  749.13   29.10
  -1   0   6  753.62   27.80
   0   0  -6    7.50    3.00
   0   0  -6    5.20    1.50
   0   0  -6    5.30    2.20
   0   0   6    6.10    1.90
   0   0   6    4.10    1.80
  -1   0  -6   74.39    7.70
  -1   0  -6   83.99    9.70
   1   0   6   66.29    6.50
   1   0   6   72.99    5.20
   1   0   6   62.99    6.40
  -2   0  -6  500.55   25.00
  -2   0  -6  481.35   23.50
   2   0   6  501.45   22.30
   2   0   6  501.05   22.00
  -3   0  -6  196.78   14.80
  -3   0  -6  203.28   14.30
   3   0   6  196.88   13.10
   3   0   6  199.68   13.40
  -4   0  -6  137.59   15.30
   4   0   6  128.29   13.40
   4   0   6  128.09   14.50
  -5   0  -6  147.69   10.20
   5   0   6  151.68   10.00
  -6   0  -6  212.18   12.90
   6   0   6  224.28   12.70
  -7   0  -6  117.09    8.40
   7   0   6  129.19    8.30
  -8   0  -6    7.00    1.90
   9  -1  -6    4.80    2.10
  -9   1   6    4.60    1.90
   8  -1  -6   17.30    4.20
  -8   1   6   14.80    3.50
   7  -1  -6   39.40    6.00
   7  -1  -6   54.69    6.20
   6  -1  -6   18.80    3.70
   6  -1  -6    9.60    3.30
   5  -1  -6   10.60    4.50
   5  -1  -6   14.70    4.40
  -5   1   6   18.50    5.40
   4  -1  -6  248.88   16.30
   4  -1  -6  262.17   15.50
  -4   1   6  240.78   13.40
  -4   1   6  257.87   14.50
   3  -1  -6 2052.79   74.69
   3  -1  -6 1930.11   71.19
  -3   1   6 2033.50   70.09
  -3   1   6 1993.90   67.79
  -3   1   6 2014.80   70.59
   2  -1  -6  246.78   15.00
   2  -1  -6  241.38   12.80
   2  -1  -6  225.38   11.60
  -2   1   6  222.08   11.60
  -2   1   6  203.08    9.40
   1  -1  -6   38.30    5.60
   1  -1  -6   31.40    5.60
   1  -1  -6   40.10    4.20
  -1   1   6   47.50    5.50
  -1   1   6   40.10    4.30
   0  -1  -6  299.37   15.60
   0  -1  -6  287.57   16.50
   0   1   6  287.77   13.90
   0   1   6  282.07   14.20
  -1  -1  -6 2152.08   75.99
  -1  -1  -6 2104.99   74.89
  -1  -1  -6 2070.79   76.69
   1   1   6 2077.59   72.29
   1   1   6 2122.99   74.29
  -2  -1  -6  105.39    9.50
  -2  -1  -6  117.29   11.20
  -2  -1  -6  113.09   11.90
   2   1   6  102.19    8.30
   2   1   6  104.79    8.40
  -3  -1  -6    6.50    3.80
  -3  -1  -6   10.30    4.00
   3   1   6   10.00    3.90
   3   1   6    8.00    3.40
  -4  -1  -6   16.50    3.80
  -4  -1  -6   29.10    4.90
   4   1   6   21.90    7.20
  -5  -1  -6   25.10    4.50
  -6  -1  -6    0.70    1.80
   6   1   6    0.30    1.60
  -7  -1  -6  118.69    8.10
   7   1   6  127.89    7.60
   9  -2  -6   61.09    6.40
  -9   2   6   65.19    6.20
   8  -2  -6    6.60    2.70
   7  -2  -6  177.18   12.00
   7  -2  -6  169.58   10.80
   7  -2  -6  179.88   10.60
   6  -2  -6  242.88   13.90
   6  -2  -6  216.48   13.10
   6  -2  -6  237.48   12.40
  -6   2   6  265.97   22.20
   5  -2  -6  221.98   14.30
   5  -2  -6  212.18   16.20
  -5   2   6  217.68   14.30
   4  -2  -6  373.06   20.70
   4  -2  -6  319.27   17.70
  -4   2   6  310.67   15.70
  -4   2   6  349.67   17.80
  -4   2   6  345.47   15.10
   3  -2  -6  206.08   13.90
   3  -2  -6  180.68   11.40
  -3   2   6  195.98   11.00
  -3   2   6  185.28   11.30
  -3   2   6  197.68    9.50
   2  -2  -6   14.00    3.20
   2  -2  -6   10.80    2.70
   2  -2  -6   12.80    4.60
  -2   2   6   10.00    2.70
  -2   2   6   13.60    2.40
   1  -2  -6    2.70    1.50
   1  -2  -6    4.30    1.40
   1  -2  -6    1.70    3.00
  -1   2   6    2.80    1.60
  -1   2   6    1.50    1.70
   0  -2  -6   27.90    4.70
   0  -2  -6   29.70    5.90
   0  -2  -6   30.80    5.20
   0   2   6   36.00    5.20
  -1  -2  -6  620.54   28.80
  -1  -2  -6  670.63   29.30
  -1  -2  -6  644.54   29.50
   1   2   6  655.23   28.10
  -2  -2  -6  183.38   13.10
  -2  -2  -6  160.28   15.20
   2   2   6  145.69   11.00
   2   2   6  146.29   11.60
  -3  -2  -6  355.96   21.80
  -3  -2  -6  376.66   21.30
   3   2   6  307.97   20.00
  -4  -2  -6    8.70    2.90
  -4  -2  -6   14.60    3.90
  -5  -2  -6  120.99    9.40
  -6  -2  -6  167.38   10.60
   6   2   6  156.18    9.70
  -7  -2  -6    1.40    1.50
   7   2   6   -0.50    1.10
   9  -3  -6    4.50    2.30
  -9   3   6    5.60    2.20
   8  -3  -6   45.40    5.30
   8  -3  -6   48.20    5.80
   8  -3  -6   37.80    5.90
   7  -3  -6  160.78   10.20
   7  -3  -6  160.58   11.40
   7  -3  -6  159.08    9.90
   6  -3  -6   99.19    8.30
   6  -3  -6   89.19    7.00
   6  -3  -6   96.89    7.60
   5  -3  -6  915.81   39.60
  -5   3   6  934.31   38.80
   4  -3  -6  136.79   11.40
   4  -3  -6  135.49   12.30
  -4   3   6  131.49    8.00
  -4   3   6  151.88   10.60
   3  -3  -6  108.49    8.00
   3  -3  -6   87.19   10.50
  -3   3   6  104.99    8.10
  -3   3   6   98.59    7.50
  -3   3   6   99.29    7.30
   2  -3  -6  182.48   13.40
   2  -3  -6  195.28   12.30
   2  -3  -6  177.58   10.00
  -2   3   6  203.98   11.80
  -2   3   6  203.48   10.40
   1  -3  -6 1175.78   48.30
   1  -3  -6 1257.17   47.80
  -1   3   6 1223.78   45.50
   0  -3  -6  634.24   29.70
   0  -3  -6  711.63   31.40
   0  -3  -6  694.93   30.50
   0   3   6  700.93   29.40
  -1  -3  -6  173.38   13.00
  -1  -3  -6  148.09   14.70
   1   3   6  139.29   11.00
  -2  -3  -6   58.99   10.30
  -2  -3  -6   57.19    8.80
   2   3   6   67.99    9.50
  -3  -3  -6  236.28   13.50
  -3  -3  -6  228.88   13.10
  -3  -3  -6  235.28   13.70
  -4  -3  -6   81.79    8.40
  -4  -3  -6   66.99    7.80
  -5  -3  -6   73.09    7.60
  -6  -3  -6  121.79    8.20
   6   3   6  122.49    7.70
   9  -4  -6   69.49    7.10
   9  -4  -6   65.59    5.10
  -9   4   6   59.49    5.80
   8  -4  -6  289.67   14.60
   8  -4  -6  295.27   14.30
   8  -4  -6  289.97   16.50
   7  -4  -6   24.30    3.90
   7  -4  -6   24.10    5.30
   7  -4  -6   30.70    5.10
   6  -4  -6  306.57   15.60
   6  -4  -6  305.87   14.90
   6  -4  -6  319.67   16.80
   5  -4  -6    5.80    4.60
  -5   4   6    0.30    2.20
   4  -4  -6   72.39    9.60
   4  -4  -6   87.89    9.20
  -4   4   6  111.69   10.90
  -4   4   6  108.59    8.20
   3  -4  -6   89.79   10.40
   3  -4  -6  121.29    8.30
  -3   4   6  105.59    8.20
  -3   4   6  122.29    9.00
  -3   4   6  109.59    6.90
   2  -4  -6  202.68   14.40
   2  -4  -6  211.78   13.70
  -2   4   6  214.28   12.30
  -2   4   6  234.68   13.50
   1  -4  -6    2.50    3.30
   1  -4  -6    3.60    2.20
  -1   4   6    6.00    2.90
   0  -4  -6   15.90    5.70
   0  -4  -6   11.50    4.50
   0   4   6   16.20    4.50
  -1  -4  -6   36.60    7.50
  -1  -4  -6   34.10    6.80
   1   4   6   39.00    6.90
  -2  -4  -6  588.14   25.10
  -2  -4  -6  539.65   25.00
  -2  -4  -6  585.14   25.50
  -3  -4  -6   25.20    5.00
  -3  -4  -6   20.20    4.40
  -3  -4  -6   13.10    4.10
  -4  -4  -6   35.90    5.40
  -4  -4  -6   24.70    4.50
  -4  -4  -6   32.90    5.40
  -5  -4  -6  104.69    8.00
  -6  -4  -6    1.20    1.40
   6   4   6    0.80    1.00
   9  -5  -6    2.70    2.10
   9  -5  -6    1.00    1.50
  -9   5   6    0.70    1.30
   8  -5  -6    7.80    2.40
   8  -5  -6   10.90    3.60
   8  -5  -6    5.70    2.50
   7  -5  -6   74.29    8.60
   7  -5  -6   63.79    7.00
   7  -5  -6   84.19    6.50
   6  -5  -6  321.77   16.20
   6  -5  -6  309.67   17.10
   6  -5  -6  314.57   15.00
   5  -5  -6   10.30    3.60
   5  -5  -6   10.00    3.10
  -5   5   6    5.80    3.30
  -5   5   6   12.20    6.20
   4  -5  -6  307.87   17.40
  -4   5   6  335.37   17.80
  -4   5   6  319.97   14.80
   3  -5  -6   -0.70    1.30
  -3   5   6   -0.20    1.50
  -3   5   6    0.90    1.40
   2  -5  -6  622.54   28.80
  -2   5   6  603.34   27.30
   1  -5  -6   83.29   10.40
   1  -5  -6   76.89   10.30
  -1   5   6   82.99    9.60
   0  -5  -6   21.70    5.40
   0  -5  -6   21.10    7.10
   0   5   6   19.20    5.50
  -1  -5  -6   65.49    7.50
  -1  -5  -6   91.59    8.90
  -1  -5  -6   80.79    8.20
  -2  -5  -6 1016.30   40.10
  -2  -5  -6  981.90   39.50
  -2  -5  -6  987.80   39.80
  -3  -5  -6   98.89    9.80
  -3  -5  -6  118.29    9.00
  -3  -5  -6  109.29    8.90
  -4  -5  -6  103.69    8.00
  -4  -5  -6   77.79    7.80
  -4  -5  -6   92.09    7.10
  -5  -5  -6   48.20    4.90
   5   5   6   63.19    4.80
   9  -6  -6  149.88    9.60
   9  -6  -6  161.18    8.80
   8  -6  -6    7.30    3.20
   8  -6  -6    8.70    2.60
   7  -6  -6  120.89   10.30
   7  -6  -6  156.18    9.90
   6  -6  -6    6.20    3.10
   6  -6  -6    7.20    2.80
   5  -6  -6    4.80    2.50
  -4   6   6   81.19   12.20
   1  -6  -6   29.70    5.20
   0  -6  -6   37.20    6.30
   0  -6  -6   33.20    5.60
  -1  -6  -6  457.05   22.50
  -1  -6  -6  469.95   22.10
  -2  -6  -6   74.89    7.90
  -2  -6  -6   80.29    8.60
  -3  -6  -6   21.40    4.10
  -3  -6  -6   19.20    4.00
  -4  -6  -6    4.20    1.90
  -4  -6  -6    3.70    1.80
   9  -7  -6   31.70    4.10
   9  -7  -6   25.10    3.40
   8  -7  -6  117.99    8.10
   8  -7  -6  128.19    9.10
   7  -7  -6  138.99    9.20
   7  -7  -6  131.89   10.00
   6  -7  -6   56.29    7.40
   6  -7  -6   44.70    5.60
   5  -7  -6  245.78   13.10
   2  -7  -6   73.39    7.60
   1  -7  -6    9.70    3.20
   1  -7  -6   10.80    3.20
   0  -7  -6  176.98   12.10
   0  -7  -6  174.68   11.60
  -1  -7  -6  257.97   14.90
  -1  -7  -6  240.68   14.10
  -2  -7  -6   18.20    4.20
  -2  -7  -6   13.50    3.50
  -3  -7  -6   37.80    4.60
  -3  -7  -6   40.30    4.70
   9  -8  -6   -0.20    1.80
   9  -8  -6   -0.40    0.90
   8  -8  -6  107.89    7.60
   8  -8  -6   95.79    6.70
   7  -8  -6    9.70    2.80
   7  -8  -6    5.90    2.80
   6  -8  -6   73.39    7.40
   2  -8  -6    1.90    2.20
   1  -8  -6   59.99    7.40
   1  -8  -6   59.29    7.50
   0  -8  -6  235.38   13.20
   0  -8  -6  210.98   13.10
  -1  -8  -6  172.08   10.60
  -1  -8  -6  180.58   11.10
  -2  -8  -6   91.09    6.80
  -2  -8  -6  109.49    7.10
   8  -9  -6   46.30    4.80
   8  -9  -6   58.59    4.20
   7  -9  -6  126.39    7.50
   2  -9  -6    5.20    3.10
   1  -9  -6   86.29    7.10
   1  -9  -6   91.29    7.20
   0  -9  -6   30.40    4.60
   0  -9  -6   23.90    3.80
  -1  -9  -6    3.30    1.70
  -1  -9  -6    3.00    1.80
   1 -10  -6   46.60    4.60
   1 -10  -6   39.70    4.30
   0  11  -7   45.20    3.80
   1 -11   7   31.60    3.90
   1 -11   7   29.70    3.50
   2 -11   7  175.28    9.20
   2 -11   7  138.49    8.50
   3 -11   7    6.60    2.30
   3 -11   7    7.00    2.20
   4 -11   7    2.60    1.60
   4 -11   7    1.40    1.60
   5 -11   7   56.99    5.50
   5 -11   7   50.09    4.10
   2  10  -7    8.80    1.90
  -2 -10   7    7.40    1.90
   1  10  -7   26.20    3.80
  -1 -10   7   27.00    3.80
   0 -10   7   -1.10    1.30
   0 -10   7    0.70    1.70
   0 -10   7   -0.50    1.50
   1 -10   7   25.30    4.20
   1 -10   7   24.00    4.30
   2 -10   7   72.89    7.60
   2 -10   7   72.69    7.50
   3 -10   7   70.39    7.80
   3 -10   7   71.39    7.60
   4 -10   7   84.39    6.80
   4 -10   7   93.89    7.70
  -5  10  -7    2.40    1.80
   5 -10   7    0.70    1.70
   5 -10   7    1.30    1.80
  -6  10  -7   48.30    5.00
   6 -10   7   38.10    4.50
   3   9  -7    8.90    2.10
  -3  -9   7   10.60    2.60
   2   9  -7   31.90    4.60
  -2  -9   7   38.30    5.10
  -1  -9   7   41.30    5.40
  -1  -9   7   36.70    5.10
   0  -9   7   70.39    7.20
   0  -9   7   74.49    7.40
   0  -9   7   68.29    7.30
   1  -9   7  157.78   11.00
   1  -9   7  176.88   11.50
   2  -9   7   16.10    4.30
   2  -9   7   12.10    3.60
   3  -9   7   43.10    6.30
   3  -9   7   38.80    6.20
  -4   9  -7  157.38   10.10
   4  -9   7  138.09   10.30
   4  -9   7  135.89   10.00
  -5   9  -7    6.50    2.50
   5  -9   7    8.30    2.90
   5  -9   7    5.20    2.30
  -6   9  -7   12.30    3.20
   6  -9   7    8.50    2.80
  -7   9  -7   14.30    2.80
   7  -9   7   19.00    3.20
   4   8  -7   33.20    4.20
  -4  -8   7   27.90    3.90
   3   8  -7    1.00    1.70
  -3  -8   7    0.20    1.50
  -2  -8   7   27.80    4.90
  -1  -8   7   98.29    8.40
  -1  -8   7  104.49    8.50
   0  -8   7  188.48   12.20
   0  -8   7  189.98   12.20
   0  -8   7  208.08   12.30
   1  -8   7  308.17   16.30
   1  -8   7  282.27   15.90
   2  -8   7   14.40    4.00
   2  -8   7   19.50    4.40
  -3   8  -7  147.49   10.20
   3  -8   7  137.69   10.60
   3  -8   7  167.28   11.20
   4  -8   7    1.40    2.50
   4  -8   7   -0.90    1.60
   5  -8   7  182.88   12.00
   6  -8   7   95.19    8.00
  -7   8  -7    3.40    1.90
   7  -8   7    1.40    1.80
  -8   8  -7   58.79    4.40
   8  -8   7   55.89    4.40
   5   7  -7    0.80    1.40
  -5  -7   7    2.70    1.80
   4   7  -7   31.20    4.80
  -4  -7   7   22.00    4.10
   3   7  -7   89.99    9.00
  -3  -7   7   80.09    8.30
  -2  -7   7  388.96   20.00
  -2  -7   7  429.86   20.20
  -1  -7   7   79.09    8.00
  -1  -7   7   92.89    9.10
   0  -7   7  109.19    8.40
   0  -7   7  110.19    8.80
   1  -7   7   21.30    4.50
   1  -7   7   26.30    4.90
  -2   7  -7   33.10    5.30
   2  -7   7   37.20    5.90
   2  -7   7   31.70    5.30
   3  -7   7   43.90    5.90
   3  -7   7   36.40    5.70
   4  -7   7   65.49    7.50
   4  -7   7   53.99    7.00
   5  -7   7    3.00    2.30
   5  -7   7    3.90    2.30
   6  -7   7   26.30    4.90
  -7   7  -7   92.79    7.50
   7  -7   7   93.89    7.30
  -8   7  -7   18.30    2.80
   8  -7   7   20.40    3.10
   6   6  -7   49.10    4.90
   5   6  -7    0.10    1.50
  -5  -6   7   -0.20    1.60
   4   6  -7  135.49    9.90
  -4  -6   7  138.69    9.70
   3   6  -7   38.80    6.20
  -3  -6   7   36.30    5.90
  -2  -6   7   61.19    6.90
  -2  -6   7   62.79    7.40
  -1  -6   7  667.33   30.90
  -1  -6   7  608.44   26.10
  -1  -6   7  592.54   27.10
  -1  -6   7  616.24   31.60
   0   6  -7  504.45   25.80
   0  -6   7  495.85   25.20
   0  -6   7  509.35   26.40
  -1   6  -7  187.08   14.40
   1  -6   7  186.88   14.10
  -2   6  -7   79.49   10.60
  -2   6  -7  102.09   13.60
   2  -6   7   64.59    9.10
  -3   6  -7  102.49   12.20
  -3   6  -7  111.99   14.90
   3  -6   7   87.89   10.80
   3  -6   7   92.69   18.20
   4  -6   7  311.27   16.30
   5  -6   7  342.67   17.70
   5  -6   7  369.26   18.30
   6  -6   7    1.80    2.10
   6  -6   7    2.50    2.20
   7  -6   7  112.89    8.20
   8  -6   7    5.10    1.90
   7   5  -7   60.69    4.50
   6   5  -7   17.40    3.60
   5   5  -7    0.60    1.70
  -5  -5   7    2.10    2.20
   4   5  -7  150.58   10.40
  -4  -5   7  127.79    9.50
  -3  -5   7 1087.89   41.70
   2   5  -7  117.19   12.70
  -2  -5   7   97.99   11.10
   1   5  -7  112.99   12.30
  -1  -5   7  148.19   13.90
  -1  -5   7  138.09   11.10
   0   5  -7   11.00    3.80
   0  -5   7   25.40    5.70
   0  -5   7   15.80    4.20
  -1   5  -7   62.89    9.40
  -1   5  -7   78.19    9.60
   1  -5   7   62.99    8.00
  -2   5  -7   86.19    9.20
  -2   5  -7   87.09   11.30
   2  -5   7  119.49   11.80
   2  -5   7   72.19    9.50
  -3   5  -7  541.15   26.00
  -3   5  -7  614.04   31.80
   3  -5   7  563.84   27.70
   3  -5   7  569.54   28.90
   4  -5   7  188.48   13.90
   4  -5   7  172.28   10.90
   4  -5   7  168.78   22.50
   4  -5   7  184.68   11.10
   5  -5   7   44.00    6.10
   5  -5   7   31.30    4.90
   6  -5   7  267.17   14.80
  -7   5  -7   82.69    8.00
   7  -5   7   92.69    7.40
   8  -5   7  128.69    7.60
   7   4  -7   14.50    3.00
   6   4  -7    2.20    1.80
   5   4  -7  266.77   14.90
  -5  -4   7  242.38   13.50
   4   4  -7  103.99    8.50
  -4  -4   7  103.79    7.90
   3   4  -7   46.10    7.90
  -3  -4   7   69.59   10.00
   2   4  -7  377.96   20.90
  -2  -4   7  375.16   20.90
   1   4  -7  249.18   15.20
  -1  -4   7  226.98   14.80
  -1  -4   7  234.08   13.80
   0   4  -7 1265.47   51.69
   0   4  -7 1282.47   49.90
   0  -4   7 1264.07   48.80
   0  -4   7 1375.76   49.80
  -1   4  -7  270.37   15.40
  -1   4  -7  293.77   18.40
   1  -4   7  291.67   14.40
   1  -4   7  306.77   16.20
  -2   4  -7  312.87   16.10
  -2   4  -7  312.67   19.80
   2  -4   7  288.47   17.40
   2  -4   7  321.47   17.20
  -3   4  -7  151.28   16.50
   3  -4   7  120.09   11.90
   3  -4   7   88.99   10.80
  -4   4  -7  109.09   14.30
   4  -4   7   73.09    9.40
   4  -4   7   65.69   12.20
   5  -4   7    3.00    2.20
   5  -4   7    1.90    1.80
   6  -4   7   94.79    8.00
   7  -4   7   25.30    4.30
   8  -4   7   -0.20    1.30
   8   3  -7   36.70    4.00
   7   3  -7   66.79    7.20
   6   3  -7    0.80    1.80
   5   3  -7  161.18   11.00
   4   3  -7  874.11   39.90
  -4  -3   7  908.91   40.50
   3   3  -7   39.50    6.90
  -3  -3   7   32.60    6.30
   2   3  -7   33.10    5.90
  -2  -3   7   35.10    5.40
   1   3  -7    3.20    2.50
   1   3  -7    4.90    2.90
  -1  -3   7    2.90    2.00
  -1  -3   7    6.20    2.40
   0   3  -7    7.20    3.30
   0   3  -7    7.00    2.90
   0  -3   7    6.70    2.40
   0  -3   7    9.60    2.90
  -1   3  -7  165.28   10.50
  -1   3  -7  173.38   13.30
   1  -3   7  161.38    9.60
   1  -3   7  188.98   11.40
  -2   3  -7  432.96   23.40
  -2   3  -7  390.06   17.70
   2  -3   7  309.47   23.60
   2  -3   7  434.56   20.00
  -3   3  -7    8.80    4.50
   3  -3   7    5.10    3.00
   3  -3   7    9.10    3.50
  -4   3  -7  271.57   20.80
   4  -3   7  274.47   16.90
   5  -3   7   45.20    5.90
   6  -3   7   -0.60    1.60
   7  -3   7   79.69    7.80
   8  -3   7    1.60    1.30
   8   2  -7   38.40    4.70
  -8  -2   7   36.40    4.20
   7   2  -7   -1.00    1.40
  -7  -2   7   -0.30    1.80
   6   2  -7   13.30    3.60
  -6  -2   7    9.20    3.10
   5   2  -7   27.50    5.20
   4   2  -7  131.69   13.10
  -4  -2   7  160.78   10.90
  -4  -2   7  152.08   12.30
   3   2  -7   91.39   10.00
  -3  -2   7   94.99    9.00
  -3  -2   7   72.49    8.40
   2   2  -7   29.50    5.70
   2   2  -7   25.50    4.90
  -2  -2   7   33.00    4.40
  -2  -2   7   33.40    5.50
   1   2  -7 3129.59  107.09
   1   2  -7 3117.89  110.49
  -1  -2   7 3136.99  106.69
  -1  -2   7 3141.29  104.59
  -1  -2   7 3078.89  102.49
  -1  -2   7 3178.88  105.59
   0   2  -7  175.38   10.10
   0   2  -7  192.98   10.00
   0   2  -7  195.38   13.30
   0  -2   7  169.58   10.10
   0  -2   7  156.28    9.90
  -1   2  -7 1765.52   61.59
  -1   2  -7 1657.13   62.19
  -1   2  -7 1828.52   67.89
   1  -2   7 1790.62   63.19
   1  -2   7 1797.12   61.89
  -2   2  -7  496.65   22.30
  -2   2  -7  526.15   26.70
   2  -2   7  450.85   20.50
   2  -2   7  489.35   22.30
  -3   2  -7   31.30    6.20
  -3   2  -7   39.70    8.40
   3  -2   7   37.40    6.10
  -4   2  -7   92.89   13.10
  -4   2  -7   91.99   11.40
   4  -2   7  139.69   13.40
  -5   2  -7    9.60    3.20
   5  -2   7   12.20    3.20
  -6   2  -7   26.20    4.40
   6  -2   7   28.50    4.90
  -7   2  -7   -0.60    1.60
   7  -2   7    0.40    1.50
  -8   2  -7    8.40    2.60
   8  -2   7    5.30    1.80
   8   1  -7    4.70    2.40
  -8  -1   7    8.00    2.60
   7   1  -7   94.89    9.60
  -7  -1   7  101.29    9.00
   6   1  -7  660.43   28.10
   6   1  -7  624.74   25.70
   5   1  -7  545.05   28.00
  -5  -1   7  499.25   26.10
  -5  -1   7  531.55   27.10
   4   1  -7  135.49   12.90
  -4  -1   7  129.79   10.00
  -4  -1   7  103.59   10.30
   3   1  -7  453.05   22.30
   3   1  -7  447.06   23.80
  -3  -1   7  458.85   20.60
  -3  -1   7  462.95   21.60
   2   1  -7  130.19    9.40
   2   1  -7  129.39   10.80
  -2  -1   7  126.99    6.50
  -2  -1   7  116.29    7.80
  -2  -1   7  124.29    8.70
   1   1  -7    1.30    2.10
   1   1  -7    3.30    1.90
   1   1  -7    1.30    1.60
  -1  -1   7    1.50    1.80
  -1  -1   7    1.00    1.20
   0   1  -7 1639.24   56.39
   0   1  -7 1682.93   62.19
   0   1  -7 1537.05   57.69
   0  -1   7 1621.04   57.49
   0  -1   7 1611.14   57.29
  -1   1  -7  471.75   24.60
  -1   1  -7  477.25   21.70
   1  -1   7  482.05   21.20
   1  -1   7  459.55   20.30
  -2   1  -7   26.80    6.50
  -2   1  -7   22.00    4.80
   2  -1   7   23.60    4.30
   2  -1   7   25.70    4.10
  -3   1  -7  234.48   17.30
  -3   1  -7  243.98   15.60
   3  -1   7  206.18   13.80
  -4   1  -7   14.10    5.20
  -4   1  -7   20.20    5.40
   4  -1   7   15.20    4.30
  -5   1  -7  358.66   17.50
   5  -1   7  343.87   17.30
  -6   1  -7  328.67   16.80
   6  -1   7  338.77   16.80
  -7   1  -7   33.40    4.50
   7  -1   7   34.90    4.60
  -8   1  -7   31.90    3.60
   8  -1   7   28.50    4.70
   9   0  -7   79.49    5.80
  -9   0   7   75.79    5.30
   8   0  -7    5.00    2.40
  -8   0   7    6.80    2.70
   7   0  -7   14.20    3.10
   7   0  -7   18.30    4.20
   6   0  -7  317.47   15.20
   6   0  -7  306.17   16.60
   5   0  -7   -0.30    2.40
  -5   0   7    1.70    4.30
   4   0  -7  141.09   12.10
   4   0  -7  153.28   14.10
  -4   0   7  134.29   10.00
  -4   0   7  133.39   10.70
   3   0  -7  745.63   31.30
   3   0  -7  706.03   33.50
  -3   0   7  741.43   30.20
  -3   0   7  717.63   27.30
  -3   0   7  749.13   30.20
   2   0  -7 2578.14   90.39
   2   0  -7 2761.12   95.49
  -2   0   7 2564.34   87.29
  -2   0   7 2552.04   89.79
  -2   0   7 2668.43   90.49
   1   0  -7  822.92   34.00
   1   0  -7  856.31   32.20
   1   0  -7  904.11   37.70
  -1   0   7  870.11   33.30
  -1   0   7  850.31   31.90
   0   0  -7 1183.78   47.70
   0   0  -7 1207.38   45.20
   0   0   7 1102.29   43.30
   0   0   7 1206.38   43.20
  -1   0  -7  348.37   18.60
  -1   0  -7  366.06   20.80
   1   0   7  354.16   17.20
   1   0   7  358.86   17.40
  -2   0  -7    1.20    2.30
  -2   0  -7    5.10    2.90
   2   0   7    0.20    1.50
   2   0   7    4.00    1.20
  -3   0  -7  100.99   12.40
  -3   0  -7   89.19   12.30
   3   0   7   79.99    9.00
  -4   0  -7    0.90    2.20
   4   0   7   -2.80    2.60
  -5   0  -7   78.79    8.10
   5   0   7   83.09    8.60
  -6   0  -7  152.68   10.20
   6   0   7  135.49    9.30
  -7   0  -7    0.70    1.60
   7   0   7    2.60    1.60
   9  -1  -7    2.80    1.70
  -9   1   7    3.70    1.80
   8  -1  -7   47.50    6.30
  -8   1   7   58.19    6.70
   7  -1  -7  304.97   15.00
   7  -1  -7  300.57   16.70
   6  -1  -7    2.60    2.30
   6  -1  -7   -1.10    2.00
   6  -1  -7    0.80    1.80
   5  -1  -7    7.90    2.80
   5  -1  -7    8.80    4.00
  -5   1   7   12.10    5.40
   4  -1  -7    4.00    3.00
   4  -1  -7    2.30    2.60
  -4   1   7    1.30    2.00
  -4   1   7    1.30    1.80
  -4   1   7    4.30    1.80
   3  -1  -7   19.00    4.20
   3  -1  -7   25.80    6.20
  -3   1   7   19.20    3.00
  -3   1   7   18.80    3.90
  -3   1   7   29.90    4.90
   2  -1  -7  421.06   19.60
   2  -1  -7  446.46   21.10
   2  -1  -7  465.05   23.80
  -2   1   7  452.85   20.20
   1  -1  -7 1631.04   58.49
   1  -1  -7 1674.63   65.09
  -1   1   7 1830.92   61.69
  -1   1   7 1706.43   59.59
   0  -1  -7   61.09    8.90
   0  -1  -7   58.79    7.50
   0   1   7   52.69    6.00
   0   1   7   47.20    5.90
  -1  -1  -7  199.18   13.80
  -1  -1  -7  202.88   15.10
   1   1   7  179.98   12.20
   1   1   7  226.68   13.00
  -2  -1  -7  235.88   15.80
  -2  -1  -7  201.18   14.70
   2   1   7  223.68   13.60
  -3  -1  -7   10.90    4.90
   3   1   7    2.90    3.80
  -4  -1  -7  136.89    9.80
  -4  -1  -7  127.79    9.20
  -5  -1  -7   85.99    9.10
   5   1   7   64.99    6.90
  -6  -1  -7    6.20    2.60
   6   1   7   10.10    2.80
  -7  -1  -7   15.50    2.90
   7   1   7   15.00    2.60
   9  -2  -7    7.40    2.60
  -9   2   7    9.60    2.50
   8  -2  -7   10.80    3.50
   7  -2  -7   17.00    3.50
   7  -2  -7   24.90    5.10
   7  -2  -7   21.20    4.00
   6  -2  -7  294.57   15.80
   6  -2  -7  284.77   14.30
   6  -2  -7  278.37   14.60
   5  -2  -7 1206.18   50.89
   5  -2  -7 1284.57   53.99
  -5   2   7 1252.97   49.90
   4  -2  -7    0.80    2.50
   4  -2  -7    0.90    3.30
  -4   2   7    1.30    1.80
  -4   2   7    0.10    1.70
  -4   2   7    2.70    1.40
   3  -2  -7    4.00    2.20
   3  -2  -7    7.30    2.60
  -3   2   7    8.10    2.20
  -3   2   7    7.60    2.80
  -3   2   7    5.70    2.70
   2  -2  -7 1417.56   52.49
   2  -2  -7 1297.97   49.00
   2  -2  -7 1359.96   55.59
  -2   2   7 1426.76   51.19
   1  -2  -7   10.20    2.70
   1  -2  -7   16.00    5.30
  -1   2   7   14.00    3.50
   0  -2  -7  296.67   17.20
   0  -2  -7  287.27   18.20
   0   2   7  315.77   16.10
  -1  -2  -7  237.98   18.60
  -1  -2  -7  318.57   18.00
  -1  -2  -7  320.07   18.60
   1   2   7  323.17   17.20
  -2  -2  -7   33.10    5.30
  -2  -2  -7   34.30    7.20
   2   2   7   38.90    6.60
  -3  -2  -7   27.60    5.10
  -3  -2  -7   27.60    4.70
  -3  -2  -7   32.10    7.00
  -4  -2  -7   11.40    3.50
  -4  -2  -7   10.20    3.10
  -5  -2  -7   37.20    5.70
  -6  -2  -7    1.10    1.60
   6   2   7    2.60    1.60
   9  -3  -7  109.09    7.90
  -9   3   7   94.69    6.80
   8  -3  -7  252.27   14.60
   8  -3  -7  257.07   12.90
   8  -3  -7  237.58   12.70
   7  -3  -7  253.07   13.60
   7  -3  -7  265.97   15.40
   7  -3  -7  261.97   14.00
   6  -3  -7  122.99    9.60
   6  -3  -7  119.39    8.80
   6  -3  -7  131.09    8.60
   5  -3  -7   14.90    5.20
   5  -3  -7   22.00    6.50
  -5   3   7   37.20    7.10
   4  -3  -7   71.29   10.60
   4  -3  -7   80.49    9.30
  -4   3   7   68.09    6.60
  -4   3   7   66.49    8.60
   3  -3  -7 1713.63   66.09
   3  -3  -7 1642.74   60.39
  -3   3   7 1638.44   60.69
  -3   3   7 1668.63   57.99
  -3   3   7 1670.03   61.29
   2  -3  -7  207.48   15.50
   2  -3  -7  222.18   14.60
  -2   3   7  254.67   14.10
   1  -3  -7   37.80    6.90
   1  -3  -7   40.10    7.70
  -1   3   7   42.10    5.80
  -1   3   7   34.30    5.60
   0  -3  -7   39.20    7.80
   0  -3  -7   46.40    7.60
   0   3   7   55.99    7.70
  -1  -3  -7  183.78   17.50
  -1  -3  -7  127.89   13.10
   1   3   7  153.58   11.90
  -2  -3  -7  609.74   33.00
  -2  -3  -7  637.04   31.80
   2   3   7  591.04   29.50
  -3  -3  -7   86.89    9.50
  -3  -3  -7   75.29    8.20
  -3  -3  -7   76.89    8.50
  -4  -3  -7  306.67   17.00
  -4  -3  -7  309.17   16.40
  -5  -3  -7   61.49    7.10
  -6  -3  -7    7.40    2.30
   6   3   7    8.90    2.20
   9  -4  -7   22.10    3.90
   9  -4  -7   31.30    3.80
  -9   4   7   28.10    3.90
   8  -4  -7   88.29    9.00
   8  -4  -7   81.99    6.70
   8  -4  -7   80.09    6.30
   7  -4  -7   17.90    3.70
   7  -4  -7    8.00    3.30
   7  -4  -7    9.60    3.00
   6  -4  -7 1731.53   66.79
   6  -4  -7 1882.61   65.19
   6  -4  -7 1909.51   66.19
   5  -4  -7   75.79    9.30
  -5   4   7  111.29   11.70
   4  -4  -7  586.24   27.20
   4  -4  -7  579.64   31.10
  -4   4   7  607.34   23.90
  -4   4   7  565.04   26.80
   3  -4  -7  973.00   43.90
  -3   4   7 1027.70   40.30
  -3   4   7 1001.40   40.40
   2  -4  -7   20.20    5.60
   2  -4  -7   11.60    4.30
  -2   4   7   17.50    4.30
   1  -4  -7  208.98   15.30
  -1   4   7  196.48   13.00
   0  -4  -7  418.46   24.80
   0  -4  -7  435.16   23.80
   0   4   7  444.26   23.00
  -1  -4  -7   10.50    4.80
  -1  -4  -7    5.90    3.80
   1   4   7   14.20    5.10
  -2  -4  -7   96.89    9.80
  -2  -4  -7   98.69    9.60
  -2  -4  -7   94.49    9.80
  -3  -4  -7   50.39    6.40
  -3  -4  -7   72.29    8.00
  -3  -4  -7   52.79    7.20
  -4  -4  -7   18.40    4.10
  -4  -4  -7   16.30    3.70
  -5  -4  -7   29.90    4.50
   5   4   7   33.20    4.30
   9  -5  -7    4.90    1.90
   9  -5  -7    2.70    2.00
  -9   5   7    6.60    2.00
   8  -5  -7  164.78    9.30
   8  -5  -7  168.78   10.20
   8  -5  -7  165.78   11.40
   7  -5  -7    9.50    2.80
   7  -5  -7    5.20    3.10
   7  -5  -7    9.00    2.80
   6  -5  -7    5.60    3.30
   6  -5  -7    4.10    2.10
   6  -5  -7    2.50    2.10
   5  -5  -7    6.40    2.60
   5  -5  -7    6.90    2.70
   4  -5  -7  565.34   32.40
  -4   5   7  675.53   26.10
  -4   5   7  702.73   30.10
   3  -5  -7    9.90    3.70
  -3   5   7   13.80    4.00
  -3   5   7    9.00    2.70
   2  -5  -7   26.50    6.00
  -2   5   7   25.70    5.80
   1  -5  -7    8.80    5.20
  -1   5   7   11.30    4.00
   0  -5  -7   20.90    5.40
   0  -5  -7   11.60    3.30
  -1  -5  -7  522.55   23.90
  -1  -5  -7  560.04   23.90
  -1  -5  -7  472.35   23.50
  -2  -5  -7   63.59    7.30
  -2  -5  -7   90.39    9.60
  -2  -5  -7   75.49    8.60
  -3  -5  -7  163.58   11.50
  -3  -5  -7  186.38   11.60
  -3  -5  -7  179.78   11.20
  -4  -5  -7    0.80    1.70
  -4  -5  -7    2.30    1.90
  -4  -5  -7    2.30    2.10
  -5  -5  -7    5.40    2.30
   5   5   7    4.00    1.40
   9  -6  -7   54.49    4.50
   9  -6  -7   45.60    5.00
   8  -6  -7   11.30    2.80
   8  -6  -7   11.00    2.60
   8  -6  -7   15.20    3.90
   7  -6  -7  258.37   13.70
   7  -6  -7  250.47   14.90
   7  -6  -7  237.18   12.20
   6  -6  -7   21.90    4.50
   6  -6  -7   18.20    5.50
   5  -6  -7  174.88   10.80
   2  -6  -7   66.49    7.00
   1  -6  -7  197.48   12.10
   0  -6  -7   66.19    7.80
   0  -6  -7   73.79    8.70
  -1  -6  -7   36.60    7.50
  -1  -6  -7   57.89    6.90
  -1  -6  -7   67.89    7.60
  -2  -6  -7  131.29   10.00
  -2  -6  -7  154.38   10.40
  -2  -6  -7  141.29   10.00
  -3  -6  -7   -0.20    2.70
  -3  -6  -7    4.10    2.30
  -3  -6  -7    4.20    2.30
  -4  -6  -7   12.30    2.30
   9  -7  -7   63.79    4.70
   9  -7  -7   69.29    5.10
   8  -7  -7   35.60    5.10
   8  -7  -7   34.80    4.40
   7  -7  -7  130.69    8.70
   7  -7  -7  116.49    9.00
   6  -7  -7    4.00    2.30
   5  -7  -7   63.69    6.60
   2  -7  -7   58.19    7.00
   1  -7  -7   34.80    5.60
   1  -7  -7   35.20    5.70
   0  -7  -7  265.07   14.70
   0  -7  -7  265.37   15.20
  -1  -7  -7    1.20    2.00
  -1  -7  -7    3.30    2.40
  -2  -7  -7  132.39    8.90
  -2  -7  -7  146.79    9.30
  -3  -7  -7    1.10    1.30
  -3  -7  -7    1.60    1.50
   8  -8  -7   42.50    4.60
   8  -8  -7   36.10    4.80
   7  -8  -7   85.19    6.50
   6  -8  -7  199.78   11.00
   2  -8  -7   77.49    8.20
   1  -8  -7   45.60    5.70
   1  -8  -7   41.60    5.90
   0  -8  -7   13.90    3.80
   0  -8  -7   12.80    3.20
  -1  -8  -7   13.20    3.10
  -1  -8  -7   14.40    3.10
  -2  -8  -7   58.39    4.60
  -2  -8  -7   69.39    5.00
   8  -9  -7   50.79    4.80
   7  -9  -7   -1.70    1.40
   1  -9  -7   63.39    6.20
   1  -9  -7   57.79    5.90
   0  -9  -7   65.19    6.00
   0  -9  -7   63.89    5.10
  -1  -9  -7    8.50    1.90
  -1  -9  -7   10.20    2.10
   1 -11   8    0.70    1.80
   1 -11   8    0.10    1.20
   2 -11   8   22.90    3.30
   2 -11   8   23.90    3.40
   3 -11   8   16.40    2.90
   3 -11   8   15.10    2.80
   4 -11   8   52.89    5.50
   4 -11   8   45.40    3.90
   5 -11   8   93.29    5.80
  -2 -10   8   45.50    4.10
   1  10  -8   48.40    4.90
  -1 -10   8   50.19    4.90
   0 -10   8   18.50    3.50
   0 -10   8   18.80    3.30
   1 -10   8   75.69    6.30
   1 -10   8   84.19    6.60
   2 -10   8   59.29    6.50
   2 -10   8   73.19    7.60
   3 -10   8    5.10    2.50
   3 -10   8    4.80    2.30
   4 -10   8   60.79    5.90
   4 -10   8   52.99    6.00
  -5  10  -8    0.30    1.40
   5 -10   8    0.90    1.60
  -6  10  -8   25.10    3.40
   6 -10   8   24.70    3.50
   3   9  -8   12.80    2.50
  -3  -9   8   12.40    2.60
   2   9  -8   17.00    3.10
  -2  -9   8   19.30    3.60
  -1  -9   8   22.10    3.90
   0  -9   8   16.00    3.80
   0  -9   8   22.50    4.10
   1  -9   8   41.30    6.00
   1  -9   8   30.50    5.10
   2  -9   8    7.90    3.00
   2  -9   8   10.10    3.40
   3  -9   8   65.89    7.40
   3  -9   8   62.49    7.60
  -4   9  -8  202.48   11.60
   4  -9   8  197.78   11.60
   4  -9   8  178.88   11.80
  -5   9  -8    5.30    2.40
   5  -9   8   10.20    3.10
  -6   9  -8    2.70    1.90
   6  -9   8    0.10    1.40
  -7   9  -8   42.70    4.50
   7  -9   8   54.09    4.30
   4   8  -8    6.10    1.90
  -4  -8   8    4.80    2.00
   3   8  -8  112.69    8.00
  -3  -8   8  128.99    8.70
  -2  -8   8  123.89    9.20
  -1  -8   8   30.60    5.20
  -1  -8   8   27.10    5.20
   0  -8   8   11.20    3.50
   0  -8   8    9.70    3.30
   1  -8   8   38.60    5.60
   1  -8   8   52.79    7.00
   2  -8   8    7.60    3.10
   2  -8   8    9.80    3.40
  -3   8  -8  200.38   12.30
   3  -8   8  205.48   13.10
   3  -8   8  211.88   12.80
  -4   8  -8    2.10    2.30
   4  -8   8    1.10    2.10
  -5   8  -8  101.49    8.70
   5  -8   8  129.49    9.40
  -6   8  -8    0.60    1.80
   6  -8   8    1.90    1.90
  -7   8  -8    2.70    1.70
   7  -8   8    3.00    1.70
   5   7  -8   99.39    6.60
  -5  -7   8  103.89    6.40
   4   7  -8   96.49    7.50
  -4  -7   8   96.79    7.50
   3   7  -8   87.19    8.50
  -3  -7   8   98.09    9.30
  -2  -7   8  236.08   13.80
  -1  -7   8  182.38   11.70
  -1  -7   8  184.28   11.60
   0  -7   8  134.39    9.70
   0  -7   8  128.19    9.10
   1  -7   8   55.39    6.90
   1  -7   8   68.79    7.60
  -2   7  -8  147.49   10.10
   2  -7   8  147.29   10.40
   2  -7   8  164.68   11.20
   3  -7   8   67.99    7.40
   4  -7   8   33.50    5.50
   5  -7   8   11.20    3.40
  -6   7  -8   27.00    5.00
   6  -7   8   22.00    4.20
  -7   7  -8   23.00    3.90
   7  -7   8   28.10    4.20
   8  -7   8   32.30    3.40
   6   6  -8   -0.90    1.00
   5   6  -8   11.50    3.00
  -5  -6   8    7.00    2.40
   4   6  -8  137.19    9.70
  -4  -6   8  122.79    9.20
   3   6  -8  144.19   10.40
  -3  -6   8  142.29   10.10
  -2  -6   8  412.26   19.80
  -2  -6   8  424.86   20.30
  -1  -6   8   22.90    4.50
  -1  -6   8   20.00    4.10
   0   6  -8   77.59   12.70
   0  -6   8  107.79   12.90
  -1   6  -8  101.69   12.40
   1  -6   8  120.39   12.60
  -2   6  -8  165.78   18.60
  -2   6  -8  159.58   15.40
   2  -6   8  169.78   18.00
   3  -6   8  116.99    8.90
   4  -6   8   63.39    7.40
   5  -6   8    5.30    2.50
  -6   6  -8  168.98   11.20
   6  -6   8  150.88   10.50
  -7   6  -8    9.00    2.80
   7  -6   8    8.70    2.60
   8  -6   8    7.10    1.70
   6   5  -8   16.00    3.30
   5   5  -8  100.19    8.30
  -5  -5   8   98.89    7.60
   4   5  -8  150.88   10.70
  -4  -5   8  150.98   10.30
   3   5  -8  435.86   21.00
  -3  -5   8  454.65   20.80
  -2  -5   8   84.59    8.20
  -2  -5   8   77.69    9.80
   1   5  -8  473.25   25.20
  -1  -5   8  480.15   24.90
  -1  -5   8  455.15   23.90
   0  -5   8  708.73   31.10
   0  -5   8  668.73   31.20
  -1   5  -8  447.86   26.20
  -1   5  -8  457.25   23.70
   1  -5   8  483.65   24.20
  -2   5  -8  101.69   11.20
  -2   5  -8  145.39   17.00
   2  -5   8  129.89   13.30
  -3   5  -8  430.26   27.20
   3  -5   8  425.06   23.50
   4  -5   8  165.68   10.70
   5  -5   8    8.50    3.20
  -6   5  -8  148.89   10.60
   6  -5   8  168.58   10.80
  -7   5  -8  200.08   11.30
   7  -5   8  191.88   11.10
   8  -5   8   -0.80    1.00
   7   4  -8   29.30    4.10
   6   4  -8    3.00    2.00
   5   4  -8  167.98   11.20
  -5  -4   8  147.09    9.90
   4   4  -8   16.70    4.00
  -4  -4   8   12.40    3.20
   3   4  -8  463.05   36.60
  -3  -4   8  462.75   22.10
  -3  -4   8  580.34   35.10
   2   4  -8  133.99   13.50
  -2  -4   8   92.59   11.00
   1   4  -8  110.59   11.20
  -1  -4   8  123.99   11.50
  -1  -4   8  128.19   12.60
   0   4  -8  659.33   31.00
   0   4  -8  734.13   34.50
   0  -4   8  750.32   30.80
   0  -4   8  719.83   31.10
  -1   4  -8    1.20    2.80
  -1   4  -8    1.00    2.70
   1  -4   8    2.50    2.40
   1  -4   8   -1.40    1.20
  -2   4  -8  622.84   32.20
  -2   4  -8  568.74   26.00
   2  -4   8  596.74   28.10
  -3   4  -8   -1.70    2.90
   3  -4   8    0.60    3.20
   4  -4   8   31.30    5.00
   5  -4   8  511.15   23.20
  -6   4  -8   23.50    4.40
   6  -4   8   16.80    3.80
   7  -4   8   20.70    3.90
   8  -4   8   97.69    6.00
   8   3  -8   60.79    4.50
   7   3  -8   14.90    3.50
   6   3  -8    3.80    2.30
   5   3  -8   25.40    5.00
   4   3  -8   95.29    7.90
  -4  -3   8  101.39    7.60
   3   3  -8    7.20    2.80
  -3  -3   8   11.70    4.20
   2   3  -8  713.63   32.70
  -2  -3   8  740.33   32.20
   1   3  -8  579.94   26.50
   1   3  -8  577.64   29.00
  -1  -3   8  547.85   24.60
  -1  -3   8  594.74   26.10
   0   3  -8  468.05   25.30
   0   3  -8  462.35   21.70
   0  -3   8  469.25   21.30
   0  -3   8  463.25   21.60
  -1   3  -8   73.19   11.00
  -1   3  -8   43.60    5.60
   1  -3   8   69.49    8.50
   1  -3   8   54.79    6.10
  -2   3  -8  188.78   15.50
   2  -3   8  174.78   12.30
  -3   3  -8  245.88   19.50
   3  -3   8  248.28   16.10
   4  -3   8    6.20    2.60
   4  -3   8   12.30    5.40
   5  -3   8    9.60    3.00
   6  -3   8   14.30    3.40
   7  -3   8    0.10    1.40
   8  -3   8   32.90    3.50
   8   2  -8    3.30    1.70
   7   2  -8    1.10    1.80
  -7  -2   8    2.90    2.30
   6   2  -8  158.68   10.90
   5   2  -8    2.60    2.20
   4   2  -8  115.19   12.30
  -4  -2   8  103.69   11.50
   3   2  -8  373.76   21.30
  -3  -2   8  391.96   19.00
  -3  -2   8  419.46   21.20
   2   2  -8    6.40    3.30
   2   2  -8    3.60    3.00
  -2  -2   8    3.60    1.40
  -2  -2   8    3.50    1.40
  -2  -2   8    3.80    1.00
   1   2  -8  382.86   18.50
   1   2  -8  386.16   21.70
  -1  -2   8  342.17   14.10
  -1  -2   8  365.76   18.00
  -1  -2   8  366.96   16.10
  -1  -2   8  357.66   16.90
   0   2  -8  109.89   12.70
   0   2  -8   92.29    7.40
   0   2  -8   97.19    7.30
   0  -2   8   98.19    7.70
   0  -2   8  100.29    7.80
  -1   2  -8  361.06   17.20
  -1   2  -8  349.07   21.20
   1  -2   8  324.87   16.10
   1  -2   8  317.77   16.90
  -2   2  -8   84.19   11.20
  -2   2  -8   90.69    9.60
   2  -2   8   84.09    8.80
  -3   2  -8  442.16   31.10
  -3   2  -8  373.96   25.40
   3  -2   8  369.56   20.70
  -4   2  -8  212.08   23.60
   4  -2   8  214.18   12.20
   5  -2   8    4.80    2.40
  -6   2  -8   96.49    8.90
   6  -2   8  103.59    8.00
  -7   2  -8    6.90    2.40
   7  -2   8    7.60    2.20
   8  -2   8    1.10    1.40
   8   1  -8   42.30    5.40
  -8  -1   8   34.10    4.40
   7   1  -8   59.09    7.10
  -7  -1   8   70.69    7.10
   6   1  -8   37.10    4.80
   6   1  -8   26.50    5.00
   5   1  -8   44.30    6.30
   5   1  -8   45.20    5.20
  -5  -1   8   48.80    9.40
   4   1  -8  169.68   21.80
   4   1  -8  159.88   12.80
  -4  -1   8  174.98   12.80
  -4  -1   8  167.28   12.40
   3   1  -8  425.46   24.30
   3   1  -8  430.06   22.00
  -3  -1   8  417.96   20.40
  -3  -1   8  429.16   17.90
  -3  -1   8  450.15   21.70
   2   1  -8  132.79   14.10
   2   1  -8   99.49    9.70
  -2  -1   8  116.99    8.60
  -2  -1   8  108.49    6.60
  -2  -1   8  122.69    9.00
   1   1  -8  708.53   30.00
   1   1  -8  742.03   30.10
   1   1  -8  838.12   35.90
  -1  -1   8  750.42   30.30
  -1  -1   8  696.93   28.60
   0   1  -8   30.00    6.50
   0   1  -8   23.20    3.80
   0   1  -8   26.20    4.70
   0  -1   8   28.30    4.60
   0  -1   8   36.00    5.60
  -1   1  -8   43.90    6.70
  -1   1  -8   42.90    8.60
   1  -1   8   49.80    6.40
   1  -1   8   44.60    5.60
  -2   1  -8 1019.90   46.10
  -2   1  -8  966.70   41.30
   2  -1   8  974.70   38.60
   2  -1   8 1039.90   41.00
  -3   1  -8  567.94   28.60
  -3   1  -8  569.54   32.40
   3  -1   8  576.94   28.00
  -4   1  -8   14.60    3.60
   4  -1   8    6.10    2.60
  -5   1  -8   50.39    6.40
   5  -1   8   45.50    6.00
  -6   1  -8  131.19    9.20
   6  -1   8  126.39    9.00
  -7   1  -8   12.50    2.90
   7  -1   8    9.50    2.30
   9   0  -8   -0.50    1.20
  -9   0   8    0.00    0.90
   8   0  -8    1.50    2.10
  -8   0   8    3.30    2.00
   7   0  -8   48.80    6.90
   7   0  -8   37.90    4.80
   6   0  -8   58.69    6.60
   6   0  -8   55.79    7.30
   5   0  -8  112.09   11.90
  -5   0   8  108.79   11.20
   4   0  -8  387.86   21.40
   4   0  -8  385.36   22.90
  -4   0   8  378.86   20.10
  -4   0   8  388.86   20.10
   3   0  -8   -0.10    2.40
   3   0  -8    2.60    2.60
  -3   0   8    0.40    1.60
  -3   0   8   -2.50    1.80
  -3   0   8    1.60    1.90
   2   0  -8  641.44   31.70
   2   0  -8  637.34   27.50
  -2   0   8  657.43   27.60
   1   0  -8  141.09   11.80
   1   0  -8  142.59   10.20
   1   0  -8  128.99    8.30
  -1   0   8  132.09    9.00
  -1   0   8  129.19    8.30
   0   0  -8  239.88   17.00
   0   0  -8  271.47   15.20
   0   0   8  232.48   13.10
   0   0   8  230.98   13.40
  -1   0  -8 1446.56   58.89
  -1   0  -8 1429.56   55.49
   1   0   8 1346.97   53.09
   1   0   8 1490.45   53.89
  -2   0  -8   87.39   12.20
  -2   0  -8   94.29   11.10
   2   0   8  111.79   10.50
   2   0   8  112.79   11.20
  -3   0  -8   16.80    5.70
   3   0   8   21.90    6.60
  -4   0  -8  101.39    9.60
   4   0   8  102.19    9.60
  -5   0  -8  162.88   11.30
   5   0   8  181.48   11.30
  -6   0  -8    0.30    1.90
   6   0   8    1.80    1.80
  -7   0  -8   47.40    5.10
   7   0   8   62.39    4.90
   9  -1  -8  127.99    7.80
  -9   1   8  107.79    6.90
   8  -1  -8   72.99    7.80
   7  -1  -8   50.09    7.00
   7  -1  -8   44.00    5.50
   6  -1  -8  103.79    9.20
   6  -1  -8   77.09    8.20
   6  -1  -8   80.09    7.60
   5  -1  -8  187.68   17.00
   5  -1  -8  189.88   15.80
  -5   1   8  199.98   14.40
   4  -1  -8    2.00    3.60
   4  -1  -8    1.80    2.50
  -4   1   8    0.20    1.70
  -4   1   8    3.60    2.50
  -4   1   8    1.70    3.40
   3  -1  -8   36.70    7.50
   3  -1  -8   36.20    6.00
  -3   1   8   35.50    5.50
  -3   1   8   41.10    6.50
  -3   1   8   33.80    4.50
   2  -1  -8  321.07   17.90
   2  -1  -8  332.07   20.20
   2  -1  -8  321.87   16.00
  -2   1   8  355.96   17.40
   1  -1  -8   24.00    5.10
   1  -1  -8   20.40    6.00
  -1   1   8   26.10    4.20
  -1   1   8   31.40    5.30
   0  -1  -8  154.18   14.00
   0  -1  -8  127.19   14.00
   0   1   8  129.19   10.00
   0   1   8  129.79    9.40
  -1  -1  -8  750.42   36.30
  -1  -1  -8  755.12   34.30
   1   1   8  695.63   31.80
   1   1   8  760.12   32.10
  -2  -1  -8  268.67   18.40
   2   1   8  261.07   16.40
   2   1   8  251.37   16.10
  -3  -1  -8   73.89    7.40
  -3  -1  -8   77.89    8.30
  -4  -1  -8    9.90    3.40
  -5  -1  -8    0.30    1.90
   5   1   8    4.40    2.40
  -6  -1  -8    5.60    2.30
   6   1   8    2.80    1.80
  -7  -1  -8    1.50    1.50
   7   1   8    1.20    1.00
   9  -2  -8   52.79    5.70
  -9   2   8   50.29    5.10
   8  -2  -8   19.70    3.40
   8  -2  -8   19.90    4.10
   7  -2  -8  516.95   22.70
   7  -2  -8  547.65   24.90
   7  -2  -8  523.45   22.90
   6  -2  -8  185.38   10.90
   6  -2  -8  186.48   11.30
   6  -2  -8  188.88   12.20
   5  -2  -8    0.00    2.90
   5  -2  -8    2.30    4.70
  -5   2   8    0.90    0.60
   4  -2  -8   65.19    8.80
   4  -2  -8   48.10    8.60
  -4   2   8   51.49    5.40
  -4   2   8   66.19    8.10
  -4   2   8   53.09    6.90
   3  -2  -8   27.40    6.40
   3  -2  -8   31.00    5.60
  -3   2   8   26.60    3.60
  -3   2   8   27.70    5.40
  -3   2   8   29.10    5.10
   2  -2  -8  204.48   13.80
   2  -2  -8  205.38   16.00
  -2   2   8  206.98   12.90
   1  -2  -8  333.97   18.70
   1  -2  -8  279.57   19.40
  -1   2   8  289.47   15.40
  -1   2   8  332.77   17.30
   0  -2  -8 2670.33   97.69
   0  -2  -8 2564.44   95.79
   0   2   8 2658.93   92.99
   0   2   8 2602.04   93.69
  -1  -2  -8    1.10    2.80
   1   2   8   -2.10    2.10
   1   2   8   -3.40    2.20
  -2  -2  -8    1.70    3.90
   2   2   8    1.70    2.80
  -3  -2  -8   65.59    7.10
  -3  -2  -8   60.39    6.90
  -3  -2  -8   61.29    7.00
  -4  -2  -8    3.90    2.70
  -5  -2  -8  114.89    8.90
   5   2   8  102.29    7.90
  -6  -2  -8    0.00    1.40
   6   2   8    2.10    1.60
   9  -3  -8    3.80    2.10
  -9   3   8    4.70    1.90
   8  -3  -8   44.30    5.30
   8  -3  -8   43.00    5.20
   8  -3  -8   36.10    5.60
   7  -3  -8   73.19    7.30
   7  -3  -8   69.99    8.20
   7  -3  -8  104.89    9.00
   6  -3  -8  375.46   18.30
   6  -3  -8  402.46   18.00
   6  -3  -8  354.66   18.60
   5  -3  -8  142.19   14.10
   5  -3  -8  152.08   17.30
  -5   3   8  169.38   15.20
   4  -3  -8  328.87   18.40
   4  -3  -8  322.87   21.00
  -4   3   8  316.77   18.10
  -4   3   8  316.77   15.20
   3  -3  -8  502.05   29.00
  -3   3   8  570.64   25.90
  -3   3   8  547.85   22.50
  -3   3   8  566.74   25.40
   2  -3  -8  235.88   15.90
   2  -3  -8  210.78   16.60
  -2   3   8  240.48   14.80
   1  -3  -8  471.35   25.90
   1  -3  -8  516.15   27.90
  -1   3   8  522.65   23.60
  -1   3   8  476.95   24.40
   0  -3  -8  480.25   27.60
   0   3   8  531.35   25.80
   0   3   8  561.64   26.10
  -1  -3  -8   26.00    7.90
   1   3   8   36.00    6.90
  -2  -3  -8   22.10    4.20
  -2  -3  -8   30.00    5.20
  -2  -3  -8   26.70    4.90
  -3  -3  -8  132.39    9.50
  -3  -3  -8  118.79   11.20
  -3  -3  -8  106.99    8.50
  -4  -3  -8    7.20    3.00
  -4  -3  -8    9.00    3.00
  -5  -3  -8   52.99    6.40
  -6  -3  -8    5.40    1.90
   6   3   8   13.50    2.30
   9  -4  -8    7.30    2.50
   9  -4  -8    5.90    2.00
  -9   4   8    6.50    2.00
   8  -4  -8  270.97   13.20
   8  -4  -8  275.37   15.30
   8  -4  -8  264.17   13.60
   7  -4  -8  213.48   13.40
   7  -4  -8  192.88   11.90
   7  -4  -8  208.28   11.70
   6  -4  -8    5.80    2.70
   6  -4  -8    2.80    2.20
   5  -4  -8   76.99    7.70
   5  -4  -8   79.59    8.50
   4  -4  -8  261.47   20.20
  -4   4   8  299.87   17.30
  -4   4   8  278.97   13.90
  -3   4   8 1074.29   43.60
   2  -4  -8  169.98   14.50
   2  -4  -8  203.78   15.80
  -2   4   8  229.08   14.60
   1  -4  -8  696.13   34.60
  -1   4   8  701.93   32.30
  -1   4   8  672.23   30.90
   0  -4  -8   28.60    8.00
   0   4   8   30.00    6.40
  -1  -4  -8  140.49    9.80
  -1  -4  -8  156.28   10.40
  -1  -4  -8  150.88   10.80
  -2  -4  -8    0.10    2.10
  -2  -4  -8    1.50    2.10
  -2  -4  -8   -0.20    2.20
  -3  -4  -8    3.20    2.30
  -3  -4  -8    0.90    2.00
  -3  -4  -8   -0.80    2.10
  -4  -4  -8  566.84   25.90
  -4  -4  -8  620.34   25.10
  -5  -4  -8    8.30    2.50
   5   4   8    9.00    2.10
   9  -5  -8   13.30    3.20
   9  -5  -8   10.90    2.30
  -9   5   8   10.00    2.20
   8  -5  -8   19.10    4.50
   8  -5  -8   16.10    3.00
   8  -5  -8   25.00    4.10
   7  -5  -8   20.10    4.30
   7  -5  -8   10.60    2.90
   7  -5  -8   22.00    4.90
   6  -5  -8   32.50    4.60
   6  -5  -8   45.90    6.20
   5  -5  -8   22.40    4.40
   5  -5  -8   23.00    4.60
   4  -5  -8  315.77   15.60
   4  -5  -8  314.17   15.60
   3  -5  -8  318.67   22.80
  -3   5   8  279.47   14.60
  -3   5   8  310.37   18.00
   2  -5  -8  390.76   24.50
  -2   5   8  469.95   24.20
   1  -5  -8  228.68   13.60
   1  -5  -8  220.08   12.90
  -1   5   8  249.18   19.70
   0  -5  -8   22.50    5.10
   0  -5  -8   34.30    5.30
   0  -5  -8   25.80    4.60
  -1  -5  -8  152.88   11.00
  -1  -5  -8  133.09    9.90
  -1  -5  -8  133.69    9.80
  -2  -5  -8  134.39   10.40
  -2  -5  -8  129.49    9.60
  -2  -5  -8  123.59    9.40
  -3  -5  -8    8.20    2.90
  -3  -5  -8    0.30    2.20
  -3  -5  -8    6.60    2.60
  -4  -5  -8    2.30    2.00
   9  -6  -8    0.90    1.20
   9  -6  -8   -0.80    1.70
   8  -6  -8   72.69    5.30
   8  -6  -8   73.19    7.60
   8  -6  -8   77.99    6.20
   7  -6  -8    8.20    2.50
   7  -6  -8    5.00    2.50
   6  -6  -8    4.90    2.40
   6  -6  -8    9.10    3.10
   5  -6  -8   30.30    4.50
   5  -6  -8   29.70    4.70
   4  -6  -8   26.10    4.40
   3  -6  -8   60.49    9.50
   2  -6  -8    2.70    3.20
   2  -6  -8   -0.40    1.80
   1  -6  -8   60.19    7.40
   1  -6  -8   60.09    7.40
   0  -6  -8  238.48   13.70
   0  -6  -8  255.87   14.90
   0  -6  -8  255.57   14.70
  -1  -6  -8    0.00    1.80
  -1  -6  -8    1.00    2.10
  -1  -6  -8    1.80    2.70
  -2  -6  -8    4.50    2.70
  -2  -6  -8    7.90    2.70
  -2  -6  -8    6.80    2.80
  -3  -6  -8  236.78   11.50
  -3  -6  -8  183.08   11.10
  -3  -6  -8  232.08   11.80
   9  -7  -8    0.50    1.00
   8  -7  -8   29.90    4.00
   7  -7  -8   84.29    6.70
   6  -7  -8   28.00    4.50
   5  -7  -8  134.39    8.90
   2  -7  -8   14.50    3.80
   1  -7  -8    8.20    3.10
   0  -7  -8  105.29    8.70
   0  -7  -8  120.89    8.70
  -1  -7  -8   49.10    6.40
  -1  -7  -8   47.10    5.80
  -2  -7  -8   38.60    4.80
  -2  -7  -8   27.50    3.80
  -3  -7  -8    7.10    2.00
   8  -8  -8    0.10    1.20
   7  -8  -8   31.80    4.40
   6  -8  -8  183.28   10.10
   2  -8  -8   26.80    4.50
   1  -8  -8   89.19    7.20
   0  -8  -8   73.39    7.20
   0  -8  -8   53.99    5.90
  -1  -8  -8   12.50    2.70
  -1  -8  -8    8.80    2.40
   1  -9  -8   14.40    2.90
   0  -9  -8   -0.90    1.40
   0  -9  -8    0.40    1.10
   2 -11   9    1.30    1.40
   2 -11   9    1.00    1.20
   3 -11   9   58.39    4.60
   3 -11   9   59.29    4.50
   4 -11   9   26.00    3.20
   1  10  -9    1.10    1.20
  -1 -10   9    0.20    1.40
   0 -10   9    7.20    2.40
   1 -10   9   74.29    6.00
   2 -10   9   25.30    4.10
   2 -10   9   20.00    3.40
   3 -10   9    0.60    1.50
   3 -10   9    1.40    1.90
   4 -10   9  113.79    7.80
  -5  10  -9    4.60    1.90
   5 -10   9    7.60    2.30
  -6  10  -9    0.70    1.50
   3   9  -9    6.50    1.70
  -3  -9   9    8.90    2.10
   2   9  -9   11.10    2.60
  -2  -9   9    9.50    2.70
  -1  -9   9    1.90    2.00
   0  -9   9   62.09    7.00
   0  -9   9   53.49    6.10
   1  -9   9   -0.10    1.70
   1  -9   9   -0.10    2.00
   2  -9   9   19.30    4.10
   2  -9   9   18.80    3.80
  -3   9  -9    6.70    3.40
   3  -9   9    8.60    3.10
   3  -9   9    9.90    4.00
  -4   9  -9    9.30    3.00
   4  -9   9    5.50    2.60
  -5   9  -9   16.00    3.30
   5  -9   9   18.60    3.60
  -6   9  -9   38.40    4.60
   6  -9   9   55.09    5.40
   4   8  -9   18.60    2.90
  -4  -8   9   19.10    3.10
   3   8  -9   -1.70    1.00
  -3  -8   9    0.00    1.60
   2   8  -9   13.80    3.30
  -2  -8   9   13.30    3.50
  -1  -8   9   11.60    3.50
  -1  -8   9   10.50    3.10
   0  -8   9    1.30    2.20
   0  -8   9    1.10    2.00
   1  -8   9   25.00    4.80
   1  -8   9   27.80    4.60
   2  -8   9    1.20    2.20
   2  -8   9    2.30    2.20
  -3   8  -9  180.38   11.20
   3  -8   9  161.58   11.30
  -4   8  -9   17.30    3.80
   4  -8   9   34.90    5.70
  -5   8  -9   23.20    4.40
   5  -8   9   31.90    5.30
  -6   8  -9    5.90    2.20
   6  -8   9    7.90    2.60
  -7   8  -9   71.89    5.40
   7  -8   9   82.49    5.70
   5   7  -9    9.70    2.10
  -5  -7   9   10.20    2.20
   4   7  -9   19.10    3.60
  -4  -7   9   14.10    3.30
   3   7  -9  505.85   22.70
  -3  -7   9  507.05   22.80
  -2  -7   9   42.30    5.70
  -1  -7   9  677.63   28.30
  -1  -7   9  658.33   28.30
   0  -7   9   77.89    8.00
   0  -7   9   74.09    7.80
   1  -7   9    1.60    3.60
  -2   7  -9   19.40    4.00
   2  -7   9   17.20    3.90
  -3   7  -9    6.80    3.00
   3  -7   9    7.00    3.10
  -4   7  -9  163.88   11.40
   4  -7   9  170.98   11.30
  -5   7  -9   41.00    6.50
   5  -7   9   54.19    7.10
  -6   7  -9   28.90    4.50
   6  -7   9   37.40    5.20
  -7   7  -9    6.10    2.00
   7  -7   9    3.60    1.80
   6   6  -9   29.70    3.50
   5   6  -9   10.80    2.90
  -5  -6   9   11.00    2.70
   4   6  -9   18.00    4.10
  -4  -6   9   16.90    4.00
   3   6  -9   49.20    6.40
  -3  -6   9   53.19    7.00
  -2  -6   9  229.98   13.40
  -1  -6   9    0.90    2.10
  -1  -6   9   -1.10    1.80
   0  -6   9  195.48   11.50
  -1   6  -9  107.79   10.20
  -2   6  -9  208.78   12.30
   2  -6   9  181.08   11.40
  -3   6  -9   75.59    8.50
   3  -6   9   86.79    8.80
  -4   6  -9  168.58   11.40
   4  -6   9  143.89   10.40
  -5   6  -9   28.30    5.50
   5  -6   9   19.10    4.10
  -6   6  -9   54.99    6.60
   6  -6   9   57.29    6.70
  -7   6  -9   33.40    4.60
   7  -6   9   43.70    5.30
   6   5  -9    0.30    1.50
   5   5  -9   15.20    3.40
  -5  -5   9   14.70    3.40
   4   5  -9  447.16   21.40
  -4  -5   9  448.76   20.90
   3   5  -9  199.18   12.40
  -3  -5   9  218.48   12.70
  -2  -5   9  922.01   36.30
   1   5  -9   25.30    6.00
  -1  -5   9   24.90    7.00
   0   5  -9   20.70    5.90
   0  -5   9   13.50    3.40
   0  -5   9   13.40    4.40
  -1   5  -9  358.66   23.60
  -1   5  -9  350.96   20.50
   1  -5   9  358.36   20.60
  -2   5  -9   19.10    6.50
   2  -5   9   16.00    5.20
  -3   5  -9  455.55   21.60
   3  -5   9  457.85   20.80
  -4   5  -9   64.49    8.00
   4  -5   9   39.10    5.50
  -5   5  -9  138.79   10.30
   5  -5   9  147.39   10.20
  -6   5  -9   20.10    4.40
   6  -5   9   18.00    3.80
   7  -5   9    8.80    2.60
   7   4  -9   12.60    2.80
   6   4  -9    1.60    2.00
   5   4  -9   63.49    7.70
  -5  -4   9   47.70    6.00
   4   4  -9   24.60    4.80
  -4  -4   9   42.10    6.20
   3   4  -9  150.58   10.10
  -3  -4   9  154.08   10.00
   2   4  -9    0.50    3.60
  -2  -4   9    0.60    2.60
   1   4  -9   60.49    9.00
  -1  -4   9   71.69    8.70
  -1  -4   9   59.79    8.40
   0   4  -9  217.68   16.90
   0   4  -9  194.88   13.60
   0  -4   9  222.88   13.80
   0  -4   9  229.88   14.40
  -1   4  -9  269.67   16.20
  -1   4  -9  293.97   20.70
   1  -4   9  300.07   17.30
  -2   4  -9  596.74   33.30
   2  -4   9  586.94   28.70
  -3   4  -9  784.32   44.40
  -3   4  -9  819.22   37.40
   3  -4   9  848.82   38.50
  -4   4  -9   31.40    5.20
   4  -4   9   34.10    5.30
  -5   4  -9  112.29    9.00
   5  -4   9   99.09    8.20
   6  -4   9  139.49    9.70
   7  -4   9  143.59    8.80
   7   3  -9   22.60    3.80
   6   3  -9   65.29    7.50
   5   3  -9  415.56   20.20
  -5  -3   9  403.76   21.10
   4   3  -9   69.59    7.80
  -4  -3   9   63.29    6.70
   3   3  -9   60.89    9.50
  -3  -3   9   59.89    8.40
   2   3  -9   55.39    9.20
  -2  -3   9   51.29    8.10
   1   3  -9  634.24   32.80
   1   3  -9  657.33   29.50
  -1  -3   9  623.34   27.50
  -1  -3   9  643.24   29.00
   0   3  -9  601.94   26.80
   0   3  -9  586.44   31.30
   0  -3   9  590.84   26.60
   0  -3   9  591.94   26.30
  -1   3  -9   10.50    4.60
   1  -3   9   11.80    3.90
   1  -3   9   11.90    2.40
  -2   3  -9  790.62   40.10
   2  -3   9  791.52   34.90
  -3   3  -9   96.79   14.60
   3  -3   9  119.29   13.30
  -4   3  -9   37.80    5.90
   4  -3   9   35.60    5.20
   5  -3   9  146.99   10.10
   6  -3   9   16.60    3.50
   7  -3   9    3.60    1.90
   8   2  -9   26.10    3.70
   7   2  -9    0.80    1.60
   6   2  -9   54.39    7.20
   5   2  -9   14.30    3.80
   4   2  -9   41.60   12.40
   3   2  -9    2.90    3.60
   3   2  -9    7.00    5.20
  -3  -2   9    6.60    3.30
   2   2  -9  147.89   11.80
   2   2  -9  146.89   13.50
  -2  -2   9  150.48   11.00
   1   2  -9  194.68   12.80
   1   2  -9  176.68   15.00
  -1  -2   9  200.48   12.40
  -1  -2   9  183.98   11.30
   0   2  -9  111.89   14.10
   0   2  -9   96.49    7.40
   0  -2   9  106.09   10.20
   0  -2   9  101.29    8.20
  -1   2  -9  922.11   43.20
   1  -2   9  917.51   36.30
   1  -2   9  926.41   37.80
  -2   2  -9  650.13   35.10
   2  -2   9  630.74   29.30
  -3   2  -9   53.99   12.20
   3  -2   9   39.20    7.40
   4  -2   9  214.38   12.50
   5  -2   9  107.29    8.50
   6  -2   9  118.69    8.50
   7  -2   9    0.50    1.30
   8   1  -9   75.59    6.20
  -8  -1   9   72.19    5.60
   7   1  -9   -2.30    1.20
   6   1  -9  129.69    9.80
   6   1  -9  134.29    8.50
   5   1  -9  310.27   14.70
   5   1  -9  299.47   15.90
   4   1  -9  471.45   31.70
   4   1  -9  441.46   25.00
  -4  -1   9  474.05   23.30
  -4  -1   9  484.15   24.60
   3   1  -9    5.40    4.00
   3   1  -9    8.60    4.10
  -3  -1   9    9.70    3.50
  -3  -1   9    6.60    2.40
  -3  -1   9    4.40    3.10
   2   1  -9 1041.00   47.20
   2   1  -9 1107.39   43.10
  -2  -1   9 1003.90   37.90
  -2  -1   9 1098.19   42.60
  -2  -1   9 1085.99   41.30
   1   1  -9   81.29   11.10
   1   1  -9   81.59    8.50
   1   1  -9   94.19    9.20
  -1  -1   9   86.19    8.80
  -1  -1   9   98.69    7.30
   0   1  -9   13.30    3.80
   0   1  -9   16.00    4.90
   0  -1   9   17.70    4.70
   0  -1   9   19.20    4.20
  -1   1  -9  472.95   23.80
  -1   1  -9  470.85   27.70
   1  -1   9  459.65   22.10
   1  -1   9  493.05   23.20
  -2   1  -9   92.49   10.90
  -2   1  -9  106.09   14.60
   2  -1   9   76.69    8.90
  -3   1  -9    2.60    5.00
  -3   1  -9    0.50    3.50
   3  -1   9   -0.20    2.80
  -4   1  -9  299.17   15.50
   4  -1   9  281.17   15.10
  -5   1  -9  131.29    9.50
   5  -1   9  134.19    9.50
  -6   1  -9   68.99    6.70
   6  -1   9   62.49    6.50
  -7   1  -9   30.10    3.80
   7  -1   9   32.10    4.00
   9   0  -9   53.89    4.30
  -9   0   9   52.49    4.70
   8   0  -9   -0.10    1.50
  -8   0   9    0.90    1.50
   7   0  -9   17.30    3.60
   7   0  -9   21.70    4.60
   6   0  -9   15.10    3.40
   6   0  -9   16.50    4.00
   5   0  -9  138.89    9.70
   5   0  -9  128.39    9.20
   5   0  -9  145.29    9.00
   4   0  -9    3.60    4.50
   4   0  -9    6.10    3.90
  -4   0   9    8.70    3.80
  -4   0   9   10.40    3.90
   3   0  -9  612.74   32.50
   3   0  -9  611.74   28.00
  -3   0   9  569.74   26.50
  -3   0   9  631.84   27.60
  -3   0   9  571.34   23.60
   2   0  -9   78.49   11.00
   2   0  -9   90.49    9.10
  -2   0   9   90.49    9.30
   1   0  -9  241.38   14.70
   1   0  -9  224.98   16.30
  -1   0   9  219.58   13.40
  -1   0   9  203.78   11.90
   0   0  -9  133.49   12.60
   0   0  -9  135.09   15.20
   0   0   9  107.79   10.40
   0   0   9  132.29    9.70
  -1   0  -9   45.50    7.80
  -1   0  -9   49.80    9.90
   1   0   9   51.59    7.30
   1   0   9   29.70    5.10
  -2   0  -9    1.90    3.80
  -2   0  -9    1.50    3.00
   2   0   9    0.80    2.20
   2   0   9    0.70    0.80
  -3   0  -9  322.77   16.50
   3   0   9  323.17   16.00
  -4   0  -9   36.00    5.80
   4   0   9   29.20    4.90
  -5   0  -9   51.09    6.30
   5   0   9   66.79    7.20
  -6   0  -9    2.90    2.10
   6   0   9    8.60    2.80
  -7   0  -9   15.50    2.70
   7   0   9   11.50    2.10
   9  -1  -9   68.19    5.40
  -9   1   9   65.89    4.70
   8  -1  -9    5.80    2.70
   7  -1  -9  170.18   11.60
   7  -1  -9  180.28   10.50
   6  -1  -9   23.30    4.90
   6  -1  -9   21.70    4.20
   6  -1  -9   21.50    4.30
   5  -1  -9  102.99    8.00
   5  -1  -9   94.39    7.30
   4  -1  -9  230.58   15.50
   4  -1  -9  230.48   17.90
  -4   1   9  225.38   12.40
  -4   1   9  238.48   14.80
  -4   1   9  210.28   14.90
   3  -1  -9   60.99   10.30
   3  -1  -9   81.79    9.00
  -3   1   9   71.99    6.40
  -3   1   9   92.89   10.00
  -3   1   9   64.49    7.90
   2  -1  -9    0.00    1.70
   2  -1  -9    4.00    3.00
  -2   1   9    4.40    2.60
   1  -1  -9  180.48   13.30
   1  -1  -9  168.18   14.50
  -1   1   9  176.68   11.60
  -1   1   9  160.98   10.50
   0  -1  -9   54.59    9.50
   0  -1  -9   71.79   10.30
   0   1   9   54.49    7.40
   0   1   9   65.69    8.00
  -1  -1  -9  143.19   16.80
  -1  -1  -9  125.29   14.00
   1   1   9  139.19   11.10
   1   1   9  133.39   13.00
  -2  -1  -9    2.90    3.80
   2   1   9    0.90    2.40
  -3  -1  -9   39.80    6.00
  -4  -1  -9   19.80    4.30
   4   1   9   20.40    4.30
  -5  -1  -9    9.10    2.90
   5   1   9    7.60    2.70
  -6  -1  -9    3.60    2.10
   6   1   9    1.60    1.40
   9  -2  -9    3.30    1.80
  -9   2   9    5.10    1.80
   8  -2  -9   13.80    3.40
   8  -2  -9    9.90    2.80
   7  -2  -9   86.59    8.00
   7  -2  -9   94.09    8.60
   7  -2  -9   55.49    7.10
   6  -2  -9    2.30    2.20
   6  -2  -9    3.90    2.10
   6  -2  -9    0.70    2.50
   5  -2  -9    1.30    2.00
   5  -2  -9    3.00    2.00
   4  -2  -9  597.54   32.50
   4  -2  -9  589.04   28.40
  -4   2   9  571.74   27.50
  -4   2   9  575.14   24.10
  -4   2   9  607.44   27.40
   3  -2  -9   28.20    5.90
  -3   2   9   29.30    5.20
  -3   2   9   25.80    5.20
  -3   2   9   28.60    3.70
   2  -2  -9  699.33   31.70
   2  -2  -9  626.04   34.50
  -2   2   9  648.04   29.50
   1  -2  -9  116.59   12.10
   1  -2  -9  124.79   15.20
  -1   2   9  111.49    9.00
  -1   2   9  134.59   10.70
   0  -2  -9   39.90    7.30
   0  -2  -9   40.00    7.50
   0   2   9   40.40    6.60
   0   2   9   42.50    7.00
  -1  -2  -9  128.89   15.10
   1   2   9  126.89   14.00
   1   2   9  132.99   12.70
  -2  -2  -9  342.27   16.70
  -2  -2  -9  339.77   17.70
  -2  -2  -9  330.37   16.40
  -3  -2  -9   28.00    4.70
  -3  -2  -9   31.20    5.40
  -3  -2  -9   34.50    5.40
  -4  -2  -9   22.20    5.00
  -5  -2  -9   -1.20    1.80
   5   2   9   -0.20    1.40
  -6  -2  -9   77.49    5.70
   6   2   9   68.09    5.00
   9  -3  -9   29.20    4.00
  -9   3   9   34.10    3.90
   8  -3  -9  144.59    8.70
   8  -3  -9  134.29    8.60
   8  -3  -9  142.39    9.90
   7  -3  -9  101.39   10.00
   7  -3  -9   99.59    7.60
   7  -3  -9   98.09    7.80
   6  -3  -9  654.43   27.40
   6  -3  -9  678.13   28.40
   5  -3  -9  478.45   21.40
   5  -3  -9  496.35   22.30
   4  -3  -9   56.19    9.80
   4  -3  -9   51.99   10.60
  -4   3   9   53.59    9.80
  -4   3   9   51.29    8.00
  -4   3   9   43.00    5.60
   3  -3  -9  260.17   19.80
  -3   3   9  262.07   15.90
  -3   3   9  260.37   16.10
  -3   3   9  244.68   13.10
   2  -3  -9   81.99   11.30
   2  -3  -9   95.99   13.30
  -2   3   9   65.19    8.60
   1  -3  -9   38.00    8.00
   1  -3  -9   54.59   10.10
  -1   3   9   62.59    8.40
  -1   3   9   53.09    8.30
   0  -3  -9  442.76   26.50
   0   3   9  446.76   23.60
   0   3   9  428.76   23.40
  -1  -3  -9  270.37   14.40
  -1  -3  -9  249.48   13.90
  -1  -3  -9  258.27   14.90
  -2  -3  -9   51.09    7.20
  -2  -3  -9   36.70    5.10
  -2  -3  -9   28.70    4.60
  -3  -3  -9   79.69    9.00
  -3  -3  -9   94.79    7.80
  -3  -3  -9   72.69    7.20
  -4  -3  -9    0.90    2.00
  -5  -3  -9  262.17   13.60
   5   3   9  253.37   12.50
   9  -4  -9    4.00    2.10
   9  -4  -9    4.30    1.70
  -9   4   9    4.20    1.50
   8  -4  -9   21.50    3.80
   8  -4  -9   21.80    3.50
   8  -4  -9   15.70    4.00
   7  -4  -9  219.68   12.10
   7  -4  -9  221.68   12.80
   7  -4  -9  213.98   13.30
   6  -4  -9    6.00    2.60
   6  -4  -9    3.50    2.30
   5  -4  -9  417.56   19.80
   5  -4  -9  454.35   20.70
   4  -4  -9  244.08   13.60
   4  -4  -9  249.68   13.50
   3  -4  -9  764.32   39.90
  -3   4   9  839.82   32.20
  -3   4   9  794.32   35.70
  -3   4   9  839.62   36.10
   2  -4  -9   25.10    7.50
   2  -4  -9   22.40    5.50
  -2   4   9   36.50    7.30
   1  -4  -9  526.65   30.70
  -1   4   9  549.54   28.00
  -1   4   9  553.44   28.50
   0  -4  -9  174.28   11.10
   0  -4  -9  165.58   11.80
  -1  -4  -9  354.36   18.40
  -1  -4  -9  361.76   17.90
  -1  -4  -9  409.86   20.10
  -2  -4  -9   69.39    7.40
  -2  -4  -9  101.19    9.70
  -2  -4  -9   91.69    9.70
  -3  -4  -9   26.80    4.40
  -3  -4  -9   40.60    5.50
  -3  -4  -9   35.00    5.90
  -4  -4  -9   88.69    8.10
   4   4   9  102.99    7.20
  -5  -4  -9   11.50    2.50
   5   4   9    9.70    2.00
   9  -5  -9   28.80    3.80
   9  -5  -9   29.30    3.40
   8  -5  -9  125.29    7.50
   8  -5  -9  129.49    8.20
   8  -5  -9  107.99    8.60
   7  -5  -9  395.66   18.20
   7  -5  -9  426.56   19.50
   6  -5  -9    1.00    2.10
   6  -5  -9    1.00    1.90
   5  -5  -9    9.00    3.10
   5  -5  -9   11.90    3.60
   4  -5  -9   85.99    8.40
   4  -5  -9   80.69    8.10
   3  -5  -9    3.30    2.20
   2  -5  -9  146.29    9.90
   2  -5  -9  166.08   10.80
   1  -5  -9  347.27   17.20
   1  -5  -9  321.47   17.60
   0  -5  -9  516.35   24.00
   0  -5  -9  543.15   25.30
  -1  -5  -9    6.10    3.00
  -1  -5  -9   10.80    3.50
  -1  -5  -9    5.50    3.30
  -2  -5  -9   17.80    4.20
  -2  -5  -9   10.60    3.00
  -2  -5  -9    8.70    3.30
  -3  -5  -9    0.40    1.90
  -3  -5  -9    0.70    1.60
  -3  -5  -9    1.90    1.80
  -4  -5  -9  111.19    7.40
   4   5   9  139.29    7.40
   9  -6  -9    1.30    1.20
   8  -6  -9  168.38    9.70
   8  -6  -9  170.08    8.60
   7  -6  -9    3.70    2.10
   7  -6  -9    2.60    1.90
   6  -6  -9    1.20    1.80
   6  -6  -9    1.80    2.00
   5  -6  -9   20.60    4.30
   5  -6  -9   22.10    4.20
   4  -6  -9    7.70    3.00
   3  -6  -9   74.09    7.60
   2  -6  -9   66.19    7.40
   2  -6  -9   68.39    7.50
   1  -6  -9    2.60    2.30
   1  -6  -9    1.60    2.60
   0  -6  -9  229.38   12.90
   0  -6  -9  230.68   13.50
   0  -6  -9  207.98   13.40
  -1  -6  -9    9.10    3.00
  -1  -6  -9   13.50    3.70
  -1  -6  -9   16.90    3.90
  -2  -6  -9   33.70    4.80
  -2  -6  -9   19.50    4.10
  -2  -6  -9   27.50    4.20
  -3  -6  -9   51.09    5.00
  -3  -6  -9   56.59    4.50
   8  -7  -9   59.99    5.00
   7  -7  -9    2.10    1.60
   6  -7  -9  116.99    8.00
   2  -7  -9   17.00    3.80
   1  -7  -9  135.99    9.50
   0  -7  -9    3.70    2.30
   0  -7  -9    0.00    2.10
  -1  -7  -9    0.80    1.60
  -1  -7  -9   -0.60    1.50
  -2  -7  -9   29.00    3.40
  -2  -7  -9   38.20    4.30
   8  -8  -9   32.20    3.30
   7  -8  -9    0.80    1.60
   2  -8  -9   10.00    3.00
   1  -8  -9  118.99    8.00
   0  -8  -9    0.30    1.60
  -1  -8  -9   19.10    2.90
  -1  -8  -9   18.80    2.80
   1  -9  -9    7.80    2.10
   1  10 -10   98.49    5.70
  -1 -10  10   92.09    5.70
   0  10 -10   47.70    4.60
   1 -10  10   25.90    3.60
   2 -10  10   13.20    2.80
   2 -10  10   16.40    3.00
   3 -10  10   20.60    3.40
   4 -10  10   34.20    4.30
  -5  10 -10   16.20    2.60
   5 -10  10   12.80    2.70
   2   9 -10    4.80    1.80
  -2  -9  10    6.70    2.20
   1   9 -10   30.00    4.20
  -1  -9  10   28.20    4.10
   0  -9  10   43.60    5.00
   0  -9  10   43.60    5.40
   1  -9  10    3.20    2.10
   2  -9  10   10.20    3.10
  -3   9 -10   85.89    7.80
   3  -9  10   55.79    6.30
  -4   9 -10   22.90    4.00
   4  -9  10   23.50    4.30
  -5   9 -10    2.00    1.70
   5  -9  10    1.90    1.80
  -6   9 -10   10.30    2.30
   6  -9  10   18.70    3.00
   4   8 -10    7.90    1.60
  -4  -8  10    7.90    1.90
   3   8 -10   34.40    4.40
  -3  -8  10   27.00    4.10
   2   8 -10    0.80    1.50
  -2  -8  10   -1.00    1.60
  -1  -8  10   22.10    4.40
   0  -8  10  142.69    9.70
   0  -8  10  147.39    9.60
  -2   8 -10    0.60    2.00
   2  -8  10    0.80    2.10
  -3   8 -10   47.60    6.00
   3  -8  10   46.00    6.10
  -4   8 -10   35.10    5.10
   4  -8  10   46.90    6.20
  -5   8 -10   61.49    6.90
   5  -8  10   49.50    6.00
  -6   8 -10   16.20    3.00
   6  -8  10   26.90    3.90
   5   7 -10   28.70    3.10
  -5  -7  10   23.00    3.60
   4   7 -10   28.20    4.20
  -4  -7  10   18.30    3.60
   3   7 -10  107.29    8.20
  -3  -7  10  130.09    9.00
   2   7 -10   17.50    4.00
  -2  -7  10   28.70    5.20
  -1  -7  10  274.97   14.60
  -1  -7  10  262.57   14.50
   0  -7  10   22.70    4.10
   0  -7  10   37.80    6.80
  -1   7 -10   46.90    6.30
  -2   7 -10  246.98   13.90
   2  -7  10  221.78   13.40
  -3   7 -10    1.60    2.10
   3  -7  10    3.00    2.30
  -4   7 -10   69.99    8.00
   4  -7  10   77.19    8.30
  -5   7 -10   14.80    3.40
   5  -7  10   13.50    3.40
  -6   7 -10   40.00    5.00
   6  -7  10   41.90    5.10
  -7   7 -10   94.19    6.10
   7  -7  10  108.69    6.50
   5   6 -10   69.29    5.80
  -5  -6  10   64.59    6.00
   4   6 -10  271.77   14.60
  -4  -6  10  286.77   14.70
   3   6 -10   27.90    4.70
  -3  -6  10   34.50    5.20
  -2  -6  10    0.80    2.00
  -1  -6  10  588.94   28.70
  -1  -6  10  611.84   26.10
   0  -6  10  213.88   12.30
  -1   6 -10   27.90    5.20
  -2   6 -10   44.60    6.20
   2  -6  10   55.49    6.50
  -3   6 -10   14.00    4.20
   3  -6  10   13.30    3.60
  -4   6 -10  225.78   13.80
   4  -6  10  240.28   13.80
  -5   6 -10   -0.30    2.00
   5  -6  10   -0.20    1.80
  -6   6 -10   54.29    6.10
   6  -6  10   60.39    6.50
  -7   6 -10   43.10    4.50
   7  -6  10   37.10    4.20
   6   5 -10   43.20    4.80
   5   5 -10   79.99    8.00
  -5  -5  10   81.29    7.70
   4   5 -10   13.70    3.60
  -4  -5  10   28.20    4.80
  -3  -5  10   -0.40    1.80
  -2  -5  10  167.28   10.80
  -1  -5  10   11.50    3.40
   0   5 -10  113.79   11.30
   0  -5  10  111.49   12.30
   0  -5  10  100.69    7.50
  -1   5 -10   70.39    8.00
  -1   5 -10   52.29    8.00
  -1   5 -10   56.79   11.10
  -2   5 -10    4.10    2.50
   2  -5  10    6.00    2.70
  -3   5 -10  519.35   23.70
   3  -5  10  505.65   22.80
  -4   5 -10  118.59    9.30
   4  -5  10  107.59    8.60
  -5   5 -10  172.28   11.60
   5  -5  10  202.78   12.00
  -6   5 -10   98.69    7.70
   6  -5  10  103.99    7.80
   7  -5  10   15.50    3.10
   7   4 -10    0.10    1.00
   6   4 -10   65.99    6.40
   5   4 -10  171.28   11.20
  -5  -4  10  174.98   10.60
   4   4 -10   49.90    6.70
  -4  -4  10   49.80    6.60
   3   4 -10   -0.80    1.80
  -3  -4  10    0.40    1.80
  -2  -4  10   66.99    7.00
   1   4 -10  286.97   18.30
  -1  -4  10  294.97   18.10
   0   4 -10    2.80    3.80
   0   4 -10    4.50    1.40
   0  -4  10    6.80    3.00
   0  -4  10    5.90    3.40
  -1   4 -10   57.79   10.40
   1  -4  10   62.69    8.40
  -2   4 -10   23.40    7.20
  -2   4 -10   31.60    5.10
   2  -4  10   43.00    8.20
  -3   4 -10  488.25   21.80
   3  -4  10  418.66   20.30
  -4   4 -10   30.40    5.20
   4  -4  10   36.10    5.70
  -5   4 -10  144.29   10.30
   5  -4  10  161.58   10.70
   6  -4  10   87.39    7.20
   7  -4  10    1.70    1.40
   7   3 -10   49.60    5.80
   6   3 -10    0.90    1.90
   5   3 -10   96.59    8.20
  -5  -3  10   92.29    7.30
   4   3 -10    9.50    3.20
  -4  -3  10    7.80    2.70
  -3  -3  10  294.47   14.80
   2   3 -10  398.76   22.90
  -2  -3  10  432.66   23.10
   1   3 -10   27.10    6.70
   1   3 -10   20.80    6.30
  -1  -3  10   22.00    5.60
   0   3 -10   45.70    8.70
   0   3 -10   63.49   11.00
   0  -3  10   73.79    8.80
   0  -3  10   68.09    8.50
  -1   3 -10  190.48   17.40
   1  -3  10  219.08   14.60
  -2   3 -10  752.52   40.30
   2  -3  10  758.12   34.70
  -3   3 -10   41.30    6.20
   3  -3  10   35.10    5.00
  -4   3 -10  482.65   22.50
   4  -3  10  481.85   22.00
   5  -3  10  166.08   10.80
   6  -3  10    4.70    2.10
   7  -3  10  114.09    6.90
   8   2 -10   20.60    3.20
   7   2 -10   40.70    5.30
   6   2 -10   75.39    8.10
   5   2 -10   73.09    8.00
  -4  -2  10  151.78    9.60
   3   2 -10   83.29   11.30
  -3  -2  10   87.39   11.20
   2   2 -10  467.05   24.20
   2   2 -10  443.26   27.00
  -2  -2  10  409.56   22.30
   1   2 -10    0.10    2.70
   1   2 -10    1.40    1.70
  -1  -2  10   -0.20    2.70
   0   2 -10  466.55   27.90
   0  -2  10  427.66   21.70
   0  -2  10  441.46   21.60
  -1   2 -10   94.79   13.50
   1  -2  10   82.09    8.80
   1  -2  10  105.39   10.90
  -2   2 -10  301.27   23.30
   2  -2  10  322.97   19.00
  -3   2 -10  286.07   15.30
   3  -2  10  278.17   14.60
   4  -2  10   89.59    7.70
   5  -2  10    0.10    1.70
   6  -2  10  110.69    7.80
   7  -2  10   26.50    3.30
   8   1 -10    0.80    1.60
  -8  -1  10    2.40    1.80
   7   1 -10  107.49    8.20
   6   1 -10   12.50    3.20
   6   1 -10   15.20    3.80
   5   1 -10   12.70    3.00
   5   1 -10    8.90    3.00
  -4  -1  10  181.48   12.50
   3   1 -10  181.38   16.60
   3   1 -10  191.88   13.90
  -3  -1  10  197.58   14.00
  -3  -1  10  192.18   10.30
  -3  -1  10  180.38   12.40
   2   1 -10   47.50    7.30
   2   1 -10   41.70    8.60
  -2  -1  10   39.90    4.50
  -2  -1  10   35.90    5.60
  -2  -1  10   41.20    6.30
   1   1 -10    5.10    4.10
   1   1 -10    1.80    2.50
  -1  -1  10    2.40    2.40
  -1  -1  10    1.50    2.60
   0   1 -10  365.66   23.40
   0   1 -10  331.67   19.20
   0  -1  10  354.86   18.50
   0  -1  10  360.76   19.10
  -1   1 -10  123.29   15.30
  -1   1 -10  124.39   12.60
   1  -1  10  124.29   10.20
   1  -1  10  151.48   11.40
  -2   1 -10  431.06   28.80
  -2   1 -10  444.66   25.00
   2  -1  10  446.16   24.00
  -3   1 -10   33.20    5.20
   3  -1  10   46.90    6.10
  -4   1 -10   90.39    8.60
   4  -1  10   82.79    8.10
  -5   1 -10  187.78   11.50
   5  -1  10  182.58   11.40
  -6   1 -10   32.70    4.50
   6  -1  10   25.30    3.90
   7  -1  10   10.20    2.00
   8   0 -10   12.60    3.00
  -8   0  10   11.40    2.50
   7   0 -10   15.90    3.90
   7   0 -10   21.80    3.70
   6   0 -10  121.99    9.50
   6   0 -10  138.59    8.90
   6   0 -10  128.19    9.20
   5   0 -10  111.79    7.90
   5   0 -10  105.79    8.30
   4   0 -10    0.40    2.80
   4   0 -10    5.30    2.90
  -4   0  10   -1.80    2.30
  -4   0  10    5.70    4.20
   3   0 -10    5.90    3.50
   3   0 -10    8.80    4.90
  -3   0  10    6.00    3.40
  -3   0  10    1.90    1.20
  -3   0  10    3.90    1.90
   2   0 -10   15.60    6.10
  -2   0  10   11.80    3.50
  -2   0  10   18.20    3.10
  -2   0  10   12.40    4.20
   1   0 -10  265.37   16.20
   1   0 -10  262.27   19.20
  -1   0  10  260.67   15.60
  -1   0  10  198.68   14.00
   0   0 -10  166.58   18.70
   0   0 -10  190.28   14.10
   0   0  10  177.98   12.30
   0   0  10  171.38   12.90
  -1   0 -10  244.28   17.40
  -1   0 -10  259.37   21.00
   1   0  10  237.78   16.00
   1   0  10  260.97   16.40
  -2   0 -10  375.16   25.90
  -2   0 -10  351.36   22.70
   2   0  10  351.86   23.70
  -3   0 -10    5.10    2.80
   3   0  10    1.70    1.90
  -4   0 -10   35.80    6.00
   4   0  10   27.20    4.70
  -5   0 -10  175.88   11.50
   5   0  10  183.28   11.00
  -6   0 -10   14.10    3.00
   6   0  10    9.60    2.50
   9  -1 -10    3.70    1.80
  -9   1  10    5.00    1.60
   8  -1 -10  117.99    8.20
   7  -1 -10   15.00    3.20
   7  -1 -10   11.70    3.70
   7  -1 -10   11.30    2.90
   6  -1 -10  149.49    9.70
   6  -1 -10  151.98   10.10
   5  -1 -10  105.49    8.50
   5  -1 -10  114.59    8.20
   4  -1 -10  114.39   13.30
   4  -1 -10   95.49   14.30
  -4   1  10   91.79   10.90
  -4   1  10  100.39   12.40
  -4   1  10  115.39    9.90
   3  -1 -10   10.90    5.40
  -3   1  10   13.40    4.30
  -3   1  10    9.80    3.00
  -3   1  10    8.10    3.80
   2  -1 -10  313.17   18.80
  -2   1  10  281.07   17.10
   1  -1 -10   24.00    7.70
   1  -1 -10   26.50    6.60
  -1   1  10   26.40    7.70
  -1   1  10   31.10    5.60
   0  -1 -10   29.70    8.00
   0  -1 -10   41.50    8.20
   0   1  10   42.90    7.20
   0   1  10   31.40    6.90
  -1  -1 -10  910.41   46.20
  -1  -1 -10  945.81   43.70
   1   1  10  924.81   40.50
   1   1  10  973.30   40.90
  -2  -1 -10   84.99    8.80
  -2  -1 -10   61.69    6.80
  -3  -1 -10   29.50    5.20
   3   1  10   39.00    5.60
  -4  -1 -10  205.68   13.00
   4   1  10  198.08   12.00
  -5  -1 -10    1.70    2.00
   5   1  10    2.50    1.90
  -6  -1 -10   11.00    2.60
   6   1  10   13.00    2.40
   9  -2 -10   16.70    2.80
  -9   2  10   19.00    2.80
   8  -2 -10   36.70    5.30
   8  -2 -10   38.40    4.50
   8  -2 -10   34.60    4.20
   7  -2 -10   29.20    4.50
   7  -2 -10   40.50    5.50
   7  -2 -10   39.10    5.80
   6  -2 -10   66.69    7.40
   6  -2 -10   77.39    7.70
   5  -2 -10   11.50    3.10
   5  -2 -10   25.60    4.90
   4  -2 -10   97.59   17.10
   4  -2 -10   69.39    9.00
   4  -2 -10   51.49    9.70
   4  -2 -10   58.19    8.10
  -4   2  10   80.79    9.90
  -4   2  10   51.89    8.30
  -4   2  10   49.10    6.10
   3  -2 -10   13.40    6.40
  -3   2  10    9.60    4.20
  -3   2  10   11.70    3.30
  -3   2  10    9.00    3.80
   2  -2 -10  136.29   17.40
   2  -2 -10  161.38   15.60
  -2   2  10  165.28   12.40
   1  -2 -10  118.59   14.60
   1  -2 -10  177.48   16.90
  -1   2  10  173.28   13.10
   0  -2 -10  291.57   20.20
   0  -2 -10  282.27   21.20
   0   2  10  295.67   19.30
   0   2  10  306.37   18.00
  -1  -2 -10   99.29    9.90
  -1  -2 -10   92.49    7.60
  -2  -2 -10    4.90    2.20
  -2  -2 -10    2.00    2.60
  -2  -2 -10    0.70    1.90
  -3  -2 -10   11.60    3.90
  -3  -2 -10    6.20    2.70
  -4  -2 -10   85.89    8.50
   4   2  10   87.29    7.30
  -5  -2 -10    2.70    2.10
   5   2  10    1.10    1.40
   9  -3 -10    5.00    1.90
  -9   3  10    4.50    1.60
   8  -3 -10   36.10    4.50
   8  -3 -10   44.00    4.70
   8  -3 -10   47.20    6.00
   7  -3 -10  165.88   10.20
   7  -3 -10  175.08   10.70
   6  -3 -10   78.59    7.90
   6  -3 -10   67.39    7.80
   5  -3 -10  278.27   14.80
   5  -3 -10  271.47   15.10
   4  -3 -10  335.07   17.00
   4  -3 -10  327.97   16.50
   3  -3 -10  487.45   30.90
  -3   3  10  496.55   25.70
  -3   3  10  550.64   26.40
  -3   3  10  491.35   22.00
   2  -3 -10   21.10    3.70
   2  -3 -10   19.20    8.40
  -2   3  10   23.90    6.00
   1  -3 -10  167.38   16.30
   1  -3 -10  156.18   14.50
  -1   3  10  171.78   13.90
   0  -3 -10  178.08   12.00
   0  -3 -10  168.58   10.70
  -1  -3 -10   21.50    4.80
  -1  -3 -10   21.50    4.50
  -2  -3 -10   50.49    7.30
  -2  -3 -10   38.40    5.30
  -2  -3 -10   50.99    6.50
  -3  -3 -10  182.48   10.90
  -3  -3 -10  184.08   12.40
  -4  -3 -10  122.39    9.20
   4   3  10  132.49    8.60
  -5  -3 -10  142.39    8.90
   5   3  10  200.58    9.40
   9  -4 -10   44.60    3.60
   8  -4 -10   19.70    3.40
   8  -4 -10   27.00    3.70
   7  -4 -10   17.70    3.80
   7  -4 -10   19.10    3.60
   6  -4 -10    3.10    2.40
   6  -4 -10    3.00    2.20
   5  -4 -10  122.89    9.00
   5  -4 -10  119.19    9.10
   4  -4 -10  159.88   10.50
   4  -4 -10  158.88   10.60
   3  -4 -10  286.27   14.90
   3  -4 -10  318.27   16.20
   3  -4 -10  305.27   15.60
   2  -4 -10  107.89    9.70
   2  -4 -10   80.19    8.30
   1  -4 -10  317.97   16.30
   1  -4 -10  331.07   17.70
   0  -4 -10   21.20    4.80
   0  -4 -10   23.10    4.70
  -1  -4 -10   44.30    6.80
  -1  -4 -10   34.40    5.30
  -1  -4 -10   42.80    5.50
  -2  -4 -10  182.18   11.00
  -2  -4 -10  179.08   12.30
  -2  -4 -10  143.19   10.00
  -3  -4 -10   82.69    8.40
  -3  -4 -10   83.09    6.60
  -4  -4 -10    9.10    2.80
   4   4  10   11.60    2.40
   9  -5 -10   62.09    4.40
   8  -5 -10   16.60    2.80
   8  -5 -10   15.90    3.10
   7  -5 -10   44.60    5.20
   7  -5 -10   57.59    6.40
   6  -5 -10  181.78   11.30
   6  -5 -10  173.88   10.60
   5  -5 -10  114.99    8.80
   5  -5 -10  108.79    8.40
   4  -5 -10   55.89    6.60
   4  -5 -10   80.39    8.20
   3  -5 -10   13.00    3.70
   2  -5 -10  167.28   11.10
   2  -5 -10  141.69    9.90
   1  -5 -10    3.40    2.70
   1  -5 -10    4.90    2.60
   0  -5 -10  589.24   26.80
   0  -5 -10  557.84   25.20
  -1  -5 -10   17.90    4.50
  -1  -5 -10   19.40    3.80
  -1  -5 -10   25.10    4.80
  -2  -5 -10   33.40    5.30
  -2  -5 -10   43.90    5.20
  -2  -5 -10   49.50    6.00
  -3  -5 -10  117.19    8.40
  -3  -5 -10  135.99    7.80
   8  -6 -10   85.69    5.30
   8  -6 -10   75.89    5.70
   7  -6 -10    1.80    1.80
   7  -6 -10    1.80    1.70
   6  -6 -10   26.70    4.00
   6  -6 -10   40.40    5.60
   5  -6 -10   81.49    8.10
   5  -6 -10   84.39    7.90
   4  -6 -10   34.40    5.20
   3  -6 -10   45.30    6.00
   2  -6 -10   50.29    6.50
   2  -6 -10   57.49    7.10
   1  -6 -10   -1.70    1.40
   1  -6 -10    3.10    2.60
   0  -6 -10   43.70    6.20
   0  -6 -10   32.10    5.40
  -1  -6 -10   73.09    6.20
  -1  -6 -10   84.09    7.80
  -1  -6 -10   70.29    7.60
  -2  -6 -10   50.09    5.20
  -2  -6 -10   42.90    5.20
  -2  -6 -10   54.19    5.30
   3   6  10    9.20    2.30
   8  -7 -10  108.29    6.30
   7  -7 -10   -0.20    1.10
   6  -7 -10   87.39    6.70
   2  -7 -10   62.59    6.70
   1  -7 -10  301.37   15.30
   0  -7 -10    9.40    3.00
  -1  -7 -10   12.80    2.80
  -1  -7 -10   12.90    2.50
   7  -8 -10   46.10    4.30
   2  -8 -10   71.89    6.60
   1  -8 -10   88.99    6.40
   0  -8 -10    6.30    2.00
   0  10 -11   56.79    4.60
   3 -10  11   76.89    5.40
   4 -10  11    3.90    1.70
   2   9 -11    3.60    1.50
  -2  -9  11    7.10    1.90
   1   9 -11    8.80    2.30
  -1  -9  11   12.60    2.60
   0  -9  11   11.00    2.60
  -3   9 -11   28.10    4.20
   3  -9  11   21.50    3.60
  -4   9 -11   54.29    5.90
   4  -9  11   51.29    5.40
  -5   9 -11    1.80    1.60
   5  -9  11    2.40    1.60
   3   8 -11   18.50    3.00
  -3  -8  11   18.80    3.20
   2   8 -11   26.10    3.80
  -2  -8  11   34.40    4.70
   1   8 -11    8.00    2.60
  -1  -8  11   10.40    2.80
   0  -8  11  163.18   10.00
  -2   8 -11   53.69    6.40
   2  -8  11   67.39    7.10
  -3   8 -11   16.40    3.80
   3  -8  11   17.00    3.70
  -4   8 -11    6.80    2.60
   4  -8  11   13.70    3.40
  -5   8 -11   96.09    7.10
   5  -8  11   93.49    7.10
  -6   8 -11    0.40    1.10
   6  -8  11   -0.40    1.00
   4   7 -11   73.49    5.60
  -4  -7  11   81.89    6.00
   3   7 -11   27.80    4.20
  -3  -7  11   36.90    5.20
   2   7 -11   79.89    6.80
  -2  -7  11   88.29    8.50
  -1  -7  11   20.50    4.30
   0  -7  11   29.70    5.10
  -1   7 -11   69.89    7.90
  -2   7 -11   34.10    5.30
   2  -7  11   53.59    6.70
  -3   7 -11  151.98   10.40
   3  -7  11  138.19    9.80
  -4   7 -11   48.70    6.30
   4  -7  11   56.69    6.70
  -5   7 -11   32.50    4.80
  -6   7 -11  100.79    7.00
   6  -7  11   97.09    6.80
   5   6 -11    2.50    1.60
  -5  -6  11    2.20    1.60
   4   6 -11  115.39    8.10
  -4  -6  11  101.69    7.70
   3   6 -11   21.60    4.10
  -3  -6  11   26.00    4.40
   2   6 -11   44.90    5.60
  -2  -6  11   42.80    5.70
  -1  -6  11  559.04   24.60
   0   6 -11   36.20    5.80
   0  -6  11   36.60    5.50
  -1   6 -11   71.29    8.00
  -2   6 -11  107.79    8.90
  -3   6 -11    3.30    2.50
   3  -6  11    2.20    2.20
  -4   6 -11   45.60    6.40
   4  -6  11   52.89    6.80
  -5   6 -11   13.10    3.50
   5  -6  11   11.90    3.10
  -6   6 -11  142.89    8.80
   6  -6  11  142.49    8.80
   7  -6  11   14.60    2.30
   6   5 -11   43.60    4.40
   5   5 -11   78.99    6.60
  -5  -5  11   88.29    6.50
   4   5 -11    3.10    2.30
  -4  -5  11    4.10    2.40
   3   5 -11    0.60    1.90
  -3  -5  11    1.00    2.10
  -2  -5  11    1.30    1.90
   1   5 -11   23.80    4.70
  -1  -5  11   19.90    4.20
   0   5 -11    8.60    3.40
   0  -5  11   14.00    3.50
  -1   5 -11  105.99   10.10
   1  -5  11  101.39    7.90
  -2   5 -11  125.99    9.60
  -3   5 -11  149.39   10.70
   3  -5  11  140.39    9.80
  -4   5 -11    5.10    2.60
   4  -5  11    6.10    2.70
  -5   5 -11   10.70    3.40
   5  -5  11    9.50    3.00
  -6   5 -11   21.30    3.90
   6  -5  11   12.40    2.90
   7  -5  11    7.60    1.90
   7   4 -11    7.00    1.80
   6   4 -11   24.60    4.00
   5   4 -11  124.19    8.90
  -5  -4  11  115.09    8.20
   4   4 -11   -0.30    1.80
  -4  -4  11    1.00    2.00
  -3  -4  11   19.10    4.00
   2   4 -11   12.80    4.30
  -2  -4  11   12.30    3.30
   1   4 -11    9.10    3.10
  -1  -4  11   10.00    3.00
   0   4 -11    3.10    2.50
   0   4 -11    2.90    4.50
   0  -4  11    0.80    1.70
   0  -4  11    2.40    3.20
   0  -4  11    0.70    1.20
  -1   4 -11    1.00    2.00
   1  -4  11    3.00    1.90
  -2   4 -11   30.80    5.20
  -3   4 -11   13.60    4.10
   3  -4  11   12.40    3.40
  -4   4 -11  132.79    9.90
   4  -4  11  129.79    9.50
  -5   4 -11   58.09    6.70
   5  -4  11   48.40    6.00
   6  -4  11   49.10    5.40
   7  -4  11    0.20    1.10
   7   3 -11  144.59    8.30
   6   3 -11  225.28   12.30
   5   3 -11    2.20    2.20
  -5  -3  11    1.90    2.10
  -4  -3  11   45.00    5.60
   3   3 -11   84.09    9.40
  -3  -3  11   73.49    7.30
   2   3 -11    7.60    6.60
   2   3 -11    8.60    3.30
  -2  -3  11   12.90    3.10
   1   3 -11   96.19   14.80
   1   3 -11   91.69   10.50
  -1  -3  11   73.99    9.40
   0   3 -11  115.89   15.30
   0  -3  11  163.78   11.80
   0  -3  11  147.29   11.70
  -1   3 -11   45.50    9.70
  -1   3 -11   67.59   11.70
   1  -3  11   71.49    9.80
  -2   3 -11  336.57   17.60
  -3   3 -11    8.90    3.60
   3  -3  11    7.70    2.60
  -4   3 -11    5.10    3.00
   4  -3  11    7.70    2.90
   5  -3  11  116.49    8.60
   6  -3  11   78.59    6.40
   7  -3  11   31.20    3.30
   8   2 -11   10.90    2.70
   7   2 -11  148.49    9.20
   6   2 -11  129.99    9.20
   5   2 -11   94.29    9.00
   4   2 -11  284.87   15.20
  -4  -2  11  282.67   14.50
   3   2 -11   73.99    8.20
  -3  -2  11   78.79    7.50
   2   2 -11  931.31   47.50
   2   2 -11 1046.70   42.90
  -2  -2  11  974.40   42.30
   1   2 -11  354.96   25.00
  -1  -2  11  330.17   19.70
   0   2 -11    3.20    3.80
   0  -2  11    5.20    3.90
   0  -2  11    2.90    3.00
  -1   2 -11   19.50    3.70
   1  -2  11   20.10    5.00
  -2   2 -11   45.10    6.90
  -3   2 -11  145.09   10.50
   3  -2  11  157.68   10.10
   4  -2  11   26.30    4.60
   5  -2  11  283.17   14.90
   6  -2  11   46.90    5.40
   8   1 -11  117.89    7.10
   7   1 -11  182.18   10.90
   6   1 -11   12.60    2.90
   6   1 -11    7.70    3.10
   5   1 -11   39.60    4.90
   5   1 -11   25.60    4.50
   4   1 -11    1.20    2.00
  -4  -1  11    0.70    1.80
   3   1 -11  188.18   14.10
   3   1 -11  198.88   18.30
  -3  -1  11  199.58   14.80
   2   1 -11  630.74   35.20
  -2  -1  11  573.54   27.90
  -2  -1  11  582.94   23.60
  -2  -1  11  583.24   26.90
   1   1 -11   18.90    6.90
  -1  -1  11   28.60    6.10
   0   1 -11  131.49   13.50
   0   1 -11  113.09   14.70
   0  -1  11  142.89   13.40
   0  -1  11  144.59   11.10
  -1   1 -11  499.15   32.80
  -1   1 -11  463.35   30.90
   1  -1  11  452.85   23.90
   1  -1  11  426.66   22.80
  -3   1 -11   33.20    5.30
   3  -1  11   51.79    6.50
  -4   1 -11  166.98   11.00
   4  -1  11  164.78   10.80
  -5   1 -11   22.30    4.00
   5  -1  11   18.70    3.70
  -6   1 -11    7.20    2.30
   6  -1  11    5.40    2.00
   8   0 -11   32.80    4.20
  -8   0  11   34.80    3.90
   7   0 -11   20.70    4.20
   7   0 -11   28.90    4.00
   6   0 -11  149.49    9.90
   6   0 -11  158.28    9.60
   5   0 -11  100.79    8.20
   5   0 -11   92.59    7.20
   4   0 -11    8.80    3.40
   4   0 -11    7.60    2.90
   3   0 -11  511.85   31.40
  -3   0  11  493.25   25.00
  -3   0  11  492.45   25.40
  -3   0  11  489.15   21.40
   2   0 -11    8.90    5.80
  -2   0  11   21.20    5.30
  -2   0  11   18.40    3.70
  -2   0  11   21.50    5.20
   1   0 -11   92.99   10.80
   1   0 -11  106.59   15.30
  -1   0  11   88.69   10.70
   0   0 -11  155.08   19.50
   0   0 -11  189.38   14.80
   0   0  11  164.48   13.20
   0   0  11  166.58   12.60
  -1   0 -11   50.59    9.40
  -1   0 -11   24.10    7.00
   1   0  11   27.60    6.20
   1   0  11   33.80    6.80
  -2   0 -11  111.79   10.30
  -2   0 -11   95.29    7.60
   2   0  11  111.99    8.80
  -3   0 -11  109.99   10.30
   3   0  11  111.39    8.40
  -4   0 -11  305.07   16.10
   4   0  11  284.47   15.10
  -5   0 -11   51.79    5.90
   5   0  11   75.19    6.20
  -6   0 -11    1.50    1.50
   6   0  11    0.70    1.20
   8  -1 -11   30.20    4.40
   7  -1 -11   15.70    3.40
   7  -1 -11   20.60    5.60
   7  -1 -11   14.80    3.20
   6  -1 -11   25.60    4.20
   6  -1 -11   39.50    5.70
   5  -1 -11    6.90    3.00
   5  -1 -11    7.50    2.70
   4  -1 -11  370.06   18.50
   4  -1 -11  351.16   17.20
   3  -1 -11  689.63   38.80
  -3   1  11  679.63   32.50
  -3   1  11  710.43   28.70
  -3   1  11  756.92   33.40
   2  -1 -11   17.00    7.70
  -2   1  11   23.60    5.70
   1  -1 -11  116.19   17.90
   1  -1 -11  136.79   14.60
  -1   1  11  125.69   13.30
   0  -1 -11   30.80    7.40
   0  -1 -11   35.00   10.30
   0   1  11   36.10    8.10
   0   1  11   32.40    6.90
  -1  -1 -11  181.48   11.20
  -1  -1 -11  190.28   12.20
  -2  -1 -11  126.09    9.80
  -2  -1 -11  126.79    8.80
   2   1  11   99.19    7.90
  -3  -1 -11   91.29    9.60
   3   1  11   80.89    8.10
  -4  -1 -11   36.20    6.00
   4   1  11   43.50    5.80
  -5  -1 -11    6.60    2.70
   5   1  11    7.30    2.50
  -9   2  11    5.20    1.60
   8  -2 -11   33.00    3.90
   8  -2 -11   36.20    4.40
   7  -2 -11   46.50    5.40
   7  -2 -11   57.59    6.50
   6  -2 -11   37.80    5.40
   6  -2 -11   39.60    6.10
   5  -2 -11  305.37   15.90
   5  -2 -11  320.97   16.90
   4  -2 -11   10.50    3.20
   4  -2 -11    6.10    2.70
   3  -2 -11   24.40    5.10
   3  -2 -11   14.30    3.50
   2  -2 -11   88.09   16.00
   2  -2 -11   94.19   12.40
  -2   2  11   84.59   10.40
   1  -2 -11  111.29   16.00
   1  -2 -11  171.68   19.70
   1  -2 -11  132.99   10.10
   1  -2 -11  133.09    9.20
   0  -2 -11  190.68   11.60
   0  -2 -11  194.78   12.70
  -1  -2 -11  113.09   10.20
  -1  -2 -11  110.59    8.60
  -2  -2 -11  193.38   12.70
  -2  -2 -11  171.98   11.00
  -3  -2 -11   69.99    7.10
  -3  -2 -11   71.99    8.30
   3   2  11   68.89    7.20
  -4  -2 -11   34.10    5.00
   4   2  11   41.40    5.00
  -5  -2 -11   45.40    5.00
   5   2  11   43.00    4.40
  -9   3  11    6.10    1.70
   8  -3 -11   11.20    2.70
   8  -3 -11    7.20    2.10
   7  -3 -11   40.00    4.90
   7  -3 -11   36.20    5.10
   6  -3 -11    2.70    2.30
   6  -3 -11    1.50    1.90
   5  -3 -11   45.30    6.70
   5  -3 -11   24.90    4.50
   4  -3 -11  341.97   17.10
   4  -3 -11  329.17   17.40
   3  -3 -11    3.50    2.50
   3  -3 -11    1.30    2.10
   3  -3 -11    2.10    2.40
   2  -3 -11   63.79    7.10
   2  -3 -11   82.49    8.90
   1  -3 -11   36.40    5.70
   1  -3 -11   28.30    5.30
   0  -3 -11  125.39    9.20
   0  -3 -11  122.39   10.90
  -1  -3 -11   71.59    8.40
  -1  -3 -11   71.19    7.30
  -2  -3 -11   21.70    4.70
  -2  -3 -11   20.60    4.20
  -3  -3 -11   78.29    6.40
  -3  -3 -11   96.09    9.40
   3   3  11   78.39    6.60
  -4  -3 -11   49.80    5.80
   4   3  11   61.09    5.90
   8  -4 -11    4.10    1.70
   8  -4 -11    7.30    2.20
   7  -4 -11   30.50    5.00
   7  -4 -11   19.60    3.40
   6  -4 -11  190.68   11.40
   6  -4 -11  193.28   11.80
   5  -4 -11   71.79    7.70
   5  -4 -11   87.29    8.60
   4  -4 -11   11.70    3.40
   4  -4 -11   10.20    3.20
   3  -4 -11   71.39    8.00
   3  -4 -11   73.79    7.90
   3  -4 -11   80.59    8.50
   2  -4 -11   17.30    3.70
   2  -4 -11   14.80    4.10
   1  -4 -11  335.87   17.90
   1  -4 -11  304.87   16.30
   0  -4 -11  140.39   10.90
   0  -4 -11  123.89    9.30
  -1  -4 -11  107.49   10.80
  -1  -4 -11  105.19    8.40
  -2  -4 -11   -0.60    1.60
  -2  -4 -11    3.10    2.80
  -3  -4 -11   20.60    3.40
  -3  -4 -11   22.10    4.50
   3   4  11   16.30    3.10
  -4  -4 -11  151.68    8.80
   4   4  11  177.18    8.00
   8  -5 -11   49.50    4.50
   8  -5 -11   46.00    4.70
   7  -5 -11   31.50    4.20
   7  -5 -11   33.70    4.60
   6  -5 -11   13.20    3.40
   6  -5 -11   12.80    3.20
   5  -5 -11   43.40    5.70
   5  -5 -11   39.20    5.30
   4  -5 -11    8.30    3.20
   4  -5 -11    7.40    3.10
   3  -5 -11   36.60    5.50
   3  -5 -11   28.80    5.30
   2  -5 -11  200.48   12.70
   2  -5 -11  201.88   12.10
   1  -5 -11   12.70    3.80
   1  -5 -11    7.00    3.20
   0  -5 -11   66.39    7.30
   0  -5 -11   62.49    7.90
  -1  -5 -11   16.30    3.80
  -1  -5 -11   13.80    3.90
  -2  -5 -11   18.90    3.50
  -2  -5 -11   22.10    4.20
  -3  -5 -11   52.79    4.00
  -3  -5 -11   45.70    4.90
   3   5  11   53.79    4.10
   8  -6 -11   46.10    4.50
   8  -6 -11   50.69    3.70
   7  -6 -11   18.70    3.00
   7  -6 -11   15.30    3.10
   6  -6 -11    1.90    1.80
   6  -6 -11    5.10    2.20
   5  -6 -11   15.70    3.50
   5  -6 -11   22.00    4.20
   4  -6 -11    7.70    2.90
   3  -6 -11    0.70    2.10
   3  -6 -11    0.00    1.90
   2  -6 -11   94.09    8.90
   2  -6 -11   95.39    7.70
   1  -6 -11   92.69    8.80
   1  -6 -11   90.59    8.60
   0  -6 -11   11.60    3.30
   0  -6 -11   12.10    3.30
  -1  -6 -11    0.00    1.60
  -1  -6 -11    1.00    1.90
  -2  -6 -11   38.80    4.30
  -2  -6 -11   39.90    4.10
   2   6  11   34.30    3.40
   7  -7 -11    3.50    1.70
   6  -7 -11   36.90    4.40
   6  -7 -11   44.70    5.00
   5  -7 -11  119.69    7.70
   4  -7 -11  102.59    7.30
   3  -7 -11  212.58   11.50
   2  -7 -11   85.49    7.60
   2  -7 -11   98.19    7.20
   1  -7 -11   43.60    5.20
   1  -7 -11   40.00    5.10
   0  -7 -11    7.00    2.40
  -1  -7 -11    0.20    1.10
   2  -8 -11  163.08    8.70
   1  -8 -11   37.90    3.90
  -2  -9  12   24.90    3.00
  -1  -9  12  115.19    6.80
   0  -9  12    8.90    2.40
  -3   9 -12    8.90    2.50
   3  -9  12    6.80    2.30
  -4   9 -12   10.00    2.50
   4  -9  12    7.60    2.10
  -5   9 -12    1.30    1.20
   5  -9  12    3.20    1.50
   3   8 -12   17.40    2.70
  -3  -8  12   21.90    3.00
   2   8 -12   15.40    2.90
  -2  -8  12   16.60    3.20
  -1  -8  12   10.60    2.70
   0  -8  12   14.20    3.20
  -2   8 -12  359.76   17.30
  -3   8 -12   54.09    6.20
   3  -8  12   66.49    6.60
  -4   8 -12    1.50    1.80
   4  -8  12    1.20    1.70
  -5   8 -12  100.79    7.00
   5  -8  12   92.69    6.40
   4   7 -12  109.59    6.50
  -4  -7  12  121.39    7.00
   3   7 -12    2.00    1.70
  -3  -7  12    2.80    2.00
  -2  -7  12   48.40    6.00
  -1  -7  12  142.59    9.40
   0  -7  12  350.66   16.80
  -1   7 -12    3.20    2.20
  -2   7 -12    7.40    3.00
  -3   7 -12   13.80    3.40
   3  -7  12   27.40    4.70
  -4   7 -12    6.10    2.60
   4  -7  12    5.20    2.40
  -5   7 -12   80.39    6.60
   5  -7  12   81.69    6.40
  -6   7 -12   67.89    5.10
   6  -7  12   77.89    5.30
   5   6 -12   35.70    3.90
  -5  -6  12   38.40    3.90
   4   6 -12    0.60    1.60
  -4  -6  12    0.00    1.50
   3   6 -12  116.79    8.50
  -3  -6  12  143.59    9.40
  -2  -6  12   98.79    8.00
  -1  -6  12   54.29    6.80
   0   6 -12    2.90    2.40
   0  -6  12    0.40    2.00
  -1   6 -12  456.85   22.10
  -2   6 -12   61.69    7.30
  -3   6 -12  142.89   10.40
   3  -6  12  144.99    9.70
  -4   6 -12  113.59    8.80
   4  -6  12   95.39    7.70
  -5   6 -12   -0.50    1.80
   5  -6  12   -0.90    1.40
  -6   6 -12   58.99    4.90
   6  -6  12   60.29    4.90
   6   5 -12    2.20    1.50
   5   5 -12  303.17   13.80
  -5  -5  12  272.17   13.30
   4   5 -12   31.40    4.90
  -4  -5  12   31.30    4.90
  -3  -5  12   14.90    4.00
  -2  -5  12   92.99    8.70
   1   5 -12   34.60    5.50
  -1  -5  12   49.80    6.60
   0   5 -12   32.10    5.40
   0  -5  12   46.20    6.00
  -1   5 -12   51.89    7.20
   1  -5  12   45.80    5.50
  -2   5 -12    8.10    3.10
  -3   5 -12    7.00    3.00
   3  -5  12    6.40    2.70
  -4   5 -12   51.29    6.60
   4  -5  12   62.59    6.70
  -5   5 -12   21.60    4.20
   5  -5  12   21.90    4.10
   6  -5  12   61.39    5.10
   6   4 -12   50.19    5.20
   5   4 -12    2.50    1.90
  -5  -4  12    0.70    1.80
  -4  -4  12   21.60    4.30
  -3  -4  12   42.80    6.20
   2   4 -12    0.50    2.20
  -2  -4  12    1.90    2.00
   1   4 -12   -2.00    1.70
  -1  -4  12    2.60    2.00
   0   4 -12   80.69    8.50
   0  -4  12   94.29    7.30
  -1   4 -12    7.90    2.90
   1  -4  12   10.80    3.10
  -2   4 -12  861.91   35.90
  -3   4 -12   45.50    6.80
   3  -4  12   58.89    6.90
  -4   4 -12   30.90    5.60
   4  -4  12   29.20    4.90
  -5   4 -12   59.59    6.60
   5  -4  12   67.69    6.90
   6  -4  12    5.60    1.90
   7   3 -12    5.50    2.00
   6   3 -12  229.88   12.10
  -5  -3  12   20.40    3.90
  -4  -3  12  245.58   13.60
   3   3 -12   88.49    8.70
  -3  -3  12   81.39    7.80
   2   3 -12   73.79    8.10
  -2  -3  12   60.19    6.50
   1   3 -12   50.09    6.80
   0   3 -12   65.59    7.00
   0   3 -12   71.19    8.50
  -1   3 -12   35.60    5.30
  -1   3 -12   29.10    5.60
  -2   3 -12    1.80    2.40
  -3   3 -12   17.00    4.50
   3  -3  12   18.70    4.00
  -4   3 -12  100.79    8.30
   4  -3  12  103.49    8.10
   5  -3  12   22.30    4.00
   6  -3  12    1.20    1.30
   7   2 -12   65.09    5.30
   6   2 -12  151.58   11.10
  -5  -2  12    6.80    2.70
   4   2 -12  190.98   12.20
  -4  -2  12  203.78   11.60
   3   2 -12  164.58   11.30
  -3  -2  12  164.68   10.40
   2   2 -12  324.97   17.40
   1   2 -12    5.00    2.50
   1   2 -12    7.70    2.90
   0   2 -12  265.27   15.40
   0   2 -12  278.77   14.20
   0  -2  12  260.47   17.80
  -1   2 -12 1927.71   68.39
  -1   2 -12 1945.01   70.59
  -2   2 -12   97.49    9.70
  -3   2 -12   35.10    5.90
   3  -2  12   39.60    5.50
   4  -2  12   13.30    3.40
   5  -2  12   41.20    5.10
   6  -2  12    6.80    1.90
   7   1 -12  121.29    8.60
   6   1 -12  201.68   10.50
   5   1 -12  273.47   13.80
   5   1 -12  273.97   14.80
   4   1 -12   23.00    4.90
  -4  -1  12   20.20    4.00
   3   1 -12  197.18   12.60
   2   1 -12    1.40    2.00
   2   1 -12    4.00    2.70
   1   1 -12    1.10    1.80
   1   1 -12    1.80    2.50
  -1  -1  12    0.00    5.50
   0   1 -12  187.38   12.20
   0   1 -12  177.68   11.00
   0  -1  12  187.88   13.80
  -1   1 -12   91.09    9.30
  -1   1 -12   66.09    6.90
  -2   1 -12   64.39    6.80
  -3   1 -12  287.97   15.40
   3  -1  12  249.38   14.00
  -4   1 -12    2.60    2.40
   4  -1  12    3.20    2.20
  -5   1 -12   37.80    4.90
   5  -1  12   20.40    3.40
   6  -1  12  107.89    6.30
  -8   0  12   42.50    4.00
   7   0 -12  287.07   13.30
   6   0 -12    1.50    2.00
   6   0 -12    2.00    1.70
   5   0 -12  102.39    8.40
   5   0 -12   88.79    7.10
   4   0 -12   41.70    5.50
   4   0 -12   47.20    7.00
   3   0 -12    1.60    1.90
   3   0 -12    4.20    2.50
   3   0 -12    3.60    2.30
   2   0 -12  157.18   12.10
   2   0 -12  188.48   11.10
   2   0 -12  176.88   12.00
  -2   0  12  189.28   11.60
  -2   0  12  193.08   14.80
   1   0 -12  150.48   14.70
   1   0 -12  166.38   11.50
   1   0 -12  173.48   10.50
   0   0 -12  388.56   18.10
   0   0 -12  383.56   18.80
   0   0 -12  355.86   19.00
  -1   0 -12    3.40    2.70
  -1   0 -12    2.10    2.10
  -2   0 -12   91.59    7.40
  -2   0 -12   81.89    8.40
  -3   0 -12    3.60    2.50
   3   0  12   -0.40    1.40
  -4   0 -12  234.28   13.30
   4   0  12  229.18   12.80
  -5   0 -12   72.69    6.80
   5   0  12   73.19    5.80
   7  -1 -12  119.79    7.90
   7  -1 -12  129.99    8.00
   6  -1 -12   73.49    7.60
   6  -1 -12   56.09    6.00
   5  -1 -12   29.60    4.90
   5  -1 -12   20.20    4.20
   4  -1 -12  320.77   15.90
   4  -1 -12  324.37   17.10
   4  -1 -12  278.97   14.80
   3  -1 -12    3.50    2.50
   3  -1 -12   10.60    3.70
   3  -1 -12    5.20    2.70
   2  -1 -12   15.50    4.00
   2  -1 -12   14.10    3.50
   2  -1 -12   16.70    4.40
   1  -1 -12  194.38   12.30
   1  -1 -12  204.98   12.80
   1  -1 -12  185.88   11.40
   0  -1 -12   14.90    4.20
   0  -1 -12   26.20    4.60
  -1  -1 -12   69.59    7.60
  -1  -1 -12   59.39    7.40
  -2  -1 -12   99.59    7.80
  -2  -1 -12   93.79    9.30
  -3  -1 -12   37.00    5.70
   3   1  12   35.60    5.10
  -4  -1 -12  151.38    9.80
   4   1  12  126.99    8.40
  -5  -1 -12  104.69    7.10
   5   1  12  113.79    6.70
   8  -2 -12  118.09    6.80
   8  -2 -12  105.59    6.40
   7  -2 -12    8.00    2.50
   7  -2 -12    5.90    2.30
   6  -2 -12    3.90    2.40
   6  -2 -12    2.10    2.10
   5  -2 -12    2.30    1.90
   5  -2 -12   10.80    3.30
   4  -2 -12   28.80    5.00
   4  -2 -12   31.90    5.90
   3  -2 -12 1695.83   61.99
   3  -2 -12 1817.52   63.49
   3  -2 -12 1695.33   63.89
   2  -2 -12  124.59    9.50
   2  -2 -12  127.69    9.80
   2  -2 -12  123.49    8.90
   1  -2 -12   41.50    6.00
   1  -2 -12   34.20    5.00
   0  -2 -12   74.69    8.60
   0  -2 -12   72.09    7.90
  -1  -2 -12    3.30    2.80
  -1  -2 -12    2.40    2.20
  -2  -2 -12    7.70    2.90
  -2  -2 -12    2.60    2.90
   2   2  12    6.70    3.30
  -3  -2 -12  160.78   11.20
  -3  -2 -12  167.18    9.90
   3   2  12  167.58    9.90
  -4  -2 -12  133.29    9.20
   4   2  12  138.89    8.00
   8  -3 -12   13.00    2.60
   8  -3 -12   12.90    2.50
   7  -3 -12   13.70    3.00
   7  -3 -12   11.80    2.90
   6  -3 -12   41.40    6.00
   6  -3 -12   46.40    6.00
   5  -3 -12  120.99    9.00
   5  -3 -12  118.19    9.30
   4  -3 -12    0.60    2.10
   4  -3 -12    2.70    2.30
   3  -3 -12   36.70    5.60
   3  -3 -12   32.30    5.00
   3  -3 -12   32.90    5.80
   2  -3 -12   22.70    4.40
   2  -3 -12   29.50    5.10
   1  -3 -12    3.30    2.30
   1  -3 -12    3.90    2.70
   0  -3 -12  104.69    8.30
   0  -3 -12   92.89    9.40
  -1  -3 -12   63.99    8.20
  -1  -3 -12   61.79    7.40
  -2  -3 -12   96.99    9.90
  -2  -3 -12   72.99    7.40
   2   3  12   80.29    6.50
  -3  -3 -12   67.49    7.60
  -3  -3 -12   61.89    5.80
   3   3  12   63.19    5.30
  -4  -3 -12   75.29    5.90
   4   3  12   85.29    5.30
   8  -4 -12   61.89    4.60
   8  -4 -12   48.80    4.40
   7  -4 -12    0.50    1.40
   7  -4 -12   -1.50    1.20
   6  -4 -12   10.10    3.10
   6  -4 -12    8.80    2.80
   5  -4 -12   28.50    5.20
   5  -4 -12   40.20    5.80
   4  -4 -12  772.42   32.60
   4  -4 -12  815.62   32.80
   3  -4 -12    0.70    2.10
   3  -4 -12    0.30    2.20
   3  -4 -12    4.60    2.50
   2  -4 -12    5.50    3.00
   2  -4 -12    7.10    2.70
   1  -4 -12    5.70    2.50
   1  -4 -12    2.20    2.50
   0  -4 -12   25.70    5.40
   0  -4 -12   21.10    4.50
  -1  -4 -12   53.89    7.10
  -1  -4 -12   61.39    6.80
  -2  -4 -12   12.90    3.60
  -2  -4 -12   16.80    3.20
   2   4  12   14.90    2.90
  -3  -4 -12   58.69    4.40
  -3  -4 -12   57.29    6.20
   3   4  12   51.89    4.20
   8  -5 -12   55.09    4.00
   8  -5 -12   58.09    4.50
   7  -5 -12   67.49    6.60
   7  -5 -12   75.69    5.80
   6  -5 -12   11.00    2.90
   6  -5 -12    9.70    2.80
   5  -5 -12   46.10    5.90
   5  -5 -12   41.50    5.30
   4  -5 -12    1.70    2.30
   4  -5 -12    2.10    2.20
   3  -5 -12   70.39    7.20
   3  -5 -12   76.79    8.10
   2  -5 -12   -0.10    2.10
   2  -5 -12    0.40    1.80
   1  -5 -12  141.19   10.30
   1  -5 -12  149.69   10.00
   0  -5 -12   41.50    5.80
   0  -5 -12   21.10    4.40
  -1  -5 -12   26.50    4.20
  -1  -5 -12   23.10    4.40
  -2  -5 -12    8.50    2.20
  -2  -5 -12    7.00    2.60
   8  -6 -12    8.30    1.90
   7  -6 -12   73.19    5.50
   7  -6 -12   74.89    5.10
   6  -6 -12   39.60    4.70
   6  -6 -12   45.80    5.40
   5  -6 -12  162.48    9.60
   5  -6 -12  139.69    8.90
   4  -6 -12   31.90    4.90
   3  -6 -12   71.49    7.10
   3  -6 -12   74.09    7.00
   2  -6 -12   14.00    3.40
   2  -6 -12   18.00    4.10
   1  -6 -12    1.80    2.30
   1  -6 -12    3.80    2.00
   0  -6 -12   77.49    7.30
   0  -6 -12   67.39    6.70
  -1  -6 -12    5.10    2.20
  -1  -6 -12    2.60    1.70
   7  -7 -12    3.20    1.50
   6  -7 -12   60.49    4.50
   5  -7 -12   28.70    3.70
   4  -7 -12   17.80    3.20
   3  -7 -12   59.59    5.70
   2  -7 -12  197.18   10.60
   2  -7 -12  212.18   10.80
   1  -7 -12   67.59    6.10
   1  -7 -12   50.19    5.10
   0  -7 -12    2.00    1.50
   2  -8 -12   85.99    8.60
  -1  -9  13   82.89    5.80
  -3   9 -13  203.68    9.80
  -4   9 -13   21.20    3.00
  -2  -8  13   31.50    3.90
  -1  -8  13   19.40    3.20
   0  -8  13   57.49    5.60
  -2   8 -13   15.50    3.60
  -3   8 -13   15.60    3.40
  -4   8 -13    4.40    2.00
   4  -8  13    3.40    1.70
  -5   8 -13    2.50    1.40
   5  -8  13    1.90    1.60
  -4  -7  13   86.79    5.40
  -3  -7  13    2.80    1.60
  -2  -7  13  127.69    8.50
  -1  -7  13   41.00    5.00
   0  -7  13    9.60    2.90
  -1   7 -13    6.10    2.80
  -2   7 -13  233.78   13.60
  -3   7 -13  101.69    8.00
  -4   7 -13   60.09    6.50
   4  -7  13   55.69    5.60
  -5   7 -13   17.00    3.00
   5  -7  13   18.80    3.10
  -4  -6  13   16.40    3.00
  -3  -6  13   33.80    4.80
  -2  -6  13   95.59    7.60
  -1  -6  13  206.48   12.10
   0   6 -13  113.09    8.90
   0  -6  13  115.29    8.40
  -1   6 -13   81.99    9.10
  -2   6 -13    8.30    3.10
  -3   6 -13   15.20    4.00
   3  -6  13   16.10    4.60
  -4   6 -13   10.30    3.20
   4  -6  13    7.40    2.40
  -5   6 -13  113.29    7.60
   5  -6  13  106.49    7.00
  -5  -5  13  230.18   11.00
  -4  -5  13    6.50    2.50
  -3  -5  13   50.99    6.70
  -2  -5  13   95.29    9.20
   1   5 -13   14.50    4.00
  -1  -5  13    7.50    2.80
   0   5 -13  138.79   10.60
   0  -5  13  147.89    9.50
  -1   5 -13   87.79    9.00
   1  -5  13   94.09    7.10
  -2   5 -13  274.17   15.90
  -3   5 -13   25.10    5.10
   3  -5  13   14.30    3.30
  -4   5 -13    7.70    2.90
   4  -5  13   11.60    3.00
  -5   5 -13   35.30    4.80
   5  -5  13   25.50    3.90
   6  -5  13    2.80    1.40
  -5  -4  13    0.80    1.60
  -4  -4  13    0.00    1.90
  -3  -4  13  188.18   11.60
   2   4 -13   82.69    8.90
  -2  -4  13  107.29    9.50
   1   4 -13    3.00    2.50
  -1  -4  13    0.40    1.80
   0   4 -13   11.90    3.70
   0  -4  13    9.60    2.70
  -1   4 -13   26.90    5.10
   1  -4  13   36.00    5.00
  -2   4 -13   -1.70    2.00
  -3   4 -13   43.20    6.50
   3  -4  13   44.30    5.80
  -4   4 -13   62.39    7.10
   4  -4  13   79.39    7.60
   5  -4  13   65.79    5.50
   6  -4  13    0.60    1.30
  -5  -3  13    2.40    2.10
  -4  -3  13   32.10    5.20
   3   3 -13   66.69    7.80
  -3  -3  13   75.79    7.80
   2   3 -13   12.30    4.10
  -2  -3  13   15.10    3.60
   1   3 -13  230.18   14.60
  -1  -3  13  255.57   13.40
   0   3 -13   50.89    6.90
  -1   3 -13  187.08   11.20
  -1   3 -13  184.08   12.70
  -2   3 -13   19.00    4.80
  -3   3 -13    0.20    2.20
   3  -3  13    4.10    2.30
   4  -3  13   25.90    4.10
   5  -3  13   -0.10    1.30
   6  -3  13   25.10    3.00
  -5  -2  13    5.20    2.30
   4   2 -13  326.77   16.90
  -4  -2  13  301.57   15.50
   3   2 -13  183.28   12.30
  -3  -2  13  179.98   11.00
   2   2 -13  236.28   14.60
   1   2 -13  145.79   11.30
   1   2 -13  187.58   11.10
   0   2 -13  116.19    8.70
   0   2 -13  134.49   10.30
  -1   2 -13  119.99    8.70
  -1   2 -13  129.39   10.30
  -2   2 -13   17.00    4.40
   3  -2  13  143.59    9.40
   4  -2  13   23.10    4.00
   5  -2  13   15.40    3.00
   5   1 -13  102.09    9.50
   4   1 -13   17.20    4.50
  -4  -1  13   20.00    4.00
   3   1 -13   87.19    9.10
   2   1 -13   67.09    8.00
   2   1 -13   68.29    7.50
   1   1 -13  300.07   15.60
   1   1 -13  314.77   17.40
   0   1 -13  210.18   12.40
   0   1 -13  207.98   13.60
  -1   1 -13   26.30    4.40
  -1   1 -13   40.30    6.40
  -2   1 -13   19.60    4.00
   3  -1  13   49.60    6.00
   4  -1  13   40.80    5.10
   5  -1  13   53.79    4.60
   7   0 -13   33.60    3.90
   6   0 -13   22.70    3.50
   6   0 -13   21.80    3.80
   5   0 -13  139.59    9.00
   5   0 -13  157.48   10.70
   4   0 -13  150.28   10.90
   4   0 -13  135.19    9.20
  -4   0  13  143.19    9.20
   3   0 -13  218.48   14.10
   3   0 -13  239.18   13.00
   3   0 -13  237.88   13.10
   2   0 -13    3.30    2.40
   2   0 -13    3.50    2.50
   2   0 -13    3.00    2.30
   1   0 -13  783.42   32.10
   1   0 -13  817.82   32.40
   1   0 -13  775.02   33.70
   0   0 -13   61.99    6.90
   0   0 -13  103.39   10.40
   0   0 -13   86.99    8.80
  -1   0 -13   43.20    6.00
  -1   0 -13   37.50    5.80
  -2   0 -13  185.28   11.00
  -2   0 -13  185.88   12.10
  -3   0 -13   19.80    4.20
   3   0  13   23.30    4.10
  -4   0 -13   57.59    6.40
   4   0  13   65.19    6.30
  -5   0 -13    2.70    1.80
   5   0  13    2.40    1.40
   7  -1 -13   20.20    3.20
   7  -1 -13   17.30    3.10
   6  -1 -13  115.59    8.70
   6  -1 -13  124.69    8.30
   5  -1 -13   15.10    3.70
   5  -1 -13    5.50    2.70
   4  -1 -13  130.39   10.10
   4  -1 -13  133.79    9.30
   4  -1 -13  115.79    8.50
   3  -1 -13    4.10    2.30
   3  -1 -13    9.10    3.20
   3  -1 -13    1.90    2.60
   2  -1 -13  348.87   17.50
   2  -1 -13  346.77   18.70
   2  -1 -13  372.76   18.20
   1  -1 -13   47.90    6.50
   1  -1 -13   41.40    5.70
   1  -1 -13   55.79    7.50
   0  -1 -13   82.89    8.30
   0  -1 -13  100.49   10.00
  -1  -1 -13    1.30    1.90
  -1  -1 -13    1.30    2.40
  -2  -1 -13   13.90    3.30
  -2  -1 -13   10.60    3.80
  -3  -1 -13   95.09    9.30
   3   1  13   97.79    7.10
  -4  -1 -13   25.30    3.90
   4   1  13   26.50    3.60
   8  -2 -13   35.80    3.50
   8  -2 -13   33.60    3.50
   7  -2 -13  133.79    8.10
   7  -2 -13  125.79    8.10
   6  -2 -13   46.40    5.50
   6  -2 -13   46.60    6.40
   5  -2 -13  179.58   11.00
   5  -2 -13  165.68   11.40
   4  -2 -13  178.88   11.30
   4  -2 -13  155.58   10.10
   4  -2 -13  186.68   12.20
   3  -2 -13    7.50    3.30
   3  -2 -13    1.20    2.00
   3  -2 -13    4.70    2.50
   2  -2 -13  161.08   11.10
   2  -2 -13  148.29   10.10
   2  -2 -13  157.78   11.20
   1  -2 -13  169.38   11.10
   1  -2 -13  179.28   12.00
   0  -2 -13  146.29   10.20
   0  -2 -13  145.69   10.90
  -1  -2 -13  180.88   12.30
  -1  -2 -13  171.78   11.00
  -2  -2 -13   21.60    4.00
  -2  -2 -13   19.50    4.30
  -3  -2 -13   34.60    5.20
   3   2  13   31.00    4.10
  -4  -2 -13   39.10    4.60
   4   2  13   33.90    3.50
   8  -3 -13  106.09    6.00
   8  -3 -13  110.09    6.30
   7  -3 -13  150.18    9.00
   7  -3 -13  146.29    8.60
   6  -3 -13    4.00    2.40
   6  -3 -13    3.00    2.20
   5  -3 -13   33.10    5.10
   5  -3 -13   40.70    6.10
   4  -3 -13   40.50    5.90
   4  -3 -13   52.79    7.10
   3  -3 -13  148.89    9.90
   3  -3 -13  146.09   10.60
   3  -3 -13  154.18   10.70
   2  -3 -13   69.29    7.80
   2  -3 -13   77.59    8.00
   1  -3 -13  272.37   15.60
   1  -3 -13  264.57   14.70
   0  -3 -13   36.20    5.30
   0  -3 -13   35.50    5.80
  -1  -3 -13   30.90    5.60
  -1  -3 -13   28.30    4.70
  -2  -3 -13   76.79    6.20
  -2  -3 -13   74.19    7.60
  -3  -3 -13    3.50    1.90
   3   3  13    2.90    1.40
   8  -4 -13  200.18    9.50
   8  -4 -13  209.48    9.30
   7  -4 -13   31.70    4.00
   7  -4 -13   31.30    4.20
   6  -4 -13  110.89    7.60
   6  -4 -13  107.09    8.00
   5  -4 -13   -1.00    1.50
   5  -4 -13   -1.80    1.70
   4  -4 -13    3.90    2.40
   4  -4 -13    0.80    1.90
   3  -4 -13   32.20    5.60
   3  -4 -13   23.70    4.20
   2  -4 -13   25.70    5.00
   2  -4 -13   33.50    5.40
   1  -4 -13   43.70    6.60
   1  -4 -13   42.10    6.00
   0  -4 -13   15.10    3.90
   0  -4 -13   18.60    3.80
  -1  -4 -13   23.00    4.00
  -1  -4 -13   24.00    4.60
  -2  -4 -13    4.20    2.20
  -2  -4 -13    3.60    1.80
   7  -5 -13    2.40    1.50
   7  -5 -13    5.90    1.90
   6  -5 -13   37.20    4.50
   6  -5 -13   42.60    5.30
   5  -5 -13  214.88   12.10
   5  -5 -13  240.28   12.50
   4  -5 -13   39.70    5.60
   4  -5 -13   37.90    5.80
   3  -5 -13   60.09    7.30
   3  -5 -13   59.39    6.40
   2  -5 -13   25.40    4.30
   2  -5 -13   20.50    4.40
   1  -5 -13   15.80    3.70
   1  -5 -13   22.50    4.20
   0  -5 -13   54.79    6.60
   0  -5 -13   53.29    5.90
  -1  -5 -13    3.60    2.10
  -1  -5 -13    5.40    2.00
  -2  -5 -13    1.20    1.20
  -2  -5 -13   -1.50    1.10
   7  -6 -13   23.60    2.80
   7  -6 -13   24.00    3.10
   6  -6 -13   -0.20    1.10
   6  -6 -13   -0.90    1.30
   5  -6 -13   25.90    3.70
   4  -6 -13    6.00    2.30
   3  -6 -13   94.09    7.00
   3  -6 -13  108.39    7.20
   2  -6 -13   20.80    3.70
   2  -6 -13   23.50    3.80
   1  -6 -13    6.20    2.30
   1  -6 -13    6.60    2.30
   0  -6 -13   34.70    4.40
   0  -6 -13   40.70    4.50
   6  -7 -13  118.39    8.00
   5  -7 -13   58.79    4.40
   4  -7 -13   97.19    6.20
   3  -7 -13    5.60    2.20
   2  -7 -13   49.60    4.80
   2  -7 -13   53.89    4.80
   1  -7 -13   11.50    2.20
  -2  -8  14   30.90    3.70
  -1  -8  14   57.19    5.10
   0  -8  14    7.50    2.20
  -2   8 -14    0.80    1.50
  -3   8 -14   63.29    5.20
  -4   8 -14   97.79    6.10
  -3  -7  14    0.50    1.20
  -2  -7  14  101.69    7.00
  -1  -7  14   71.59    5.70
   0   7 -14   -1.50    1.60
   0  -7  14   -0.20    1.60
  -1   7 -14   60.09    6.20
  -2   7 -14   55.99    6.20
  -3   7 -14   53.29    6.00
  -4   7 -14    2.40    1.60
  -4  -6  14   45.50    4.40
  -3  -6  14   30.80    4.40
  -2  -6  14  139.39    9.10
   1   6 -14   17.60    3.70
  -1  -6  14   17.80    3.50
   0   6 -14   52.99    6.50
   0  -6  14   51.59    5.70
  -1   6 -14   98.09    9.50
  -2   6 -14   44.50    6.30
  -3   6 -14  163.98   10.70
  -4   6 -14   29.60    4.40
   4  -6  14   22.60    3.40
  -5   6 -14   21.90    3.10
   5  -6  14   21.80    2.90
  -5  -5  14  104.29    6.00
  -4  -5  14   16.60    3.20
  -3  -5  14  162.18   10.10
   2   5 -14  334.37   17.00
  -2  -5  14  369.66   17.30
   1   5 -14    6.80    2.90
  -1  -5  14   15.20    3.60
   0   5 -14  136.69   10.20
   0  -5  14  128.09    8.80
  -1   5 -14    2.50    2.40
   1  -5  14    2.20    2.10
  -2   5 -14   60.99    7.70
  -3   5 -14   65.09    7.80
  -4   5 -14   -0.80    1.60
   4  -5  14    0.80    1.70
  -5   5 -14   51.19    4.30
   5  -5  14   52.19    4.20
  -5  -4  14   36.40    4.20
  -4  -4  14   96.69    7.20
   3   4 -14  105.29    8.10
  -3  -4  14  106.19    8.20
   2   4 -14   -0.80    1.70
  -2  -4  14   -0.10    1.70
   1   4 -14   57.09    7.30
  -1  -4  14   78.29    7.80
   0   4 -14  260.57   15.00
   0  -4  14  220.78   12.60
  -1   4 -14   43.20    6.40
   1  -4  14   45.30    5.60
  -2   4 -14   68.99    8.50
  -3   4 -14   47.10    6.60
  -4   4 -14    6.80    2.90
   4  -4  14    4.50    2.20
   5  -4  14   26.90    3.30
  -5  -3  14   26.90    3.90
   4   3 -14   70.79    7.20
  -4  -3  14   63.49    7.00
   3   3 -14  314.47   16.90
  -3  -3  14  324.47   16.10
   2   3 -14   99.29   10.40
  -2  -3  14   74.19    7.60
   1   3 -14   57.79    7.30
  -1  -3  14   69.29    7.30
   0   3 -14  114.59   11.20
  -1   3 -14  308.77   17.30
  -2   3 -14   42.30    6.30
  -3   3 -14   70.99    7.90
   4  -3  14  105.59    7.10
   5  -3  14   13.50    2.40
   5   2 -14  142.59    9.10
  -5  -2  14  149.09    9.00
   4   2 -14    2.90    2.20
  -4  -2  14   -0.30    1.50
   3   2 -14    0.30    2.20
  -3  -2  14    0.30    1.70
   2   2 -14  132.79   10.50
   1   2 -14  241.58   14.60
   1   2 -14  202.28   12.50
   0   2 -14  450.45   20.80
   0   2 -14  456.05   22.70
  -1   2 -14  193.48   12.90
  -1   2 -14  199.58   11.60
  -2   2 -14    2.60    2.60
   4  -2  14   40.80    4.70
   5  -2  14    0.90    1.20
   6   1 -14   41.70    6.20
   5   1 -14    0.50    1.80
  -5  -1  14    1.20    1.80
   4   1 -14   66.19    8.00
  -4  -1  14   73.19    7.40
   3   1 -14  190.68   12.80
   2   1 -14    3.30    2.60
   2   1 -14    3.20    2.20
   1   1 -14   23.80    4.60
   1   1 -14   27.50    5.60
   0   1 -14   93.29    9.80
   0   1 -14  100.89    8.10
  -1   1 -14   32.70    4.90
  -1   1 -14   49.90    7.30
  -2   1 -14    2.90    2.10
   4  -1  14   38.80    4.40
   7   0 -14   17.20    2.50
   6   0 -14  120.09    8.00
   6   0 -14  115.49    7.20
   5   0 -14   20.80    4.20
   5   0 -14   27.50    4.00
   4   0 -14   27.50    5.40
   4   0 -14   22.20    4.10
  -4   0  14   20.50    3.70
   3   0 -14   67.39    6.90
   3   0 -14   51.99    6.90
   3   0 -14   65.69    7.30
   2   0 -14    7.30    3.20
   2   0 -14   10.00    3.40
   2   0 -14   10.50    3.50
   1   0 -14  415.36   20.60
   1   0 -14  365.76   18.50
   1   0 -14  375.56   18.50
   0   0 -14  102.69    8.20
   0   0 -14   90.99    9.50
   0   0 -14  110.69    8.60
  -1   0 -14  160.98   10.40
  -1   0 -14  157.58   10.70
  -2   0 -14   -0.30    1.80
  -2   0 -14    0.40    1.90
  -3   0 -14    7.00    2.80
  -4   0 -14   19.80    3.20
   4   0  14   19.10    2.90
   7  -1 -14   20.10    2.90
   7  -1 -14   28.60    3.70
   6  -1 -14    0.20    1.60
   6  -1 -14    0.30    1.50
   5  -1 -14   29.80    5.30
   5  -1 -14   18.10    3.50
   4  -1 -14  318.47   17.00
   4  -1 -14  285.07   15.20
   3  -1 -14   13.60    3.40
   3  -1 -14    8.60    3.30
   3  -1 -14   12.90    3.60
   2  -1 -14   69.99    7.40
   2  -1 -14   74.49    7.90
   2  -1 -14   84.79    9.30
   1  -1 -14   74.49    7.70
   1  -1 -14   95.89    9.10
   1  -1 -14   88.29    9.30
   0  -1 -14    1.10    2.10
   0  -1 -14   -0.70    1.70
  -1  -1 -14   13.20    3.40
  -1  -1 -14   13.50    3.70
  -2  -1 -14    1.30    1.70
  -2  -1 -14    1.00    1.80
  -3  -1 -14   40.10    5.10
  -4  -1 -14    3.60    1.70
   4   1  14    1.40    1.40
   7  -2 -14   40.80    4.80
   7  -2 -14   37.40    4.10
   6  -2 -14    2.60    1.90
   6  -2 -14    1.30    1.80
   5  -2 -14  197.28   11.90
   5  -2 -14  178.28   10.90
   4  -2 -14  255.27   13.40
   4  -2 -14  259.37   14.20
   4  -2 -14  253.57   14.80
   3  -2 -14    8.10    3.10
   3  -2 -14    9.20    3.20
   3  -2 -14    5.50    2.50
   2  -2 -14  516.55   22.80
   2  -2 -14  480.75   23.00
   2  -2 -14  495.85   23.40
   1  -2 -14  218.48   12.70
   1  -2 -14  204.58   13.00
   0  -2 -14    5.40    2.80
   0  -2 -14   10.70    3.30
  -1  -2 -14   37.10    5.70
  -1  -2 -14   31.70    4.80
  -2  -2 -14    2.50    1.90
  -2  -2 -14    0.10    1.90
  -3  -2 -14   29.50    4.30
   7  -3 -14   73.59    5.70
   7  -3 -14   74.59    5.40
   6  -3 -14   89.59    7.10
   6  -3 -14   96.69    6.90
   5  -3 -14  166.48   10.90
   5  -3 -14  178.68   10.70
   4  -3 -14   32.80    5.60
   4  -3 -14   33.20    4.60
   4  -3 -14   29.60    4.70
   3  -3 -14  157.08   10.70
   3  -3 -14  159.68   10.80
   3  -3 -14  151.08   10.00
   2  -3 -14   15.30    3.70
   2  -3 -14   13.40    3.80
   1  -3 -14   54.89    6.70
   1  -3 -14   57.89    7.20
   0  -3 -14  143.99   10.30
   0  -3 -14  137.19    9.50
  -1  -3 -14    6.40    2.90
  -1  -3 -14   16.70    3.60
  -2  -3 -14  186.88    9.40
  -2  -3 -14  178.28   10.60
  -3  -3 -14   15.90    2.80
   7  -4 -14   30.90    3.90
   7  -4 -14   33.60    3.60
   6  -4 -14  113.19    7.30
   6  -4 -14  108.99    7.60
   5  -4 -14  244.78   13.20
   5  -4 -14  253.57   13.10
   4  -4 -14   70.69    7.20
   4  -4 -14   79.19    7.90
   3  -4 -14   53.59    6.80
   3  -4 -14   43.10    5.70
   2  -4 -14   12.90    3.80
   2  -4 -14    9.70    3.10
   1  -4 -14   11.90    3.10
   1  -4 -14   14.30    3.60
   0  -4 -14   36.70    5.20
   0  -4 -14   44.40    5.30
  -1  -4 -14    3.60    1.90
  -1  -4 -14    1.70    1.80
  -2  -4 -14    1.00    1.30
  -2  -4 -14    6.20    1.70
   7  -5 -14   58.59    4.20
   7  -5 -14   62.69    4.60
   6  -5 -14   34.00    3.90
   6  -5 -14   32.90    4.10
   5  -5 -14    8.80    2.40
   5  -5 -14   20.30    3.70
   4  -5 -14   -0.10    2.00
   3  -5 -14   43.70    5.60
   3  -5 -14   42.90    5.10
   2  -5 -14   13.60    3.00
   2  -5 -14   13.60    3.50
   1  -5 -14   22.50    4.20
   1  -5 -14   28.20    4.30
   0  -5 -14   11.00    2.80
   0  -5 -14   13.70    2.80
  -1  -5 -14   35.70    3.70
  -1  -5 -14   33.90    3.80
   6  -6 -14   93.39    5.40
   6  -6 -14   87.29    5.30
   5  -6 -14  135.79    7.60
   4  -6 -14   10.00    2.40
   3  -6 -14    8.40    2.40
   3  -6 -14    8.30    2.40
   2  -6 -14   97.39    6.70
   2  -6 -14  106.49    6.70
   1  -6 -14   44.60    4.50
   1  -6 -14   47.20    4.60
  -2   8 -15   89.19    5.70
  -2  -7  15    5.00    1.70
  -1  -7  15   16.60    2.80
   0   7 -15   28.60    4.00
   0  -7  15   36.70    4.00
  -1   7 -15   25.60    4.00
  -2   7 -15   22.50    3.90
  -3   7 -15   37.70    4.60
  -3  -6  15    1.10    1.40
  -2  -6  15  151.58    8.90
   1   6 -15    7.20    2.40
  -1  -6  15    6.50    2.60
   0   6 -15   48.90    6.10
   0  -6  15   35.80    4.60
  -1   6 -15  118.49    8.60
  -2   6 -15    3.70    2.20
  -3   6 -15   24.00    4.00
  -4   6 -15   11.70    2.50
  -4  -5  15    0.10    1.30
  -3  -5  15   63.59    6.50
   2   5 -15  133.99    8.90
  -2  -5  15  123.59    8.60
   1   5 -15   32.90    5.20
  -1  -5  15   34.70    4.90
   0   5 -15  113.49    9.20
   0  -5  15  128.99    8.30
  -1   5 -15  155.48   10.60
   1  -5  15  143.39    9.60
  -2   5 -15  106.09    8.30
  -3   5 -15    4.70    2.30
  -4   5 -15   19.90    3.30
  -5  -4  15   29.20    3.40
  -4  -4  15   33.20    4.30
   3   4 -15  153.58    9.60
  -3  -4  15  136.99    9.20
   2   4 -15  138.29   10.00
  -2  -4  15  145.79    9.50
   1   4 -15  150.48   11.00
  -1  -4  15  171.28   10.40
   0   4 -15   12.80    3.70
   0  -4  15   21.20    4.10
  -1   4 -15   70.39    7.70
   1  -4  15   58.69    5.90
  -2   4 -15   34.60    5.50
  -3   4 -15   21.50    3.90
  -4   4 -15   25.60    3.70
  -5  -3  15    1.90    1.60
   4   3 -15   49.30    5.70
  -4  -3  15   50.19    5.70
   3   3 -15  150.38   10.30
  -3  -3  15  145.19    9.50
   2   3 -15   11.70    3.40
  -2  -3  15   16.60    3.60
   1   3 -15  231.78   14.60
  -1  -3  15  245.68   13.30
   0   3 -15   65.89    7.80
   0  -3  15   69.39    6.80
  -1   3 -15   95.39    9.50
   1  -3  15  113.49    7.70
  -2   3 -15   60.49    7.10
  -3   3 -15   20.60    4.00
   5   2 -15   56.29    5.60
  -5  -2  15   41.80    4.70
   4   2 -15   47.40    6.10
  -4  -2  15   53.69    6.00
   3   2 -15  240.08   14.30
  -3  -2  15  239.88   13.10
   2   2 -15   88.89    9.80
  -2  -2  15   76.69    7.80
   1   2 -15   34.10    6.30
   0   2 -15  642.94   27.40
   0   2 -15  667.23   29.40
  -1   2 -15   20.10    4.80
  -1   2 -15   15.70    3.40
  -2   2 -15   33.70    5.30
   6   1 -15   13.30    2.70
   5   1 -15   12.50    3.10
  -5  -1  15   16.70    3.20
   4   1 -15   88.19    8.90
  -4  -1  15   81.89    6.60
   3   1 -15   12.70    3.90
  -3  -1  15    6.30    2.50
   2   1 -15  125.19   10.10
   1   1 -15   -0.20    2.00
   1   1 -15   -0.80    2.10
   0   1 -15   57.49    6.50
   0   1 -15   54.09    7.20
  -1   1 -15  255.67   13.20
  -1   1 -15  224.88   13.80
  -2   1 -15   31.90    4.70
   6   0 -15   65.29    4.70
   6   0 -15   66.79    5.50
   5   0 -15   88.49    6.10
   5   0 -15   60.69    6.60
   4   0 -15   58.19    7.20
   4   0 -15   84.69    6.50
  -4   0  15   78.69    6.40
   3   0 -15    0.90    2.10
   3   0 -15    1.30    2.00
   2   0 -15   69.39    7.20
   2   0 -15   62.99    6.90
   2   0 -15   77.19    9.00
   1   0 -15  458.95   20.90
   1   0 -15  466.75   22.70
   1   0 -15  464.35   21.30
   0   0 -15  160.88   10.30
   0   0 -15  160.48   10.50
   0   0 -15  151.98   10.90
  -1   0 -15   15.50    3.60
  -1   0 -15   18.30    3.80
  -2   0 -15   14.90    3.00
  -2   0 -15   11.60    3.10
  -3   0 -15   -0.10    1.60
   7  -1 -15   16.80    2.30
   7  -1 -15   14.60    2.30
   6  -1 -15   33.30    4.00
   6  -1 -15   26.10    4.00
   5  -1 -15   25.20    4.60
   5  -1 -15   19.70    3.50
   4  -1 -15   80.99    7.30
   4  -1 -15   54.99    6.70
   3  -1 -15   62.99    6.90
   3  -1 -15   47.50    6.80
   3  -1 -15   54.49    6.40
   2  -1 -15    5.30    2.70
   2  -1 -15    4.50    2.60
   2  -1 -15    1.30    2.20
   1  -1 -15   46.20    6.70
   1  -1 -15   36.40    5.40
   1  -1 -15   36.00    5.50
   0  -1 -15  117.19    8.70
   0  -1 -15  110.99    8.60
  -1  -1 -15    3.80    2.40
  -1  -1 -15    1.60    2.00
  -2  -1 -15   15.30    3.00
  -2  -1 -15   15.80    3.30
  -3  -1 -15    2.70    1.70
   7  -2 -15   64.49    4.40
   7  -2 -15   63.69    4.70
   6  -2 -15  115.79    7.20
   6  -2 -15  120.99    8.00
   5  -2 -15    0.50    1.70
   5  -2 -15   -0.60    1.70
   4  -2 -15   62.59    7.40
   4  -2 -15   67.69    7.40
   3  -2 -15   26.90    4.90
   3  -2 -15   21.60    4.50
   3  -2 -15   23.10    4.00
   2  -2 -15  228.88   12.60
   2  -2 -15  213.78   12.60
   2  -2 -15  185.78   12.20
   1  -2 -15   62.59    7.10
   1  -2 -15   58.99    6.40
   0  -2 -15  117.59    8.90
   0  -2 -15  125.09    8.70
  -1  -2 -15    0.60    1.60
  -1  -2 -15    0.40    1.60
  -2  -2 -15    0.40    1.70
  -2  -2 -15    0.20    1.30
   7  -3 -15   71.49    4.80
   7  -3 -15   80.69    5.30
   6  -3 -15   13.80    2.90
   6  -3 -15   13.80    2.80
   5  -3 -15  141.29    8.90
   5  -3 -15  153.18    9.60
   4  -3 -15   47.60    5.80
   4  -3 -15   43.60    5.10
   4  -3 -15   70.49    7.40
   3  -3 -15  147.19   10.00
   3  -3 -15  159.28   10.40
   3  -3 -15  156.48    9.70
   2  -3 -15  151.98   10.20
   2  -3 -15  149.19    9.70
   1  -3 -15   74.79    7.70
   1  -3 -15   68.69    6.90
   0  -3 -15   98.89    7.10
   0  -3 -15   76.59    7.30
  -1  -3 -15   23.80    3.80
  -1  -3 -15   30.60    3.90
  -2  -3 -15   29.70    3.20
  -2  -3 -15   32.40    3.90
   7  -4 -15   45.50    3.70
   7  -4 -15   49.40    3.60
   6  -4 -15    3.80    1.60
   6  -4 -15    0.50    1.20
   5  -4 -15  223.28   11.60
   5  -4 -15  222.78   11.60
   4  -4 -15   13.20    3.00
   4  -4 -15   23.40    3.90
   3  -4 -15    2.60    1.80
   3  -4 -15    2.90    2.10
   2  -4 -15  160.58   10.30
   2  -4 -15  188.78   10.40
   1  -4 -15   40.30    4.90
   1  -4 -15   45.60    5.60
   0  -4 -15    8.20    2.50
   0  -4 -15    3.30    1.80
  -1  -4 -15   13.90    2.50
  -1  -4 -15    8.60    2.30
   6  -5 -15   18.30    2.60
   6  -5 -15   23.60    3.10
   5  -5 -15   82.09    5.60
   5  -5 -15   89.09    6.00
   4  -5 -15  100.89    6.90
   3  -5 -15   88.59    6.40
   3  -5 -15   75.39    5.70
   2  -5 -15    3.20    1.70
   2  -5 -15    4.70    2.10
   1  -5 -15    7.90    2.30
   1  -5 -15    9.00    2.30
   0  -5 -15    5.80    1.90
   0  -5 -15    6.20    1.70
   5  -6 -15    3.40    1.30
   4  -6 -15   13.10    2.30
   3  -6 -15   33.50    3.60
   2  -6 -15   24.90    3.10
   2  -6 -15   23.40    2.90
  -1  -7  16    7.30    1.90
   0   7 -16   16.90    2.60
   0  -7  16   14.60    3.70
  -1   7 -16   32.30    4.00
  -2   7 -16   22.40    3.20
  -3  -6  16    2.00    1.20
  -2  -6  16   49.00    4.60
   1   6 -16    1.10    1.60
  -1  -6  16    3.60    1.80
   0   6 -16    6.30    2.30
   0  -6  16    5.60    2.30
  -1   6 -16   94.89    7.00
  -2   6 -16   16.60    3.10
  -3   6 -16    0.50    1.20
  -4  -5  16   23.50    3.00
  -3  -5  16   78.19    5.70
   2   5 -16    6.70    2.40
  -2  -5  16    5.50    2.30
   1   5 -16   36.20    5.00
  -1  -5  16   38.80    4.70
   0   5 -16  125.39    9.00
   0  -5  16  120.59    7.50
  -1   5 -16   30.20    4.80
  -2   5 -16   15.80    3.60
  -3   5 -16   11.90    2.50
  -4  -4  16    6.20    2.00
   3   4 -16   56.39    5.80
  -3  -4  16   60.59    6.00
   2   4 -16   26.60    4.30
  -2  -4  16   34.20    4.90
   1   4 -16   12.00    3.50
  -1  -4  16    9.60    2.70
   0   4 -16   60.79    7.00
   0  -4  16   89.59    6.60
  -1   4 -16  160.08   10.60
   1  -4  16  148.09    8.60
  -2   4 -16   57.89    6.70
  -3   4 -16   46.20    5.20
  -5  -3  16    9.50    2.10
   4   3 -16  145.79    8.30
  -4  -3  16  122.99    7.90
   3   3 -16    3.90    2.30
  -3  -3  16    2.40    1.90
   2   3 -16   20.20    4.20
  -2  -3  16   18.40    3.50
   1   3 -16  207.08   13.00
  -1  -3  16  235.08   12.40
   0   3 -16  129.29    9.60
   0  -3  16  103.99    7.60
  -1   3 -16   84.69    8.60
   1  -3  16   72.99    5.80
  -2   3 -16    3.60    2.40
   5   2 -16   53.79    4.50
  -5  -2  16   55.09    5.00
   4   2 -16    5.70    2.40
  -4  -2  16    7.00    2.40
   3   2 -16   23.30    4.60
  -3  -2  16   26.30    4.20
   2   2 -16  300.37   15.90
  -2  -2  16  267.97   14.30
   1   2 -16    1.50    2.20
  -1  -2  16    3.50    2.20
   0   2 -16  156.88   11.00
  -1   2 -16   26.60    5.00
  -2   2 -16  118.19    8.20
   6   1 -16   30.50    3.70
   5   1 -16   48.30    5.30
  -5  -1  16   43.70    4.50
   4   1 -16    5.10    2.60
  -4  -1  16    4.30    2.20
   3   1 -16   25.60    4.80
  -3  -1  16   31.40    4.70
   2   1 -16   73.79    8.40
   1   1 -16  115.99    8.50
   1   1 -16  108.29    9.10
   0   1 -16  274.67   15.20
   0   1 -16  269.77   13.90
  -1   1 -16    4.60    2.60
  -1   1 -16    5.00    2.20
   6   0 -16    4.10    1.70
   5   0 -16   -0.30    1.20
   4   0 -16   43.60    4.90
   4   0 -16   40.70    5.50
  -4   0  16   53.19    5.70
   3   0 -16  609.44   24.40
   3   0 -16  602.44   26.50
   2   0 -16   34.40    5.20
   2   0 -16   29.00    4.30
   2   0 -16   41.10    6.40
   1   0 -16   94.69    7.50
   1   0 -16   94.39    7.20
   1   0 -16  101.99    9.70
   0   0 -16    8.00    2.70
   0   0 -16    5.50    2.50
   0   0 -16    7.70    2.70
  -1   0 -16  104.19    7.40
  -1   0 -16  113.49    7.50
   6  -1 -16   -0.50    1.20
   6  -1 -16   -1.20    1.10
   5  -1 -16   45.60    5.50
   5  -1 -16   39.10    4.30
   4  -1 -16  109.89    7.30
   4  -1 -16  108.09    8.20
  -4   1  16   93.59    6.70
   3  -1 -16    2.90    2.10
   3  -1 -16    7.60    2.70
   3  -1 -16    2.40    2.30
   2  -1 -16   61.19    7.20
   2  -1 -16   60.49    6.30
   2  -1 -16   53.29    6.00
   1  -1 -16  317.97   16.50
   1  -1 -16  331.67   16.10
   1  -1 -16  353.06   16.50
   0  -1 -16    2.50    2.00
   0  -1 -16   -0.10    1.60
  -1  -1 -16    2.20    1.80
  -1  -1 -16    2.10    1.80
  -2  -1 -16   39.00    4.10
  -2  -1 -16   38.50    3.80
   6  -2 -16   17.30    2.90
   6  -2 -16   20.20    2.80
   5  -2 -16   57.29    6.00
   5  -2 -16   75.09    5.50
   4  -2 -16  222.08   11.60
   4  -2 -16  211.58   12.10
   3  -2 -16    3.50    2.00
   3  -2 -16    1.50    1.90
   3  -2 -16    2.00    2.10
   2  -2 -16  111.19    8.00
   2  -2 -16  118.59    8.30
   2  -2 -16  125.19    8.60
   1  -2 -16    4.60    2.30
   1  -2 -16    3.50    2.10
   0  -2 -16  120.49    8.00
   0  -2 -16  133.69    8.60
  -1  -2 -16   49.99    4.80
  -1  -2 -16   57.99    5.50
  -2  -2 -16   55.19    4.20
   6  -3 -16   36.70    4.00
   6  -3 -16   39.40    3.70
   5  -3 -16  115.19    7.40
   5  -3 -16  109.59    7.00
   4  -3 -16    2.70    1.90
   4  -3 -16    4.30    2.40
   3  -3 -16   10.30    2.90
   3  -3 -16    8.40    2.40
   3  -3 -16   11.00    2.90
   2  -3 -16  125.29    8.00
   2  -3 -16  119.69    8.20
   1  -3 -16   72.09    6.90
   1  -3 -16   69.29    6.40
   0  -3 -16   83.59    5.90
   0  -3 -16   72.29    6.40
  -1  -3 -16   42.90    4.00
  -1  -3 -16   44.80    4.30
   6  -4 -16   36.00    3.60
   6  -4 -16   25.10    2.70
   5  -4 -16    8.90    2.20
   5  -4 -16    7.20    2.00
   4  -4 -16   12.60    2.70
   4  -4 -16   16.00    3.80
   3  -4 -16   25.30    3.80
   3  -4 -16   28.90    3.70
   2  -4 -16   23.40    3.40
   2  -4 -16   33.40    4.30
   1  -4 -16   17.90    2.90
   1  -4 -16   19.60    3.20
   0  -4 -16   12.80    2.30
   0  -4 -16   11.70    2.20
   5  -5 -16   21.60    2.60
   4  -5 -16    1.10    1.20
   3  -5 -16   21.40    2.90
   3  -5 -16   19.00    2.90
   2  -5 -16   64.39    4.40
   2  -5 -16   60.89    4.50
   1   6 -17    7.30    1.90
  -1  -6  17    8.30    1.80
   0   6 -17    3.50    1.60
   0  -6  17    4.40    1.80
  -1   6 -17   19.40    3.10
  -2   6 -17   18.60    2.90
  -3  -5  17   43.70    3.60
   2   5 -17    7.60    2.00
  -2  -5  17    5.20    1.80
   1   5 -17   21.20    3.80
  -1  -5  17   21.80    3.40
   0   5 -17   10.50    2.60
   0  -5  17   12.50    2.60
  -1   5 -17    3.90    1.90
  -2   5 -17   10.90    2.50
  -4  -4  17    8.20    1.80
   3   4 -17    1.00    1.40
  -3  -4  17    3.20    1.80
   2   4 -17   10.90    2.80
  -2  -4  17    9.10    2.60
   1   4 -17   21.60    4.10
  -1  -4  17   17.50    3.30
   0   4 -17   72.29    7.20
   0  -4  17   61.09    5.00
  -1   4 -17   37.20    4.80
  -2   4 -17   33.50    4.10
   4   3 -17  146.59    7.80
  -4  -3  17  149.09    7.90
   3   3 -17    0.20    1.50
  -3  -3  17    1.00    1.40
   2   3 -17  105.19    7.80
  -2  -3  17   95.19    6.80
   1   3 -17    6.10    2.50
  -1  -3  17    6.50    2.30
   0   3 -17    9.40    3.00
   0  -3  17    8.20    2.20
  -1   3 -17  177.88   10.30
   1  -3  17  161.58    8.60
  -2   3 -17    9.20    2.50
   5   2 -17   59.09    4.90
   4   2 -17   33.80    4.20
  -4  -2  17   37.70    4.20
   3   2 -17   15.70    3.40
  -3  -2  17   14.00    2.90
   2   2 -17   34.40    4.90
  -2  -2  17   44.80    5.20
   1   2 -17   23.60    4.20
  -1  -2  17   20.50    3.60
   0   2 -17   76.39    7.60
   0  -2  17   81.79    6.10
  -1   2 -17  107.09    7.60
   1  -2  17  110.09    6.70
   5   1 -17   16.60    2.80
   4   1 -17   86.79    6.40
  -4  -1  17   74.39    5.60
   3   1 -17   83.59    7.10
  -3  -1  17   92.09    6.60
   2   1 -17   32.30    5.00
  -2  -1  17   34.10    4.50
   1   1 -17  214.98   12.50
   0   1 -17  140.99    9.20
   5   0 -17   75.99    5.40
   4   0 -17    1.70    1.60
  -4   0  17   -1.40    1.40
   3   0 -17   62.79    7.00
  -3   0  17   51.39    5.30
   2   0 -17   29.50    4.80
   1   0 -17  195.58   11.60
   1   0 -17  223.88   11.60
   0   0 -17  124.79    7.90
  -1   0 -17   84.49    5.70
   5  -1 -17   99.69    6.50
   5  -1 -17   97.19    5.60
   4  -1 -17    4.40    2.20
   4  -1 -17    3.60    1.80
  -4   1  17    6.20    2.00
   3  -1 -17    0.60    1.60
   3  -1 -17    2.90    1.90
   2  -1 -17  221.28   11.40
   2  -1 -17  231.88   12.40
   2  -1 -17  251.47   12.30
   1  -1 -17   48.20    5.00
   1  -1 -17   54.49    5.60
   0  -1 -17    5.80    2.10
   0  -1 -17    6.70    2.10
  -1  -1 -17   68.09    4.80
  -1  -1 -17   75.79    5.00
   5  -2 -17    0.30    1.30
   5  -2 -17    1.90    1.40
   4  -2 -17   21.50    3.50
   4  -2 -17   19.30    3.10
  -4   2  17   21.30    3.00
   3  -2 -17   47.50    5.00
   3  -2 -17   47.40    5.20
   2  -2 -17  174.08    9.30
   2  -2 -17  159.98    9.10
   1  -2 -17   39.90    4.40
   1  -2 -17   36.90    4.30
   0  -2 -17   98.29    6.10
   0  -2 -17   85.29    5.80
   5  -3 -17    1.30    1.10
   5  -3 -17    1.00    1.30
   4  -3 -17   24.30    3.40
   4  -3 -17   25.80    3.30
   3  -3 -17    5.70    2.00
   3  -3 -17    6.20    2.10
   2  -3 -17   13.50    2.80
   2  -3 -17    8.80    2.10
   1  -3 -17  101.39    6.00
   1  -3 -17   94.99    6.10
   4  -4 -17   58.29    4.20
   3  -4 -17   31.90    3.40
   3  -4 -17   36.00    4.10
   2  -4 -17    0.90    1.10
   2  -4 -17    0.20    1.00
   1   5 -18    2.40    1.40
  -1  -5  18    0.30    1.00
   0   5 -18    0.40    1.20
   2   4 -18   11.60    2.40
  -2  -4  18    8.40    2.10
   1   4 -18   28.90    3.90
  -1  -4  18   31.40    3.60
   0   4 -18   21.90    3.20
   0  -4  18   24.30    3.00
  -1   4 -18   -0.30    0.90
   3   3 -18    1.60    1.40
  -3  -3  18    1.70    1.30
   2   3 -18   29.30    4.00
  -2  -3  18   33.30    3.90
   1   3 -18   20.60    3.30
  -1  -3  18   25.40    3.40
   0   3 -18   22.40    3.50
   0  -3  18   24.80    3.20
  -1   3 -18   18.70    2.90
   4   2 -18   14.80    2.40
  -4  -2  18   14.40    2.30
   3   2 -18    4.60    1.90
  -3  -2  18    2.50    1.50
   2   2 -18   -1.90    1.10
  -2  -2  18    2.60    1.60
   1   2 -18  107.49    7.30
  -1  -2  18  100.99    6.50
   0   2 -18    5.60    2.00
   0  -2  18    4.00    1.70
  -1   2 -18    2.20    1.60
   1  -2  18    1.10    2.00
   4   1 -18    1.30    1.30
  -4  -1  18    0.90    1.20
   3   1 -18  154.38    9.10
  -3  -1  18  166.88    8.60
   2   1 -18   73.59    6.00
  -2  -1  18   76.09    5.60
   1   1 -18    1.10    1.60
  -1  -1  18    0.20    1.20
   0   1 -18   36.40    4.20
   0  -1  18   33.10    3.60
   4   0 -18   19.10    3.00
  -4   0  18   25.90    3.00
   3   0 -18    5.90    2.10
  -3   0  18    5.10    1.90
   2   0 -18   90.99    6.50
  -2   0  18   94.39    6.10
   1   0 -18   64.49    5.30
   4  -1 -18  124.69    7.10
  -4   1  18  120.19    6.30
   3  -1 -18    9.60    2.30
   3  -1 -18    7.60    2.00
  -3   1  18   11.20    2.30
   2  -1 -18   11.90    2.60
   2  -1 -18    9.00    2.10
   1  -1 -18   50.39    4.00
   4  -2 -18    3.50    1.40
   4  -2 -18    2.00    1.50
   3  -2 -18    3.30    1.50
   3  -2 -18    2.20    1.60
  -3   2  18    1.90    1.30
   2  -2 -18   27.70    3.20
   1  -2 -18   25.80    3.00
   1  -2 -18   25.90    4.10
   1   2 -19    8.30    2.00
  -1  -2  19    6.70    1.60
   2   1 -19    2.50    1.40
  -2  -1  19    5.90    1.70
   0   0   0    0.00    0.00

_computing_structure_solution     'SHELXT 2014/5 (Sheldrick, 2014)'
;
_shelx_hkl_checksum              64868
_olex2_submission_special_instructions 'No special instructions were received'
loop_
_space_group_symop_operation_xyz
'x, y, z'
'-x, -y, -z'
loop_
_atom_site_label
_atom_site_type_symbol
_atom_site_fract_x
_atom_site_fract_y
_atom_site_fract_z
_atom_site_U_iso_or_equiv
_atom_site_adp_type
_atom_site_occupancy
_atom_site_site_symmetry_order
_atom_site_calc_flag
_atom_site_refinement_flags_posn
_atom_site_refinement_flags_adp
_atom_site_refinement_flags_occupancy
_atom_site_disorder_assembly
_atom_site_disorder_group
Zn1 Zn 1.000000 1.000000 1.000000 0.01961(16) Uani 1 2 d S . P . .
O1 O 0.5732(3) 0.8534(2) 0.16626(14) 0.0308(5) Uani 1 1 d . . . . .
O2 O 0.4327(3) 0.6248(2) 0.09106(13) 0.0267(4) Uani 1 1 d . . . . .
H2 H 0.486034 0.658355 0.053523 0.040 Uiso 1 1 calc R U . . .
O3 O 0.6139(2) 0.7128(2) 0.97518(12) 0.0231(4) Uani 1 1 d . . . . .
O4 O 0.7235(2) 0.9207(2) 0.92536(13) 0.0237(4) Uani 1 1 d . . . . .
N1 N 1.0752(3) 1.0332(3) 0.88042(16) 0.0310(6) Uani 1 1 d . . . . .
H1 H 1.203621 1.087642 0.894124 0.037 Uiso 1 1 calc R U . . .
N2 N 1.0090(3) 0.7913(3) 0.96988(18) 0.0312(6) Uani 1 1 d . . . . .
H2A H 0.887395 0.721520 0.946465 0.037 Uiso 1 1 calc R U . . .
C1 C 0.4697(4) 0.7288(3) 0.15935(18) 0.0229(6) Uani 1 1 d . . . . .
C2 C 0.3689(4) 0.6795(3) 0.22893(18) 0.0221(6) Uani 1 1 d . . . . .
C3 C 0.3631(4) 0.7825(3) 0.29448(18) 0.0249(6) Uani 1 1 d . . . . .
H3 H 0.425426 0.880942 0.295882 0.030 Uiso 1 1 calc R U . . .
C4 C 0.2655(4) 0.7402(3) 0.35770(18) 0.0244(6) Uani 1 1 d . . . . .
H4 H 0.261376 0.810474 0.400736 0.029 Uiso 1 1 calc R U . . .
C5 C 0.1725(3) 0.5920(3) 0.35736(18) 0.0227(6) Uani 1 1 d . . . . .
C6 C 0.1818(4) 0.4891(3) 0.29227(18) 0.0253(6) Uani 1 1 d . . . . .
H6 H 0.122634 0.390490 0.291858 0.030 Uiso 1 1 calc R U . . .
C7 C 0.2777(4) 0.5313(3) 0.22831(18) 0.0243(6) Uani 1 1 d . . . . .
H7 H 0.281463 0.461354 0.184977 0.029 Uiso 1 1 calc R U . . .
C8 C 0.0762(4) 0.5455(3) 0.42822(18) 0.0243(6) Uani 1 1 d . . . . .
C9 C 0.1677(4) 0.6033(3) 0.51519(18) 0.0253(6) Uani 1 1 d . . . . .
H9 H 0.281411 0.673964 0.525411 0.030 Uiso 1 1 calc R U . . .
C10 C 0.0973(4) 0.5606(3) 0.58791(18) 0.0239(6) Uani 1 1 d . . . . .
C11 C 0.2161(4) 0.6209(3) 0.67679(18) 0.0229(6) Uani 1 1 d . . . . .
C12 C 0.2369(4) 0.5304(3) 0.73619(18) 0.0232(6) Uani 1 1 d . . . . .
H12 H 0.167329 0.431418 0.722545 0.028 Uiso 1 1 calc R U . . .
C13 C 0.3603(4) 0.5865(3) 0.81539(18) 0.0219(6) Uani 1 1 d . . . . .
H13 H 0.371805 0.525114 0.854663 0.026 Uiso 1 1 calc R U . . .
C14 C 0.4672(3) 0.7342(3) 0.83650(17) 0.0200(5) Uani 1 1 d . . . . .
C15 C 0.4453(4) 0.8256(3) 0.77805(18) 0.0220(6) Uani 1 1 d . . . . .
H15 H 0.514771 0.924669 0.791890 0.026 Uiso 1 1 calc R U . . .
C16 C 0.3204(4) 0.7697(3) 0.69944(18) 0.0238(6) Uani 1 1 d . . . . .
H16 H 0.305822 0.831929 0.661291 0.029 Uiso 1 1 calc R U . . .
C17 C 0.6104(3) 0.7947(3) 0.91961(17) 0.0204(5) Uani 1 1 d . . . . .
C18 C 0.9932(4) 1.1195(4) 0.8287(2) 0.0425(9) Uani 1 1 d . . . . .
H18A H 0.867415 1.062921 0.807865 0.051 Uiso 1 1 calc R U . . .
H18B H 1.045014 1.136673 0.777568 0.051 Uiso 1 1 calc R U . . .
C19 C 1.0434(4) 0.8889(4) 0.8331(2) 0.0403(8) Uani 1 1 d . . . . .
H19A H 1.107417 0.897699 0.785783 0.048 Uiso 1 1 calc R U . . .
H19B H 0.918046 0.838226 0.807394 0.048 Uiso 1 1 calc R U . . .
C20 C 1.1051(4) 0.8038(4) 0.8968(2) 0.0415(9) Uani 1 1 d . . . . .
H20A H 1.083723 0.707277 0.865953 0.050 Uiso 1 1 calc R U . . .
H20B H 1.231431 0.852804 0.920567 0.050 Uiso 1 1 calc R U . . .
C21 C 1.0853(4) 0.7414(4) 1.0453(3) 0.0413(9) Uani 1 1 d . . . . .
H21A H 1.207457 0.806925 1.068186 0.050 Uiso 1 1 calc R U . . .
H21B H 1.084318 0.645193 1.026178 0.050 Uiso 1 1 calc R U . . .
C22 C 0.9819(5) 0.7357(4) 1.1183(3) 0.0463(10) Uani 1 1 d . . . . .
H22A H 0.856912 0.685038 1.091932 0.056 Uiso 1 1 calc R U . . .
H22B H 1.015115 0.677765 1.158603 0.056 Uiso 1 1 calc R U . . .
Cl1A Cl 0.1685(2) 0.15513(18) 0.59105(10) 0.0930(5) Uani 1 1 d . . . . .
Cl2A Cl 0.3195(2) 0.2334(3) 0.43961(10) 0.1506(11) Uani 1 1 d . . . . .
C1A C 0.3028(8) 0.2914(7) 0.5462(4) 0.0855(18) Uani 1 1 d . . . . .
H1AA H 0.420331 0.332056 0.583978 0.103 Uiso 1 1 calc R U . . .
H1AB H 0.256840 0.368469 0.545150 0.103 Uiso 1 1 calc R U . . .
loop_
_atom_site_aniso_label
_atom_site_aniso_U_11
_atom_site_aniso_U_22
_atom_site_aniso_U_33
_atom_site_aniso_U_23
_atom_site_aniso_U_13
_atom_site_aniso_U_12
Zn1 0.0201(3) 0.0204(3) 0.0181(3) 0.00364(19) 0.00528(19) 0.0068(2)
O1 0.0320(11) 0.0264(11) 0.0335(11) 0.0061(9) 0.0179(9) 0.0054(9)
O2 0.0319(11) 0.0271(11) 0.0225(10) 0.0071(8) 0.0122(8) 0.0092(9)
O3 0.0216(10) 0.0270(10) 0.0189(9) 0.0076(8) 0.0046(7) 0.0058(8)
O4 0.0176(9) 0.0238(10) 0.0243(10) 0.0042(8) 0.0008(7) 0.0031(8)
N1 0.0210(12) 0.0464(16) 0.0196(12) 0.0053(11) 0.0061(10) 0.0050(11)
N2 0.0225(13) 0.0209(12) 0.0448(15) -0.0001(11) 0.0007(11) 0.0063(10)
C1 0.0206(13) 0.0274(15) 0.0235(14) 0.0080(11) 0.0069(11) 0.0104(11)
C2 0.0205(13) 0.0249(14) 0.0210(13) 0.0065(11) 0.0044(10) 0.0079(11)
C3 0.0222(14) 0.0258(14) 0.0241(14) 0.0068(11) 0.0059(11) 0.0048(11)
C4 0.0248(14) 0.0249(14) 0.0195(13) 0.0011(11) 0.0050(11) 0.0052(11)
C5 0.0181(13) 0.0264(14) 0.0184(13) 0.0049(11) 0.0020(10) 0.0028(11)
C6 0.0250(14) 0.0240(14) 0.0225(14) 0.0059(11) 0.0060(11) 0.0029(11)
C7 0.0230(14) 0.0266(15) 0.0213(13) 0.0033(11) 0.0047(11) 0.0072(11)
C8 0.0254(14) 0.0250(14) 0.0188(13) 0.0030(11) 0.0047(11) 0.0051(12)
C9 0.0209(13) 0.0255(14) 0.0221(14) 0.0020(11) 0.0051(11) 0.0004(11)
C10 0.0229(14) 0.0245(14) 0.0197(13) 0.0024(11) 0.0034(11) 0.0047(11)
C11 0.0194(13) 0.0276(15) 0.0178(13) 0.0026(11) 0.0059(10) 0.0037(11)
C12 0.0220(14) 0.0209(13) 0.0217(13) 0.0016(11) 0.0061(11) 0.0023(11)
C13 0.0222(13) 0.0229(14) 0.0211(13) 0.0062(11) 0.0076(11) 0.0072(11)
C14 0.0162(12) 0.0247(14) 0.0186(13) 0.0025(11) 0.0066(10) 0.0062(11)
C15 0.0205(13) 0.0206(13) 0.0215(13) 0.0031(11) 0.0058(11) 0.0034(11)
C16 0.0251(14) 0.0262(14) 0.0191(13) 0.0071(11) 0.0054(11) 0.0074(11)
C17 0.0169(12) 0.0266(14) 0.0189(12) 0.0027(11) 0.0079(10) 0.0081(11)
C18 0.0283(17) 0.068(2) 0.0281(16) 0.0248(17) 0.0044(13) 0.0111(16)
C19 0.0279(16) 0.057(2) 0.0278(16) -0.0093(15) 0.0083(13) 0.0099(15)
C20 0.0267(16) 0.0387(19) 0.051(2) -0.0156(16) 0.0078(15) 0.0104(14)
C21 0.0265(16) 0.0236(15) 0.067(2) 0.0109(16) -0.0044(15) 0.0067(13)
C22 0.0296(17) 0.045(2) 0.059(2) 0.0330(18) -0.0006(16) 0.0051(15)
Cl1A 0.0753(9) 0.0998(11) 0.0812(9) -0.0037(8) 0.0249(7) 0.0081(8)
Cl2A 0.0818(11) 0.338(4) 0.0627(9) 0.0483(14) 0.0273(8) 0.1076(16)
C1A 0.106(4) 0.119(5) 0.085(4) 0.047(4) 0.048(3) 0.086(4)
loop_
_atom_type_symbol
_atom_type_description
_atom_type_scat_dispersion_real
_atom_type_scat_dispersion_imag
_atom_type_scat_source
C C 0.0181 0.0091 'International Tables Vol C Tables 4.2.6.8 and 6.1.1.4'
H H 0.0000 0.0000 'International Tables Vol C Tables 4.2.6.8 and 6.1.1.4'
Cl Cl 0.3639 0.7018 'International Tables Vol C Tables 4.2.6.8 and 6.1.1.4'
N N 0.0311 0.0180 'International Tables Vol C Tables 4.2.6.8 and 6.1.1.4'
O O 0.0492 0.0322 'International Tables Vol C Tables 4.2.6.8 and 6.1.1.4'
Zn Zn -1.5491 0.6778 'International Tables Vol C Tables 4.2.6.8 and 6.1.1.4'
loop_
_geom_angle_atom_site_label_1
_geom_angle_atom_site_label_2
_geom_angle_atom_site_label_3
_geom_angle
_geom_angle_site_symmetry_1
_geom_angle_site_symmetry_3
_geom_angle_publ_flag
O4 Zn1 O4 180.0 2_777 . ?
N1 Zn1 O4 86.91(9) 2_777 2_777 ?
N1 Zn1 O4 86.91(8) . . ?
N1 Zn1 O4 93.09(9) . 2_777 ?
N1 Zn1 O4 93.09(9) 2_777 . ?
N1 Zn1 N1 180.0 . 2_777 ?
N1 Zn1 N2 94.48(11) 2_777 . ?
N1 Zn1 N2 85.52(11) 2_777 2_777 ?
N1 Zn1 N2 94.48(11) . 2_777 ?
N1 Zn1 N2 85.52(11) . . ?
N2 Zn1 O4 91.16(9) . . ?
N2 Zn1 O4 88.84(9) . 2_777 ?
N2 Zn1 O4 91.16(9) 2_777 2_777 ?
N2 Zn1 O4 88.84(9) 2_777 . ?
N2 Zn1 N2 180.00(15) . 2_777 ?
C1 O2 H2 109.5 . . ?
C17 O4 Zn1 124.82(18) . . ?
Zn1 N1 H1 107.0 . . ?
C18 N1 Zn1 115.5(2) . . ?
C18 N1 H1 107.0 . . ?
C19 N1 Zn1 105.6(2) . . ?
C19 N1 H1 107.0 . . ?
C19 N1 C18 114.3(3) . . ?
Zn1 N2 H2A 107.9 . . ?
C20 N2 Zn1 103.6(2) . . ?
C20 N2 H2A 107.9 . . ?
C21 N2 Zn1 114.4(2) . . ?
C21 N2 H2A 107.9 . . ?
C21 N2 C20 114.7(3) . . ?
O1 C1 O2 124.6(3) . . ?
O1 C1 C2 122.2(3) . . ?
O2 C1 C2 113.2(2) . . ?
C3 C2 C1 119.4(3) . . ?
C3 C2 C7 119.3(3) . . ?
C7 C2 C1 121.2(3) . . ?
C2 C3 H3 119.6 . . ?
C4 C3 C2 120.7(3) . . ?
C4 C3 H3 119.6 . . ?
C3 C4 H4 119.8 . . ?
C3 C4 C5 120.4(3) . . ?
C5 C4 H4 119.8 . . ?
C4 C5 C8 120.7(3) . . ?
C6 C5 C4 118.5(3) . . ?
C6 C5 C8 120.7(3) . . ?
C5 C6 H6 119.4 . . ?
C7 C6 C5 121.1(3) . . ?
C7 C6 H6 119.4 . . ?
C2 C7 H7 120.0 . . ?
C6 C7 C2 119.9(3) . . ?
C6 C7 H7 120.0 . . ?
C9 C8 C5 117.6(2) . . ?
C9 C8 C10 118.7(3) . 2_566 ?
C10 C8 C5 123.5(2) 2_566 . ?
C8 C9 H9 118.3 . . ?
C8 C9 C10 123.4(3) . . ?
C10 C9 H9 118.3 . . ?
C8 C10 C11 124.3(3) 2_566 . ?
C9 C10 C8 117.9(3) . 2_566 ?
C9 C10 C11 117.5(2) . . ?
C12 C11 C10 121.4(3) . . ?
C12 C11 C16 118.5(3) . . ?
C16 C11 C10 119.8(3) . . ?
C11 C12 H12 119.6 . . ?
C13 C12 C11 120.7(3) . . ?
C13 C12 H12 119.6 . . ?
C12 C13 H13 119.8 . . ?
C12 C13 C14 120.4(3) . . ?
C14 C13 H13 119.8 . . ?
C13 C14 C15 119.1(2) . . ?
C13 C14 C17 120.9(2) . . ?
C15 C14 C17 119.9(2) . . ?
C14 C15 H15 119.8 . . ?
C16 C15 C14 120.3(3) . . ?
C16 C15 H15 119.8 . . ?
C11 C16 H16 119.6 . . ?
C15 C16 C11 120.8(3) . . ?
C15 C16 H16 119.6 . . ?
O3 C17 C14 118.0(2) . . ?
O4 C17 O3 125.0(2) . . ?
O4 C17 C14 116.9(2) . . ?
N1 C18 H18A 109.0 . . ?
N1 C18 H18B 109.0 . . ?
N1 C18 C22 113.0(3) . 2_777 ?
H18A C18 H18B 107.8 . . ?
C22 C18 H18A 109.0 2_777 . ?
C22 C18 H18B 109.0 2_777 . ?
N1 C19 H19A 109.9 . . ?
N1 C19 H19B 109.9 . . ?
N1 C19 C20 109.0(3) . . ?
H19A C19 H19B 108.3 . . ?
C20 C19 H19A 109.9 . . ?
C20 C19 H19B 109.9 . . ?
N2 C20 C19 110.2(3) . . ?
N2 C20 H20A 109.6 . . ?
N2 C20 H20B 109.6 . . ?
C19 C20 H20A 109.6 . . ?
C19 C20 H20B 109.6 . . ?
H20A C20 H20B 108.1 . . ?
N2 C21 H21A 109.4 . . ?
N2 C21 H21B 109.4 . . ?
N2 C21 C22 111.4(3) . . ?
H21A C21 H21B 108.0 . . ?
C22 C21 H21A 109.4 . . ?
C22 C21 H21B 109.4 . . ?
C18 C22 C21 116.4(3) 2_777 . ?
C18 C22 H22A 108.2 2_777 . ?
C18 C22 H22B 108.2 2_777 . ?
C21 C22 H22A 108.2 . . ?
C21 C22 H22B 108.2 . . ?
H22A C22 H22B 107.3 . . ?
Cl1A C1A Cl2A 113.8(4) . . ?
Cl1A C1A H1AA 108.8 . . ?
Cl1A C1A H1AB 108.8 . . ?
Cl2A C1A H1AA 108.8 . . ?
Cl2A C1A H1AB 108.8 . . ?
H1AA C1A H1AB 107.7 . . ?
loop_
_geom_bond_atom_site_label_1
_geom_bond_atom_site_label_2
_geom_bond_distance
_geom_bond_site_symmetry_2
_geom_bond_publ_flag
Zn1 O4 2.2061(19) . ?
Zn1 O4 2.2061(19) 2_777 ?
Zn1 N1 2.086(2) . ?
Zn1 N1 2.086(2) 2_777 ?
Zn1 N2 2.112(2) . ?
Zn1 N2 2.112(2) 2_777 ?
O1 C1 1.216(3) . ?
O2 H2 0.8200 . ?
O2 C1 1.318(3) . ?
O3 C17 1.259(3) . ?
O4 C17 1.257(3) . ?
N1 H1 0.9800 . ?
N1 C18 1.496(4) . ?
N1 C19 1.457(5) . ?
N2 H2A 0.9800 . ?
N2 C20 1.484(4) . ?
N2 C21 1.465(4) . ?
C1 C2 1.496(4) . ?
C2 C3 1.388(4) . ?
C2 C7 1.400(4) . ?
C3 H3 0.9300 . ?
C3 C4 1.383(4) . ?
C4 H4 0.9300 . ?
C4 C5 1.404(4) . ?
C5 C6 1.395(4) . ?
C5 C8 1.487(4) . ?
C6 H6 0.9300 . ?
C6 C7 1.384(4) . ?
C7 H7 0.9300 . ?
C8 C9 1.393(4) . ?
C8 C10 1.412(4) 2_566 ?
C9 H9 0.9300 . ?
C9 C10 1.398(4) . ?
C10 C11 1.488(4) . ?
C11 C12 1.395(4) . ?
C11 C16 1.399(4) . ?
C12 H12 0.9300 . ?
C12 C13 1.387(4) . ?
C13 H13 0.9300 . ?
C13 C14 1.393(4) . ?
C14 C15 1.394(4) . ?
C14 C17 1.510(4) . ?
C15 H15 0.9300 . ?
C15 C16 1.386(4) . ?
C16 H16 0.9300 . ?
C18 H18A 0.9700 . ?
C18 H18B 0.9700 . ?
C18 C22 1.512(6) 2_777 ?
C19 H19A 0.9700 . ?
C19 H19B 0.9700 . ?
C19 C20 1.517(5) . ?
C20 H20A 0.9700 . ?
C20 H20B 0.9700 . ?
C21 H21A 0.9700 . ?
C21 H21B 0.9700 . ?
C21 C22 1.525(6) . ?
C22 H22A 0.9700 . ?
C22 H22B 0.9700 . ?
Cl1A C1A 1.721(6) . ?
Cl2A C1A 1.746(6) . ?
C1A H1AA 0.9700 . ?
C1A H1AB 0.9700 . ?
loop_
_geom_torsion_atom_site_label_1
_geom_torsion_atom_site_label_2
_geom_torsion_atom_site_label_3
_geom_torsion_atom_site_label_4
_geom_torsion
_geom_torsion_site_symmetry_1
_geom_torsion_site_symmetry_2
_geom_torsion_site_symmetry_3
_geom_torsion_site_symmetry_4
_geom_torsion_publ_flag
Zn1 O4 C17 O3 24.9(4) . . . . ?
Zn1 O4 C17 C14 -150.73(18) . . . . ?
Zn1 N1 C18 C22 53.3(3) . . . 2_777 ?
Zn1 N1 C19 C20 -42.3(3) . . . . ?
Zn1 N2 C20 C19 -41.1(3) . . . . ?
Zn1 N2 C21 C22 58.9(3) . . . . ?
O1 C1 C2 C3 13.7(4) . . . . ?
O1 C1 C2 C7 -167.5(3) . . . . ?
O2 C1 C2 C3 -165.5(2) . . . . ?
O2 C1 C2 C7 13.3(4) . . . . ?
N1 C19 C20 N2 58.9(3) . . . . ?
N2 C21 C22 C18 -73.6(4) . . . 2_777 ?
C1 C2 C3 C4 177.6(3) . . . . ?
C1 C2 C7 C6 -178.3(3) . . . . ?
C2 C3 C4 C5 0.9(4) . . . . ?
C3 C2 C7 C6 0.5(4) . . . . ?
C3 C4 C5 C6 0.3(4) . . . . ?
C3 C4 C5 C8 176.3(3) . . . . ?
C4 C5 C6 C7 -1.1(4) . . . . ?
C4 C5 C8 C9 -49.7(4) . . . . ?
C4 C5 C8 C10 134.7(3) . . . 2_566 ?
C5 C6 C7 C2 0.7(4) . . . . ?
C5 C8 C9 C10 -175.1(3) . . . . ?
C6 C5 C8 C9 126.2(3) . . . . ?
C6 C5 C8 C10 -49.4(4) . . . 2_566 ?
C7 C2 C3 C4 -1.3(4) . . . . ?
C8 C5 C6 C7 -177.1(3) . . . . ?
C8 C9 C10 C8 -0.7(5) . . . 2_566 ?
C8 C9 C10 C11 174.2(3) . . . . ?
C8 C10 C11 C12 45.9(4) 2_566 . . . ?
C8 C10 C11 C16 -139.2(3) 2_566 . . . ?
C9 C10 C11 C12 -128.6(3) . . . . ?
C9 C10 C11 C16 46.3(4) . . . . ?
C10 C8 C9 C10 0.7(5) 2_566 . . . ?
C10 C11 C12 C13 173.9(3) . . . . ?
C10 C11 C16 C15 -173.2(3) . . . . ?
C11 C12 C13 C14 -0.8(4) . . . . ?
C12 C11 C16 C15 1.8(4) . . . . ?
C12 C13 C14 C15 1.7(4) . . . . ?
C12 C13 C14 C17 -175.8(2) . . . . ?
C13 C14 C15 C16 -0.9(4) . . . . ?
C13 C14 C17 O3 -10.0(4) . . . . ?
C13 C14 C17 O4 165.9(2) . . . . ?
C14 C15 C16 C11 -0.8(4) . . . . ?
C15 C14 C17 O3 172.5(2) . . . . ?
C15 C14 C17 O4 -11.6(4) . . . . ?
C16 C11 C12 C13 -1.0(4) . . . . ?
C17 C14 C15 C16 176.6(2) . . . . ?
C18 N1 C19 C20 -170.3(3) . . . . ?
C19 N1 C18 C22 176.1(3) . . . 2_777 ?
C20 N2 C21 C22 178.4(3) . . . . ?
C21 N2 C20 C19 -166.6(3) . . . . ?
