#------------------------------------------------------------------------------
#$Date: 2021-09-06 13:59:22 +0300 (Mon, 06 Sep 2021) $
#$Revision: 268725 $
#$URL: file:///home/coder/svn-repositories/cod/cif/7/70/76/7707695.cif $
#------------------------------------------------------------------------------
#
# This file is available in the Crystallography Open Database (COD),
# http://www.crystallography.net/
#
# All data on this site have been placed in the public domain by the
# contributors.
#
data_7707695
loop_
_publ_author_name
'Liu, Qian-Qian'
'Wang, Xiu-Li'
'Lin, Hong-Yan'
'Chang, Zhi-Han'
'Zhang, Yu-Chen'
'Tian, Yuan'
'Lu, Jun-Jun'
'Yu, Le'
_publ_section_title
;
 Two new polyoxometalate-based metal-organic complexes for the detection
 of trace Cr(VI) and their capacitor performance.
;
_journal_issue                   27
_journal_name_full
'Dalton transactions (Cambridge, England : 2003)'
_journal_page_first              9450
_journal_page_last               9456
_journal_paper_doi               10.1039/d1dt01247a
_journal_volume                  50
_journal_year                    2021
_chemical_formula_moiety         'C24 H24 Cu2 Mo12 N12 O44 P'
_chemical_formula_sum            'C24 H24 Cu2 Mo12 N12 O44 P'
_chemical_formula_weight         2493.88
_space_group_crystal_system      monoclinic
_space_group_IT_number           12
_space_group_name_Hall           '-C 2y'
_space_group_name_H-M_alt        'C 1 2/m 1'
_atom_sites_solution_hydrogens   geom
_atom_sites_solution_primary     iterative
_audit_creation_date             2020-11-02
_audit_creation_method
;
Olex2 1.3-alpha
(compiled 2020.10.28 svn.r5b043f8a for OlexSys, GUI svn.r6176)
;
_audit_update_record
;
2020-11-11 deposited with the CCDC.	2021-05-31 downloaded from the CCDC.
;
_cell_angle_alpha                90
_cell_angle_beta                 119.4080(10)
_cell_angle_gamma                90
_cell_formula_units_Z            2
_cell_length_a                   15.5819(7)
_cell_length_b                   16.9947(7)
_cell_length_c                   13.2208(6)
_cell_measurement_reflns_used    3650
_cell_measurement_temperature    296.15
_cell_measurement_theta_max      25.127
_cell_measurement_theta_min      1.628
_cell_volume                     3049.9(2)
_computing_cell_refinement       'SAINT+ Ver. 2016.5-0 (Bruker-AXS, 2016)'
_computing_data_collection       'APEX3 Ver. 2016.5-0 (Bruker-AXS, 2016)'
_computing_data_reduction        'SAINT+ Ver. 2016.5-0 (Bruker-AXS, 2016)'
_computing_molecular_graphics    'OLEX2 (Dolomanov et al., 2009)'
_computing_publication_material  'OLEX2 (Dolomanov et al., 2009)'
_computing_structure_refinement  'XL (Sheldrick, 2015b)'
_computing_structure_solution    'XT (Sheldrick, 2015a)'
_diffrn_ambient_temperature      296.15
_diffrn_detector                 'charge-coupled device (CCD) area detector'
_diffrn_detector_area_resol_mean 7.9
_diffrn_detector_type            'Bruker APEX II'
_diffrn_measured_fraction_theta_full 0.999
_diffrn_measured_fraction_theta_max 0.953
_diffrn_measurement_device       'three-circle diffractometer'
_diffrn_measurement_device_type  'Bruker APEX II Quazar'
_diffrn_measurement_method       '0.5\% \w and 0.5\% \f scans'
_diffrn_radiation_collimation    'focusing mirrors'
_diffrn_radiation_detector       'Bruker APEX II'
_diffrn_radiation_monochromator  'mirror optics'
_diffrn_radiation_probe          x-ray
_diffrn_radiation_type           'Mo K\a'
_diffrn_radiation_wavelength     0.71073
_diffrn_radiation_xray_symbol    K-L~3~
_diffrn_reflns_av_R_equivalents  0.0363
_diffrn_reflns_av_unetI/netI     0.0425
_diffrn_reflns_Laue_measured_fraction_full 0.999
_diffrn_reflns_Laue_measured_fraction_max 0.953
_diffrn_reflns_limit_h_max       21
_diffrn_reflns_limit_h_min       -22
_diffrn_reflns_limit_k_max       24
_diffrn_reflns_limit_k_min       -18
_diffrn_reflns_limit_l_max       19
_diffrn_reflns_limit_l_min       -18
_diffrn_reflns_number            12902
_diffrn_reflns_point_group_measured_fraction_full 0.999
_diffrn_reflns_point_group_measured_fraction_max 0.953
_diffrn_reflns_theta_full        25.242
_diffrn_reflns_theta_max         31.491
_diffrn_reflns_theta_min         1.768
_diffrn_source                   'microfocus sealed X-ray tube'
_diffrn_source_type              'Incoatec I\ms'
_exptl_absorpt_coefficient_mu    3.195
_exptl_absorpt_correction_T_max  0.87
_exptl_absorpt_correction_T_min  0.86
_exptl_absorpt_correction_type   multi-scan
_exptl_absorpt_process_details
;
SADABS-2016/2 (Krause et al., 2015) was used for absorption correction.
;
_exptl_crystal_colour            green
_exptl_crystal_colour_primary    green
_exptl_crystal_density_diffrn    2.716
_exptl_crystal_density_method    'not measured'
_exptl_crystal_description       block
_exptl_crystal_F_000             2362
_exptl_crystal_size_max          0.24
_exptl_crystal_size_mid          0.22
_exptl_crystal_size_min          0.2
_refine_diff_density_max         1.107
_refine_diff_density_min         -1.209
_refine_diff_density_rms         0.134
_refine_ls_extinction_method     none
_refine_ls_goodness_of_fit_ref   1.035
_refine_ls_hydrogen_treatment    constr
_refine_ls_matrix_type           full
_refine_ls_number_parameters     255
_refine_ls_number_reflns         4980
_refine_ls_number_restraints     0
_refine_ls_restrained_S_all      1.035
_refine_ls_R_factor_all          0.0669
_refine_ls_R_factor_gt           0.0430
_refine_ls_shift/su_max          0.001
_refine_ls_shift/su_mean         0.000
_refine_ls_structure_factor_coef Fsqd
_refine_ls_weighting_details
'w=1/[\s^2^(Fo^2^)+(0.0367P)^2^+13.1348P] where P=(Fo^2^+2Fc^2^)/3'
_refine_ls_weighting_scheme      calc
_refine_ls_wR_factor_gt          0.0960
_refine_ls_wR_factor_ref         0.1082
_reflns_Friedel_coverage         0.000
_reflns_number_gt                3481
_reflns_number_total             4980
_reflns_threshold_expression     'I > 2\s(I)'
_cod_data_source_file            d1dt01247a2.cif
_cod_data_source_block           2_sq
_cod_depositor_comments
'Adding full bibliography for 7707694--7707695.cif.'
_cod_database_code               7707695
_shelx_shelxl_version_number     2018/3
_shelx_space_group_comment
;
The symmetry employed for this shelxl refinement is uniquely defined
by the following loop, which should always be used as a source of
symmetry information in preference to the above space-group names.
They are only intended as comments.
;
_shelx_estimated_absorpt_t_max   0.567
_shelx_estimated_absorpt_t_min   0.514
_olex2_refinement_description
;
1. Fixed Uiso
 At 1.2 times of:
  All C(H) groups, All C(H,H) groups, All N(H) groups
2. Others
 Fixed Sof: N3(0.5) H3A(0.5) O13(0.25) O14(0.25) O15(0.5) C6(0.5) H6A(0.5)
 H6B(0.5) C6A(0.5) H6AA(0.5) H6AB(0.5) N16(0.5) H16(0.5)
3.a Secondary CH2 refined with riding coordinates:
 C6(H6A,H6B), C6A(H6AA,H6AB)
3.b Aromatic/amide H refined with riding coordinates:
 C1(H1), C3(H3), C4(H4), N3(H3A), N16(H16)
;
_shelx_res_file
;
TITL 2_a.res in C2/m
    2_sq.res
    created by SHELXL-2018/3 at 16:44:21 on 02-Nov-2020
REM Old TITL 2 in C2/m
REM SHELXT solution in C2/m: R1 0.251, Rweak 0.013, Alpha 0.052
REM <I/s> 0.000 for 0 systematic absences, Orientation as input
REM Formula found by SHELXT: C28 N18 O28 Cu3 Mo12
CELL 0.71073 15.5819 16.9947 13.2208 90 119.408 90
ZERR 2 0.0007 0.0007 0.0006 0 0.001 0
LATT 7
SYMM -X,+Y,-Z
SFAC C H Cu Mo N O P
UNIT 48 48 4 24 24 88 2
EQIV $1 +X,2-Y,+Z
EQIV $2 1-X,+Y,1-Z

L.S. 5 0 13
PLAN  1
SIZE 0.2 0.22 0.24
TEMP 23
CONF
BIND N1 Cu1
BIND Cu1 O2
FREE O13 O15_$1
FREE O13 O15
FREE O15 O15_$2
FREE O14 O15_$1
FREE O14 O15
BOND
MORE -1
BOND $H
ABIN
fmap 2 53
acta
OMIT 0 2 0
OMIT 1 3 0
OMIT 0 0 2
REM <olex2.extras>
REM <HklSrc "%.\\2_sq.hkl">
REM </olex2.extras>

WGHT    0.036700   13.134800
FVAR       0.04430
MO1   4    0.500000    0.790227    0.500000    10.50000    0.03679    0.02239 =
         0.05270    0.00000    0.01483    0.00000
MO2   4    0.688754    0.895905    0.480373    11.00000    0.03219    0.04178 =
         0.05352   -0.00411    0.02191    0.00924
MO3   4    0.681417    0.895095    0.745378    11.00000    0.03429    0.04105 =
         0.04566    0.01834    0.00994    0.00814
MO4   4    0.506721    1.000000    0.235742    10.50000    0.05178    0.09930 =
         0.03671    0.00000    0.02973    0.00000
CU1   3    0.750000    0.750000    1.000000    10.50000    0.03318    0.08087 =
         0.06322    0.02695   -0.00083   -0.01405
P1    7    0.500000    1.000000    0.500000    10.25000    0.02084    0.01754 =
         0.02357    0.00000    0.00997    0.00000
O4    6    0.593658    0.813118    0.657972    11.00000    0.05780    0.11734 =
         0.05507   -0.00549    0.02242   -0.04298
O6    6    0.740543    1.000000    0.508001    10.50000    0.11352    0.03730 =
         0.04077    0.00000    0.00224    0.00000
O3    6    0.777219    0.847148    0.474101    11.00000    0.04327    0.07500 =
         0.10522   -0.03312    0.04135    0.00380
O2    6    0.764635    0.845153    0.860566    11.00000    0.04415    0.07071 =
         0.05360    0.02844    0.00486   -0.00022
O5    6    0.733090    0.890898    0.645046    11.00000    0.05180    0.10126 =
         0.04715   -0.00964    0.02203   -0.03554
O1    6    0.745034    0.660897    0.905120    11.00000    0.04194    0.07635 =
         0.08778    0.01824    0.01289   -0.01173
O7    6    0.729519    1.000000    0.785082    10.50000    0.10266    0.03975 =
         0.19962    0.00000    0.12237    0.00000
O8    6    0.512563    1.000000    0.114939    10.50000    0.07428    0.19124 =
         0.03545    0.00000    0.03160    0.00000
N1    5    0.607548    0.746055    0.902898    11.00000    0.03673    0.06533 =
         0.05409    0.02726    0.00891   -0.01125
O9    6    0.600380    0.814320    0.464194    11.00000    0.05562    0.11470 =
         0.05943   -0.01928    0.02327   -0.04022
O10   6    0.605190    0.924152    0.326156    11.00000    0.10527    0.06398 =
         0.04441   -0.01239   -0.01093    0.00181
O11   6    0.500000    0.693037    0.500000    10.50000    0.11461    0.02769 =
         0.11960    0.00000    0.06849    0.00000
N2    5    0.443820    0.786470    0.840815    11.00000    0.04356    0.08908 =
         0.06564    0.02641    0.01391   -0.01036
C1    1    0.475596    0.679974    0.745573    11.00000    0.04051    0.06589 =
         0.07346    0.01324    0.00754   -0.01815
AFIX  43
H1    2    0.451623    0.641738    0.687805    11.00000   -1.20000
AFIX   0
O12   6    0.588808    0.922701    0.794004    11.00000    0.09564    0.06364 =
         0.20959    0.01381    0.11912   -0.00106
C2    1    0.575850    0.689143    0.821874    11.00000    0.03924    0.05834 =
         0.06364    0.02519    0.01078   -0.00927
C3    1    0.414096    0.730642    0.760494    11.00000    0.03616    0.08082 =
         0.06699    0.02594    0.00330   -0.01839
AFIX  43
H3    2    0.346711    0.725450    0.710679    11.00000   -1.20000
AFIX   0
C4    1    0.542027    0.792170    0.909297    11.00000    0.05060    0.08334 =
         0.05305    0.02677    0.01384   -0.01704
AFIX  43
H4    2    0.565619    0.831531    0.965394    11.00000   -1.20000
AFIX   0
C7    1    0.658322    0.642743    0.828205    11.00000    0.04749    0.06369 =
         0.08849    0.01690    0.02213   -0.01377
PART 1
N3    5    0.649894    0.581335    0.782321    10.50000    0.03818    0.10728 =
         0.06294   -0.02451    0.00512   -0.02431
AFIX  43
H3A   2    0.591679    0.566691    0.731182    10.50000   -1.20000
AFIX   0
PART 0
O13   6    0.566706    1.000000    0.636111    10.25000    0.02435    0.03212 =
         0.01981    0.00000    0.00857    0.00000
O14   6    0.572010    1.000000    0.451864    10.25000    0.02680    0.03145 =
         0.02279    0.00000    0.01076    0.00000
O15   6    0.561334    1.073525    0.536121    10.50000    0.02567    0.02217 =
         0.03117   -0.00279    0.00956   -0.00438
PART 1
C6    1    0.736308    0.525894    0.808140    10.50000    0.05065    0.07406 =
         0.11725   -0.01550    0.03116    0.00020
AFIX  23
H6A   2    0.758553    0.541016    0.754055    10.50000   -1.20000
H6B   2    0.788573    0.541010    0.884494    10.50000   -1.20000
AFIX   0
PART 2
C6A   1    0.708283    0.542072    0.726623    10.50000    0.06302    0.13823 =
         0.12934    0.03821    0.05284    0.00270
AFIX  23
H6AA  2    0.770802    0.558606    0.791284    10.50000   -1.20000
H6AB  2    0.708352    0.558603    0.656438    10.50000   -1.20000
AFIX   0
N16   5    0.634606    0.585868    0.733123    10.50000    0.06173    0.07110 =
         0.06230   -0.01148    0.00564   -0.02028
AFIX  43
H16   2    0.574152    0.579475    0.680498    10.50000   -1.20000
AFIX   0
HKLF 4




REM  2_a.res in C2/m
REM wR2 = 0.1082, GooF = S = 1.035, Restrained GooF = 1.035 for all data
REM R1 = 0.0430 for 3481 Fo > 4sig(Fo) and 0.0669 for all 4980 data
REM 255 parameters refined using 0 restraints

END

WGHT      0.0367     13.1352

REM Highest difference peak  1.107,  deepest hole -1.209,  1-sigma level  0.134
Q1    1   0.5319  1.0246  0.2481  11.00000  0.05    1.11
;
_shelx_res_checksum              53243
_shelx_hkl_file
;
   1   1   0  429.54   11.96
   1   1   0  341.96   12.58
   2   2   0    2.45    0.15
   2   2   0    2.54    0.18
   3   3   0   97.01    3.20
   3   3   0   92.73    3.01
   4   4   0  153.89    4.95
   4   4   0  160.80    5.26
   5   5   0   70.09    2.36
   5   5   0   71.36    2.52
   6   6   0    9.66    0.56
   6   6   0    9.27    0.50
   7   7   0    9.89    0.61
   7   7   0    9.73    0.55
   8   8   0    4.10    0.46
   8   8   0    3.97    0.40
   9   9   0   -0.05    0.17
  -9  -9   0    0.10    0.23
  10  10   0   73.58    2.63
 -10 -10   0   69.37    2.84
  11  11   0   19.71    1.04
 -11 -11   0   20.56    1.21
  12  12   0    0.34    0.25
 -12 -12   0    0.37    0.30
  13  13   0    7.05    0.74
 -13 -13   0    7.24    0.85
 -14 -14   0   24.06    1.56
 -14 -16   0   -0.07    0.40
  14  16   0   -0.19    0.30
 -13 -15   0   16.43    1.20
  13  15   0   14.09    1.04
 -12 -14   0    0.35    0.35
  12  14   0    0.34    0.31
 -11 -13   0    5.97    0.72
  11  13   0    6.75    0.67
 -10 -12   0    0.34    0.29
  10  12   0    0.04    0.24
  -9 -11   0   -0.21    0.20
   9  11   0   -0.29    0.20
   9  11   0    0.08    0.20
   8  10   0   47.15    1.93
   8  10   0   45.90    1.78
   7   9   0    1.42    0.30
   7   9   0    0.46    0.22
   6   8   0   31.31    1.32
   6   8   0   30.69    1.22
   5   7   0    2.30    0.29
   5   7   0    2.47    0.27
   4   6   0  117.45    3.96
   4   6   0  114.85    3.73
   3   5   0  751.97   22.48
   3   5   0  738.28   24.23
   3   5   0  747.09   23.12
   2   4   0  815.16   24.85
   2   4   0  784.47   26.34
   1   3   0    1.61    0.14
   1   3   0    1.89    0.14
   0  -2   0    5.69    0.23
   0   2   0    5.65    0.23
   0   2   0    5.54    0.25
   1  -1   0  401.96   13.66
  -1   1   0  436.06   12.98
  -2   0   0   29.62    1.04
   3   1   0   87.12    2.92
   4   2   0    0.45    0.13
   4   2   0    0.74    0.16
   5   3   0    0.22    0.11
   5   3   0    0.19    0.10
   6   4   0   59.81    2.15
   6   4   0   57.79    2.01
   7   5   0  147.35    5.09
   7   5   0  149.28    4.79
   8   6   0  108.70    3.65
   8   6   0  110.84    3.90
  -8  -6   0  109.50    3.92
   9   7   0    1.67    0.28
  -9  -7   0    1.31    0.32
  10   8   0    0.15    0.17
 -10  -8   0    0.16    0.21
  11   9   0   62.98    2.42
 -11  -9   0   66.89    2.68
  12  10   0    1.80    0.36
 -12 -10   0    2.00    0.47
 -13 -11   0    4.46    0.67
 -14 -12   0   -0.09    0.33
 -15 -13   0    0.52    0.46
  13  17   0   -0.46    0.31
 -12 -16   0    0.73    0.42
  12  16   0    0.75    0.39
 -11 -15   0    5.54    0.70
  11  15   0    4.89    0.60
 -10 -14   0    0.99    0.37
  10  14   0    0.92    0.33
  -9 -13   0   12.26    0.85
   9  13   0   10.03    0.75
   8  12   0    0.26    0.22
   8  12   0    0.24    0.22
   7  11   0    9.25    0.65
   7  11   0    9.02    0.60
   6  10   0  209.06    6.53
   6  10   0  196.00    6.89
   5   9   0  370.35   12.81
   5   9   0  396.77   11.67
   5   9   0  398.36   12.15
   4   8   0   37.92    1.17
   4   8   0   35.76    1.43
   4   8   0   35.80    1.36
   3   7   0    7.34    0.42
   3   7   0    6.98    0.41
   2   6   0  230.67    7.92
   2   6   0  252.28    7.56
   1   5   0    3.59    0.23
   1   5   0    3.75    0.25
   0   4   0   22.75    0.84
   0   4   0   22.51    0.81
  -1   3   0    1.86    0.15
  -1   3   0    1.63    0.11
  -2   2   0    2.18    0.16
  -2   2   0    2.23    0.14
  -3   1   0   84.79    2.84
  -4   0   0  369.24   12.02
  -5  -1   0  249.54    8.22
  -6  -2   0   94.69    3.29
  -7  -3   0    6.93    0.47
  -8  -4   0  312.90   10.43
  -9  -5   0  115.81    4.14
 -10  -6   0    4.43    0.51
 -11  -7   0    0.20    0.23
 -12  -8   0    8.44    0.77
 -13  -9   0    1.61    0.44
 -14 -10   0    0.78    0.42
 -15 -11   0    2.31    0.60
  12  18   0    1.08    0.43
  11  17   0   -0.13    0.25
 -10 -16   0    6.58    0.77
  10  16   0    5.91    0.68
  -9 -15   0   19.00    1.15
   9  15   0   19.99    1.13
   8  14   0   57.32    2.38
   8  14   0   60.13    2.32
   7  13   0    0.50    0.24
   7  13   0    0.39    0.24
   6  12   0   24.51    1.12
   6  12   0   23.93    1.14
   5  11   0   33.28    1.40
   5  11   0   33.53    1.36
   4  10   0   13.09    0.67
   4  10   0   12.21    0.66
   3   9   0   47.12    1.82
   3   9   0   52.26    1.81
   2   8   0  121.46    3.76
   2   8   0  107.03    3.85
   1   7   0   26.15    1.00
   1   7   0   24.79    0.97
   0   6   0   35.03    1.24
   0   6   0   34.88    1.28
  -1   5   0    3.73    0.21
  -1   5   0    3.93    0.26
  -2   4   0  790.50   24.79
  -2   4   0  800.20   25.95
  -3   3   0   96.15    3.05
  -3   3   0   95.35    3.18
  -4   2   0    0.43    0.13
  -5   1   0  255.95    8.41
  -6   0   0   56.54    2.04
  -7  -1   0    2.08    0.26
  -8  -2   0   37.70    1.51
  -9  -3   0   24.61    1.13
 -10  -4   0    4.43    0.48
 -11  -5   0   19.04    1.04
 -12  -6   0    0.37    0.28
 -13  -7   0    0.60    0.31
 -14  -8   0   13.76    1.03
 -15  -9   0    2.39    0.58
 -16 -10   0   15.62    1.21
  11  19   0   17.74    1.25
  10  18   0    2.71    0.56
   9  17   0    3.96    0.59
  -8 -16   0    7.12    0.71
   8  16   0    5.56    0.62
   8  16   0    4.90    0.61
   7  15   0   14.35    0.87
   7  15   0   13.89    0.90
   6  14   0    4.21    0.51
   6  14   0    4.06    0.47
   5  13   0   15.66    0.82
   5  13   0   14.55    0.85
   4  12   0    0.91    0.26
   4  12   0    0.98    0.22
   3  11   0   52.40    1.97
   3  11   0   53.64    1.98
   2  10   0    6.32    0.49
   2  10   0    7.24    0.42
   1   9   0  166.19    5.31
   1   9   0  151.59    5.14
   0   8   0  146.07    4.99
   0   8   0  155.27    4.88
  -1   7   0   27.03    1.10
  -1   7   0   28.61    1.03
  -2   6   0  238.17    7.40
  -2   6   0  234.99    7.70
  -3   5   0  758.66   23.91
  -3   5   0  773.82   25.12
  -4   4   0  156.07    5.16
  -4   4   0  156.46    4.94
  -5   3   0    0.31    0.11
  -6   2   0   93.95    3.23
  -7   1   0    2.05    0.25
  -8   0   0    4.56    0.39
  -9  -1   0    0.10    0.17
 -10  -2   0   10.22    0.66
 -11  -3   0   13.15    0.83
 -12  -4   0    3.01    0.46
 -13  -5   0   78.39    3.13
 -14  -6   0   23.59    1.35
 -15  -7   0   -0.04    0.34
 -16  -8   0    6.20    0.83
  10  20   0    4.47    0.74
   9  19   0   -0.38    0.28
   8  18   0    7.16    0.80
   7  17   0    0.33    0.30
   6  16   0    6.56    0.69
   6  16   0    8.08    0.62
   5  15   0   18.59    0.93
   5  15   0   16.42    0.97
   4  14   0   13.00    0.71
   4  14   0   10.30    0.75
   3  13   0   58.84    2.36
   3  13   0   69.15    2.37
   2  12   0   10.54    0.57
   2  12   0   10.37    0.66
   1  11   0   28.00    1.19
   1  11   0   27.88    1.10
   0  10   0  450.76   15.07
   0  10   0  476.00   14.48
  -1   9   0  168.33    5.52
  -1   9   0  165.29    5.41
  -2   8   0  112.83    3.74
  -2   8   0  115.22    3.80
  -3   7   0    7.61    0.40
  -3   7   0    6.08    0.32
  -4   6   0  117.89    3.90
  -4   6   0  116.35    3.78
  -5   5   0   70.81    2.40
  -5   5   0   72.20    2.47
  -6   4   0   57.78    2.06
  -7   3   0    5.60    0.39
  -8   2   0   38.81    1.52
  -9   1   0    0.06    0.16
 -10   0   0   80.53    2.97
 -11  -1   0  138.36    4.89
 -12  -2   0    3.53    0.47
 -13  -3   0   16.80    1.03
 -14  -4   0   26.65    1.42
 -15  -5   0    1.68    0.44
 -16  -6   0   10.49    0.91
 -17  -7   0    1.08    0.48
   9  21   0    0.04    0.35
   8  20   0    1.89    0.51
   7  19   0    0.37    0.36
   6  18   0   10.02    0.86
   5  17   0   -0.14    0.23
   4  16   0    1.11    0.34
   3  15   0   76.80    2.93
   3  15   0   81.92    2.88
   2  14   0  124.07    4.28
   2  14   0  124.94    4.28
   1  13   0    0.28    0.19
   1  13   0    0.02    0.12
   0  12   0   19.15    0.94
   0  12   0   19.06    0.80
  -1  11   0   28.18    1.21
  -1  11   0   28.79    1.09
  -2  10   0    6.29    0.48
  -2  10   0    7.20    0.38
  -3   9   0   49.29    1.77
  -3   9   0   48.82    1.71
  -4   8   0   36.58    1.31
  -4   8   0   36.00    1.36
  -5   7   0    3.46    0.33
  -5   7   0    2.36    0.24
  -6   6   0   10.61    0.55
  -6   6   0    9.90    0.52
  -7   5   0  152.11    5.21
  -7   5   0  157.02    5.01
  -8   4   0  320.02   10.58
  -9   3   0   25.89    1.13
 -10   2   0   11.03    0.66
 -11   1   0  140.96    4.95
 -12   0   0   72.64    2.80
 -13  -1   0    8.92    0.69
 -14  -2   0    0.30    0.29
 -15  -3   0    0.25    0.31
 -16  -4   0    3.09    0.57
 -17  -5   0   -0.14    0.31
   8  22   0   -0.25    0.28
   7  21   0    3.80    0.66
   6  20   0    6.50    0.77
   5  19   0   35.17    1.73
   4  18   0    0.23    0.27
   3  17   0    7.52    0.73
   2  16   0    5.04    0.57
   1  15   0    0.18    0.26
   0  14   0   12.97    0.79
  -1  13   0    0.53    0.22
  -1  13   0    0.09    0.12
  -2  12   0   10.88    0.52
  -2  12   0   10.67    0.67
  -3  11   0   55.27    1.93
  -3  11   0   53.75    2.04
  -4  10   0   12.23    0.67
  -4  10   0   12.45    0.55
  -5   9   0  411.18   13.30
  -5   9   0  404.74   12.77
  -6   8   0   32.74    1.31
  -6   8   0   33.18    1.27
  -7   7   0   10.02    0.60
  -7   7   0   11.15    0.57
  -8   6   0  118.43    4.05
  -8   6   0  115.88    3.92
  -9   5   0  125.13    4.35
 -10   4   0    5.68    0.48
 -11   3   0   14.18    0.80
 -12   2   0    4.29    0.50
 -13   1   0    8.28    0.66
 -14   0   0   16.43    1.01
 -15  -1   0    8.43    0.75
 -16  -2   0    0.26    0.38
 -17  -3   0    0.94    0.42
   7  23   0   -0.06    0.35
   6  22   0    1.53    0.44
   5  21   0    0.09    0.36
   4  20   0    1.92    0.46
   3  19   0    3.79    0.60
   2  18   0    2.92    0.49
   1  17   0    2.19    0.42
   0  16   0    8.30    0.67
  -1  15   0    0.31    0.26
  -2  14   0  124.97    4.28
  -3  13   0   64.95    2.44
  -4  12   0    0.65    0.15
  -4  12   0    0.77    0.26
  -5  11   0   35.91    1.44
  -5  11   0   34.52    1.31
  -6  10   0  222.42    7.35
  -6  10   0  221.64    7.16
  -7   9   0    1.36    0.24
  -7   9   0    1.17    0.27
  -8   8   0    4.24    0.44
  -8   8   0    3.98    0.36
  -9   7   0    1.64    0.28
  -9   7   0    1.47    0.28
 -10   6   0    4.85    0.44
 -10   6   0    3.97    0.44
 -11   5   0   20.32    1.02
 -12   4   0    3.48    0.46
 -13   3   0   17.15    1.00
 -14   2   0   -0.07    0.26
 -15   1   0    8.63    0.74
 -16   0   0   51.25    2.29
 -17  -1   0    9.32    0.85
 -18  -2   0   -0.12    0.30
   5  23   0    1.33    0.44
   4  22   0    0.32    0.35
   3  21   0    5.17    0.68
   2  20   0    5.11    0.66
   1  19   0   23.07    1.25
   0  18   0   19.27    1.08
  -1  17   0    1.03    0.32
  -2  16   0    5.08    0.55
  -3  15   0   76.43    2.84
  -4  14   0   12.69    0.82
  -5  13   0   13.97    0.81
  -6  12   0   25.91    1.20
  -7  11   0   10.76    0.71
  -7  11   0   10.71    0.58
  -8  10   0   55.45    2.06
  -8  10   0   54.96    2.11
  -9   9   0    0.22    0.17
  -9   9   0   -0.05    0.17
 -10   8   0    0.20    0.21
 -10   8   0    0.55    0.23
 -11   7   0    0.17    0.22
 -11   7   0    0.21    0.24
 -12   6   0    0.15    0.23
 -12   6   0    0.22    0.23
 -13   5   0   79.11    3.05
 -14   4   0   27.26    1.39
 -15   3   0    0.38    0.34
 -16   2   0    0.36    0.31
 -17   1   0   10.06    0.91
 -18   0   0    0.92    0.45
   4  24   0    1.52    0.47
   3  23   0    7.36    0.83
   2  22   0    0.27    0.35
   1  21   0    2.74    0.53
   0  20   0   28.83    1.46
  -1  19   0   19.49    1.12
  -2  18   0    3.32    0.48
  -3  17   0    7.20    0.69
  -4  16   0    0.79    0.32
  -5  15   0   16.89    1.03
  -6  14   0    4.33    0.53
  -7  13   0    0.66    0.30
  -8  12   0    0.09    0.21
  -9  11   0   -0.31    0.16
  -9  11   0   -0.14    0.24
 -10  10   0   82.53    3.03
 -10  10   0   83.45    3.04
 -11   9   0   73.70    2.75
 -11   9   0   71.64    2.73
 -12   8   0    8.37    0.72
 -12   8   0    8.75    0.66
 -13   7   0    0.95    0.33
 -13   7   0    0.74    0.31
 -14   6   0   24.30    1.28
 -14   6   0   24.03    1.29
 -15   5   0    1.47    0.40
 -16   4   0    2.45    0.51
 -17   3   0    0.60    0.36
 -18   2   0   -0.66    0.30
   2  24   0    7.01    0.83
   1  23   0    0.05    0.35
   0  22   0    3.34    0.54
  -1  21   0    2.20    0.47
  -2  20   0    5.40    0.65
  -3  19   0    3.47    0.55
  -4  18   0    0.97    0.34
  -5  17   0    0.12    0.28
  -6  16   0    7.04    0.74
  -7  15   0   15.43    0.97
  -8  14   0   63.94    2.52
  -9  13   0   12.34    0.89
 -10  12   0   -0.29    0.29
 -11  11   0   24.45    1.26
 -12  10   0    3.09    0.50
 -12  10   0    2.31    0.39
 -13   9   0    1.72    0.43
 -13   9   0    1.26    0.35
 -14   8   0   13.88    0.96
 -14   8   0   13.52    0.91
 -15   7   0   -0.16    0.26
 -15   7   0    0.12    0.32
 -16   6   0   10.81    0.91
 -16   6   0   11.14    0.93
 -17   5   0    0.12    0.35
 -17   5   0   -0.37    0.34
 -18   4   0    2.76    0.58
   0  24   0    0.03    0.36
  -1  23   0    0.26    0.35
  -2  22   0    0.17    0.34
  -3  21   0    6.11    0.72
  -4  20   0    1.70    0.44
  -5  19   0   32.88    1.64
  -6  18   0   12.36    0.96
  -7  17   0    0.68    0.40
  -8  16   0    6.51    0.75
  -9  15   0   20.40    1.21
 -10  14   0    1.18    0.37
 -11  13   0    7.02    0.74
 -12  12   0    0.58    0.35
 -13  11   0    4.44    0.62
 -14  10   0    1.20    0.41
 -15   9   0    2.18    0.48
 -16   8   0    9.06    0.91
 -16   8   0    8.09    0.84
 -17   7   0    0.10    0.39
 -17   7   0    0.29    0.43
 -18   6   0    4.59    0.77
 -18   6   0    4.10    0.68
 -19   5   0   19.86    1.42
  -2  24   0    6.07    0.75
  -3  23   0    6.36    0.74
  -4  22   0   -0.03    0.32
  -5  21   0    0.43    0.40
  -6  20   0    8.11    0.87
  -7  19   0    1.52    0.52
  -8  18   0    6.89    0.83
  -9  17   0    5.20    0.72
 -10  16   0    7.60    0.83
 -11  15   0    5.84    0.75
 -12  14   0   -0.13    0.34
 -13  13   0    8.22    0.87
 -14  12   0    0.52    0.40
 -15  11   0    3.25    0.63
 -16  10   0   19.98    1.29
 -17   9   0   15.01    1.18
 -18   8   0    0.52    0.48
 -19   7   0    0.09    0.45
  -4  24   0    1.23    0.47
  -5  23   0    1.17    0.49
  -6  22   0    2.40    0.60
  -7  21   0    4.18    0.75
  -8  20   0    2.07    0.61
  -9  19   0   -0.41    0.32
 -10  18   0    2.97    0.60
 -11  17   0   -0.13    0.39
 -12  16   0    0.61    0.47
 -13  15   0   15.29    1.14
 -14  14   0   27.85    1.61
 -15  13   0    0.92    0.46
 -16  12   0    0.28    0.37
 -17  11   0    0.29    0.45
 -18  10   0   -0.02    0.36
  -7  23   0    0.11    0.44
  -8  22   0   -0.11    0.35
  -9  21   0   -0.12    0.49
 -10  20   0    5.26    0.89
 -11  19   0   22.01    1.48
 -12  18   0    2.70    0.66
 -13  17   0    0.31    0.34
 -14  16   0   -0.10    0.39
 -15  15   0    0.65    0.45
 -16  14   0    2.03    0.57
 -15  17   1    1.06    0.53
 -14  18   1    1.32    0.57
 -13  19   1    0.80    0.53
 -12  20   1    0.64    0.49
 -11  21   1   -0.28    0.46
 -17  13   1    0.92    0.50
 -16  14   1    0.73    0.49
 -15  15   1   -0.01    0.38
 -14  16   1    0.28    0.39
 -13  17   1    0.14    0.43
 -12  18   1    4.25    0.74
 -11  19   1    8.14    0.99
 -10  20   1    1.58    0.56
  -9  21   1    0.46    0.48
  -8  22   1    0.52    0.42
  -7  23   1    0.20    0.43
 -19   9   1   -0.36    0.38
 -18  10   1   -0.59    0.29
 -17  11   1   -0.09    0.33
 -16  12   1    0.80    0.47
 -15  13   1    2.36    0.55
 -14  14   1    6.71    0.82
 -13  15   1    3.62    0.66
 -12  16   1    1.08    0.48
 -11  17   1    0.32    0.42
 -10  18   1   -0.17    0.37
  -9  19   1    0.00    0.37
  -8  20   1    0.73    0.42
  -7  21   1    0.90    0.43
  -6  22   1    1.85    0.49
  -5  23   1    0.85    0.39
  -4  24   1    4.31    0.69
 -19   7   1   -0.18    0.34
 -18   8   1    0.13    0.35
 -17   9   1    2.37    0.59
 -16  10   1    7.23    0.84
 -15  11   1    0.29    0.37
 -14  12   1   -0.16    0.32
 -13  13   1    0.30    0.30
 -12  14   1    0.15    0.30
 -11  15   1    0.51    0.39
 -10  16   1    3.64    0.58
  -9  17   1    3.37    0.58
  -8  18   1   -0.07    0.37
  -7  19   1    7.88    0.89
  -6  20   1    8.54    0.88
  -5  21   1    0.35    0.36
  -4  22   1   -0.19    0.34
  -3  23   1    5.39    0.71
  -2  24   1    2.28    0.57
 -20   4   1    1.04    0.50
 -19   5   1    1.71    0.52
 -19   5   1    2.06    0.57
 -18   6   1    0.09    0.36
 -18   6   1   -0.38    0.33
 -17   7   1   -0.32    0.32
 -17   7   1   -0.12    0.33
 -16   8   1    1.00    0.43
 -15   9   1    0.51    0.36
 -14  10   1    4.48    0.61
 -13  11   1    0.65    0.36
 -12  12   1   13.36    0.93
 -11  13   1    2.39    0.46
 -10  14   1    2.45    0.49
  -9  15   1   16.46    1.08
  -8  16   1    0.45    0.35
  -7  17   1    0.53    0.34
  -6  18   1    4.47    0.63
  -5  19   1   11.58    0.93
  -4  20   1    0.01    0.33
  -3  21   1    4.12    0.59
  -2  22   1    1.37    0.43
  -1  23   1   -0.01    0.32
   0  24   1    0.34    0.39
 -19   3   1   -0.18    0.36
 -18   4   1    0.79    0.39
 -17   5   1    1.34    0.45
 -17   5   1    0.86    0.38
 -16   6   1    0.54    0.36
 -16   6   1    0.54    0.39
 -15   7   1    5.43    0.65
 -15   7   1    6.04    0.67
 -14   8   1    0.79    0.35
 -14   8   1    1.04    0.35
 -13   9   1    0.30    0.24
 -13   9   1    0.08    0.24
 -12  10   1   20.63    1.13
 -11  11   1    1.80    0.42
 -10  12   1    1.77    0.43
  -9  13   1    0.53    0.29
  -8  14   1   32.48    1.53
  -7  15   1   -0.20    0.22
  -6  16   1    3.26    0.53
  -5  17   1    3.16    0.49
  -4  18   1    1.46    0.38
  -3  19   1    0.45    0.32
  -2  20   1    1.07    0.41
  -1  21   1    0.18    0.29
   0  22   1    0.89    0.42
   1  23   1    1.50    0.48
   2  24   1    7.84    0.86
 -19   1   1    0.34    0.36
 -18   2   1    2.15    0.49
 -17   3   1    1.75    0.47
 -16   4   1    1.60    0.40
 -15   5   1    6.63    0.70
 -15   5   1    6.20    0.69
 -14   6   1    0.23    0.27
 -14   6   1    0.29    0.26
 -13   7   1    2.27    0.39
 -13   7   1    1.70    0.38
 -12   8   1    0.50    0.29
 -12   8   1    0.48    0.25
 -11   9   1   23.73    1.18
 -11   9   1   22.33    1.07
 -10  10   1    1.05    0.25
 -10  10   1    0.99    0.29
  -9  11   1    4.45    0.52
  -8  12   1   33.39    1.48
  -7  13   1    2.59    0.42
  -6  14   1    9.68    0.71
  -5  15   1    0.15    0.24
  -4  16   1   -0.15    0.23
  -3  17   1    3.89    0.51
  -2  18   1    0.04    0.22
  -1  19   1   31.58    1.51
   0  20   1    6.95    0.75
   1  21   1    2.23    0.47
   2  22   1    0.24    0.33
   3  23   1    1.50    0.50
   4  24   1   -0.45    0.33
 -18   0   1    2.30    0.50
 -17   1   1    1.64    0.46
 -16   2   1    0.26    0.27
 -15   3   1    0.04    0.26
 -14   4   1   13.44    0.88
 -13   5   1    9.58    0.70
 -12   6   1    2.19    0.37
 -12   6   1    2.92    0.43
 -11   7   1   10.78    0.68
 -11   7   1   11.68    0.74
 -10   8   1    1.42    0.26
 -10   8   1    1.12    0.29
  -9   9   1    5.53    0.42
  -9   9   1    5.00    0.51
  -8  10   1   -0.22    0.14
  -8  10   1   -0.20    0.15
  -7  11   1    2.36    0.35
  -7  11   1    2.18    0.24
  -6  12   1    6.50    0.55
  -5  13   1    0.06    0.19
  -4  14   1   42.64    1.78
  -3  15   1   29.83    1.38
  -2  16   1    0.53    0.27
  -1  17   1    0.04    0.21
   0  18   1   12.60    0.85
   1  19   1    1.06    0.37
   2  20   1    1.63    0.47
   3  21   1    1.39    0.46
   4  22   1   -0.24    0.29
   5  23   1    0.15    0.32
 -18  -2   1    1.91    0.53
 -17  -1   1    1.35    0.43
 -16   0   1    0.61    0.37
 -15   1   1   -0.01    0.28
 -14   2   1   14.77    0.94
 -13   3   1    4.26    0.51
 -12   4   1    7.77    0.60
 -11   5   1    0.26    0.21
 -10   6   1    6.45    0.53
 -10   6   1    6.83    0.51
  -9   7   1    7.54    0.53
  -9   7   1    8.19    0.51
  -8   8   1   37.14    1.43
  -8   8   1   37.36    1.49
  -7   9   1   20.91    0.87
  -7   9   1   20.98    0.98
  -6  10   1   42.77    1.67
  -6  10   1   44.14    1.56
  -5  11   1    0.94    0.27
  -5  11   1    1.47    0.17
  -4  12   1    8.85    0.63
  -3  13   1   18.35    0.97
  -2  14   1    5.33    0.54
  -1  15   1    4.27    0.52
   0  16   1    6.96    0.62
   1  17   1    4.95    0.57
   2  18   1    4.81    0.60
   3  19   1    0.04    0.33
   4  20   1    5.39    0.72
   5  21   1   -0.22    0.27
   6  22   1    1.54    0.50
   7  23   1    2.35    0.63
 -18  -4   1    0.35    0.41
 -17  -3   1    1.41    0.46
 -16  -2   1    0.85    0.35
 -15  -1   1    0.45    0.29
 -14   0   1    0.27    0.29
 -13   1   1   -0.02    0.19
 -12   2   1    3.26    0.43
 -11   3   1   38.35    1.60
 -10   4   1    7.70    0.54
  -9   5   1  105.88    3.70
  -9   5   1  106.60    3.59
  -8   6   1   12.05    0.66
  -8   6   1   12.60    0.63
  -7   7   1   15.16    0.69
  -7   7   1   15.70    0.75
  -6   8   1   17.97    0.75
  -6   8   1   18.82    0.85
  -5   9   1   41.90    1.43
  -5   9   1   38.71    1.52
  -4  10   1    0.00    0.08
  -4  10   1   -0.03    0.14
  -3  11   1   42.95    1.44
  -3  11   1   38.53    1.63
  -2  12   1    0.28    0.19
  -2  12   1    0.36    0.11
  -1  13   1   12.50    0.73
   0  14   1    0.16    0.20
   1  15   1   11.37    0.76
   2  16   1    2.87    0.47
   3  17   1    3.85    0.56
   4  18   1    6.58    0.71
   5  19   1   26.18    1.44
   6  20   1    1.29    0.46
   7  21   1    2.32    0.56
   8  22   1   -0.54    0.32
 -18  -6   1    0.61    0.43
 -17  -5   1    0.93    0.45
 -16  -4   1    1.80    0.45
 -15  -3   1    0.36    0.27
 -14  -2   1   14.21    0.95
 -13  -1   1   -0.12    0.19
 -12   0   1    1.98    0.38
 -11   1   1   18.09    0.94
 -10   2   1   60.04    2.26
  -9   3   1    1.53    0.25
  -8   4   1    4.08    0.34
  -7   5   1   -0.05    0.13
  -7   5   1    0.03    0.10
  -6   6   1  121.49    3.96
  -6   6   1  120.89    4.06
  -5   7   1   14.06    0.57
  -5   7   1   13.71    0.65
  -4   8   1   56.31    1.92
  -4   8   1   57.59    1.99
  -3   9   1   48.68    1.78
  -3   9   1   48.26    1.66
  -2  10   1    1.08    0.13
  -2  10   1    0.98    0.24
  -1  11   1   27.05    1.16
  -1  11   1   26.01    0.98
   0  12   1   14.05    0.63
   0  12   1   15.58    0.82
   1  13   1    3.71    0.46
   1  13   1    3.86    0.31
   2  14   1   70.50    2.49
   2  14   1   67.15    2.57
   3  15   1   14.77    0.92
   4  16   1    5.94    0.63
   5  17   1    0.60    0.29
   6  18   1   -0.36    0.25
   7  19   1    0.43    0.38
   8  20   1   -0.13    0.35
   9  21   1   -0.28    0.36
 -17  -7   1    0.30    0.40
 -16  -6   1    0.75    0.42
 -15  -5   1    6.31    0.76
 -14  -4   1   14.22    0.96
 -13  -3   1    5.27    0.60
 -12  -2   1    3.46    0.45
 -11  -1   1   17.94    0.94
 -10   0   1   28.60    1.26
  -9   1   1   31.37    1.30
  -8   2   1   30.73    1.24
  -7   3   1   27.62    1.09
  -6   4   1   16.09    0.68
  -6   4   1   16.31    0.70
  -5   5   1   44.23    1.53
  -5   5   1   42.73    1.53
  -4   6   1   28.98    1.07
  -4   6   1   28.48    1.01
  -3   7   1   12.39    0.46
  -3   7   1   11.72    0.57
  -2   8   1    4.51    0.23
  -2   8   1    4.15    0.36
  -1   9   1  161.07    5.43
  -1   9   1  170.43    5.37
   0  10   1  243.38    8.18
   0  10   1  256.75    7.97
   1  11   1    4.24    0.46
   1  11   1    5.77    0.35
   2  12   1    0.10    0.20
   2  12   1    0.37    0.16
   3  13   1    6.97    0.48
   3  13   1    5.25    0.58
   4  14   1   -0.12    0.23
   4  14   1    0.11    0.19
   5  15   1   11.85    0.82
   5  15   1   12.44    0.73
   6  16   1    0.21    0.28
   7  17   1    2.49    0.51
   8  18   1    2.44    0.54
   9  19   1    5.27    0.74
  10  20   1    6.26    0.85
 -17  -9   1    2.96    0.67
 -16  -8   1    0.43    0.42
 -15  -7   1    5.53    0.72
 -14  -6   1   -0.23    0.23
 -13  -5   1    8.88    0.75
 -12  -4   1    7.94    0.64
 -11  -3   1   34.89    1.54
 -10  -2   1   59.78    2.30
  -9  -1   1   33.20    1.38
  -8   0   1   84.52    2.99
  -7   1   1    1.54    0.21
  -6   2   1   44.51    1.61
  -5   3   1   13.92    0.58
  -4   4   1   35.72    1.22
  -4   4   1   33.74    1.21
  -3   5   1  254.74    8.04
  -3   5   1  262.22    8.42
  -2   6   1    0.88    0.09
  -2   6   1    0.97    0.18
  -1   7   1   19.94    0.73
  -1   7   1   21.16    0.87
   0   8   1    0.45    0.18
   0   8   1    0.70    0.11
   1   9   1    6.11    0.34
   1   9   1    5.52    0.44
   2  10   1   65.72    2.28
   2  10   1   61.57    2.25
   3  11   1    8.26    0.51
   3  11   1    8.27    0.41
   3  11   1    9.07    0.57
   4  12   1   11.53    0.67
   4  12   1   12.41    0.73
   5  13   1   25.73    1.18
   5  13   1   26.26    1.22
   6  14   1    0.12    0.23
  -6 -14  -1    0.14    0.20
   7  15   1   28.80    1.38
  -7 -15  -1   27.87    1.40
   8  16   1    0.24    0.30
   9  17   1    4.29    0.61
  10  18   1    3.33    0.60
  11  19   1    6.59    0.85
 -16 -10   1    4.94    0.78
 -15  -9   1   -0.45    0.31
 -14  -8   1    1.41    0.43
 -13  -7   1    1.85    0.41
 -12  -6   1    2.18    0.41
 -11  -5   1    0.29    0.23
 -10  -4   1    7.06    0.55
  -9  -3   1    1.62    0.29
   9   3  -1    2.15    0.30
  -8  -2   1   29.27    1.22
   8   2  -1   28.48    1.19
   7   1  -1    1.20    0.19
   6   0  -1  241.89    7.97
  -5   1   1   43.44    1.55
  -4   2   1   20.96    0.78
  -3   3   1   19.38    0.68
  -3   3   1   18.63    0.69
  -2   4   1   13.53    0.53
  -2   4   1   13.46    0.46
   2  -4  -1   13.55    0.47
  -1   5   1   59.40    2.00
  -1   5   1   63.59    2.06
   1  -5  -1   60.18    2.01
   0   6   1    2.29    0.25
   0   6   1    2.84    0.17
   1   7   1   30.78    1.14
   1   7   1   31.81    1.18
   2   8   1   32.89    1.23
   2   8   1   31.96    1.23
   3   9   1    1.42    0.24
   3   9   1    1.67    0.16
   3   9   1    1.48    0.23
   4  10   1  116.87    4.14
   4  10   1  118.55    3.68
   4  10   1  122.79    3.98
   5  11   1    4.62    0.46
   5  11   1    4.41    0.44
   6  12   1    2.66    0.38
   6  12   1    3.08    0.40
  -6 -12  -1    2.27    0.38
   7  13   1    9.82    0.69
  -7 -13  -1   10.01    0.73
   8  14   1   39.72    1.72
  -8 -14  -1   38.92    1.80
   9  15   1   -0.14    0.24
  -9 -15  -1   -0.29    0.25
  10  16   1    3.52    0.55
 -10 -16  -1    4.31    0.63
  11  17   1    0.19    0.33
  12  18   1    0.37    0.42
 -16 -12   1    0.55    0.46
 -15 -11   1   -0.08    0.34
 -14 -10   1    2.93    0.54
 -13  -9   1   -0.11    0.27
 -12  -8   1    0.43    0.31
 -11  -7   1   10.32    0.78
  10   6  -1    6.41    0.55
   9   5  -1  110.71    3.95
   8   4  -1    4.49    0.39
   7   3  -1   30.10    1.23
   6   2  -1   46.45    1.71
   5   1  -1   45.34    1.63
   4   0  -1  176.17    5.79
   3  -1  -1  179.99    5.87
  -2   2   1   94.94    3.03
  -2   2   1   99.21    3.16
  -1   3   1  121.36    3.82
   0   4   1  181.57    5.68
   0   4   1  182.19    5.91
   1   5   1   67.93    2.25
   1   5   1   69.36    2.32
   2   6   1   87.29    2.90
   2   6   1   83.47    2.78
   2   6   1   84.37    2.63
   3   7   1    6.07    0.38
   3   7   1    5.81    0.26
   3   7   1    5.88    0.37
   4   8   1   16.34    0.78
   4   8   1   16.84    0.75
   4   8   1   16.90    0.58
   5   9   1  135.46    4.52
   5   9   1  143.95    4.22
   5   9   1  134.64    4.76
   6  10   1    2.46    0.34
   6  10   1    2.83    0.37
  -6 -10  -1    2.71    0.39
   7  11   1   38.96    1.53
  -7 -11  -1   35.21    1.62
   8  12   1    9.04    0.63
  -8 -12  -1    7.65    0.68
   9  13   1   -0.07    0.21
  -9 -13  -1    0.29    0.29
  10  14   1    7.63    0.75
 -10 -14  -1    7.13    0.77
  11  15   1    0.57    0.31
 -11 -15  -1    1.07    0.43
  12  16   1    0.18    0.34
 -12 -16  -1    0.32    0.42
  13  17   1    0.99    0.43
 -15 -13   1    1.44    0.50
 -14 -12   1    0.06    0.33
 -13 -11   1    0.85    0.40
  13  11  -1    0.40    0.29
 -12 -10   1   15.99    1.05
  12  10  -1   15.69    0.88
 -11  -9   1   18.50    1.10
  11   9  -1   20.39    0.99
  11   9  -1   18.94    1.08
  10   8  -1    1.25    0.26
  10   8  -1    0.97    0.31
   9   7  -1    7.46    0.59
   9   7  -1    7.54    0.49
   8   6  -1   11.15    0.60
   8   6  -1   11.90    0.70
   7   5  -1    0.83    0.22
   7   5  -1    0.03    0.10
   6   4  -1   16.39    0.74
   6   4  -1   14.84    0.64
   5   3  -1   14.00    0.64
   5   3  -1   13.56    0.56
   4   2  -1   21.08    0.81
   4   2  -1   20.24    0.74
   3   1  -1  176.92    5.50
   3   1  -1  179.27    5.84
   2   0  -1  258.03    8.44
   1  -1  -1  217.51    7.11
   0   2   1   57.99    1.79
   0   2   1   56.84    1.85
   0   2   1   55.99    1.74
   0  -2  -1   54.81    1.85
   1   3   1    3.18    0.19
   1   3   1    3.36    0.16
  -1  -3  -1    3.67    0.20
   2   4   1  505.72   16.19
   2   4   1  503.00   15.08
   2   4   1  484.53   15.30
   3   5   1   55.62    1.75
   3   5   1   59.34    2.00
   3   5   1   54.93    1.89
   4   6   1   11.86    0.56
   4   6   1   12.57    0.61
   4   6   1   12.60    0.43
   5   7   1   16.33    0.72
   5   7   1   16.05    0.77
  -5  -7  -1   15.26    0.79
   6   8   1    6.88    0.48
  -6  -8  -1    7.62    0.54
   7   9   1    5.15    0.42
  -7  -9  -1    6.39    0.51
   8  10   1    0.21    0.18
  -8 -10  -1    0.67    0.28
   9  11   1    1.10    0.29
  -9 -11  -1    1.91    0.40
  10  12   1    0.17    0.26
 -10 -12  -1    0.34    0.29
  11  13   1    2.27    0.45
 -11 -13  -1    2.37    0.49
  12  14   1   10.40    0.81
 -12 -14  -1    9.29    0.98
  13  15   1   14.46    1.02
 -13 -15  -1   14.94    1.19
  14  16   1    0.05    0.33
 -15 -15   1    0.19    0.39
 -14 -14   1    4.72    0.72
  14  14  -1    5.72    0.69
 -13 -13   1    0.17    0.34
  13  13  -1    0.03    0.27
 -12 -12   1   11.58    0.94
  12  12  -1   12.24    0.80
 -11 -11   1    1.56    0.43
  11  11  -1    1.91    0.37
  11  11  -1    1.54    0.38
  10  10  -1    1.01    0.25
  10  10  -1    0.87    0.32
   9   9  -1    4.21    0.42
   9   9  -1    3.88    0.50
   8   8  -1   33.48    1.34
   8   8  -1   35.10    1.50
   7   7  -1   12.44    0.63
   7   7  -1   13.81    0.74
   6   6  -1  109.15    3.69
   6   6  -1  119.50    3.98
   5   5  -1   41.29    1.45
   5   5  -1   42.91    1.59
   4   4  -1   35.09    1.19
   4   4  -1   34.15    1.29
   3   3  -1   19.44    0.76
   3   3  -1   18.66    0.68
   2   2  -1   96.05    3.21
   2   2  -1   97.59    3.01
   1   1  -1  234.24    7.68
   0   0   1  337.88   10.09
   0   0  -1  326.34   10.88
   1   1   1    1.34    0.10
   1   1   1    1.46    0.08
  -1  -1  -1    1.46    0.11
   2   2   1  198.65    6.05
   2   2   1  206.91    6.20
  -2  -2  -1  194.33    6.54
   3   3   1    2.10    0.20
  -3  -3  -1    2.23    0.20
   4   4   1   30.51    1.09
  -4  -4  -1   29.47    1.16
   5   5   1   73.90    2.53
  -5  -5  -1   78.25    2.71
   6   6   1    5.03    0.36
  -6  -6  -1    5.29    0.41
   7   7   1    0.57    0.21
  -7  -7  -1    0.56    0.21
   8   8   1   43.07    1.68
  -8  -8  -1   45.07    1.85
   9   9   1   16.20    0.85
  -9  -9  -1   16.87    0.98
  10  10   1   44.93    1.81
 -10 -10  -1   43.60    1.96
  11  11   1    0.58    0.30
 -11 -11  -1    0.32    0.33
  12  12   1    4.02    0.55
 -12 -12  -1    4.28    0.67
  13  13   1    7.04    0.77
 -13 -13  -1    8.00    0.92
 -14 -14  -1    1.91    0.59
  15  17  -1    0.60    0.42
 -14 -16   1   -0.04    0.37
  14  16  -1   -0.38    0.31
 -13 -15   1    2.75    0.60
  13  15  -1    3.47    0.57
 -12 -14   1   -0.09    0.30
  12  14  -1    0.23    0.29
 -11 -13   1    2.02    0.45
  11  13  -1    2.46    0.47
  11  13  -1    3.24    0.47
  10  12  -1    1.73    0.33
  10  12  -1    1.31    0.36
   9  11  -1    4.05    0.53
   9  11  -1    3.93    0.45
   8  10  -1    0.14    0.17
   8  10  -1   -0.02    0.18
   7   9  -1   18.15    0.93
   7   9  -1   17.92    0.84
   6   8  -1   16.04    0.73
   6   8  -1   16.36    0.81
   5   7  -1   13.39    0.61
   5   7  -1   13.64    0.68
   4   6  -1   27.20    1.09
   4   6  -1   26.74    0.99
   3   5  -1  259.21    7.93
   3   5  -1  251.26    8.39
   2   4  -1   15.03    0.57
   1   3  -1  119.11    3.98
   1   3  -1  121.12    3.76
   0   2  -1   55.22    1.76
   0   2  -1   56.26    1.86
  -1   1  -1    1.40    0.10
  -2   0  -1  125.53    4.14
  -3  -1  -1   34.08    1.24
   4   2   1   25.87    0.94
  -4  -2  -1   25.67    1.01
   5   3   1   18.08    0.74
  -5  -3  -1   18.48    0.80
   6   4   1   24.83    0.98
  -6  -4  -1   23.85    1.04
   7   5   1  154.16    5.03
  -7  -5  -1  156.56    5.35
   8   6   1   77.35    2.66
  -8  -6  -1   75.45    2.85
   9   7   1   11.97    0.70
  -9  -7  -1   14.87    0.86
  10   8   1    5.04    0.51
 -10  -8  -1    5.75    0.60
  11   9   1   37.19    1.61
 -11  -9  -1   38.38    1.79
 -12 -10  -1    0.29    0.30
 -13 -11  -1    1.83    0.52
 -14 -12  -1    1.62    0.52
  14  18  -1    0.43    0.38
 -13 -17   1    0.55    0.39
  13  17  -1   -0.15    0.34
 -12 -16   1    0.94    0.40
  12  16  -1    1.36    0.42
 -11 -15   1    0.41    0.31
  11  15  -1    0.72    0.34
  10  14  -1    1.94    0.43
  10  14  -1    2.18    0.42
   9  13  -1    0.69    0.27
   9  13  -1    0.47    0.29
   8  12  -1   29.79    1.43
   8  12  -1   32.54    1.36
   7  11  -1    1.99    0.34
   7  11  -1    1.83    0.31
   6  10  -1   39.64    1.66
   6  10  -1   42.66    1.58
   5   9  -1   38.34    1.57
   5   9  -1   40.74    1.49
   4   8  -1   51.84    2.03
   4   8  -1   59.38    1.95
   3   7  -1   13.42    0.59
   3   7  -1   12.00    0.60
   2   6  -1    0.94    0.16
   2   6  -1    0.61    0.14
   1   5  -1   55.99    1.98
   1   5  -1   63.08    2.08
   0   4  -1  179.54    5.59
   0   4  -1  178.16    5.86
  -1   3  -1    3.60    0.20
  -1   3  -1    3.59    0.20
  -2   2  -1  198.02    6.47
  -3   1  -1   32.13    1.16
  -4   0  -1  192.65    6.37
  -5  -1  -1   46.80    1.72
  -6  -2  -1   89.23    3.13
  -7  -3  -1    1.20    0.23
  -8  -4  -1   85.81    3.13
  -9  -5  -1    5.37    0.48
 -10  -6  -1   14.36    0.89
 -11  -7  -1    0.99    0.35
 -12  -8  -1    6.00    0.70
 -13  -9  -1    8.03    0.85
 -14 -10  -1    0.22    0.37
 -15 -11  -1    3.81    0.69
  13  19  -1    1.38    0.44
  12  18  -1    4.45    0.66
 -11 -17   1    0.97    0.39
  11  17  -1    0.76    0.37
  10  16  -1    3.09    0.50
  10  16  -1    3.07    0.53
   9  15  -1   17.32    1.05
   9  15  -1   17.92    1.04
   8  14  -1   34.14    1.50
   8  14  -1   32.27    1.53
   7  13  -1    2.74    0.40
   7  13  -1    2.43    0.39
   6  12  -1    5.68    0.49
   6  12  -1    6.30    0.49
   5  11  -1    1.12    0.25
   5  11  -1    1.55    0.27
   4  10  -1    0.06    0.14
   4  10  -1    0.04    0.14
   3   9  -1   48.90    1.83
   3   9  -1   49.80    1.79
   2   8  -1    3.37    0.30
   2   8  -1    4.42    0.31
   1   7  -1   21.35    0.86
   0   6  -1    3.32    0.27
   0   6  -1    2.93    0.23
  -1   5  -1   63.74    2.09
  -1   5  -1   63.82    2.16
  -2   4  -1  499.49   16.36
  -2   4  -1  491.30   15.23
  -3   3  -1    2.36    0.19
  -4   2  -1   26.62    1.02
  -5   1  -1   46.89    1.71
  -6   0  -1  112.61    3.86
  -7  -1  -1   53.77    2.01
  -8  -2  -1    4.77    0.42
  -9  -3  -1    1.61    0.32
 -10  -4  -1   22.73    1.15
 -11  -5  -1    0.14    0.24
 -12  -6  -1   17.77    1.07
 -13  -7  -1    0.26    0.30
 -14  -8  -1   -0.34    0.31
 -15  -9  -1   17.71    1.27
  12  20  -1   -0.40    0.33
  11  19  -1    5.52    0.74
  10  18  -1    0.00    0.30
   9  17  -1    3.17    0.53
   9  17  -1    3.48    0.52
   8  16  -1   -0.12    0.23
   8  16  -1   -0.11    0.25
   7  15  -1   -0.22    0.19
   7  15  -1   -0.13    0.19
   6  14  -1   10.31    0.72
   6  14  -1   10.49    0.69
   5  13  -1   -0.38    0.14
   5  13  -1    0.21    0.17
   4  12  -1    9.69    0.63
   4  12  -1   10.36    0.60
   3  11  -1   42.00    1.56
   3  11  -1   36.99    1.54
   2  10  -1    0.53    0.19
   2  10  -1    1.06    0.19
   1   9  -1  166.07    5.42
   1   9  -1  169.97    5.62
   0   8  -1    0.71    0.15
   0   8  -1    1.08    0.20
  -1   7  -1   30.02    1.11
  -1   7  -1   29.90    1.12
  -2   6  -1   79.84    2.60
  -2   6  -1   78.73    2.67
  -3   5  -1   56.75    1.93
  -3   5  -1   58.37    2.00
  -4   4  -1   31.47    1.15
  -4   4  -1   31.36    1.17
  -5   3  -1   18.25    0.78
  -6   2  -1   86.76    3.02
  -7   1  -1   55.14    2.05
  -8   0  -1   34.44    1.41
  -9  -1  -1   14.54    0.80
 -10  -2  -1    6.18    0.52
 -11  -3  -1    4.22    0.50
 -12  -4  -1    8.62    0.73
 -13  -5  -1   63.94    2.66
 -14  -6  -1   -0.02    0.31
 -15  -7  -1    1.56    0.49
 -16  -8  -1    2.25    0.57
  11  21  -1   -0.56    0.31
  10  20  -1    2.06    0.52
   9  19  -1    0.32    0.30
   8  18  -1   -0.29    0.29
   7  17  -1    0.14    0.29
   6  16  -1    3.10    0.47
   6  16  -1    4.17    0.47
   5  15  -1   -0.24    0.18
   5  15  -1    0.14    0.18
   4  14  -1   42.05    1.82
   4  14  -1   47.46    1.79
   3  13  -1   19.27    0.88
   3  13  -1   16.79    0.93
   2  12  -1    0.29    0.15
   2  12  -1    0.33    0.23
   1  11  -1   25.22    1.04
   1  11  -1   25.75    1.11
   0  10  -1  262.52    8.29
   0  10  -1  259.13    8.60
  -1   9  -1    6.78    0.38
  -1   9  -1    6.21    0.44
  -2   8  -1   31.54    1.20
  -2   8  -1   32.29    1.18
  -3   7  -1    5.59    0.32
  -3   7  -1    5.24    0.35
  -4   6  -1   12.51    0.58
  -4   6  -1   13.57    0.62
  -5   5  -1   80.97    2.69
  -5   5  -1   79.69    2.79
  -6   4  -1   25.45    1.04
  -7   3  -1    1.55    0.24
  -8   2  -1    4.44    0.38
  -9   1  -1   14.76    0.79
 -10   0  -1  260.37    8.80
 -11  -1  -1   31.91    1.45
 -12  -2  -1    0.03    0.21
 -13  -3  -1    9.25    0.80
 -14  -4  -1   15.78    1.08
 -15  -5  -1    2.88    0.58
 -16  -6  -1    2.39    0.58
   9  21  -1    0.97    0.39
   8  20  -1   -0.05    0.33
   7  19  -1    6.49    0.78
   6  18  -1    3.12    0.51
   5  17  -1    2.04    0.40
   4  16  -1    0.39    0.28
   4  16  -1    0.13    0.17
   3  15  -1   28.99    1.35
   3  15  -1   29.47    1.25
   2  14  -1    5.32    0.42
   2  14  -1    6.68    0.54
   1  13  -1   13.54    0.77
   1  13  -1   13.62    0.67
   0  12  -1   14.30    0.77
   0  12  -1   14.51    0.68
  -1  11  -1    6.03    0.47
  -1  11  -1    6.15    0.40
  -2  10  -1   65.47    2.30
  -2  10  -1   65.98    2.33
  -3   9  -1    1.64    0.20
  -3   9  -1    1.33    0.22
  -4   8  -1   16.54    0.71
  -4   8  -1   16.69    0.75
  -5   7  -1   16.84    0.75
  -5   7  -1   17.32    0.78
  -6   6  -1    5.80    0.41
  -6   6  -1    6.45    0.44
  -7   5  -1  161.48    5.27
  -7   5  -1  163.92    5.52
  -8   4  -1   89.99    3.21
  -9   3  -1    2.03    0.31
 -10   2  -1    5.95    0.50
 -11   1  -1   33.06    1.49
 -12   0  -1    2.86    0.45
 -13  -1  -1    7.30    0.68
 -14  -2  -1    3.82    0.58
 -15  -3  -1    0.21    0.30
 -16  -4  -1    6.60    0.83
 -17  -5  -1    2.34    0.56
   8  22  -1    0.05    0.38
   7  21  -1    1.24    0.44
   6  20  -1    7.84    0.84
   5  19  -1   10.38    0.87
   4  18  -1    1.06    0.39
   3  17  -1    3.29    0.49
   2  16  -1    0.22    0.26
   1  15  -1    3.32    0.45
   0  14  -1   -0.13    0.17
   0  14  -1   -0.02    0.14
  -1  13  -1    2.94    0.32
  -1  13  -1    3.67    0.43
  -2  12  -1    0.09    0.14
  -2  12  -1   -0.08    0.16
  -3  11  -1    7.98    0.56
  -3  11  -1    8.84    0.47
  -4  10  -1  118.32    3.93
  -4  10  -1  118.05    4.01
  -5   9  -1  145.84    4.97
  -5   9  -1  149.89    4.85
  -6   8  -1    7.47    0.46
  -6   8  -1    7.36    0.50
  -7   7  -1    0.43    0.20
  -7   7  -1    0.51    0.22
  -8   6  -1   79.10    2.80
  -8   6  -1   81.15    2.90
  -9   5  -1    5.02    0.45
 -10   4  -1   20.67    1.02
 -11   3  -1    5.15    0.55
 -12   2  -1    0.07    0.24
 -13   1  -1    7.86    0.66
 -14   0  -1    4.72    0.60
 -15  -1  -1   20.30    1.24
 -16  -2  -1    1.62    0.45
 -17  -3  -1   -0.30    0.28
   7  23  -1   -0.01    0.35
   6  22  -1    1.82    0.48
   5  21  -1    0.19    0.35
   4  20  -1   -0.31    0.28
   3  19  -1    0.58    0.35
   2  18  -1    0.19    0.24
   1  17  -1    0.16    0.24
   0  16  -1    7.36    0.59
  -1  15  -1   12.90    0.81
  -2  14  -1   71.45    2.65
  -3  13  -1    6.78    0.44
  -3  13  -1    6.49    0.58
  -4  12  -1   11.47    0.57
  -4  12  -1   11.48    0.68
  -5  11  -1    5.73    0.39
  -5  11  -1    5.81    0.49
  -6  10  -1    3.45    0.41
  -6  10  -1    2.98    0.32
  -7   9  -1    7.23    0.48
  -7   9  -1    6.60    0.53
  -8   8  -1   49.97    1.93
  -8   8  -1   51.18    1.95
  -9   7  -1   12.94    0.77
  -9   7  -1   14.31    0.77
 -10   6  -1   15.25    0.85
 -10   6  -1   14.02    0.82
 -11   5  -1    0.28    0.23
 -12   4  -1   11.08    0.78
 -13   3  -1    8.82    0.71
 -14   2  -1    5.16    0.63
 -15   1  -1   21.08    1.27
 -16   0  -1   17.47    1.16
 -17  -1  -1    0.66    0.37
   5  23  -1    0.64    0.44
   4  22  -1   -0.32    0.23
   3  21  -1    4.80    0.63
   2  20  -1    1.66    0.46
   1  19  -1   34.24    1.61
   0  18  -1   13.15    0.87
  -1  17  -1    4.70    0.55
  -2  16  -1    3.62    0.49
  -3  15  -1   15.65    0.94
  -4  14  -1    0.28    0.26
  -5  13  -1   25.91    1.22
  -6  12  -1    3.02    0.34
  -6  12  -1    2.83    0.41
  -7  11  -1   43.06    1.74
  -7  11  -1   42.42    1.66
  -8  10  -1    0.29    0.21
  -8  10  -1    0.39    0.22
  -9   9  -1   18.24    0.92
  -9   9  -1   17.89    0.97
 -10   8  -1    5.96    0.53
 -10   8  -1    6.14    0.59
 -11   7  -1    0.65    0.30
 -11   7  -1    0.69    0.28
 -12   6  -1   17.80    1.02
 -12   6  -1   19.91    1.08
 -13   5  -1   62.83    2.56
 -14   4  -1   17.90    1.10
 -15   3  -1    0.58    0.35
 -16   2  -1    1.61    0.47
 -17   1  -1    0.13    0.31
   4  24  -1    5.11    0.75
   3  23  -1    4.78    0.68
   2  22  -1    1.20    0.43
   1  21  -1    0.62    0.35
   0  20  -1    6.65    0.72
  -1  19  -1    0.21    0.32
  -2  18  -1    4.67    0.60
  -3  17  -1    3.97    0.53
  -4  16  -1    5.90    0.66
  -5  15  -1   10.41    0.77
  -6  14  -1   -0.14    0.19
  -7  13  -1   10.33    0.75
  -8  12  -1   11.23    0.77
  -9  11  -1    1.27    0.34
  -9  11  -1    0.96    0.29
 -10  10  -1   53.08    2.09
 -10  10  -1   50.19    2.06
 -11   9  -1   39.25    1.71
 -11   9  -1   39.38    1.69
 -12   8  -1    7.20    0.62
 -12   8  -1    5.63    0.61
 -13   7  -1    0.32    0.29
 -13   7  -1    0.32    0.27
 -14   6  -1    0.12    0.29
 -14   6  -1   -0.14    0.25
 -15   5  -1    2.36    0.48
 -16   4  -1    7.60    0.82
 -17   3  -1    0.48    0.39
   2  24  -1    3.31    0.62
   1  23  -1    0.11    0.34
   0  22  -1    0.76    0.37
  -1  21  -1    4.00    0.60
  -2  20  -1    1.88    0.45
  -3  19  -1    0.21    0.33
  -4  18  -1    5.37    0.66
  -5  17  -1    0.84    0.36
  -6  16  -1   -0.21    0.24
  -7  15  -1   31.55    1.53
  -8  14  -1   43.03    1.88
  -9  13  -1    0.31    0.31
 -10  12  -1    0.16    0.29
 -11  11  -1    0.80    0.34
 -12  10  -1   -0.27    0.26
 -12  10  -1    0.16    0.25
 -13   9  -1    9.78    0.78
 -13   9  -1    8.96    0.74
 -14   8  -1    0.00    0.28
 -14   8  -1    0.21    0.32
 -15   7  -1    1.45    0.44
 -15   7  -1    1.00    0.39
 -16   6  -1    2.94    0.58
 -16   6  -1    2.81    0.57
 -17   5  -1    2.36    0.62
 -17   5  -1    1.91    0.53
   0  24  -1    0.15    0.34
  -1  23  -1    1.52    0.44
  -2  22  -1   -0.11    0.32
  -3  21  -1    1.22    0.40
  -4  20  -1    6.03    0.75
  -5  19  -1   26.40    1.47
  -6  18  -1    0.39    0.40
  -7  17  -1    3.39    0.57
  -8  16  -1    0.47    0.31
  -9  15  -1   -0.26    0.28
 -10  14  -1    7.93    0.80
 -11  13  -1    2.22    0.51
 -12  12  -1    4.73    0.61
 -13  11  -1    3.22    0.55
 -14  10  -1    0.49    0.34
 -15   9  -1   18.42    1.25
 -15   9  -1   18.21    1.17
 -16   8  -1    2.71    0.57
 -16   8  -1    2.03    0.54
 -17   7  -1   -0.16    0.34
 -17   7  -1   -0.51    0.36
 -18   6  -1    3.32    0.72
  -2  24  -1    9.45    0.95
  -3  23  -1    2.36    0.55
  -4  22  -1   -0.20    0.33
  -5  21  -1   -0.03    0.33
  -6  20  -1    2.02    0.53
  -7  19  -1    0.77    0.45
  -8  18  -1    2.58    0.56
  -9  17  -1    4.84    0.70
 -10  16  -1    4.15    0.66
 -11  15  -1    0.59    0.33
 -12  14  -1   13.37    1.01
 -13  13  -1    8.25    0.88
 -14  12  -1    1.59    0.51
 -15  11  -1    4.53    0.71
 -16  10  -1   16.89    1.19
 -17   9  -1    0.05    0.43
 -18   8  -1    1.16    0.53
  -4  24  -1   -0.27    0.35
  -5  23  -1    1.35    0.51
  -6  22  -1    1.35    0.53
  -7  21  -1    3.82    0.73
  -9  19  -1    5.20    0.79
 -10  18  -1    4.32    0.74
 -11  17  -1   -0.48    0.38
 -12  16  -1    0.43    0.43
 -13  15  -1   17.89    1.23
 -14  14  -1    3.33    0.67
 -15  13  -1    0.10    0.34
 -16  12  -1    1.79    0.56
 -17  11  -1    0.08    0.36
  -7  23  -1    2.50    0.65
  -8  22  -1   -0.35    0.42
  -9  21  -1   -0.48    0.36
 -10  20  -1    7.12    1.00
 -11  19  -1    7.30    0.95
 -12  18  -1    0.01    0.41
 -13  17  -1    1.75    0.53
 -14  16  -1    0.39    0.41
 -15  15  -1    0.21    0.44
 -16  16   2   -0.24    0.40
 -15  17   2    1.06    0.49
 -14  18   2    0.68    0.46
 -13  19   2    0.01    0.47
 -12  20   2   -0.33    0.36
 -11  21   2    0.66    0.55
 -10  22   2    0.21    0.46
 -18  12   2    0.53    0.42
 -17  13   2   -0.20    0.39
 -16  14   2   -0.18    0.40
 -15  15   2   -0.07    0.41
 -14  16   2    2.59    0.63
 -13  17   2    0.53    0.40
 -12  18   2    0.38    0.41
 -11  19   2    2.66    0.69
 -10  20   2    1.80    0.63
  -9  21   2   -0.10    0.35
  -8  22   2    0.38    0.45
  -7  23   2    1.73    0.53
  -6  24   2    2.38    0.58
 -19   9   2   -0.14    0.40
 -18  10   2    0.46    0.45
 -17  11   2    2.84    0.62
 -16  12   2    0.36    0.42
 -15  13   2    1.39    0.50
 -14  14   2    0.86    0.44
 -13  15   2    2.12    0.53
 -12  16   2    0.74    0.43
 -11  17   2    0.56    0.45
 -10  18   2    0.29    0.39
  -9  19   2    6.80    0.87
  -8  20   2    1.04    0.42
  -7  21   2    1.47    0.48
  -6  22   2    0.12    0.33
  -5  23   2    1.53    0.46
  -4  24   2    1.18    0.46
 -20   6   2    2.33    0.62
 -19   7   2    2.22    0.54
 -18   8   2    2.62    0.59
 -17   9   2    1.13    0.45
 -16  10   2    0.29    0.37
 -15  11   2    3.17    0.56
 -14  12   2    2.71    0.52
 -13  13   2    0.16    0.33
 -12  14   2    6.05    0.75
 -11  15   2    1.60    0.48
 -10  16   2    5.81    0.72
  -9  17   2    0.32    0.39
  -8  18   2   -0.14    0.30
  -7  19   2    1.31    0.46
  -6  20   2   -0.13    0.35
  -5  21   2    0.51    0.38
  -4  22   2    0.25    0.31
  -3  23   2    0.92    0.37
  -2  24   2    3.33    0.63
 -20   4   2    0.13    0.33
 -19   5   2   -0.37    0.33
 -19   5   2    0.07    0.38
 -18   6   2    1.93    0.50
 -18   6   2    2.13    0.51
 -17   7   2    0.77    0.41
 -16   8   2    0.48    0.38
 -15   9   2    6.86    0.77
 -14  10   2    8.49    0.82
 -13  11   2    5.00    0.63
 -12  12   2    4.72    0.63
 -11  13   2   -0.03    0.26
 -10  14   2    0.33    0.28
  -9  15   2    2.35    0.44
  -8  16   2   -0.14    0.31
  -7  17   2    3.94    0.61
  -6  18   2    0.00    0.26
  -5  19   2    4.67    0.62
  -4  20   2    3.65    0.56
  -3  21   2    0.74    0.38
  -2  22   2    0.80    0.36
  -1  23   2    1.89    0.47
   0  24   2    2.88    0.60
 -19   3   2    0.32    0.38
 -18   4   2    1.30    0.45
 -18   4   2    1.82    0.48
 -17   5   2    7.88    0.83
 -17   5   2    9.29    0.83
 -16   6   2    3.22    0.52
 -16   6   2    3.14    0.54
 -15   7   2    4.49    0.56
 -15   7   2    3.05    0.51
 -14   8   2    1.16    0.34
 -14   8   2    0.90    0.33
 -13   9   2    0.10    0.23
 -12  10   2    3.89    0.54
 -11  11   2    3.01    0.49
 -10  12   2   15.39    0.95
  -9  13   2    1.41    0.38
  -8  14   2    0.23    0.25
  -7  15   2   11.81    0.85
  -6  16   2    2.29    0.46
  -5  17   2    2.43    0.47
  -4  18   2    0.16    0.25
  -3  19   2    6.78    0.72
  -2  20   2    0.27    0.31
  -1  21   2    1.73    0.43
   0  22   2    1.20    0.38
   1  23   2    1.55    0.49
   2  24   2    1.61    0.47
 -19   1   2   -0.04    0.36
 -18   2   2    1.14    0.44
 -17   3   2    0.35    0.33
 -16   4   2    2.15    0.42
 -15   5   2    4.84    0.57
 -15   5   2    3.80    0.52
 -14   6   2   -0.12    0.24
 -14   6   2    0.16    0.26
 -13   7   2    2.87    0.41
 -13   7   2    2.66    0.41
 -12   8   2    4.65    0.47
 -12   8   2    4.16    0.52
 -11   9   2    0.60    0.22
 -11   9   2    0.65    0.28
 -10  10   2   21.21    1.09
  -9  11   2    0.49    0.25
  -8  12   2    4.69    0.51
  -7  13   2    2.22    0.39
  -6  14   2   12.65    0.83
  -5  15   2   -0.23    0.20
  -4  16   2    3.18    0.47
  -3  17   2    2.18    0.39
  -2  18   2    0.84    0.34
  -1  19   2    1.93    0.42
   0  20   2    2.20    0.51
   1  21   2    0.27    0.36
   2  22   2   -0.17    0.32
   3  23   2    0.79    0.40
 -19  -1   2    0.23    0.38
 -18   0   2   -0.08    0.33
 -17   1   2    2.18    0.48
 -16   2   2    4.79    0.62
 -15   3   2    3.97    0.54
 -14   4   2    8.32    0.68
 -13   5   2   10.03    0.71
 -13   5   2   11.56    0.76
 -12   6   2    1.02    0.32
 -12   6   2    1.01    0.30
 -11   7   2    1.75    0.31
 -11   7   2    1.88    0.35
 -10   8   2    4.53    0.39
 -10   8   2    4.25    0.48
  -9   9   2   20.97    1.01
  -9   9   2   20.88    0.90
  -8  10   2   -0.02    0.13
  -8  10   2    0.06    0.18
  -7  11   2    8.96    0.61
  -6  12   2   26.37    1.19
  -5  13   2    1.48    0.32
  -4  14   2    0.99    0.29
  -3  15   2    0.64    0.29
  -2  16   2    2.50    0.40
  -1  17   2    0.95    0.29
   0  18   2    0.13    0.29
   1  19   2    4.78    0.62
   2  20   2    1.32    0.45
   3  21   2    2.06    0.48
   4  22   2    0.68    0.42
   5  23   2    1.02    0.45
 -19  -3   2   -0.49    0.32
 -18  -2   2    1.21    0.44
 -17  -1   2    1.43    0.45
 -16   0   2    8.10    0.75
 -15   1   2    6.03    0.67
 -14   2   2   -0.08    0.22
 -13   3   2    2.31    0.38
 -12   4   2   24.68    1.15
 -11   5   2    8.91    0.58
 -11   5   2    8.78    0.60
 -10   6   2    1.64    0.26
 -10   6   2    1.57    0.28
  -9   7   2   22.82    0.97
  -9   7   2   22.57    1.04
  -8   8   2    4.21    0.32
  -8   8   2    3.57    0.39
  -7   9   2    5.37    0.32
  -7   9   2    5.05    0.44
  -6  10   2    1.19    0.14
  -6  10   2    1.08    0.23
  -5  11   2    0.05    0.18
  -4  12   2    2.96    0.39
  -3  13   2    1.63    0.31
  -2  14   2   14.01    0.83
  -1  15   2    2.91    0.44
   0  16   2    0.15    0.27
   1  17   2    5.22    0.59
   2  18   2    0.07    0.31
   3  19   2    3.88    0.61
   4  20   2    1.79    0.48
   5  21   2    0.72    0.42
   6  22   2   -0.12    0.29
 -18  -4   2    0.65    0.46
 -17  -3   2   -0.02    0.35
 -16  -2   2    4.61    0.64
 -15  -1   2    6.05    0.69
 -14   0   2    1.21    0.33
 -13   1   2    2.62    0.42
 -12   2   2   25.81    1.22
 -11   3   2    3.73    0.41
 -10   4   2   46.12    1.78
  -9   5   2    4.10    0.35
  -9   5   2    4.72    0.39
  -8   6   2   24.37    0.99
  -8   6   2   24.79    1.04
  -7   7   2   10.12    0.49
  -7   7   2   10.30    0.56
  -6   8   2   48.28    1.66
  -6   8   2   47.80    1.75
  -5   9   2    6.91    0.45
  -5   9   2    6.85    0.30
  -4  10   2    4.29    0.43
  -3  11   2    2.71    0.38
  -2  12   2   69.13    2.51
  -1  13   2    2.22    0.35
   0  14   2    2.87    0.42
   1  15   2    1.51    0.36
   2  16   2    2.31    0.42
   3  17   2    1.11    0.36
   4  18   2    0.00    0.26
   5  19   2    1.92    0.48
   6  20   2    0.04    0.32
   7  21   2    0.21    0.39
   8  22   2    0.03    0.41
 -18  -6   2    2.13    0.55
 -17  -5   2    6.41    0.81
 -16  -4   2    1.59    0.45
 -15  -3   2    3.16    0.51
 -14  -2   2   -0.06    0.24
 -13  -1   2    2.16    0.38
 -12   0   2    8.15    0.62
 -11   1   2    7.08    0.54
 -10   2   2    5.07    0.42
  -9   3   2   15.05    0.73
  -8   4   2   31.10    1.24
  -8   4   2   31.92    1.22
  -7   5   2    5.66    0.35
  -7   5   2    6.24    0.40
  -6   6   2    6.58    0.34
  -6   6   2    6.85    0.41
  -5   7   2   79.32    2.64
  -5   7   2   79.52    2.66
  -4   8   2    2.75    0.14
  -4   8   2    2.87    0.30
  -3   9   2    0.72    0.21
  -2  10   2   16.65    0.80
  -2  10   2   14.43    0.54
  -1  11   2   15.29    0.75
  -1  11   2   12.30    0.53
   0  12   2    5.92    0.35
   0  12   2    6.94    0.51
   1  13   2    0.19    0.20
   2  14   2    7.94    0.62
   3  15   2    0.16    0.24
   4  16   2   -0.26    0.23
   5  17   2    4.00    0.55
   6  18   2    0.01    0.27
   7  19   2    1.95    0.50
   8  20   2    1.26    0.48
   9  21   2   -0.13    0.41
 -18  -8   2    1.86    0.61
 -17  -7   2    0.55    0.37
 -16  -6   2    3.58    0.61
 -15  -5   2    4.50    0.61
 -14  -4   2    6.22    0.66
 -13  -3   2    1.87    0.40
 -12  -2   2   24.50    1.22
 -11  -1   2    6.11    0.53
 -10   0   2   10.30    0.63
  -9   1   2    2.07    0.28
  -8   2   2  111.14    3.82
  -7   3   2   11.80    0.55
  -6   4   2    1.87    0.18
  -6   4   2    2.04    0.22
  -5   5   2    2.62    0.24
  -5   5   2    2.70    0.19
  -4   6   2   89.11    2.85
  -4   6   2   84.59    2.84
  -3   7   2   21.30    0.88
  -2   8   2   51.42    1.86
  -1   9   2    0.87    0.11
  -1   9   2    0.99    0.23
   0  10   2    0.26    0.17
   0  10   2    0.33    0.11
   1  11   2    1.42    0.29
   1  11   2    2.03    0.22
   2  12   2   22.08    1.05
   2  12   2   22.24    0.88
  -2 -12  -2   22.02    0.96
   3  13   2    1.96    0.36
  -3 -13  -2    1.36    0.27
   4  14   2    2.64    0.42
  -4 -14  -2    3.21    0.42
   5  15   2    0.95    0.30
   6  16   2    1.70    0.38
   7  17   2    3.80    0.57
   8  18   2   -0.01    0.29
   9  19   2    3.41    0.61
  10  20   2    0.42    0.41
 -17  -9   2    0.65    0.38
 -16  -8   2    0.00    0.32
 -15  -7   2    3.64    0.58
 -14  -6   2   -0.13    0.23
 -13  -5   2   11.04    0.83
 -12  -4   2   26.16    1.29
 -11  -3   2    3.92    0.46
  11   3  -2    3.94    0.44
  10   2  -2    5.05    0.44
   9   1  -2    1.85    0.26
   8   0  -2   10.76    0.57
   7  -1  -2    5.39    0.34
   6  -2  -2   28.81    1.08
  -5   3   2   17.89    0.69
  -5   3   2   17.73    0.69
   5  -3  -2   17.92    0.68
  -4   4   2    3.19    0.22
  -4   4   2    3.27    0.18
  -3   5   2   29.93    1.08
  -2   6   2    5.76    0.38
  -1   7   2   49.07    1.73
   1  -7  -2   47.98    1.63
   0   8   2    0.45    0.15
   0  -8  -2    0.94    0.13
   1   9   2    0.36    0.16
  -1  -9  -2    0.01    0.09
   2  10   2   18.23    0.71
   2  10   2   18.96    0.87
  -2 -10  -2   16.05    0.78
   3  11   2    4.95    0.30
   3  11   2    4.61    0.41
  -3 -11  -2    4.56    0.39
   4  12   2    2.97    0.38
  -4 -12  -2    2.39    0.34
   5  13   2    0.51    0.24
  -5 -13  -2    0.51    0.22
   6  14   2    6.63    0.58
  -6 -14  -2    6.24    0.58
   7  15   2    0.54    0.30
  -7 -15  -2    0.29    0.30
   8  16   2    0.41    0.29
   9  17   2    0.61    0.37
  10  18   2    1.55    0.50
  11  19   2    0.68    0.41
 -17 -11   2    2.41    0.59
 -16 -10   2    0.08    0.40
 -15  -9   2    4.59    0.68
 -14  -8   2    1.03    0.40
 -13  -7   2    2.74    0.47
  12   6  -2    1.46    0.35
  11   5  -2    8.37    0.62
  10   4  -2   46.86    1.90
   9   3  -2   15.00    0.79
   8   2  -2  114.28    3.96
   7   1  -2    5.53    0.36
   6   0  -2    0.34    0.11
   5  -1  -2    2.35    0.20
  -4   2   2  143.01    4.46
   4  -2  -2  140.79    4.68
  -3   3   2  133.54    4.27
   3  -3  -2  139.73    4.44
  -2   4   2    2.91    0.24
  -1   5   2   42.76    1.57
   1  -5  -2   47.25    1.52
   1  -5  -2   46.97    1.52
   0   6   2    0.97    0.16
   0  -6  -2    1.32    0.13
   1   7   2   75.07    2.48
   1   7   2   73.81    2.34
  -1  -7  -2   72.16    2.51
   2   8   2   38.07    1.27
   2   8   2   37.73    1.41
  -2  -8  -2   38.10    1.42
   3   9   2    0.15    0.14
   3   9   2    0.10    0.09
  -3  -9  -2    0.12    0.13
   4  10   2   -0.03    0.08
   4  10   2    0.21    0.15
  -4 -10  -2   -0.01    0.15
   5  11   2    8.86    0.57
  -5 -11  -2    9.03    0.60
   6  12   2   24.43    1.12
  -6 -12  -2   23.28    1.17
   7  13   2    0.77    0.27
  -7 -13  -2    0.51    0.29
   8  14   2    1.20    0.33
  -8 -14  -2    0.99    0.40
   9  15   2    0.31    0.31
  -9 -15  -2    0.14    0.36
  10  16   2    1.58    0.42
  11  17   2    0.65    0.39
  12  18   2    0.64    0.42
 -16 -12   2    0.42    0.38
 -15 -11   2    2.26    0.52
 -14 -10   2    5.46    0.72
 -13  -9   2   -0.32    0.26
  13   9  -2   -0.10    0.19
  12   8  -2    3.47    0.49
  11   7  -2    2.02    0.37
  10   6  -2    1.44    0.30
   9   5  -2    3.98    0.34
   9   5  -2    4.11    0.44
  -8  -4   2   30.26    0.97
   8   4  -2   31.39    1.28
   8   4  -2   29.07    1.14
   7   3  -2   13.46    0.67
   6   2  -2   29.02    1.14
   5   1  -2    2.48    0.22
   4   0  -2  160.96    5.30
  -3   1   2   19.47    0.66
   3  -1  -2   19.81    0.71
  -2   2   2    5.75    0.25
   2  -2  -2    5.62    0.25
  -1   3   2  208.63    6.64
  -1   3   2  217.03    6.98
  -1   3   2  212.57    6.51
   1  -3  -2  218.05    7.03
   0   4   2   23.02    0.82
   0   4   2   22.41    0.77
   0  -4  -2   22.34    0.80
   1   5   2    0.30    0.08
   1   5   2    0.35    0.10
  -1  -5  -2    0.52    0.11
   2   6   2   13.56    0.59
   2   6   2   13.02    0.50
  -2  -6  -2   13.50    0.59
   3   7   2   54.72    1.73
   3   7   2   53.32    1.88
  -3  -7  -2   55.04    1.97
   4   8   2    1.55    0.15
   4   8   2    1.10    0.20
   5   9   2    0.28    0.16
  -5  -9  -2    0.23    0.19
   6  10   2   15.25    0.79
  -6 -10  -2   14.47    0.84
   7  11   2    2.52    0.38
  -7 -11  -2    2.82    0.44
   8  12   2    3.99    0.47
  -8 -12  -2    4.21    0.55
   9  13   2    4.03    0.53
  -9 -13  -2    3.42    0.55
  10  14   2    1.24    0.38
 -10 -14  -2    0.38    0.36
  11  15   2    1.21    0.38
 -11 -15  -2    0.56    0.41
  12  16   2    0.16    0.27
  13  17   2    0.03    0.34
 -15 -13   2    1.34    0.50
 -14 -12   2    2.58    0.55
 -13 -11   2    4.63    0.66
  13  11  -2    4.34    0.64
  13  11  -2    4.36    0.52
  12  10  -2    3.47    0.45
  12  10  -2    3.67    0.54
  11   9  -2    0.36    0.28
  11   9  -2    0.62    0.22
  10   8  -2    3.75    0.39
  10   8  -2    3.59    0.49
   9   7  -2   21.37    1.06
   9   7  -2   20.22    0.90
   8   6  -2   22.23    0.92
   8   6  -2   22.69    1.05
   7   5  -2    5.48    0.43
   7   5  -2    5.17    0.34
  -6  -4   2    1.94    0.10
   6   4  -2    1.84    0.20
   6   4  -2    2.45    0.27
  -5  -3   2   17.39    0.57
   5   3  -2   17.23    0.75
   5   3  -2   17.53    0.66
  -4  -2   2  140.27    4.26
   4   2  -2  140.03    4.68
   4   2  -2  139.35    4.38
  -3  -1   2   18.61    0.62
   3   1  -2   18.44    0.72
  -2   0   2  104.93    3.04
   2   0  -2   92.93    3.29
  -1   1   2   17.11    0.56
  -1   1   2   16.56    0.58
   1  -1  -2   17.84    0.62
   0   2   2  253.85    7.64
   0   2   2  253.66    7.78
   0  -2  -2  251.17    8.28
   1   3   2  107.36    3.32
   1   3   2  108.94    3.42
  -1  -3  -2  108.38    3.59
   2   4   2    8.72    0.35
   2   4   2    9.10    0.42
  -2  -4  -2    9.79    0.44
   3   5   2   13.54    0.59
   3   5   2   13.52    0.50
  -3  -5  -2   13.90    0.63
   4   6   2   43.17    1.37
   4   6   2   42.69    1.53
  -4  -6  -2   42.43    1.62
   5   7   2   36.32    1.37
   5   7   2   35.74    1.17
  -5  -7  -2   36.04    1.46
   6   8   2   34.73    1.37
  -6  -8  -2   34.92    1.47
   7   9   2   -0.10    0.14
  -7  -9  -2   -0.03    0.21
   8  10   2   -0.04    0.16
  -8 -10  -2    0.19    0.25
   9  11   2    0.43    0.26
  -9 -11  -2    0.76    0.35
  10  12   2    9.29    0.69
 -10 -12  -2    7.93    0.83
  11  13   2   -0.05    0.26
 -11 -13  -2    0.04    0.31
  12  14   2    1.57    0.39
 -12 -14  -2    2.16    0.55
  13  15   2    0.79    0.39
 -13 -15  -2    0.55    0.44
 -15 -15   2    0.22    0.41
  15  15  -2    0.47    0.32
 -14 -14   2    0.23    0.35
  14  14  -2    0.08    0.28
 -13 -13   2    0.13    0.27
  13  13  -2    0.15    0.28
  13  13  -2    0.01    0.33
  12  12  -2    3.56    0.55
  12  12  -2    3.80    0.47
  11  11  -2    2.92    0.50
  11  11  -2    2.79    0.41
  10  10  -2   16.48    0.84
  10  10  -2   16.77    1.00
   9   9  -2   19.01    0.87
   9   9  -2   18.75    1.02
   8   8  -2    4.27    0.46
   8   8  -2    3.60    0.35
   7   7  -2    8.48    0.48
   7   7  -2    8.92    0.58
   6   6  -2    5.31    0.34
   6   6  -2    6.03    0.41
   5   5  -2    2.01    0.26
   5   5  -2    2.69    0.21
   4   4  -2    2.94    0.20
   4   4  -2    3.26    0.27
  -3  -3   2  134.20    3.93
   3   3  -2  118.77    4.33
   3   3  -2  135.62    4.04
  -2  -2   2    6.05    0.23
   2   2  -2    5.58    0.22
   2   2  -2    5.38    0.32
  -1  -1   2   16.37    0.58
   1   1  -2   18.33    0.65
   0   0   2    1.38    0.15
   0   0  -2    1.28    0.17
   1   1   2   15.32    0.53
   1   1   2   15.20    0.54
   2   2   2    0.58    0.11
   2   2   2    0.33    0.12
  -2  -2  -2    0.42    0.13
   3   3   2   57.81    1.85
   3   3   2   59.93    1.95
  -3  -3  -2   58.50    2.06
   4   4   2    0.45    0.12
  -4  -4  -2    0.55    0.16
   5   5   2    1.82    0.23
  -5  -5  -2    1.91    0.27
   6   6   2    0.21    0.14
  -6  -6  -2    0.38    0.21
   7   7   2   18.89    0.88
  -7  -7  -2   19.16    0.97
   8   8   2    0.03    0.16
  -8  -8  -2   -0.04    0.21
   9   9   2    3.15    0.40
  -9  -9  -2    3.41    0.49
  10  10   2    8.07    0.66
 -10 -10  -2    8.13    0.76
  11  11   2    1.20    0.36
 -11 -11  -2    0.95    0.39
  12  12   2   -0.28    0.19
 -12 -12  -2   -0.06    0.33
 -13 -13  -2    0.37    0.38
 -14 -14  -2   -0.14    0.41
  15  17  -2    1.03    0.43
 -14 -16   2    2.37    0.58
  14  16  -2    2.68    0.53
 -13 -15   2    1.52    0.46
  13  15  -2    0.90    0.34
  12  14  -2    3.02    0.54
  12  14  -2    4.50    0.57
  11  13  -2    0.35    0.28
  11  13  -2   -0.03    0.19
  10  12  -2   13.21    0.87
  10  12  -2   13.66    0.81
   9  11  -2    0.36    0.24
   9  11  -2    0.53    0.23
   8  10  -2    0.33    0.18
   8  10  -2    0.14    0.17
   7   9  -2    4.93    0.50
   7   9  -2    5.13    0.39
   6   8  -2   44.18    1.57
   6   8  -2   42.75    1.72
   5   7  -2   78.68    2.52
   5   7  -2   72.51    2.71
   4   6  -2   85.10    2.74
   4   6  -2   83.48    2.95
   3   5  -2   31.31    1.07
   3   5  -2   29.22    1.18
   2   4  -2    2.56    0.23
   2   4  -2    2.10    0.17
   1   3  -2  220.37    6.86
   1   3  -2  222.24    7.26
   0   2  -2  240.37    7.92
   0   2  -2  245.55    7.49
  -2   0  -2    5.40    0.30
  -3  -1  -2    9.20    0.45
  -4  -2  -2   92.22    3.18
   5   3   2   26.89    1.00
  -5  -3  -2   24.23    1.05
   6   4   2    0.19    0.15
  -6  -4  -2    0.07    0.16
   7   5   2    0.59    0.21
  -7  -5  -2    0.92    0.24
   8   6   2    2.39    0.34
  -8  -6  -2    1.91    0.34
   9   7   2   14.22    0.80
  -9  -7  -2   16.49    0.92
 -10  -8  -2    4.66    0.60
 -11  -9  -2   -0.29    0.26
 -12 -10  -2    1.28    0.42
 -13 -11  -2    0.38    0.33
 -14 -12  -2    2.06    0.58
  14  18  -2    0.90    0.41
 -13 -17   2    0.52    0.38
  13  17  -2    0.64    0.37
  12  16  -2    0.12    0.30
  12  16  -2    0.56    0.34
  11  15  -2    0.94    0.37
  11  15  -2    0.86    0.34
  10  14  -2    0.42    0.31
  10  14  -2    0.57    0.28
   9  13  -2    1.53    0.38
   9  13  -2    1.37    0.34
   8  12  -2    5.74    0.49
   8  12  -2    4.56    0.53
   7  11  -2    8.38    0.60
   7  11  -2    7.85    0.53
   6  10  -2    1.02    0.25
   6  10  -2    1.38    0.23
   5   9  -2    6.07    0.45
   5   9  -2    6.79    0.43
   4   8  -2    3.21    0.31
   4   8  -2    2.85    0.31
   3   7  -2   20.36    0.89
   3   7  -2   21.48    0.84
   2   6  -2    5.71    0.36
   2   6  -2    5.13    0.33
   1   5  -2   48.76    1.72
   1   5  -2   46.78    1.63
   0   4  -2   22.44    0.80
   0   4  -2   22.40    0.85
  -1   3  -2  109.89    3.45
  -1   3  -2  109.15    3.65
  -2   2  -2    0.60    0.14
  -3   1  -2    9.97    0.47
  -4   0  -2  116.92    3.96
  -5  -1  -2   21.04    0.90
  -6  -2  -2    8.88    0.52
  -7  -3  -2   39.28    1.59
  -8  -4  -2    2.13    0.33
  -9  -5  -2    2.09    0.37
 -10  -6  -2   -0.03    0.19
 -11  -7  -2    3.24    0.52
 -12  -8  -2    0.37    0.29
 -13  -9  -2    0.53    0.38
 -14 -10  -2    2.85    0.60
 -15 -11  -2    0.07    0.37
  13  19  -2    0.25    0.35
  12  18  -2   -0.02    0.27
  12  18  -2    0.30    0.33
  11  17  -2    0.12    0.31
  11  17  -2    0.29    0.31
  10  16  -2    7.58    0.77
  10  16  -2    6.09    0.68
   9  15  -2    1.89    0.40
   9  15  -2    2.26    0.42
   8  14  -2   -0.03    0.23
   8  14  -2    0.81    0.30
   7  13  -2    2.46    0.37
   7  13  -2    2.45    0.37
   6  12  -2   25.73    1.16
   6  12  -2   26.93    1.22
   5  11  -2    0.32    0.19
   5  11  -2    0.13    0.17
   4  10  -2    4.17    0.38
   4  10  -2    4.06    0.40
   3   9  -2    1.14    0.21
   3   9  -2    1.37    0.23
   2   8  -2   48.39    1.78
   2   8  -2   51.93    1.86
   1   7  -2   48.13    1.81
   1   7  -2   50.47    1.75
   0   6  -2    1.29    0.18
   0   6  -2    1.12    0.16
  -1   5  -2    0.36    0.11
  -1   5  -2    0.62    0.11
  -2   4  -2    8.82    0.41
  -2   4  -2    8.84    0.42
  -3   3  -2   58.72    2.06
  -4   2  -2   94.58    3.25
  -5   1  -2   21.50    0.92
  -6   0  -2   28.35    1.17
  -7  -1  -2    8.85    0.54
  -8  -2  -2   72.43    2.69
  -9  -3  -2   16.64    0.91
 -10  -4  -2    2.44    0.39
 -11  -5  -2    1.79    0.38
 -12  -6  -2    2.03    0.43
 -13  -7  -2    5.05    0.69
 -14  -8  -2    1.21    0.48
 -15  -9  -2    2.76    0.62
  12  20  -2   -0.29    0.32
  11  19  -2    1.29    0.47
  10  18  -2    0.47    0.31
   9  17  -2    0.79    0.36
   9  17  -2    0.93    0.33
   8  16  -2    0.04    0.21
   8  16  -2   -0.05    0.19
   7  15  -2   10.83    0.74
   7  15  -2   11.95    0.80
   6  14  -2   14.26    0.80
   6  14  -2   12.58    0.80
   5  13  -2    1.27    0.30
   5  13  -2    1.37    0.28
   4  12  -2    3.22    0.36
   4  12  -2    2.79    0.36
   3  11  -2    2.40    0.30
   3  11  -2    2.30    0.32
   2  10  -2   17.43    0.82
   2  10  -2   16.17    0.78
   1   9  -2    1.12    0.21
   1   9  -2    1.42    0.25
   0   8  -2    0.82    0.19
   0   8  -2    0.74    0.16
  -1   7  -2   68.11    2.39
  -1   7  -2   69.64    2.31
  -2   6  -2   13.17    0.58
  -2   6  -2   13.63    0.58
  -3   5  -2   14.51    0.62
  -3   5  -2   13.81    0.63
  -4   4  -2    0.32    0.14
  -5   3  -2   25.21    1.04
  -6   2  -2   10.20    0.57
  -7   1  -2    9.65    0.58
  -8   0  -2   24.14    1.09
  -9  -1  -2    3.61    0.43
 -10  -2  -2    3.09    0.44
 -11  -3  -2   13.87    0.90
 -12  -4  -2    5.85    0.69
 -13  -5  -2    3.62    0.57
 -14  -6  -2   -0.05    0.34
 -15  -7  -2    0.78    0.43
  11  21  -2    0.14    0.39
  10  20  -2    1.05    0.47
   9  19  -2    5.32    0.71
   8  18  -2   -0.14    0.23
   7  17  -2    3.34    0.46
   7  17  -2    2.86    0.50
   6  16  -2    1.48    0.38
   6  16  -2    2.06    0.34
   5  15  -2    0.33    0.19
   5  15  -2    0.08    0.19
   4  14  -2    0.88    0.24
   4  14  -2    0.38    0.25
   3  13  -2    1.47    0.31
   3  13  -2    1.92    0.28
   2  12  -2   64.48    2.37
   2  12  -2   65.55    2.36
   1  11  -2   13.87    0.70
   1  11  -2   15.36    0.77
   0  10  -2    0.36    0.18
   0  10  -2    0.22    0.18
  -1   9  -2   -0.08    0.13
  -1   9  -2   -0.04    0.10
  -2   8  -2   36.34    1.35
  -2   8  -2   37.48    1.38
  -3   7  -2   57.83    2.04
  -3   7  -2   56.97    1.98
  -4   6  -2   44.83    1.67
  -4   6  -2   45.84    1.62
  -5   5  -2    2.03    0.25
  -5   5  -2    2.11    0.26
  -6   4  -2    0.18    0.16
  -7   3  -2   41.05    1.62
  -8   2  -2   71.72    2.65
  -9   1  -2    3.41    0.42
 -10   0  -2   -0.11    0.23
 -11  -1  -2   -0.10    0.19
 -12  -2  -2   14.84    0.94
 -13  -3  -2    0.06    0.27
 -14  -4  -2    2.27    0.51
 -15  -5  -2    0.49    0.39
 -16  -6  -2    0.75    0.40
  10  22  -2   -0.11    0.37
   9  21  -2    0.01    0.29
   8  20  -2    0.86    0.36
   7  19  -2    1.82    0.43
   6  18  -2   -0.05    0.23
   5  17  -2    2.33    0.44
   4  16  -2    3.87    0.53
   4  16  -2    4.07    0.45
   3  15  -2    1.42    0.36
   3  15  -2    2.98    0.36
   2  14  -2   12.73    0.69
   2  14  -2   13.72    0.79
   1  13  -2    1.83    0.31
   1  13  -2    1.92    0.27
   0  12  -2    6.67    0.45
   0  12  -2    5.95    0.47
  -1  11  -2    2.04    0.33
  -1  11  -2    2.06    0.27
  -2  10  -2   16.54    0.79
  -2  10  -2   17.90    0.77
  -3   9  -2    0.30    0.13
  -3   9  -2    0.08    0.14
  -4   8  -2    1.16    0.21
  -4   8  -2    1.57    0.24
  -5   7  -2   35.58    1.43
  -5   7  -2   37.99    1.41
  -6   6  -2    0.33    0.16
  -6   6  -2    0.16    0.18
  -7   5  -2    0.76    0.23
  -8   4  -2    2.94    0.38
  -9   3  -2   17.30    0.90
 -10   2  -2    3.27    0.43
 -11   1  -2    0.18    0.22
 -12   0  -2    2.47    0.42
 -13  -1  -2    0.14    0.28
 -14  -2  -2   -0.16    0.28
 -15  -3  -2    1.16    0.46
 -16  -4  -2   -0.10    0.36
   8  22  -2    0.18    0.34
   7  21  -2    2.13    0.53
   6  20  -2    0.03    0.31
   5  19  -2    3.20    0.55
   4  18  -2   -0.20    0.21
   3  17  -2    3.06    0.48
   2  16  -2    1.82    0.37
   1  15  -2    2.94    0.34
   1  15  -2    3.90    0.48
   0  14  -2    2.33    0.36
   0  14  -2    2.96    0.33
  -1  13  -2    0.03    0.17
  -1  13  -2    0.10    0.16
  -2  12  -2   22.90    0.98
  -2  12  -2   22.04    1.05
  -3  11  -2    4.34    0.35
  -3  11  -2    4.70    0.40
  -4  10  -2   -0.01    0.14
  -4  10  -2   -0.01    0.14
  -5   9  -2    0.17    0.15
  -5   9  -2    0.15    0.19
  -6   8  -2   36.60    1.48
  -6   8  -2   38.06    1.50
  -7   7  -2   19.40    0.92
  -7   7  -2   19.78    0.93
  -8   6  -2    1.59    0.28
  -8   6  -2    1.68    0.30
  -9   5  -2    2.38    0.37
 -10   4  -2    2.73    0.40
 -11   3  -2   13.66    0.86
 -12   2  -2   13.54    0.87
 -13   1  -2    0.09    0.23
 -14   0  -2   -0.06    0.31
 -15  -1  -2    1.26    0.40
 -16  -2  -2    3.96    0.64
   7  23  -2    1.61    0.49
   6  22  -2   -0.22    0.33
   5  21  -2    0.20    0.33
   4  20  -2    3.34    0.55
   3  19  -2    8.10    0.78
   2  18  -2    0.85    0.34
   1  17  -2    1.24    0.33
   0  16  -2    0.44    0.24
  -1  15  -2    0.92    0.29
  -2  14  -2    9.09    0.56
  -2  14  -2    7.47    0.61
  -3  13  -2    1.52    0.25
  -3  13  -2    1.22    0.29
  -4  12  -2    2.64    0.30
  -4  12  -2    2.28    0.35
  -5  11  -2   10.41    0.65
  -5  11  -2   10.54    0.60
  -6  10  -2   15.66    0.84
  -6  10  -2   16.40    0.80
  -7   9  -2    0.22    0.20
  -7   9  -2   -0.03    0.16
  -8   8  -2    0.10    0.18
  -8   8  -2   -0.10    0.18
  -9   7  -2   16.27    0.89
  -9   7  -2   16.61    0.89
 -10   6  -2    0.26    0.23
 -10   6  -2    0.17    0.23
 -11   5  -2    2.75    0.45
 -12   4  -2    5.98    0.66
 -13   3  -2    0.21    0.28
 -14   2  -2    0.21    0.31
 -15   1  -2    1.83    0.49
 -16   0  -2    4.30    0.68
 -17  -1  -2    0.07    0.38
   6  24  -2    1.61    0.49
   5  23  -2    0.35    0.38
   4  22  -2    0.68    0.39
   3  21  -2    1.21    0.43
   2  20  -2    0.11    0.31
   1  19  -2    2.07    0.44
   0  18  -2    0.06    0.26
  -1  17  -2    5.23    0.58
  -2  16  -2    2.95    0.44
  -3  15  -2    0.46    0.31
  -4  14  -2    1.76    0.35
  -5  13  -2    0.42    0.23
  -5  13  -2    0.28    0.18
  -6  12  -2   27.94    1.22
  -6  12  -2   28.44    1.30
  -7  11  -2    3.56    0.44
  -7  11  -2    3.36    0.39
  -8  10  -2   -0.17    0.21
  -8  10  -2    0.26    0.25
  -9   9  -2    4.08    0.47
  -9   9  -2    3.54    0.45
 -10   8  -2    5.43    0.57
 -10   8  -2    6.01    0.55
 -11   7  -2    3.57    0.49
 -11   7  -2    3.03    0.47
 -12   6  -2    1.58    0.42
 -12   6  -2    1.94    0.38
 -13   5  -2    2.78    0.49
 -14   4  -2    1.78    0.46
 -15   3  -2    1.39    0.43
 -16   2  -2    2.55    0.56
 -17   1  -2    1.08    0.48
   4  24  -2    0.31    0.38
   3  23  -2    1.17    0.45
   2  22  -2    1.19    0.42
   1  21  -2    1.78    0.46
   0  20  -2    1.99    0.45
  -1  19  -2    5.03    0.63
  -2  18  -2   -0.02    0.28
  -3  17  -2    2.13    0.42
  -4  16  -2    0.42    0.31
  -5  15  -2    1.53    0.36
  -6  14  -2    6.51    0.65
  -7  13  -2    0.79    0.29
  -8  12  -2    4.42    0.48
  -8  12  -2    5.81    0.60
  -9  11  -2    0.71    0.30
  -9  11  -2    0.92    0.33
 -10  10  -2    8.55    0.68
 -10  10  -2    8.36    0.67
 -11   9  -2    0.40    0.28
 -11   9  -2    0.03    0.25
 -12   8  -2    0.54    0.31
 -12   8  -2    0.23    0.26
 -13   7  -2    5.90    0.67
 -13   7  -2    5.92    0.67
 -14   6  -2    0.11    0.32
 -14   6  -2   -0.22    0.26
 -15   5  -2   -0.04    0.32
 -16   4  -2    0.27    0.31
 -17   3  -2   -0.14    0.36
   2  24  -2    2.56    0.55
   1  23  -2    1.11    0.42
   0  22  -2    0.94    0.36
  -1  21  -2    0.17    0.32
  -2  20  -2    1.19    0.36
  -3  19  -2    4.50    0.62
  -4  18  -2    0.01    0.26
  -5  17  -2    4.42    0.65
  -6  16  -2    2.12    0.47
  -7  15  -2    0.53    0.30
  -8  14  -2    1.44    0.40
  -9  13  -2    4.28    0.59
 -10  12  -2   11.24    0.85
 -11  11  -2    1.53    0.38
 -11  11  -2    0.88    0.32
 -12  10  -2    0.47    0.31
 -12  10  -2    0.76    0.32
 -13   9  -2   -0.13    0.25
 -13   9  -2    0.19    0.30
 -14   8  -2    1.74    0.48
 -14   8  -2    1.58    0.40
 -15   7  -2    0.32    0.33
 -15   7  -2    0.47    0.39
 -16   6  -2    1.74    0.53
 -16   6  -2    1.38    0.47
 -17   5  -2    1.14    0.46
 -17   5  -2    1.00    0.48
 -18   4  -2    0.44    0.42
   0  24  -2    3.05    0.58
  -1  23  -2    0.99    0.36
  -2  22  -2    0.14    0.35
  -3  21  -2    1.60    0.44
  -4  20  -2    1.31    0.40
  -5  19  -2    2.42    0.51
  -6  18  -2    0.18    0.34
  -7  17  -2    4.01    0.62
  -8  16  -2    0.25    0.37
  -9  15  -2    0.24    0.29
 -10  14  -2    1.34    0.41
 -11  13  -2   -0.01    0.31
 -12  12  -2   -0.25    0.30
 -13  11  -2    0.40    0.35
 -14  10  -2    2.94    0.53
 -15   9  -2    2.58    0.55
 -15   9  -2    3.51    0.62
 -16   8  -2   -0.01    0.35
 -16   8  -2    0.41    0.42
 -17   7  -2    0.12    0.41
 -17   7  -2    0.36    0.43
 -18   6  -2    0.69    0.51
  -2  24  -2    1.86    0.48
  -3  23  -2    0.62    0.41
  -4  22  -2    0.86    0.44
  -5  21  -2    0.05    0.39
  -6  20  -2   -0.10    0.36
  -7  19  -2    2.23    0.58
  -8  18  -2    0.11    0.40
  -9  17  -2    0.64    0.42
 -10  16  -2    1.42    0.48
 -11  15  -2    1.08    0.45
 -12  14  -2    1.20    0.47
 -13  13  -2    0.77    0.45
 -14  12  -2    2.75    0.56
 -15  11  -2    0.47    0.36
 -16  10  -2   -0.47    0.35
 -17   9  -2   -0.48    0.37
  -5  23  -2    1.37    0.48
  -6  22  -2   -0.45    0.28
  -7  21  -2    0.20    0.38
  -8  20  -2    2.81    0.67
  -9  19  -2    3.37    0.71
 -10  18  -2    0.40    0.45
 -11  17  -2    0.93    0.47
 -12  16  -2    0.05    0.31
 -13  15  -2    0.74    0.44
 -14  14  -2    0.45    0.41
 -15  13  -2    0.01    0.38
 -16  12  -2    0.48    0.44
  -9  21  -2    0.26    0.48
 -10  20  -2    0.04    0.41
 -11  19  -2    0.77    0.50
 -12  18  -2    0.31    0.43
 -13  17  -2    0.12    0.42
 -17  15   3    5.68    0.86
 -16  16   3    1.82    0.56
 -15  17   3    0.51    0.41
 -14  18   3   -0.28    0.36
 -13  19   3    1.72    0.62
 -12  20   3    1.05    0.59
 -11  21   3    1.05    0.53
 -10  22   3    1.39    0.54
 -19  11   3    0.01    0.36
 -18  12   3   -0.03    0.39
 -17  13   3   -0.39    0.30
 -16  14   3    0.86    0.49
 -15  15   3    4.69    0.76
 -14  16   3    0.19    0.43
 -13  17   3    2.25    0.60
 -12  18   3    0.35    0.48
 -11  19   3    7.24    0.95
 -10  20   3   10.76    1.13
  -9  21   3    0.36    0.38
  -8  22   3   -0.05    0.38
  -7  23   3    4.47    0.72
  -6  24   3    1.98    0.55
 -20   8   3    0.55    0.42
 -19   9   3   -0.05    0.38
 -18  10   3    8.18    0.92
 -17  11   3    1.42    0.47
 -16  12   3    2.55    0.57
 -15  13   3    0.86    0.47
 -14  14   3    0.85    0.41
 -13  15   3   30.96    1.64
 -12  16   3    3.05    0.63
 -11  17   3    0.32    0.42
 -10  18   3    5.87    0.83
  -9  19   3   11.87    1.13
  -8  20   3    0.91    0.47
  -7  21   3    3.25    0.64
  -6  22   3    0.48    0.39
  -5  23   3    0.53    0.39
  -4  24   3    0.01    0.33
 -20   6   3    1.54    0.53
 -19   7   3    0.99    0.46
 -18   8   3    1.09    0.47
 -17   9   3   -0.63    0.31
 -16  10   3   34.38    1.71
 -15  11   3    6.68    0.77
 -14  12   3    0.11    0.38
 -13  13   3    7.86    0.82
 -12  14   3   30.78    1.58
 -11  15   3    0.55    0.34
 -10  16   3    3.64    0.63
  -9  17   3    2.58    0.54
  -8  18   3    0.44    0.34
  -7  19   3    2.05    0.51
  -6  20   3   -0.29    0.25
  -5  21   3   -0.12    0.31
  -4  22   3    0.90    0.41
  -3  23   3    0.91    0.44
  -2  24   3    8.77    0.92
 -21   3   3    1.69    0.55
 -20   4   3    0.96    0.47
 -20   4   3    1.28    0.44
 -19   5   3   11.80    1.02
 -19   5   3   11.16    0.99
 -18   6   3   10.92    0.97
 -18   6   3   11.52    1.01
 -17   7   3   -0.44    0.25
 -16   8   3    1.92    0.49
 -15   9   3   41.03    1.88
 -14  10   3    2.79    0.51
 -13  11   3    8.53    0.81
 -12  12   3    2.29    0.45
 -11  13   3    0.20    0.30
 -10  14   3   22.38    1.21
  -9  15   3   -0.20    0.23
  -8  16   3    0.19    0.31
  -7  17   3    1.81    0.42
  -6  18   3    0.02    0.31
  -5  19   3   29.28    1.49
  -4  20   3   10.38    0.87
  -3  21   3    2.23    0.49
  -2  22   3    0.31    0.31
  -1  23   3    3.55    0.63
   0  24   3    0.00    0.36
 -20   2   3    1.62    0.47
 -19   3   3    0.25    0.36
 -18   4   3   28.73    1.54
 -18   4   3   28.29    1.52
 -17   5   3   10.31    0.82
 -17   5   3    9.74    0.91
 -16   6   3    0.10    0.28
 -16   6   3    0.31    0.33
 -15   7   3    2.26    0.41
 -15   7   3    2.01    0.44
 -14   8   3   -0.09    0.26
 -13   9   3    8.96    0.72
 -12  10   3    2.47    0.41
 -11  11   3    0.89    0.32
 -10  12   3   -0.06    0.20
  -9  13   3    1.38    0.36
  -8  14   3   51.05    2.11
  -7  15   3   40.54    1.81
  -6  16   3   -0.02    0.28
  -5  17   3    0.19    0.28
  -4  18   3   12.76    0.87
  -3  19   3    1.87    0.43
  -2  20   3    4.43    0.62
   0  22   3    0.81    0.39
   1  23   3   -0.13    0.35
   2  24   3    0.55    0.41
 -20   0   3    9.19    0.98
 -19   1   3   -0.44    0.24
 -18   2   3    2.59    0.54
 -17   3   3    0.31    0.31
 -16   4   3    5.05    0.62
 -15   5   3   11.84    0.83
 -15   5   3   11.79    0.81
 -14   6   3    0.08    0.21
 -14   6   3    0.06    0.25
 -13   7   3    0.21    0.22
 -13   7   3    0.26    0.25
 -12   8   3    8.16    0.63
 -12   8   3    8.02    0.55
 -11   9   3   34.36    1.51
 -10  10   3  102.64    3.60
  -9  11   3   13.71    0.81
  -8  12   3    2.31    0.39
  -7  13   3   32.59    1.45
  -6  14   3    6.84    0.68
  -5  15   3    4.15    0.53
  -4  16   3   15.46    0.92
  -3  17   3    1.95    0.39
  -2  18   3    9.49    0.76
  -1  19   3   -0.01    0.30
   0  20   3    6.02    0.72
   1  21   3   -0.22    0.26
   2  22   3    2.03    0.53
   3  23   3    2.84    0.62
 -19  -1   3   -0.29    0.30
 -18   0   3    1.21    0.42
 -17   1   3    0.26    0.31
 -16   2   3    3.55    0.53
 -15   3   3    6.96    0.63
 -14   4   3   12.86    0.81
 -13   5   3  106.12    3.65
 -13   5   3  101.82    3.74
 -12   6   3   61.49    2.29
 -12   6   3   59.97    2.30
 -11   7   3    0.23    0.18
 -11   7   3    0.55    0.25
 -10   8   3   41.11    1.62
 -10   8   3   38.67    1.52
  -9   9   3   76.00    2.70
  -9   9   3   74.96    2.62
  -8  10   3    0.08    0.17
  -7  11   3   24.53    1.11
  -6  12   3    4.84    0.50
  -5  13   3   18.18    0.98
  -4  14   3    0.08    0.20
  -3  15   3   13.10    0.83
  -2  16   3   10.39    0.73
  -1  17   3    6.14    0.67
   0  18   3    4.07    0.59
   1  19   3   33.28    1.63
   2  20   3    1.63    0.47
   3  21   3    4.49    0.66
   4  22   3   -0.13    0.29
   5  23   3    0.44    0.44
 -19  -3   3    0.68    0.41
 -18  -2   3    2.29    0.50
 -17  -1   3    0.71    0.37
 -16   0   3   31.13    1.58
 -15   1   3   51.01    2.17
 -14   2   3    3.37    0.47
 -13   3   3   35.60    1.56
 -12   4   3   66.41    2.51
 -11   5   3    0.31    0.21
 -11   5   3    0.23    0.18
 -10   6   3   59.55    2.17
 -10   6   3   59.45    2.18
  -9   7   3    2.51    0.34
  -9   7   3    2.30    0.26
  -8   8   3   41.48    1.45
  -8   8   3   38.00    1.53
  -7   9   3   25.62    0.92
  -7   9   3   25.19    1.08
  -6  10   3    7.29    0.52
  -5  11   3   28.72    1.26
  -4  12   3    6.09    0.51
  -3  13   3   12.63    0.77
  -2  14   3   66.35    2.49
  -1  15   3   35.10    1.55
   0  16   3   11.50    0.81
   0  16   3   10.22    0.64
   1  17   3    0.35    0.32
   2  18   3    1.06    0.39
   3  19   3   -0.11    0.28
   4  20   3    0.76    0.41
   5  21   3    0.25    0.31
   6  22   3    0.17    0.41
 -19  -5   3    9.76    1.05
 -18  -4   3   27.73    1.61
 -17  -3   3    0.03    0.31
 -16  -2   3    3.02    0.50
 -15  -1   3   49.30    2.11
 -14   0   3   27.83    1.35
 -13   1   3   35.48    1.55
 -12   2   3    0.28    0.21
 -11   3   3    2.87    0.35
 -10   4   3   31.09    1.29
 -10   4   3   32.57    1.29
  -9   5   3    0.11    0.17
  -9   5   3    0.21    0.15
  -8   6   3  205.67    6.55
  -8   6   3  204.45    6.78
  -7   7   3    2.35    0.28
  -7   7   3    2.45    0.20
  -6   8   3   -0.13    0.12
  -6   8   3    0.04    0.06
  -5   9   3  229.64    7.33
  -4  10   3  198.75    6.45
  -3  11   3    3.50    0.43
  -2  12   3   10.41    0.67
  -1  13   3   10.87    0.71
   0  14   3    3.88    0.48
   1  15   3   13.31    0.86
   2  16   3   -0.09    0.24
   3  17   3    1.58    0.38
   4  18   3    0.63    0.38
   5  19   3    1.99    0.52
   6  20   3    7.02    0.82
   7  21   3   -0.02    0.31
 -18  -6   3    8.69    0.95
 -17  -5   3   10.48    0.94
 -16  -4   3    5.09    0.65
 -15  -3   3    6.10    0.66
 -14  -2   3    3.18    0.48
 -13  -1   3   35.58    1.58
 -12   0   3   10.55    0.69
 -11   1   3   48.32    1.90
 -10   2   3    0.13    0.14
  -9   3   3    3.45    0.31
  -8   4   3  108.37    3.54
  -8   4   3  106.95    3.67
  -7   5   3  524.29   16.15
  -7   5   3  519.36   16.94
  -6   6   3    0.36    0.10
  -6   6   3    0.12    0.14
  -5   7   3   16.01    0.55
  -5   7   3   14.93    0.69
  -4   8   3    5.17    0.39
  -3   9   3    3.86    0.40
  -2  10   3   50.68    1.89
  -1  11   3   13.51    0.71
   1 -11  -3   11.74    0.50
   0  12   3    4.53    0.48
   0 -12  -3    3.71    0.29
   1  13   3    6.10    0.53
   1  13   3    7.07    0.45
   2  14   3   -0.01    0.20
   3  15   3   25.64    1.29
   4  16   3    0.41    0.29
   5  17   3    1.93    0.46
   6  18   3    2.32    0.49
   7  19   3   10.81    0.92
   8  20   3    0.15    0.31
 -18  -8   3    1.95    0.55
 -17  -7   3   -0.16    0.33
 -16  -6   3    0.49    0.36
 -15  -5   3   10.96    0.88
 -14  -4   3   13.32    0.89
 -13  -3   3   34.43    1.59
  13   3  -3   34.77    1.56
  12   2  -3    0.50    0.21
  11   1  -3   50.93    1.99
  10   0  -3  389.76   12.86
   9  -1  -3   68.48    2.46
   8  -2  -3    0.07    0.10
  -7   3   3    7.95    0.43
   7  -3  -3    8.48    0.42
  -6   4   3   18.78    0.76
   6  -4  -3   19.66    0.74
  -5   5   3   23.43    0.90
  -5   5   3   23.99    0.85
  -4   6   3    1.94    0.22
  -3   7   3    0.13    0.13
  -2   8   3   17.84    0.81
  -1   9   3    0.24    0.17
   1  -9  -3    0.62    0.10
   0  10   3  119.32    3.69
   0  10   3  110.49    3.84
   0 -10  -3  114.51    3.85
   1  11   3   21.97    0.86
   1  11   3   21.94    1.00
  -1 -11  -3   19.62    0.88
   2  12   3    6.93    0.56
   2  12   3    7.92    0.44
  -2 -12  -3    6.94    0.49
   3  13   3    7.99    0.62
  -3 -13  -3    8.67    0.58
   4  14   3   73.30    2.73
   5  15   3    0.53    0.27
   6  16   3    3.15    0.53
   7  17   3    0.32    0.33
   8  18   3    0.42    0.33
   9  19   3   -0.33    0.33
 -17  -9   3   -0.22    0.35
 -16  -8   3    2.32    0.50
 -15  -7   3    1.88    0.47
 -14  -6   3   -0.15    0.22
  14   6  -3    0.69    0.27
  13   5  -3   98.63    3.70
  12   4  -3   64.58    2.54
  11   3  -3    2.52    0.35
  10   2  -3    0.25    0.16
   9   1  -3   71.76    2.60
   8   0  -3   33.58    1.31
   7  -1  -3   33.78    1.28
   6  -2  -3   44.86    1.59
  -5   3   3    0.58    0.11
   5  -3  -3    0.73    0.10
  -4   4   3   38.66    1.32
   4  -4  -3   38.75    1.30
  -3   5   3  109.00    3.53
  -2   6   3    9.17    0.48
   2  -6  -3    9.09    0.33
   2  -6  -3    9.48    0.33
  -1   7   3   10.50    0.49
  -1   7   3   10.43    0.54
   1  -7  -3   10.94    0.43
   0   8   3   -0.06    0.12
   0   8   3    0.06    0.10
   0  -8  -3    0.15    0.09
   1   9   3  212.90    6.66
   1   9   3  221.18    6.92
  -1  -9  -3  215.25    7.15
   2  10   3   58.48    2.10
   2  10   3   59.09    1.93
  -2 -10  -3   56.77    2.12
   3  11   3   31.35    1.31
   3  11   3   31.90    1.12
  -3 -11  -3   30.76    1.31
   4  12   3    2.99    0.39
  -4 -12  -3    3.32    0.42
   5  13   3    0.58    0.25
  -5 -13  -3    0.79    0.28
   6  14   3    7.18    0.61
  -6 -14  -3    6.25    0.65
   7  15   3    1.61    0.41
   8  16   3    0.14    0.27
   9  17   3    0.61    0.35
  10  18   3    0.03    0.30
 -17 -11   3    0.84    0.48
 -16 -10   3   28.09    1.65
 -15  -9   3   36.20    1.86
  14   8  -3    0.69    0.31
  13   7  -3    0.17    0.26
  12   6  -3   59.57    2.42
  11   5  -3    0.19    0.18
 -10  -4   3   29.85    1.03
  10   4  -3   32.98    1.38
  -9  -3   3    3.26    0.21
   9   3  -3    3.04    0.35
   8   2  -3    0.09    0.13
   7   1  -3   34.71    1.34
   6   0  -3   64.11    2.24
   5  -1  -3  256.86    8.40
  -4   2   3   20.06    0.71
   4  -2  -3   20.50    0.75
  -3   3   3    1.12    0.14
   3  -3  -3    1.15    0.12
  -2   4   3  684.13   22.86
  -2   4   3  779.52   22.63
   2  -4  -3  759.65   24.13
  -1   5   3  163.45    5.14
  -1   5   3  158.94    5.02
   1  -5  -3  166.53    5.32
   0   6   3   16.60    0.69
   0   6   3   16.43    0.63
   0  -6  -3   16.67    0.64
   1   7   3   16.63    0.64
   1   7   3   16.77    0.72
  -1  -7  -3   16.47    0.69
   2   8   3    2.03    0.20
   2   8   3    1.51    0.22
  -2  -8  -3    2.27    0.25
   3   9   3    7.49    0.48
   3   9   3    7.70    0.37
  -3  -9  -3    8.08    0.50
   4  10   3    1.76    0.29
   4  10   3    2.10    0.20
  -4 -10  -3    2.41    0.34
   5  11   3    1.46    0.27
  -5 -11  -3    1.05    0.29
   6  12   3    0.14    0.23
  -6 -12  -3    0.24    0.26
   7  13   3    9.83    0.72
  -7 -13  -3    8.45    0.72
   8  14   3   12.20    0.86
  -8 -14  -3   11.19    0.87
   9  15   3   14.89    0.98
  10  16   3   -0.04    0.31
  11  17   3    0.79    0.39
 -16 -12   3    2.86    0.63
 -15 -11   3    6.14    0.79
  15  11  -3    6.57    0.82
  14  10  -3    2.27    0.50
  13   9  -3    6.52    0.74
  12   8  -3    6.77    0.63
  11   7  -3    0.26    0.20
  11   7  -3    0.22    0.20
  10   6  -3   54.24    1.97
  10   6  -3   56.33    2.20
  -9  -5   3    0.29    0.06
   9   5  -3   -0.02    0.12
   9   5  -3    0.27    0.18
  -8  -4   3  101.19    3.12
   8   4  -3  100.52    3.31
   8   4  -3  103.58    3.60
  -7  -3   3    7.95    0.33
   7   3  -3    8.60    0.50
  -6  -2   3   45.13    1.46
   6   2  -3   46.33    1.69
  -5  -1   3  249.84    7.65
   5   1  -3  255.11    8.31
  -4   0   3  715.85   21.80
   4   0  -3  725.74   23.71
  -3   1   3   29.49    0.99
  -3   1   3   30.47    0.96
   3  -1  -3   28.85    1.09
  -2   2   3  360.06   11.08
  -2   2   3  361.19   10.90
   2  -2  -3  360.23   11.85
  -1   3   3   83.12    2.66
  -1   3   3   84.66    2.70
   1  -3  -3   87.49    2.83
   0   4   3   17.14    0.62
   0   4   3   16.85    0.64
   0  -4  -3   16.21    0.64
   1   5   3   28.95    1.05
   1   5   3   29.68    0.99
  -1  -5  -3   28.21    1.07
   2   6   3   41.12    1.35
   2   6   3   38.92    1.43
  -2  -6  -3   41.94    1.50
   3   7   3    2.10    0.18
   3   7   3    1.77    0.23
  -3  -7  -3    1.84    0.25
   4   8   3   48.65    1.79
   4   8   3   48.03    1.62
  -4  -8  -3   52.89    1.91
   5   9   3    5.63    0.44
  -5  -9  -3    6.37    0.50
   6  10   3   48.82    1.85
  -6 -10  -3   47.23    1.96
   7  11   3    3.03    0.40
  -7 -11  -3    2.32    0.42
   8  12   3    4.55    0.51
  -8 -12  -3    4.13    0.55
   9  13   3    1.60    0.40
  -9 -13  -3    1.56    0.41
  10  14   3    4.59    0.62
 -10 -14  -3    4.70    0.67
  11  15   3    0.64    0.33
 -11 -15  -3    0.65    0.46
  12  16   3    1.49    0.43
 -16 -14   3    0.71    0.44
 -15 -13   3    1.80    0.50
  15  13  -3    1.31    0.43
  14  12  -3    0.17    0.25
  14  12  -3    0.09    0.32
  13  11  -3    5.54    0.71
  13  11  -3    6.86    0.56
  12  10  -3    1.74    0.33
  12  10  -3    2.25    0.42
  11   9  -3   30.36    1.49
  11   9  -3   30.79    1.29
  10   8  -3   34.87    1.38
  10   8  -3   34.62    1.57
   9   7  -3    2.16    0.27
   9   7  -3    2.78    0.38
   8   6  -3  184.27    6.32
   8   6  -3  185.62    5.87
  -7  -5   3  490.81   14.53
   7   5  -3  487.37   14.94
   7   5  -3  473.25   15.88
  -6  -4   3   18.57    0.63
   6   4  -3   18.84    0.71
   6   4  -3   18.71    0.85
  -5  -3   3    0.61    0.08
   5   3  -3    0.78    0.11
   5   3  -3    0.70    0.16
  -4  -2   3   20.41    0.69
   4   2  -3   20.75    0.68
   4   2  -3   18.67    0.82
  -3  -1   3   30.94    0.99
   3   1  -3   28.39    1.13
  -2   0   3   60.24    1.92
   2   0  -3   61.70    2.09
  -1   1   3   12.18    0.43
  -1   1   3   12.36    0.47
   1  -1  -3   12.47    0.50
   0   2   3    0.24    0.07
   0   2   3    0.32    0.09
   0  -2  -3    0.20    0.09
   1   3   3   44.21    1.41
   1   3   3   42.65    1.45
  -1  -3  -3   43.08    1.53
   2   4   3    7.78    0.39
   2   4   3    7.70    0.35
  -2  -4  -3    8.07    0.41
   3   5   3  175.78    5.44
   3   5   3  177.01    5.63
  -3  -5  -3  180.23    5.94
   4   6   3  192.52    5.88
   4   6   3  193.75    6.12
  -4  -6  -3  189.81    6.45
   5   7   3   16.80    0.80
   5   7   3   17.53    0.65
  -5  -7  -3   17.01    0.85
   6   8   3   34.28    1.40
  -6  -8  -3   36.89    1.53
   7   9   3   30.05    1.30
  -7  -9  -3   32.01    1.44
   8  10   3    0.04    0.18
  -8 -10  -3    0.04    0.23
   9  11   3    7.74    0.63
  -9 -11  -3    8.19    0.73
  10  12   3   -0.02    0.28
 -10 -12  -3    0.34    0.32
  11  13   3   -0.07    0.28
 -11 -13  -3    0.17    0.35
  12  14   3    0.11    0.28
 -12 -14  -3   -0.70    0.35
 -13 -15  -3   -0.32    0.39
 -15 -15   3    4.30    0.72
  15  15  -3    2.98    0.53
  14  14  -3    1.21    0.46
  14  14  -3    1.62    0.42
  13  13  -3    6.56    0.78
  13  13  -3    6.69    0.68
  12  12  -3    2.43    0.40
  12  12  -3    2.66    0.51
  11  11  -3    0.35    0.19
  11  11  -3    0.43    0.27
  10  10  -3   86.27    3.31
  10  10  -3   88.05    3.02
   9   9  -3   64.61    2.22
   9   9  -3   59.96    2.44
   8   8  -3   36.69    1.37
   8   8  -3   35.79    1.55
   7   7  -3    2.21    0.25
   7   7  -3    2.52    0.33
   6   6  -3    0.37    0.15
   6   6  -3    0.49    0.12
   5   5  -3   21.60    0.76
   5   5  -3   18.68    0.88
  -4  -4   3   38.47    1.20
   4   4  -3   35.39    1.42
   4   4  -3   37.98    1.24
  -3  -3   3    0.83    0.11
   3   3  -3    0.86    0.18
   3   3  -3    1.05    0.10
  -2  -2   3  369.59   11.46
   2   2  -3  387.74   11.78
   2   2  -3  382.49   12.39
  -1  -1   3   11.92    0.46
   0   0   3  572.36   17.22
   0   0  -3  552.19   18.63
   1   1   3  277.45    8.49
   1   1   3  278.61    8.36
  -1  -1  -3  269.99    9.00
   2   2   3   10.47    0.44
   2   2   3    9.74    0.41
  -2  -2  -3    9.56    0.48
   3   3   3    0.26    0.11
   3   3   3    0.47    0.10
  -3  -3  -3    0.28    0.13
   4   4   3   92.52    3.02
  -4  -4  -3   90.06    3.19
   5   5   3   15.58    0.73
  -5  -5  -3   16.25    0.78
   6   6   3   71.07    2.53
  -6  -6  -3   74.55    2.70
   7   7   3    1.45    0.28
  -7  -7  -3    2.19    0.36
   8   8   3   -0.14    0.18
  -8  -8  -3    0.19    0.24
   9   9   3   11.32    0.73
  -9  -9  -3   12.60    0.87
  10  10   3    0.26    0.23
 -10 -10  -3    0.54    0.32
  11  11   3    2.63    0.47
 -11 -11  -3    1.94    0.51
 -12 -12  -3    2.20    0.55
 -13 -13  -3   -0.13    0.40
  15  17  -3    0.62    0.37
  14  16  -3    0.16    0.33
  14  16  -3   -0.25    0.24
  13  15  -3   27.06    1.52
  13  15  -3   25.91    1.38
  12  14  -3   26.54    1.32
  12  14  -3   29.15    1.52
  11  13  -3    0.21    0.24
  11  13  -3    0.40    0.30
  10  12  -3    0.09    0.20
  10  12  -3    0.12    0.23
   9  11  -3   12.48    0.70
   9  11  -3   11.07    0.75
   8  10  -3    0.04    0.15
   8  10  -3    0.06    0.17
   7   9  -3   23.35    0.96
   7   9  -3   23.02    1.09
   6   8  -3   -0.11    0.14
   6   8  -3   -0.03    0.11
   5   7  -3   15.89    0.79
   5   7  -3   16.10    0.67
   4   6  -3    2.09    0.26
   4   6  -3    2.10    0.21
   3   5  -3  119.40    3.66
   3   5  -3  110.75    3.95
   2   4  -3  706.62   22.99
   2   4  -3  763.96   23.89
   1   3  -3   83.85    2.63
   1   3  -3   83.78    2.85
   0   2  -3    0.32    0.11
  -1   1  -3  270.86    8.87
  -2   0  -3  181.70    6.02
  -3  -1  -3   15.97    0.70
  -4  -2  -3    0.13    0.13
  -5  -3  -3    1.41    0.25
  -6  -4  -3    2.33    0.31
  -7  -5  -3    9.51    0.64
  -8  -6  -3   26.43    1.27
  -9  -7  -3   -0.11    0.23
 -10  -8  -3   -0.63    0.22
 -11  -9  -3    7.32    0.78
 -12 -10  -3   20.56    1.30
 -13 -11  -3    0.07    0.40
 -14 -12  -3    0.15    0.43
 -14 -18   3    0.78    0.40
  14  18  -3   -0.01    0.29
  13  17  -3    1.46    0.44
  13  17  -3    2.47    0.54
  12  16  -3    2.74    0.54
  12  16  -3    2.06    0.44
  11  15  -3    0.42    0.29
  11  15  -3    0.35    0.32
  10  14  -3   21.27    1.13
  10  14  -3   23.27    1.24
   9  13  -3    0.91    0.29
   9  13  -3    0.95    0.29
   8  12  -3    2.74    0.40
   8  12  -3    2.09    0.33
   7  11  -3   25.13    1.10
   7  11  -3   26.30    1.22
   6  10  -3    6.58    0.47
   6  10  -3    7.41    0.55
   5   9  -3  242.69    7.52
   5   9  -3  232.17    7.97
   4   8  -3    5.55    0.37
   4   8  -3    6.55    0.45
   3   7  -3    0.17    0.12
   3   7  -3    0.16    0.14
   2   6  -3   10.12    0.54
   2   6  -3    8.63    0.45
   1   5  -3  170.77    5.23
   1   5  -3  161.49    5.53
   0   4  -3   15.34    0.58
   0   4  -3   15.60    0.66
  -1   3  -3   45.04    1.46
  -1   3  -3   42.45    1.57
  -2   2  -3    9.44    0.47
  -3   1  -3   14.69    0.66
  -4   0  -3   54.75    1.99
  -5  -1  -3    6.95    0.44
  -6  -2  -3    0.22    0.17
  -7  -3  -3   25.27    1.15
  -8  -4  -3    8.56    0.61
  -9  -5  -3   77.21    2.96
 -10  -6  -3    0.40    0.26
 -11  -7  -3    2.73    0.50
 -12  -8  -3   -0.10    0.27
 -13  -9  -3    1.92    0.52
 -14 -10  -3    2.38    0.56
  13  19  -3    0.96    0.43
  12  18  -3    0.65    0.41
  12  18  -3    0.65    0.40
  11  17  -3   -0.08    0.27
  11  17  -3   -0.06    0.28
  10  16  -3    3.86    0.54
  10  16  -3    3.48    0.54
   9  15  -3   -0.17    0.22
   9  15  -3   -0.20    0.20
   8  14  -3   51.13    2.17
   8  14  -3   54.13    2.08
   7  13  -3   29.18    1.32
   7  13  -3   33.58    1.44
   6  12  -3    5.68    0.50
   6  12  -3    6.42    0.50
   5  11  -3   30.73    1.34
   5  11  -3   31.05    1.28
   4  10  -3  192.87    6.52
   4  10  -3  214.70    6.90
   3   9  -3    3.70    0.34
   3   9  -3    2.88    0.32
   2   8  -3   17.78    0.86
   2   8  -3   19.22    0.81
   1   7  -3   10.87    0.54
   1   7  -3    9.67    0.53
   0   6  -3   16.51    0.66
   0   6  -3   16.22    0.70
  -1   5  -3   28.84    1.03
  -1   5  -3   28.87    1.11
  -2   4  -3    7.46    0.37
  -2   4  -3    7.35    0.41
  -3   3  -3    0.35    0.14
  -4   2  -3    0.17    0.12
  -5   1  -3    6.26    0.42
  -6   0  -3  203.36    6.85
  -7  -1  -3   29.32    1.27
  -8  -2  -3    0.07    0.17
  -9  -3  -3    1.44    0.31
 -10  -4  -3   31.81    1.51
 -11  -5  -3    2.64    0.48
 -12  -6  -3    0.26    0.29
 -13  -7  -3    0.60    0.35
 -14  -8  -3   -0.23    0.36
  12  20  -3    1.82    0.51
  11  19  -3    8.05    0.88
  10  18  -3    6.37    0.72
  10  18  -3    5.57    0.68
   9  17  -3    2.08    0.43
   9  17  -3    2.33    0.47
   8  16  -3    0.11    0.20
   8  16  -3   -0.01    0.23
   7  15  -3   38.58    1.69
   7  15  -3   40.84    1.73
   6  14  -3    5.45    0.55
   6  14  -3    7.53    0.56
   5  13  -3   19.23    0.95
   5  13  -3   17.16    0.93
   4  12  -3    6.39    0.47
   4  12  -3    4.48    0.47
   3  11  -3    4.29    0.42
   3  11  -3    4.46    0.40
   2  10  -3   49.09    1.79
   2  10  -3   47.79    1.86
   1   9  -3    0.74    0.20
   1   9  -3    0.39    0.16
   0   8  -3    0.12    0.11
   0   8  -3   -0.06    0.11
  -1   7  -3   16.52    0.69
  -1   7  -3   16.41    0.73
  -2   6  -3   40.70    1.45
  -2   6  -3   41.44    1.53
  -3   5  -3  181.60    6.18
  -3   5  -3  188.73    5.86
  -4   4  -3   90.02    3.14
  -5   3  -3    1.57    0.25
  -6   2  -3    0.63    0.21
  -7   1  -3   31.61    1.35
  -8   0  -3    1.60    0.29
  -9  -1  -3   35.47    1.55
 -10  -2  -3    8.00    0.65
 -11  -3  -3    6.60    0.69
 -12  -4  -3   13.44    0.93
 -13  -5  -3    1.44    0.45
 -14  -6  -3    1.26    0.46
 -15  -7  -3    0.34    0.44
  11  21  -3    0.08    0.35
  10  20  -3    8.37    0.90
   9  19  -3    8.46    0.87
   8  18  -3    0.74    0.34
   8  18  -3    0.16    0.30
   7  17  -3    1.52    0.35
   7  17  -3    1.45    0.37
   6  16  -3    0.40    0.25
   6  16  -3    0.02    0.21
   5  15  -3    4.76    0.50
   5  15  -3    5.14    0.57
   4  14  -3   -0.15    0.20
   4  14  -3    0.47    0.22
   3  13  -3   12.31    0.73
   3  13  -3   11.49    0.67
   2  12  -3   10.23    0.62
   2  12  -3    9.31    0.59
   1  11  -3   13.68    0.75
   1  11  -3   15.72    0.78
   0  10  -3  115.11    4.00
   0  10  -3  116.16    3.88
  -1   9  -3  213.43    7.13
  -1   9  -3  214.56    6.80
  -2   8  -3    1.89    0.25
  -2   8  -3    1.92    0.24
  -3   7  -3    1.95    0.25
  -3   7  -3    1.99    0.25
  -4   6  -3  197.17    6.70
  -4   6  -3  203.21    6.37
  -5   5  -3   16.40    0.75
  -5   5  -3   15.45    0.76
  -6   4  -3    2.52    0.33
  -7   3  -3   27.56    1.22
  -8   2  -3    0.00    0.18
  -9   1  -3   34.43    1.51
 -10   0  -3    0.86    0.28
 -11  -1  -3   14.27    0.93
 -12  -2  -3    2.07    0.47
 -13  -3  -3    0.72    0.33
 -14  -4  -3    8.82    0.83
 -15  -5  -3    8.80    0.96
  10  22  -3    0.67    0.44
   9  21  -3   -0.32    0.32
   8  20  -3    0.48    0.32
   6  18  -3   -0.25    0.28
   5  17  -3    0.41    0.22
   5  17  -3    0.13    0.27
   4  16  -3   16.02    0.95
   4  16  -3   15.99    0.87
   3  15  -3   12.32    0.71
   3  15  -3   12.42    0.80
   2  14  -3   65.42    2.41
   2  14  -3   64.91    2.44
   1  13  -3   10.48    0.64
   1  13  -3    8.80    0.58
   0  12  -3    3.99    0.41
   0  12  -3    3.85    0.43
  -1  11  -3   20.97    0.93
  -1  11  -3   19.60    0.94
  -2  10  -3   58.02    2.06
  -2  10  -3   56.49    2.09
  -3   9  -3    7.46    0.50
  -3   9  -3    8.34    0.50
  -4   8  -3   51.17    1.95
  -4   8  -3   53.85    1.91
  -5   7  -3   17.73    0.86
  -5   7  -3   18.33    0.84
  -6   6  -3   75.89    2.65
  -6   6  -3   76.56    2.78
  -7   5  -3    9.56    0.61
  -8   4  -3    9.30    0.62
  -9   3  -3    1.20    0.30
 -10   2  -3    8.31    0.64
 -11   1  -3   13.54    0.87
 -12   0  -3   18.03    1.08
 -13  -1  -3    0.06    0.29
 -14  -2  -3    7.15    0.81
 -15  -3  -3    0.15    0.32
   8  22  -3    0.02    0.33
   7  21  -3    3.12    0.57
   6  20  -3    0.18    0.33
   5  19  -3   30.33    1.50
   4  18  -3   11.50    0.81
   3  17  -3    2.09    0.42
   2  16  -3   10.14    0.69
   2  16  -3    9.92    0.63
   1  15  -3   34.14    1.43
   1  15  -3   33.49    1.46
   0  14  -3    4.73    0.49
   0  14  -3    4.68    0.42
  -1  13  -3    7.31    0.51
  -1  13  -3    6.50    0.56
  -2  12  -3    8.56    0.52
  -2  12  -3    7.19    0.55
  -3  11  -3   32.08    1.29
  -3  11  -3   30.60    1.28
  -4  10  -3    1.95    0.28
  -4  10  -3    2.43    0.34
  -5   9  -3    6.80    0.49
  -5   9  -3    6.55    0.48
  -6   8  -3   39.68    1.56
  -6   8  -3   39.55    1.61
  -7   7  -3    2.26    0.34
  -7   7  -3    1.92    0.33
  -8   6  -3   25.98    1.20
  -8   6  -3   24.32    1.13
  -9   5  -3   77.48    2.94
 -10   4  -3   32.08    1.48
 -11   3  -3    6.64    0.61
 -12   2  -3    2.24    0.46
 -13   1  -3    0.48    0.29
 -14   0  -3    0.04    0.33
 -15  -1  -3    0.12    0.31
 -16  -2  -3   -0.13    0.28
   7  23  -3    3.52    0.62
   6  22  -3    1.15    0.43
   5  21  -3   -0.07    0.26
   4  20  -3    9.45    0.84
   3  19  -3    2.46    0.49
   2  18  -3    8.69    0.71
   1  17  -3    5.70    0.60
   0  16  -3   10.38    0.73
  -1  15  -3   14.63    0.86
  -1  15  -3   13.78    0.79
  -2  14  -3    0.18    0.24
  -2  14  -3   -0.05    0.16
  -3  13  -3    7.90    0.61
  -3  13  -3    8.70    0.56
  -4  12  -3    3.48    0.38
  -4  12  -3    3.68    0.45
  -5  11  -3    1.74    0.31
  -5  11  -3    1.66    0.32
  -6  10  -3   53.52    2.07
  -6  10  -3   53.80    2.05
  -7   9  -3   35.99    1.54
  -7   9  -3   35.92    1.51
  -8   8  -3    0.40    0.21
  -8   8  -3    0.28    0.21
  -9   7  -3    0.13    0.22
  -9   7  -3    0.03    0.18
 -10   6  -3    0.54    0.28
 -10   6  -3   -0.16    0.24
 -11   5  -3    2.41    0.45
 -12   4  -3   14.17    0.96
 -13   3  -3    0.77    0.34
 -14   2  -3    6.04    0.75
 -15   1  -3   -0.01    0.32
 -16   0  -3    0.25    0.41
   6  24  -3    1.56    0.49
   5  23  -3    0.29    0.36
   4  22  -3    0.98    0.41
   3  21  -3    2.49    0.49
   2  20  -3    4.23    0.57
   1  19  -3   -0.40    0.24
   0  18  -3    4.01    0.53
  -1  17  -3    0.85    0.29
  -2  16  -3   -0.41    0.18
  -3  15  -3   27.49    1.37
  -4  14  -3   75.33    2.76
  -4  14  -3   73.78    2.76
  -5  13  -3    0.82    0.31
  -5  13  -3    1.23    0.27
  -6  12  -3    0.36    0.21
  -6  12  -3    0.27    0.23
  -7  11  -3    2.89    0.40
  -7  11  -3    3.37    0.46
  -8  10  -3    0.05    0.22
  -8  10  -3    0.07    0.22
  -9   9  -3   13.47    0.84
  -9   9  -3   13.45    0.85
 -10   8  -3   -0.32    0.22
 -10   8  -3   -0.18    0.20
 -11   7  -3    2.84    0.49
 -11   7  -3    3.16    0.46
 -12   6  -3   -0.07    0.22
 -12   6  -3    0.37    0.33
 -13   5  -3    0.89    0.35
 -14   4  -3   10.29    0.90
 -15   3  -3    0.01    0.28
 -16   2  -3    0.28    0.38
   4  24  -3   -0.14    0.30
   3  23  -3    1.00    0.43
   2  22  -3    0.62    0.36
   1  21  -3    4.18    0.58
   0  20  -3    6.47    0.71
  -1  19  -3   32.01    1.53
  -2  18  -3    1.37    0.40
  -3  17  -3    1.66    0.42
  -4  16  -3    0.34    0.28
  -5  15  -3    0.35    0.31
  -6  14  -3    5.68    0.60
  -7  13  -3   11.10    0.78
  -7  13  -3   10.12    0.69
  -8  12  -3    6.45    0.66
  -8  12  -3    5.08    0.54
  -9  11  -3    8.64    0.69
  -9  11  -3    8.71    0.72
 -10  10  -3    0.62    0.31
 -11   9  -3    8.56    0.74
 -11   9  -3    8.92    0.75
 -12   8  -3   -0.21    0.27
 -12   8  -3   -0.62    0.23
 -13   7  -3    0.92    0.39
 -13   7  -3    1.47    0.43
 -14   6  -3    1.16    0.43
 -14   6  -3    0.94    0.36
 -15   5  -3    7.98    0.87
 -16   4  -3    0.15    0.38
   2  24  -3    8.50    0.89
   1  23  -3    3.67    0.60
   0  22  -3    0.76    0.33
  -1  21  -3   -0.22    0.26
  -2  20  -3    1.56    0.41
  -3  19  -3    0.04    0.32
  -4  18  -3    0.57    0.32
  -5  17  -3    2.44    0.54
  -6  16  -3    3.79    0.59
  -8  14  -3   14.23    0.98
  -9  13  -3    1.26    0.39
 -10  12  -3   -0.09    0.26
 -10  12  -3    0.34    0.30
 -11  11  -3    2.75    0.49
 -11  11  -3    2.94    0.52
 -12  10  -3   24.87    1.36
 -12  10  -3   25.11    1.36
 -13   9  -3    1.80    0.44
 -13   9  -3    1.69    0.47
 -14   8  -3    0.39    0.33
 -14   8  -3    0.56    0.39
 -15   7  -3    1.01    0.47
 -15   7  -3    1.04    0.43
 -16   6  -3    0.52    0.42
 -16   6  -3   -0.44    0.34
 -17   5  -3    0.49    0.44
   0  24  -3   -0.06    0.34
  -1  23  -3    0.53    0.37
  -2  22  -3    2.65    0.54
  -3  21  -3    4.19    0.63
  -4  20  -3    1.01    0.44
  -5  19  -3    2.89    0.61
  -6  18  -3    3.09    0.63
  -7  17  -3   -0.29    0.33
  -8  16  -3    0.28    0.37
  -9  15  -3   18.03    1.14
 -10  14  -3    4.71    0.68
 -11  13  -3    0.07    0.34
 -12  12  -3    2.98    0.56
 -13  11  -3    0.20    0.29
 -14  10  -3    2.08    0.49
 -14  10  -3    2.08    0.55
 -15   9  -3   -0.51    0.32
 -15   9  -3    0.22    0.38
 -16   8  -3    1.22    0.44
 -16   8  -3    2.16    0.56
 -17   7  -3    1.30    0.53
  -2  24  -3    0.48    0.41
  -3  23  -3    1.42    0.47
  -4  22  -3    0.16    0.33
  -5  21  -3   -0.74    0.32
  -6  20  -3   10.45    1.09
  -7  19  -3    8.96    1.01
  -8  18  -3    0.86    0.45
  -9  17  -3    0.22    0.40
 -10  16  -3   -0.21    0.26
 -11  15  -3    0.47    0.37
 -12  14  -3    0.70    0.43
 -13  13  -3    0.55    0.40
 -14  12  -3    0.26    0.40
 -15  11  -3    0.52    0.38
 -16  10  -3    2.72    0.60
  -5  23  -3    1.00    0.50
  -6  22  -3    0.06    0.40
  -7  21  -3   -0.38    0.38
  -8  20  -3   -0.43    0.41
  -9  19  -3    0.51    0.48
 -10  18  -3    0.36    0.38
 -11  17  -3    1.56    0.53
 -12  16  -3    1.42    0.47
 -13  15  -3    0.61    0.40
 -14  14  -3    4.16    0.72
 -18  14   4    8.28    1.02
 -17  15   4    0.51    0.47
 -16  16   4    0.37    0.45
 -15  17   4    2.54    0.62
 -14  18   4    1.00    0.53
 -13  19   4    0.81    0.56
 -12  20   4    0.24    0.48
 -11  21   4    0.67    0.49
 -10  22   4    0.38    0.48
 -20  10   4    1.48    0.56
 -19  11   4    0.23    0.40
 -18  12   4    1.42    0.47
 -17  13   4   -0.23    0.31
 -16  14   4    3.98    0.71
 -15  15   4   -0.34    0.27
 -14  16   4    0.80    0.45
 -13  17   4    1.11    0.51
 -12  18   4    0.78    0.46
 -11  19   4   16.22    1.30
 -10  20   4    6.22    0.84
  -9  21   4   -0.16    0.40
  -8  22   4   -0.56    0.34
  -7  23   4    2.26    0.56
 -20   8   4   -0.21    0.36
 -19   9   4    1.78    0.55
 -18  10   4    1.08    0.44
 -17  11   4    0.67    0.36
 -16  12   4    0.14    0.38
 -15  13   4    0.85    0.45
 -14  14   4   27.66    1.52
 -13  15   4   21.07    1.34
 -12  16   4    0.21    0.36
 -11  17   4   -0.27    0.33
 -10  18   4   13.98    1.10
  -9  19   4    1.43    0.49
  -8  20   4    0.62    0.45
  -7  21   4    2.58    0.57
  -6  22   4    2.00    0.52
  -5  23   4    1.34    0.43
  -4  24   4   -0.13    0.37
 -21   5   4    1.47    0.51
 -20   6   4    0.63    0.41
 -19   7   4    0.67    0.41
 -18   8   4    2.89    0.61
 -17   9   4    6.36    0.79
 -16  10   4   31.35    1.62
 -15  11   4    3.46    0.61
 -14  12   4    0.38    0.39
 -13  13   4   18.71    1.17
 -12  14   4    5.65    0.71
 -11  15   4    1.66    0.45
 -10  16   4    6.89    0.80
  -9  17   4    0.33    0.40
  -8  18   4    6.60    0.78
  -7  19   4   -0.09    0.27
  -6  20   4    3.95    0.62
  -5  21   4    0.05    0.32
  -4  22   4    1.07    0.46
  -3  23   4    5.60    0.74
  -2  24   4    5.79    0.75
 -21   3   4    1.67    0.54
 -20   4   4    1.08    0.45
 -20   4   4    0.18    0.37
 -19   5   4   14.29    1.10
 -19   5   4   15.44    1.10
 -18   6   4   13.28    0.98
 -17   7   4    0.91    0.41
 -16   8   4    8.36    0.82
 -15   9   4   19.41    1.15
 -14  10   4    0.06    0.29
 -13  11   4   11.31    0.85
 -12  12   4    0.98    0.34
 -11  13   4   13.29    0.88
 -10  14   4    0.54    0.36
  -9  15   4    3.69    0.56
  -8  16   4    3.92    0.59
  -7  17   4    1.93    0.43
  -6  18   4    6.97    0.75
  -5  19   4   38.68    1.78
  -4  20   4    2.56    0.49
  -3  21   4    5.16    0.67
  -2  22   4   -0.15    0.28
  -1  23   4   -0.02    0.35
   0  24   4    0.34    0.36
 -20   2   4   -0.69    0.31
 -19   3   4    1.52    0.48
 -18   4   4   10.71    0.89
 -18   4   4   11.39    0.92
 -17   5   4    0.31    0.32
 -17   5   4    0.40    0.34
 -16   6   4   15.71    0.96
 -16   6   4   15.31    1.00
 -15   7   4    5.28    0.57
 -15   7   4    5.11    0.60
 -14   8   4    6.84    0.68
 -13   9   4   11.04    0.79
 -12  10   4    1.63    0.38
 -11  11   4   13.24    0.82
 -10  12   4    3.12    0.46
  -9  13   4    9.42    0.70
  -8  14   4   57.10    2.31
  -7  15   4   25.31    1.29
  -6  16   4    2.34    0.43
  -5  17   4    0.09    0.26
  -4  18   4    0.51    0.31
  -3  19   4    2.29    0.45
  -2  20   4    6.38    0.74
  -1  21   4    0.51    0.38
   0  22   4    2.40    0.52
   1  23   4   -0.11    0.38
 -20   0   4    3.54    0.65
 -19   1   4    2.20    0.53
 -18   2   4    0.27    0.34
 -17   3   4    5.31    0.64
 -16   4   4    4.59    0.56
 -16   4   4    3.76    0.52
 -15   5   4    1.00    0.31
 -14   6   4   17.98    0.97
 -14   6   4   19.25    1.03
 -13   7   4    0.25    0.20
 -13   7   4   -0.42    0.21
 -12   8   4    2.98    0.43
 -12   8   4    2.80    0.35
 -11   9   4  108.89    3.78
 -10  10   4  119.10    4.09
  -9  11   4    0.00    0.25
  -8  12   4   -0.30    0.17
  -7  13   4    3.31    0.48
  -6  14   4    0.58    0.26
  -5  15   4   11.55    0.77
  -4  16   4    0.05    0.25
  -3  17   4    7.81    0.65
  -2  18   4    8.92    0.65
  -2  18   4    7.45    0.75
  -1  19   4    6.19    0.73
   0  20   4   15.00    1.08
   1  21   4    0.51    0.38
   2  22   4    0.36    0.40
   3  23   4    5.48    0.79
 -20  -2   4    0.05    0.36
 -19  -1   4    3.03    0.58
 -18   0   4    3.86    0.60
 -17   1   4    5.68    0.69
 -16   2   4   -0.08    0.26
 -15   3   4   -0.05    0.23
 -14   4   4   29.56    1.32
 -14   4   4   27.54    1.33
 -13   5   4  135.85    4.77
 -13   5   4  136.03    4.60
 -12   6   4    0.40    0.24
 -12   6   4    0.01    0.16
 -11   7   4    0.17    0.21
 -11   7   4    0.52    0.19
 -10   8   4   19.37    0.84
 -10   8   4   20.11    0.96
  -9   9   4    8.64    0.57
  -8  10   4   24.30    1.09
  -7  11   4    7.96    0.59
  -6  12   4    9.43    0.68
  -5  13   4    5.26    0.54
  -4  14   4    0.15    0.23
  -3  15   4   65.98    2.50
  -2  16   4    0.96    0.31
  -1  17   4    0.88    0.28
  -1  17   4    1.14    0.34
   0  18   4   13.71    0.97
   1  19   4   21.25    1.27
   2  20   4    0.78    0.40
   3  21   4    3.22    0.62
   4  22   4   -0.30    0.30
 -19  -3   4    1.62    0.51
 -18  -2   4    0.26    0.30
 -17  -1   4    5.11    0.65
 -16   0   4   77.39    3.06
 -15   1   4   12.48    0.82
 -14   2   4    0.35    0.23
 -13   3   4    9.90    0.66
 -12   4   4   48.31    1.89
 -12   4   4   47.78    1.84
 -11   5   4   24.97    1.10
 -11   5   4   25.63    1.10
 -10   6   4   -0.04    0.13
 -10   6   4   -0.01    0.14
  -9   7   4    0.60    0.16
  -9   7   4    0.35    0.19
  -8   8   4   14.80    0.75
  -8   8   4   14.83    0.61
  -7   9   4   -0.08    0.16
  -6  10   4  117.61    3.97
  -5  11   4   38.67    1.58
  -4  12   4    0.44    0.21
  -3  13   4   47.01    1.87
  -2  14   4  135.74    4.62
  -1  15   4    1.86    0.40
  -1  15   4    1.76    0.31
   0  16   4    4.89    0.59
   1  17   4    0.31    0.29
   2  18   4   -0.25    0.30
   3  19   4    2.18    0.48
   4  20   4    0.69    0.41
   5  21   4    0.19    0.38
   6  22   4    0.36    0.43
 -19  -5   4   14.65    1.17
 -18  -4   4   10.73    0.92
 -17  -3   4    4.87    0.64
 -16  -2   4    0.04    0.24
 -15  -1   4   13.18    0.89
 -14   0   4    0.02    0.19
 -13   1   4   19.22    1.00
 -12   2   4    3.55    0.40
 -11   3   4   10.31    0.62
 -10   4   4   36.83    1.43
 -10   4   4   38.33    1.47
  -9   5   4  169.05    5.69
  -9   5   4  171.26    5.48
  -8   6   4  119.59    3.96
  -8   6   4  122.42    4.06
  -7   7   4    3.95    0.35
  -7   7   4    4.82    0.25
  -6   8   4    7.30    0.45
  -5   9   4  277.84    8.84
  -4  10   4   38.03    1.52
  -3  11   4   21.63    1.02
  -2  12   4    2.79    0.38
  -1  13   4    8.48    0.63
  -1  13   4    7.37    0.53
   0  14   4   19.86    0.90
   0  14   4   17.96    1.00
   1  15   4    0.43    0.27
   2  16   4    0.26    0.26
   3  17   4    2.47    0.49
   4  18   4    0.19    0.34
   5  19   4   15.23    1.10
   6  20   4    4.81    0.71
   7  21   4    0.90    0.45
 -19  -7   4   -0.16    0.37
 -18  -6   4   11.63    1.04
 -17  -5   4    0.71    0.39
 -16  -4   4    2.88    0.50
 -15  -3   4   -0.17    0.23
  15   3  -4   -0.37    0.17
  14   2  -4   -0.08    0.17
  13   1  -4   17.12    0.93
  12   0  -4    9.96    0.64
  11  -1  -4  124.24    4.33
  10  -2  -4   16.43    0.78
  -9   3   4    1.26    0.23
   9  -3  -4    1.53    0.22
  -8   4   4  456.37   14.13
   8  -4  -4  455.27   14.85
  -7   5   4  266.89    8.57
   7  -5  -4  281.04    8.95
  -6   6   4    3.24    0.19
  -6   6   4    2.57    0.27
  -5   7   4    0.39    0.16
  -4   8   4    4.53    0.39
  -3   9   4   20.45    0.92
  -2  10   4   22.98    0.97
   2 -10  -4   18.60    0.69
  -1  11   4    5.94    0.47
  -1  11   4    5.85    0.41
   1 -11  -4    5.41    0.32
   0  12   4   -0.13    0.18
   0  12   4    0.56    0.18
   1  13   4   11.96    0.62
   1  13   4   12.29    0.76
   2  14   4   30.54    1.41
   3  15   4   50.66    2.07
   4  16   4    0.47    0.27
   5  17   4    0.62    0.35
   6  18   4   13.82    1.04
   7  19   4    1.97    0.51
   8  20   4    0.52    0.43
 -18  -8   4    2.60    0.61
 -17  -7   4    0.36    0.34
 -16  -6   4   14.84    1.06
  16   6  -4   14.84    1.01
  15   5  -4    0.92    0.32
  14   4  -4   28.70    1.42
  13   3  -4    9.98    0.70
 -12  -2   4    3.60    0.29
  12   2  -4    3.65    0.43
  11   1  -4  126.19    4.42
  10   0  -4  245.48    8.21
   9  -1  -4    0.95    0.19
   8  -2  -4   70.68    2.48
  -7   3   4   15.82    0.66
   7  -3  -4   16.17    0.67
  -6   4   4   46.77    1.60
   6  -4  -4   47.32    1.63
  -5   5   4   70.66    2.35
   5  -5  -4   71.54    2.36
  -4   6   4   15.17    0.71
  -4   6   4   16.43    0.55
   4  -6  -4   16.11    0.55
  -3   7   4    0.27    0.13
  -2   8   4   98.00    3.40
  -2   8   4  108.28    3.33
   2  -8  -4  101.47    3.37
  -1   9   4   34.55    1.37
  -1   9   4   35.79    1.29
   1  -9  -4   34.37    1.24
   0  10   4  217.88    7.05
   0  10   4  226.23    6.83
   0 -10  -4  215.10    7.24
   1  11   4   13.33    0.72
   1  11   4   13.74    0.62
  -1 -11  -4   11.27    0.61
   2  12   4    9.69    0.64
   2  12   4    9.41    0.49
  -2 -12  -4    8.55    0.56
   3  13   4   31.09    1.37
   4  14   4   19.26    1.03
   5  15   4    3.81    0.52
   6  16   4    6.33    0.69
   7  17   4   -0.09    0.31
   8  18   4    1.64    0.49
   9  19   4    0.13    0.35
 -18 -10   4    0.50    0.41
 -17  -9   4    4.98    0.73
 -16  -8   4    7.15    0.83
  16   8  -4    7.95    0.86
  15   7  -4    4.92    0.64
  14   6  -4   16.58    1.02
  13   5  -4  128.03    4.65
  12   4  -4   46.05    1.93
 -11  -3   4   10.27    0.46
  11   3  -4   10.24    0.65
 -10  -2   4   16.01    0.65
  10   2  -4   16.72    0.83
  -9  -1   4    0.98    0.15
   9   1  -4    0.74    0.18
   8   0  -4   26.33    1.07
   7  -1  -4   22.93    0.93
  -6   2   4    1.52    0.16
   6  -2  -4    1.44    0.18
  -5   3   4    5.38    0.28
   5  -3  -4    5.13    0.28
  -4   4   4   45.29    1.54
  -4   4   4   46.14    1.55
   4  -4  -4   44.26    1.54
  -3   5   4  106.07    3.34
  -3   5   4  101.62    3.40
   3  -5  -4  107.04    3.47
  -2   6   4  167.68    5.45
  -2   6   4  170.89    5.34
   2  -6  -4  176.37    5.62
  -1   7   4    0.06    0.10
  -1   7   4   -0.10    0.12
   1  -7  -4   -0.06    0.08
   0   8   4   74.11    2.50
   0   8   4   72.80    2.39
   0  -8  -4   72.72    2.52
   1   9   4  171.19    5.54
   1   9   4  173.51    5.35
  -1  -9  -4  170.62    5.74
   2  10   4    1.89    0.30
   2  10   4    1.59    0.20
  -2 -10  -4    1.64    0.26
   3  11   4   15.73    0.79
   3  11   4   14.65    0.64
  -3 -11  -4   14.41    0.78
   4  12   4    2.14    0.36
  -4 -12  -4    2.22    0.36
   5  13   4    3.59    0.48
  -5 -13  -4    3.25    0.46
   6  14   4    3.35    0.47
   7  15   4    2.36    0.46
   8  16   4    5.33    0.66
   9  17   4    2.74    0.54
  10  18   4    0.67    0.43
 -17 -11   4    0.85    0.45
  16  10  -4   24.69    1.48
  15   9  -4   15.39    1.08
  14   8  -4    4.52    0.61
  13   7  -4    0.04    0.21
  12   6  -4    0.07    0.18
  11   5  -4   23.94    1.18
 -10  -4   4   34.47    1.17
  10   4  -4   36.86    1.51
  -9  -3   4    1.27    0.15
   9   3  -4    1.28    0.24
  -8  -2   4   70.73    2.31
   8   2  -4   75.03    2.63
  -7  -1   4   21.14    0.78
   7   1  -4   22.02    0.92
  -6   0   4  301.43    9.34
   6   0  -4  313.37   10.09
  -5   1   4  453.80   13.81
  -5   1   4  443.83   13.56
   5  -1  -4  447.41   14.59
  -4   2   4    0.40    0.13
  -4   2   4    0.88    0.12
   4  -2  -4    0.47    0.14
  -3   3   4  251.11    7.26
  -3   3   4  231.77    7.36
   3  -3  -4  228.60    7.75
  -2   4   4   69.41    2.27
  -2   4   4   66.79    2.25
   2  -4  -4   73.20    2.36
  -1   5   4   13.55    0.57
  -1   5   4   13.93    0.58
   1  -5  -4   14.32    0.57
   0   6   4  106.66    3.41
   0   6   4  108.52    3.50
   0  -6  -4  110.19    3.64
   1   7   4    2.58    0.22
   1   7   4    2.58    0.26
  -1  -7  -4    2.71    0.25
   2   8   4    7.70    0.40
   2   8   4    7.74    0.47
  -2  -8  -4    9.03    0.50
   3   9   4   32.05    1.12
   3   9   4   30.97    1.25
  -3  -9  -4   31.25    1.30
   4  10   4   -0.13    0.17
  -4 -10  -4    0.33    0.22
   5  11   4   20.58    1.01
  -5 -11  -4   20.39    1.05
   6  12   4    3.97    0.49
  -6 -12  -4    4.01    0.52
   7  13   4    0.35    0.24
  -7 -13  -4   -0.09    0.29
   8  14   4   39.77    1.76
  -8 -14  -4   37.89    1.86
   9  15   4   14.15    0.97
  10  16   4    2.88    0.55
  11  17   4   -0.11    0.31
  16  12  -4    0.31    0.37
  15  11  -4    3.28    0.64
  14  10  -4    0.23    0.31
  13   9  -4    7.66    0.79
  12   8  -4    2.72    0.45
  11   7  -4    0.16    0.18
  11   7  -4    0.41    0.21
  10   6  -4    0.02    0.14
  10   6  -4   -0.17    0.18
  -9  -5   4  149.43    4.60
   9   5  -4  152.87    4.83
   9   5  -4  150.82    5.24
  -8  -4   4  420.93   12.99
   8   4  -4  435.24   14.21
   8   4  -4  437.25   13.33
  -7  -3   4   16.93    0.62
   7   3  -4   16.25    0.79
  -6  -2   4    1.50    0.15
   6   2  -4    1.57    0.24
  -5  -1   4  455.07   13.52
   5   1  -4  439.74   14.61
  -4   0   4  204.86    5.96
  -4   0   4  198.66    5.98
   4   0  -4  179.96    6.46
  -3   1   4   21.45    0.79
  -3   1   4   22.93    0.74
   3  -1  -4   21.76    0.87
  -2   2   4    1.97    0.19
  -2   2   4    1.77    0.13
   2  -2  -4    2.08    0.18
  -1   3   4   57.37    1.89
  -1   3   4   57.71    1.88
   1  -3  -4   59.25    2.01
   0   4   4   12.07    0.51
   0   4   4   12.54    0.52
   0  -4  -4   13.00    0.55
   1   5   4   13.36    0.57
   1   5   4   12.93    0.54
  -1  -5  -4   13.77    0.61
   2   6   4  154.85    4.78
   2   6   4  149.98    4.92
  -2  -6  -4  158.12    5.20
   3   7   4    2.37    0.28
   3   7   4    2.25    0.22
  -3  -7  -4    2.63    0.31
   4   8   4    1.13    0.23
   4   8   4    1.79    0.20
  -4  -8  -4    1.59    0.28
   5   9   4  121.42    4.13
  -5  -9  -4  126.17    4.39
   6  10   4  141.28    4.80
  -6 -10  -4  146.73    5.11
   7  11   4    1.53    0.32
  -7 -11  -4    1.45    0.37
   8  12   4    0.06    0.24
  -8 -12  -4    0.43    0.31
   9  13   4   11.09    0.84
  -9 -13  -4    8.58    0.88
  10  14   4    0.83    0.34
 -10 -14  -4    1.66    0.49
  11  15   4    3.99    0.64
  12  16   4    0.34    0.38
  16  14  -4    3.18    0.65
  15  13  -4    1.09    0.47
  14  12  -4   -0.30    0.23
  14  12  -4   -0.19    0.23
  13  11  -4   10.58    0.69
  13  11  -4    8.21    0.86
  12  10  -4    1.45    0.37
  12  10  -4    1.42    0.29
  11   9  -4   95.15    3.16
  11   9  -4   87.88    3.45
  10   8  -4   15.75    0.93
  10   8  -4   17.70    0.80
   9   7  -4    0.38    0.20
   9   7  -4    0.51    0.16
  -8  -6   4  114.17    3.39
   8   6  -4  110.52    3.58
   8   6  -4  106.45    3.93
  -7  -5   4  263.44    7.74
   7   5  -4  258.48    7.96
   7   5  -4  244.22    8.55
  -6  -4   4   47.29    1.47
   6   4  -4   46.51    1.52
   6   4  -4   42.68    1.73
  -5  -3   4    5.39    0.26
   5   3  -4    4.85    0.23
   5   3  -4    4.52    0.35
  -4  -2   4    0.56    0.12
   4   2  -4    0.33    0.17
   4   2  -4    0.46    0.07
   3   1  -4   21.50    0.89
  -2   0   4  106.75    3.38
   2   0  -4  109.52    3.66
  -1   1   4   52.94    1.73
  -1   1   4   54.31    1.69
   1  -1  -4   52.59    1.86
   0   2   4   20.29    0.75
   0   2   4   21.28    0.74
   0  -2  -4   20.66    0.82
   1   3   4   16.96    0.65
   1   3   4   15.29    0.62
  -1  -3  -4   16.74    0.70
   2   4   4   66.37    2.17
   2   4   4   69.41    2.26
  -2  -4  -4   66.95    2.38
   3   5   4  608.09   18.31
   3   5   4  592.02   17.89
  -3  -5  -4  577.04   19.31
   4   6   4   31.69    1.13
   4   6   4   32.32    1.25
  -4  -6  -4   33.20    1.34
   5   7   4    5.70    0.45
  -5  -7  -4    6.30    0.50
   6   8   4   15.44    0.80
  -6  -8  -4   16.39    0.90
   7   9   4   16.68    0.88
  -7  -9  -4   15.80    0.95
   8  10   4    7.57    0.62
  -8 -10  -4    7.25    0.68
   9  11   4    4.11    0.52
  -9 -11  -4    5.73    0.69
  10  12   4   -0.24    0.23
 -10 -12  -4   -0.34    0.28
  11  13   4    4.85    0.62
 -11 -13  -4    4.64    0.71
 -12 -14  -4    0.00    0.41
  15  15  -4    0.35    0.31
  15  15  -4   -0.50    0.29
  14  14  -4   26.65    1.36
  14  14  -4   26.78    1.55
  13  13  -4   16.66    1.13
  13  13  -4   17.16    0.98
  12  12  -4    0.80    0.32
  12  12  -4    0.65    0.26
  11  11  -4   12.18    0.85
  11  11  -4   11.26    0.69
  10  10  -4   95.73    3.66
  10  10  -4   99.90    3.34
   9   9  -4    7.78    0.48
   9   9  -4    7.48    0.59
   8   8  -4   13.39    0.63
   8   8  -4   12.72    0.76
   7   7  -4    4.77    0.42
   7   7  -4    3.81    0.29
   6   6  -4    2.37    0.31
   6   6  -4    2.53    0.21
  -5  -5   4   69.15    2.18
   5   5  -4   68.66    2.53
   5   5  -4   69.58    2.24
  -4  -4   4   44.74    1.44
   4   4  -4   44.54    1.44
   4   4  -4   42.77    1.69
  -3  -3   4  268.94    8.20
   3   3  -4  277.34    8.36
   3   3  -4  262.47    8.92
  -2  -2   4    1.72    0.17
   2   2  -4    2.05    0.12
   2   2  -4    2.25    0.23
  -1  -1   4   55.04    1.79
   1   1  -4   54.99    1.94
   0   0   4 1000.00   29.86
   0   0  -4  968.24   32.48
   1   1   4  200.90    6.11
  -1  -1  -4  197.15    6.58
   2   2   4   16.23    0.65
   2   2   4   16.85    0.66
  -2  -2  -4   16.45    0.73
   3   3   4   25.12    0.92
   3   3   4   26.02    0.98
  -3  -3  -4   24.60    1.04
   4   4   4  286.95    8.90
  -4  -4  -4  279.70    9.40
   5   5   4    6.18    0.44
  -5  -5  -4    5.98    0.45
   6   6   4    2.99    0.36
  -6  -6  -4    3.90    0.44
   7   7   4   -0.25    0.18
  -7  -7  -4   -0.18    0.16
   8   8   4    2.04    0.34
   9   9   4    3.64    0.47
  -9  -9  -4    3.03    0.51
 -10 -10  -4   24.34    1.37
 -11 -11  -4    8.96    0.92
 -12 -12  -4    0.52    0.45
 -13 -13  -4   -0.10    0.43
  14  16  -4    0.19    0.31
  14  16  -4    0.28    0.35
  13  15  -4   20.59    1.17
  13  15  -4   20.57    1.30
  12  14  -4    5.51    0.58
  12  14  -4    4.39    0.63
  11  13  -4   11.93    0.77
  11  13  -4   12.88    0.88
  10  12  -4    2.53    0.36
  10  12  -4    3.49    0.51
   9  11  -4    0.32    0.19
   9  11  -4    0.25    0.22
   8  10  -4   22.65    0.98
   8  10  -4   23.86    1.16
   7   9  -4   -0.03    0.12
   7   9  -4   -0.09    0.18
   6   8  -4    6.98    0.52
   6   8  -4    6.97    0.41
   5   7  -4    0.05    0.11
   5   7  -4    0.01    0.13
   4   6  -4   16.58    0.82
   4   6  -4   17.42    0.67
   3   5  -4  110.09    3.45
   3   5  -4  106.54    3.78
   2   4  -4   71.93    2.35
   2   4  -4   73.15    2.56
   1   3  -4   56.96    1.88
   1   3  -4   61.30    2.10
  -1   1  -4  199.60    6.62
  -2   0  -4    0.15    0.11
  -3  -1  -4   69.32    2.47
  -4  -2  -4   24.18    1.03
  -5  -3  -4    5.27    0.43
  -6  -4  -4   69.94    2.61
  -7  -5  -4   18.20    0.95
  -8  -6  -4   38.72    1.69
  -9  -7  -4    1.15    0.36
 -10  -8  -4    0.27    0.27
 -11  -9  -4   38.03    1.86
 -12 -10  -4    6.89    0.84
 -13 -11  -4    2.57    0.63
  14  18  -4    0.76    0.40
  14  18  -4    1.31    0.48
  13  17  -4    1.21    0.41
  13  17  -4    1.08    0.43
  12  16  -4    0.64    0.32
  12  16  -4    0.57    0.35
  11  15  -4    1.32    0.36
  11  15  -4    1.90    0.44
  10  14  -4    1.49    0.37
  10  14  -4    1.22    0.32
   9  13  -4    9.86    0.66
   9  13  -4    9.23    0.72
   8  12  -4    0.18    0.21
   8  12  -4   -0.04    0.16
   7  11  -4    8.93    0.55
   7  11  -4    9.53    0.66
   6  10  -4  118.56    3.93
   6  10  -4  119.66    4.23
   5   9  -4  310.41   10.46
   5   9  -4  316.34    9.84
   4   8  -4    5.03    0.42
   4   8  -4    4.57    0.34
   3   7  -4    0.38    0.17
   3   7  -4    0.15    0.11
   2   6  -4  180.66    6.14
   2   6  -4  184.07    5.76
   1   5  -4   14.07    0.55
   1   5  -4   13.22    0.64
   0   4  -4   12.62    0.50
   0   4  -4   12.31    0.59
  -2   2  -4   16.23    0.73
  -3   1  -4   70.18    2.50
  -4   0  -4   39.18    1.53
  -5  -1  -4  125.93    4.36
  -6  -2  -4   28.23    1.24
  -7  -3  -4    0.75    0.23
  -8  -4  -4  192.32    6.65
  -9  -5  -4   80.08    3.09
 -10  -6  -4    1.87    0.40
 -11  -7  -4    3.20    0.56
 -12  -8  -4    9.79    0.92
 -13  -9  -4    1.32    0.48
  13  19  -4    0.43    0.37
  13  19  -4    0.57    0.37
  12  18  -4    1.14    0.43
  12  18  -4    0.95    0.41
  11  17  -4   -0.16    0.23
  11  17  -4    0.03    0.29
  10  16  -4    9.91    0.77
  10  16  -4    8.98    0.75
   9  15  -4    3.58    0.51
   9  15  -4    4.51    0.54
   8  14  -4   59.52    2.38
   8  14  -4   57.56    2.23
   7  13  -4    4.01    0.48
   7  13  -4    3.73    0.44
   6  12  -4    9.76    0.66
   6  12  -4    9.53    0.60
   5  11  -4   39.78    1.63
   5  11  -4   39.08    1.53
   4  10  -4   33.30    1.41
   4  10  -4   40.80    1.56
   3   9  -4   20.21    0.90
   3   9  -4   22.23    1.01
   2   8  -4  117.86    3.72
   2   8  -4  108.30    3.94
   1   7  -4   -0.16    0.10
   1   7  -4    0.11    0.13
   0   6  -4  106.29    3.40
   0   6  -4  105.60    3.64
  -1   5  -4   13.46    0.64
  -1   5  -4   14.01    0.58
  -2   4  -4   65.97    2.40
  -2   4  -4   68.81    2.24
  -3   3  -4   26.25    1.09
  -4   2  -4   22.67    0.99
  -5   1  -4  125.94    4.37
  -6   0  -4  323.04   10.74
  -7  -1  -4   10.22    0.65
  -8  -2  -4    8.09    0.61
  -9  -3  -4   10.83    0.75
 -10  -4  -4    0.56    0.31
 -11  -5  -4   14.39    0.97
 -12  -6  -4    2.93    0.53
 -13  -7  -4    0.32    0.34
 -14  -8  -4    4.09    0.71
  12  20  -4   -0.50    0.27
  11  19  -4   15.55    1.10
  10  18  -4   12.13    0.89
  10  18  -4   12.54    0.93
   9  17  -4    1.00    0.36
   9  17  -4    0.61    0.29
   8  16  -4    4.31    0.53
   8  16  -4    3.97    0.52
   7  15  -4   26.36    1.25
   7  15  -4   23.32    1.20
   6  14  -4    0.44    0.23
   6  14  -4    0.49    0.22
   5  13  -4    4.57    0.48
   5  13  -4    2.99    0.41
   4  12  -4    0.18    0.20
   4  12  -4    0.55    0.21
   3  11  -4   20.38    0.93
   3  11  -4   19.55    0.97
   2  10  -4   25.38    1.04
   2  10  -4   22.43    1.09
   1   9  -4   34.31    1.34
   1   9  -4   34.55    1.40
   0   8  -4   70.11    2.54
   0   8  -4   71.75    2.40
  -1   7  -4    2.63    0.26
  -1   7  -4    2.04    0.25
  -2   6  -4  157.11    5.41
  -2   6  -4  163.30    5.11
  -3   5  -4  612.11   20.08
  -3   5  -4  619.05   19.01
  -4   4  -4  277.17    9.21
  -5   3  -4    6.13    0.47
  -6   2  -4   28.55    1.25
  -7   1  -4   10.45    0.66
  -8   0  -4   10.69    0.69
  -9  -1  -4   11.56    0.76
 -10  -2  -4    2.53    0.43
 -11  -3  -4    6.18    0.70
 -12  -4  -4    1.74    0.44
 -13  -5  -4   20.18    1.26
 -14  -6  -4   12.95    1.09
  11  21  -4    0.38    0.36
  10  20  -4    4.27    0.66
   9  19  -4    0.56    0.33
   8  18  -4    5.00    0.64
   8  18  -4    6.18    0.65
   7  17  -4    2.58    0.42
   7  17  -4    1.61    0.40
   6  16  -4    2.37    0.38
   6  16  -4    1.76    0.38
   5  15  -4   11.62    0.73
   5  15  -4   11.30    0.76
   4  14  -4   -0.02    0.21
   4  14  -4   -0.12    0.20
   3  13  -4   47.89    1.81
   3  13  -4   44.67    1.84
   2  12  -4    2.19    0.34
   2  12  -4    2.06    0.32
   1  11  -4    5.50    0.43
   1  11  -4    5.50    0.46
   0  10  -4  222.07    6.99
   0  10  -4  213.96    7.32
  -1   9  -4  166.53    5.42
  -1   9  -4  171.13    5.72
  -2   8  -4    8.72    0.49
  -2   8  -4    8.35    0.51
  -3   7  -4    2.29    0.30
  -3   7  -4    2.40    0.29
  -4   6  -4   31.46    1.33
  -4   6  -4   33.50    1.27
  -5   5  -4    6.90    0.49
  -6   4  -4   73.38    2.71
  -7   3  -4    0.32    0.22
  -8   2  -4    9.02    0.64
  -9   1  -4   11.50    0.76
 -10   0  -4   34.37    1.58
 -11  -1  -4   42.28    1.91
 -12  -2  -4    1.56    0.40
 -13  -3  -4    0.53    0.37
 -14  -4  -4   14.66    1.14
 -15  -5  -4    2.51    0.59
  10  22  -4    0.32    0.37
   9  21  -4   -0.16    0.28
   8  20  -4    1.06    0.36
   7  19  -4   -0.57    0.24
   6  18  -4    5.91    0.67
   5  17  -4    0.11    0.19
   5  17  -4   -0.13    0.23
   4  16  -4    0.04    0.24
   4  16  -4    0.19    0.19
   3  15  -4   64.02    2.38
   3  15  -4   61.98    2.42
   2  14  -4  124.75    4.52
   2  14  -4  132.93    4.37
   1  13  -4    9.00    0.62
   1  13  -4    9.44    0.63
   0  12  -4    0.38    0.19
   0  12  -4    0.31    0.21
  -1  11  -4   12.76    0.70
  -1  11  -4   13.13    0.70
  -2  10  -4    1.48    0.26
  -2  10  -4    1.94    0.28
  -3   9  -4   32.21    1.28
  -3   9  -4   32.44    1.34
  -4   8  -4    1.60    0.28
  -4   8  -4    1.79    0.29
  -5   7  -4    5.52    0.46
  -5   7  -4    6.57    0.50
  -6   6  -4    3.42    0.40
  -6   6  -4    2.64    0.34
  -7   5  -4   19.18    0.99
  -8   4  -4  198.69    6.84
  -9   3  -4   11.63    0.77
 -10   2  -4    3.47    0.48
 -11   1  -4   44.08    1.97
 -12   0  -4   47.42    2.11
 -13  -1  -4    1.59    0.46
 -14  -2  -4    0.26    0.33
 -15  -3  -4    0.12    0.38
   8  22  -4    0.05    0.32
   7  21  -4    2.89    0.55
   6  20  -4    4.08    0.61
   5  19  -4   37.84    1.75
   4  18  -4    0.56    0.33
   3  17  -4    7.06    0.57
   3  17  -4    7.71    0.66
   2  16  -4    1.07    0.31
   2  16  -4    1.32    0.28
   1  15  -4    1.87    0.33
   1  15  -4    1.60    0.31
   0  14  -4   20.09    1.03
   0  14  -4   21.57    1.05
  -1  13  -4   10.52    0.71
  -1  13  -4   13.47    0.74
  -2  12  -4    8.56    0.56
  -2  12  -4    9.47    0.60
  -3  11  -4   14.81    0.78
  -3  11  -4   14.97    0.78
  -4  10  -4   -0.30    0.18
  -4  10  -4    0.08    0.19
  -5   9  -4  137.68    4.78
  -5   9  -4  136.43    4.57
  -6   8  -4   17.11    0.88
  -6   8  -4   18.30    0.94
  -7   7  -4   -0.42    0.19
  -7   7  -4   -0.36    0.14
  -8   6  -4   37.82    1.59
  -8   6  -4   41.86    1.73
  -9   5  -4   84.45    3.20
 -10   4  -4    0.62    0.30
 -11   3  -4    6.58    0.69
 -12   2  -4    1.14    0.39
 -13   1  -4    2.30    0.48
 -14   0  -4    5.81    0.76
 -15  -1  -4    0.21    0.40
   7  23  -4    2.23    0.51
   6  22  -4    1.92    0.48
   5  21  -4   -0.69    0.24
   4  20  -4    2.68    0.51
   3  19  -4    3.08    0.49
   2  18  -4    7.50    0.66
   1  17  -4    0.48    0.29
   0  16  -4    4.32    0.52
   0  16  -4    4.32    0.49
  -1  15  -4    0.48    0.25
  -1  15  -4    0.17    0.25
  -2  14  -4   32.30    1.42
  -2  14  -4   32.26    1.46
  -3  13  -4   34.71    1.46
  -3  13  -4   33.63    1.46
  -4  12  -4    1.85    0.35
  -4  12  -4    1.85    0.31
  -5  11  -4   21.32    1.05
  -5  11  -4   21.45    1.05
  -6  10  -4  162.66    5.70
  -6  10  -4  166.01    5.47
  -7   9  -4   17.69    0.95
  -7   9  -4   18.16    0.98
  -8   8  -4    2.48    0.38
  -8   8  -4    2.35    0.41
  -9   7  -4    1.00    0.31
  -9   7  -4    1.50    0.35
 -10   6  -4    1.84    0.39
 -10   6  -4    2.73    0.42
 -11   5  -4   13.39    0.90
 -12   4  -4    1.48    0.41
 -13   3  -4    0.10    0.35
 -14   2  -4    0.12    0.31
 -15   1  -4    0.26    0.37
   5  23  -4    1.70    0.46
   4  22  -4    1.67    0.44
   3  21  -4    4.33    0.61
   2  20  -4    6.48    0.68
   1  19  -4    6.75    0.69
   0  18  -4   12.51    0.85
  -1  17  -4    0.18    0.27
  -2  16  -4    0.26    0.28
  -3  15  -4   52.87    2.13
  -3  15  -4   53.51    2.17
  -4  14  -4   23.58    1.14
  -4  14  -4   23.39    1.17
  -5  13  -4    3.89    0.49
  -5  13  -4    3.62    0.45
  -6  12  -4    3.57    0.49
  -6  12  -4    4.48    0.50
  -7  11  -4    2.63    0.43
  -7  11  -4    2.13    0.38
  -8  10  -4    6.28    0.62
  -8  10  -4    7.49    0.63
  -9   9  -4    3.81    0.52
  -9   9  -4    3.19    0.46
 -10   8  -4   -0.27    0.26
 -10   8  -4    0.09    0.25
 -11   7  -4    1.94    0.41
 -11   7  -4    2.35    0.47
 -12   6  -4    2.59    0.49
 -12   6  -4    2.87    0.52
 -13   5  -4   23.88    1.39
 -14   4  -4   16.16    1.14
 -15   3  -4    0.38    0.34
   4  24  -4    0.79    0.40
   3  23  -4    5.02    0.67
   2  22  -4    0.08    0.32
   1  21  -4    0.16    0.31
   0  20  -4   13.88    0.95
  -1  19  -4   21.89    1.22
  -2  18  -4    0.63    0.33
  -3  17  -4    3.18    0.54
  -4  16  -4    0.69    0.35
  -5  15  -4    4.24    0.55
  -6  14  -4    4.07    0.49
  -6  14  -4    3.82    0.54
  -7  13  -4    0.20    0.23
  -7  13  -4    0.54    0.27
  -8  12  -4    0.67    0.30
  -8  12  -4    0.62    0.31
  -9  11  -4    6.25    0.67
  -9  11  -4    5.30    0.63
 -10  10  -4   28.57    1.46
 -10  10  -4   28.97    1.41
 -11   9  -4   46.81    2.07
 -11   9  -4   44.16    1.96
 -12   8  -4    8.96    0.84
 -12   8  -4    9.37    0.82
 -13   7  -4    0.11    0.33
 -13   7  -4   -0.50    0.26
 -14   6  -4   12.87    0.99
 -14   6  -4   13.26    1.01
 -15   5  -4    2.67    0.58
 -15   5  -4    3.93    0.66
   2  24  -4    4.50    0.65
   1  23  -4    0.00    0.31
   0  22  -4    2.54    0.50
  -1  21  -4    0.31    0.35
  -2  20  -4    0.52    0.37
  -3  19  -4    2.56    0.49
  -4  18  -4    0.50    0.41
  -5  17  -4    0.67    0.38
  -6  16  -4    7.74    0.82
  -7  15  -4    2.56    0.52
  -8  14  -4   39.68    1.83
  -9  13  -4   11.77    0.93
 -10  12  -4    0.34    0.31
 -10  12  -4    0.12    0.31
 -11  11  -4   11.04    0.89
 -11  11  -4   10.70    0.88
 -12  10  -4    8.12    0.82
 -12  10  -4    7.46    0.81
 -13   9  -4    1.44    0.46
 -13   9  -4    0.58    0.33
 -14   8  -4    4.17    0.66
 -14   8  -4    4.41    0.70
 -15   7  -4    0.76    0.44
 -15   7  -4    0.86    0.46
 -16   6  -4    7.83    0.92
   0  24  -4    0.37    0.37
  -1  23  -4    0.03    0.28
  -2  22  -4    0.26    0.39
  -3  21  -4    2.97    0.59
  -4  20  -4    1.23    0.43
  -5  19  -4   17.88    1.27
  -6  18  -4   16.71    1.23
  -7  17  -4   -0.03    0.31
  -8  16  -4    6.93    0.80
  -9  15  -4   15.36    1.10
 -10  14  -4    1.66    0.50
 -11  13  -4    6.55    0.77
 -12  12  -4    1.12    0.43
 -13  11  -4    3.38    0.58
 -14  10  -4    2.88    0.59
 -14  10  -4    2.94    0.63
 -15   9  -4    0.12    0.37
 -15   9  -4   -0.69    0.38
 -16   8  -4    1.69    0.51
  -3  23  -4    5.74    0.77
  -4  22  -4   -0.16    0.32
  -5  21  -4    0.11    0.39
  -6  20  -4    6.84    0.90
  -7  19  -4    1.26    0.55
  -8  18  -4    2.48    0.60
  -9  17  -4    3.26    0.63
 -10  16  -4    4.22    0.66
 -11  15  -4    3.96    0.67
 -12  14  -4    0.29    0.40
 -13  13  -4   -0.12    0.35
 -14  12  -4    0.03    0.36
 -15  11  -4    0.81    0.47
  -6  22  -4    0.61    0.48
  -7  21  -4    1.50    0.58
  -8  20  -4    1.98    0.64
  -9  19  -4    0.73    0.45
 -10  18  -4    0.47    0.40
 -11  17  -4   -0.28    0.35
 -12  16  -4   -0.22    0.37
 -13  15  -4    8.10    0.97
 -19  13   5    0.49    0.47
 -18  14   5    0.51    0.47
 -17  15   5    0.68    0.48
 -16  16   5    1.27    0.52
 -15  17   5    0.26    0.46
 -14  18   5    0.50    0.45
 -13  19   5   -0.19    0.41
 -12  20   5    0.28    0.43
 -11  21   5    0.84    0.46
 -10  22   5    0.24    0.43
 -20  10   5    0.70    0.47
 -19  11   5    0.36    0.42
 -18  12   5    0.23    0.44
 -17  13   5    1.72    0.54
 -16  14   5    0.67    0.42
 -15  15   5    0.20    0.41
 -14  16   5    0.41    0.40
 -13  17   5    1.45    0.53
 -12  18   5    3.29    0.69
 -11  19   5    5.30    0.81
 -10  20   5    2.75    0.60
  -9  21   5    0.45    0.41
  -8  22   5    0.24    0.37
  -7  23   5   -0.26    0.36
 -21   7   5   -0.16    0.37
 -20   8   5    0.96    0.48
 -19   9   5   -0.36    0.33
 -18  10   5    0.78    0.43
 -17  11   5    0.11    0.37
 -16  12   5    4.76    0.69
 -15  13   5   -0.03    0.33
 -14  14   5    5.42    0.72
 -13  15   5    2.18    0.52
 -12  16   5    0.57    0.44
 -11  17   5    0.52    0.45
 -10  18   5    0.13    0.38
  -9  19   5    0.23    0.40
  -8  20   5   -0.35    0.26
  -7  21   5    1.55    0.45
  -6  22   5    3.26    0.59
  -5  23   5   -0.48    0.32
  -4  24   5    2.08    0.55
 -21   5   5    0.33    0.39
 -20   6   5    0.07    0.36
 -19   7   5    2.52    0.57
 -18   8   5    0.76    0.38
 -17   9   5   -0.24    0.32
 -16  10   5    5.29    0.68
 -15  11   5    0.13    0.33
 -14  12   5    0.05    0.34
 -13  13   5    0.81    0.36
 -12  14   5    1.28    0.37
 -11  15   5    1.54    0.45
 -10  16   5    0.54    0.39
  -9  17   5    5.10    0.69
  -8  18   5    0.15    0.34
  -7  19   5    4.10    0.59
  -6  20   5    2.51    0.52
  -5  21   5    1.49    0.39
  -5  21   5    0.83    0.39
  -4  22   5   -0.47    0.32
  -3  23   5    3.30    0.61
  -2  24   5    2.83    0.56
 -22   2   5    1.53    0.49
 -21   3   5    0.74    0.46
 -21   3   5    0.68    0.41
 -20   4   5   -0.48    0.36
 -20   4   5   -0.22    0.33
 -19   5   5    2.06    0.47
 -18   6   5    0.52    0.34
 -17   7   5    2.19    0.48
 -16   8   5    0.21    0.30
 -15   9   5    0.41    0.28
 -14  10   5    1.02    0.35
 -13  11   5    2.50    0.44
 -12  12   5   10.66    0.77
 -11  13   5    2.67    0.47
 -10  14   5    0.01    0.23
  -9  15   5    4.69    0.62
  -8  16   5    0.70    0.36
  -7  17   5    0.95    0.36
  -6  18   5    3.46    0.55
  -5  19   5    6.67    0.74
  -4  20   5   -0.37    0.25
  -4  20   5    0.19    0.26
  -3  21   5    0.63    0.36
  -2  22   5    0.58    0.41
  -1  23   5    0.03    0.31
 -21   1   5    0.38    0.39
 -20   2   5    0.33    0.38
 -19   3   5    0.19    0.33
 -19   3   5    0.12    0.33
 -18   4   5    1.63    0.43
 -18   4   5    1.99    0.45
 -17   5   5    0.15    0.29
 -17   5   5    0.42    0.30
 -16   6   5    3.06    0.46
 -16   6   5    3.84    0.53
 -15   7   5    8.98    0.69
 -14   8   5    2.33    0.40
 -13   9   5    1.14    0.32
 -12  10   5    5.53    0.58
 -11  11   5    0.42    0.24
 -10  12   5    1.25    0.34
  -9  13   5    0.18    0.22
  -8  14   5   19.89    1.13
  -7  15   5    1.63    0.36
  -6  16   5   -0.10    0.20
  -5  17   5    1.10    0.37
  -4  18   5    0.58    0.27
  -4  18   5    0.87    0.34
  -3  19   5    0.45    0.26
  -3  19   5   -0.12    0.30
  -2  20   5    0.09    0.34
  -1  21   5    0.61    0.42
   0  22   5    2.65    0.56
   1  23   5    0.39    0.43
 -20   0   5    0.02    0.38
 -19   1   5   -0.05    0.32
 -18   2   5    6.64    0.76
 -17   3   5    3.71    0.55
 -16   4   5    6.60    0.67
 -16   4   5    5.61    0.60
 -15   5   5    0.44    0.24
 -15   5   5   -0.03    0.24
 -14   6   5    0.50    0.25
 -14   6   5    0.35    0.25
 -13   7   5    3.62    0.40
 -13   7   5    3.16    0.44
 -12   8   5   -0.03    0.22
 -11   9   5   13.75    0.79
  -9  11   5    0.26    0.24
  -8  12   5    6.43    0.62
  -7  13   5    0.05    0.21
  -6  14   5    1.89    0.36
  -5  15   5    0.15    0.25
  -4  16   5    4.14    0.54
  -3  17   5    8.09    0.69
  -3  17   5    8.60    0.68
  -2  18   5    1.65    0.34
  -2  18   5    1.75    0.42
  -1  19   5   12.83    0.94
   0  20   5    2.55    0.53
   1  21   5    1.15    0.42
   2  22   5    0.23    0.32
 -20  -2   5    0.45    0.41
 -19  -1   5    0.58    0.34
 -18   0   5    0.78    0.36
 -17   1   5    0.17    0.29
 -16   2   5    0.09    0.24
 -15   3   5    6.13    0.57
 -14   4   5    6.98    0.60
 -14   4   5    7.24    0.58
 -13   5   5    2.57    0.36
 -13   5   5    2.07    0.33
 -12   6   5    0.41    0.20
 -12   6   5    0.33    0.18
 -11   7   5    0.44    0.19
 -11   7   5    0.42    0.22
 -10   8   5    1.56    0.21
 -10   8   5    1.47    0.27
  -9   9   5    4.17    0.42
  -8  10   5    1.21    0.27
  -7  11   5    3.81    0.44
  -6  12   5   16.22    0.90
  -5  13   5    7.55    0.61
  -4  14   5   28.47    1.31
  -3  15   5    8.01    0.62
  -3  15   5    9.50    0.68
  -2  16   5   -0.03    0.19
  -2  16   5    0.43    0.30
  -1  17   5    0.32    0.32
   0  18   5    8.36    0.83
   1  19   5    2.45    0.51
   2  20   5    0.10    0.29
   3  21   5   -0.15    0.35
   4  22   5    0.06    0.40
 -20  -4   5    0.22    0.33
 -19  -3   5    0.55    0.39
 -18  -2   5    6.94    0.78
 -17  -1   5   -0.25    0.26
 -16   0   5    1.68    0.38
 -15   1   5    0.10    0.21
 -14   2   5    4.61    0.51
 -13   3   5   -0.12    0.20
 -12   4   5    3.98    0.41
 -12   4   5    3.81    0.41
 -11   5   5    1.43    0.25
 -11   5   5    1.76    0.29
 -10   6   5    2.69    0.32
 -10   6   5    3.79    0.32
  -9   7   5   13.08    0.59
  -9   7   5   12.99    0.67
  -8   8   5   51.04    1.90
  -8   8   5   54.06    1.81
  -7   9   5    1.90    0.30
  -6  10   5   21.12    1.02
  -5  11   5   -0.10    0.19
  -4  12   5   14.76    0.81
  -3  13   5   21.26    1.03
  -3  13   5   17.08    0.91
  -2  14   5    6.54    0.63
  -2  14   5    6.99    0.54
  -1  15   5    0.18    0.19
  -1  15   5    0.07    0.25
   0  16   5    4.23    0.56
   1  17   5    1.12    0.38
   2  18   5    3.26    0.56
   3  19   5    0.85    0.39
   4  20   5    1.65    0.50
   5  21   5   -0.13    0.36
 -19  -5   5    1.95    0.53
 -18  -4   5    1.49    0.43
 -17  -3   5    4.06    0.60
 -16  -2   5    0.19    0.27
  16   2  -5    0.12    0.25
  15   1  -5   -0.08    0.18
  14   0  -5    3.86    0.45
  13  -1  -5   10.29    0.66
  12  -2  -5    0.37    0.18
 -11   3   5   34.31    1.32
  11  -3  -5   32.96    1.35
 -10   4   5    3.52    0.34
  10  -4  -5    3.60    0.31
  -9   5   5   35.67    1.35
   9  -5  -5   36.01    1.34
  -8   6   5    8.19    0.48
   8  -6  -5    8.53    0.41
  -7   7   5    7.63    0.47
  -7   7   5    8.95    0.37
  -6   8   5    1.53    0.25
  -5   9   5   45.27    1.73
  -4  10   5    1.15    0.27
  -3  11   5   25.31    1.14
  -3  11   5   24.95    1.08
  -2  12   5    3.43    0.42
  -2  12   5    3.94    0.40
  -1  13   5    8.55    0.56
  -1  13   5    8.38    0.63
   0  14   5    0.26    0.18
   0  14   5    0.05    0.25
   1  15   5    2.52    0.44
   2  16   5    0.54    0.28
   3  17   5    4.45    0.60
   4  18   5    3.58    0.60
   5  19   5   12.95    1.04
   6  20   5    0.69    0.43
 -19  -7   5    1.67    0.52
 -18  -6   5   -0.06    0.34
 -17  -5   5    0.06    0.25
  17   5  -5    0.15    0.27
  16   4  -5    5.62    0.67
  15   3  -5    6.10    0.67
  14   2  -5    4.60    0.52
 -13  -1   5   10.24    0.54
  13   1  -5   10.53    0.67
  12   0  -5    5.81    0.46
  11  -1  -5    4.51    0.40
  10  -2  -5   38.42    1.49
  -9   3   5   -0.03    0.11
   9  -3  -5   -0.05    0.11
  -8   4   5   14.50    0.64
   8  -4  -5   14.92    0.63
  -7   5   5    8.41    0.44
   7  -5  -5    8.24    0.39
  -6   6   5   34.89    1.31
   6  -6  -5   36.08    1.23
  -5   7   5   67.33    2.39
   5  -7  -5   69.62    2.25
  -4   8   5   53.60    1.88
  -4   8   5   52.21    1.91
  -3   9   5    9.86    0.55
  -3   9   5    9.47    0.57
  -2  10   5    0.38    0.18
  -2  10   5    0.72    0.23
   2 -10  -5    0.50    0.11
  -1  11   5    0.68    0.19
  -1  11   5    0.74    0.24
   0  12   5   21.32    0.92
   0  12   5   19.35    1.00
   1  13   5   -0.06    0.21
   1  13   5    0.01    0.14
   2  14   5   17.68    0.98
   3  15   5    8.15    0.67
   4  16   5    3.75    0.55
   5  17   5   -0.31    0.28
   6  18   5    0.90    0.38
   7  19   5   -0.32    0.32
 -18  -8   5    0.72    0.43
  17   7  -5    2.07    0.49
  16   6  -5    2.59    0.49
  15   5  -5    0.13    0.23
  14   4  -5    6.92    0.61
  13   3  -5    0.09    0.19
 -12  -2   5    0.69    0.16
  12   2  -5    0.67    0.24
 -11  -1   5    4.19    0.31
  11   1  -5    3.95    0.41
 -10   0   5   54.84    1.84
  10   0  -5   53.11    2.03
  -9   1   5   27.41    1.05
   9  -1  -5   28.70    1.15
  -8   2   5   48.92    1.73
  -8   2   5   50.98    1.71
   8  -2  -5   51.21    1.83
  -7   3   5   89.92    2.91
  -7   3   5   90.97    2.94
   7  -3  -5   90.20    3.08
  -6   4   5    1.16    0.16
  -6   4   5    0.90    0.17
   6  -4  -5    0.76    0.12
  -5   5   5    7.08    0.41
  -5   5   5    6.73    0.40
   5  -5  -5    6.92    0.33
  -4   6   5    2.37    0.26
  -4   6   5    2.15    0.24
   4  -6  -5    2.45    0.17
  -3   7   5   40.32    1.54
  -3   7   5   43.48    1.53
   3  -7  -5   43.74    1.47
  -2   8   5    7.75    0.47
  -2   8   5    7.77    0.44
   2  -8  -5    6.77    0.35
  -1   9   5   51.34    1.74
  -1   9   5   51.27    1.82
   1  -9  -5   46.39    1.75
   0  10   5   56.64    1.99
   0  10   5   53.72    1.86
   0 -10  -5   51.21    1.93
   1  11   5    0.91    0.19
   1  11   5    0.88    0.24
  -1 -11  -5    1.09    0.22
   2  12   5    2.78    0.30
   2  12   5    1.88    0.32
  -2 -12  -5    2.66    0.36
   3  13   5    2.24    0.39
   4  14   5    1.02    0.33
   5  15   5    4.79    0.60
   6  16   5    0.17    0.27
   7  17   5    1.95    0.47
   8  18   5    1.21    0.42
   9  19   5    1.00    0.47
 -18 -10   5    0.61    0.40
  18  10  -5    0.50    0.37
  17   9  -5   -0.23    0.26
  16   8  -5    0.07    0.28
  15   7  -5    8.28    0.77
  14   6  -5    0.40    0.29
  13   5  -5    1.59    0.35
  12   4  -5    3.90    0.48
 -11  -3   5   32.08    1.13
  11   3  -5   31.78    1.39
 -10  -2   5   37.43    1.30
  10   2  -5   38.04    1.55
  -9  -1   5   27.74    1.02
   9   1  -5   28.58    1.19
  -8   0   5    3.01    0.25
   8   0  -5    3.06    0.32
  -7   1   5   14.08    0.57
  -7   1   5   14.39    0.62
   7  -1  -5   14.95    0.67
  -6   2   5   66.70    2.18
  -6   2   5   68.34    2.23
   6  -2  -5   68.93    2.38
  -5   3   5    3.35    0.22
  -5   3   5    2.74    0.23
   5  -3  -5    3.24    0.24
  -4   4   5    8.34    0.43
  -4   4   5    9.00    0.45
   4  -4  -5    8.91    0.43
  -3   5   5   73.48    2.37
  -3   5   5   76.64    2.40
   3  -5  -5   66.83    2.45
  -2   6   5   60.49    2.03
  -2   6   5   59.69    2.06
   2  -6  -5   62.24    2.10
  -1   7   5   34.35    1.26
  -1   7   5   32.57    1.21
   1  -7  -5   33.82    1.24
   0   8   5    0.46    0.17
   0   8   5    0.51    0.15
   0  -8  -5    0.56    0.17
   1   9   5    3.18    0.30
   1   9   5    2.73    0.33
   2  10   5    7.32    0.43
   2  10   5    8.56    0.54
  -2 -10  -5    7.51    0.52
   3  11   5    0.63    0.22
  -3 -11  -5    0.90    0.25
   4  12   5    4.00    0.47
  -4 -12  -5    4.47    0.51
   5  13   5    5.98    0.59
  -5 -13  -5    6.32    0.68
   6  14   5    0.86    0.31
   7  15   5    7.02    0.74
   8  16   5   -0.22    0.30
   9  17   5    2.28    0.51
  17  11  -5    0.79    0.40
  16  10  -5    4.14    0.68
  15   9  -5    0.56    0.33
  14   8  -5    1.96    0.41
  13   7  -5    3.26    0.50
  12   6  -5    0.32    0.24
  11   5  -5    1.27    0.29
 -10  -4   5    3.70    0.24
  10   4  -5    3.45    0.41
  -9  -3   5   -0.02    0.08
   9   3  -5    0.06    0.13
  -8  -2   5   49.03    1.64
   8   2  -5   50.28    1.89
  -7  -1   5   14.08    0.58
   7   1  -5   14.32    0.70
  -6   0   5  169.41    5.23
   6   0  -5  168.58    5.68
  -5   1   5    3.39    0.18
  -5   1   5    3.90    0.26
   5  -1  -5    3.79    0.30
  -4   2   5    6.61    0.34
  -4   2   5    6.24    0.29
   4  -2  -5    5.62    0.37
  -3   3   5   13.97    0.53
  -3   3   5   13.50    0.58
   3  -3  -5   13.51    0.60
  -2   4   5   40.05    1.43
  -2   4   5   41.68    1.41
   2  -4  -5   43.32    1.50
  -1   5   5    1.19    0.16
  -1   5   5    0.81    0.14
   1  -5  -5    1.29    0.18
   0   6   5    3.48    0.27
   0   6   5    3.38    0.27
   0  -6  -5    3.58    0.28
   1   7   5    4.63    0.35
   1   7   5    5.43    0.33
  -1  -7  -5    5.86    0.38
   2   8   5   14.24    0.71
   2   8   5   15.75    0.66
  -2  -8  -5   16.60    0.78
   3   9   5    3.23    0.27
   3   9   5    2.79    0.33
  -3  -9  -5    3.55    0.40
   4  10   5   27.09    1.19
  -4 -10  -5   28.05    1.27
   5  11   5    0.40    0.24
  -5 -11  -5    0.31    0.25
   6  12   5    3.36    0.44
  -6 -12  -5    2.41    0.46
   7  13   5    2.49    0.43
  -7 -13  -5    3.67    0.56
   8  14   5   23.60    1.26
   9  15   5    0.21    0.30
  10  16   5   -0.04    0.28
  17  13  -5    1.63    0.52
  16  12  -5    4.46    0.73
  15  11  -5   -0.02    0.25
  14  10  -5    0.02    0.26
  13   9  -5    0.90    0.34
  12   8  -5    0.08    0.21
  11   7  -5    0.37    0.22
  11   7  -5    0.50    0.18
  10   6  -5    2.68    0.28
  10   6  -5    3.04    0.42
  -9  -5   5   32.28    1.12
   9   5  -5   34.34    1.46
   9   5  -5   34.90    1.23
  -8  -4   5   13.81    0.54
   8   4  -5   14.00    0.75
  -7  -3   5   85.09    2.67
   7   3  -5   83.70    3.03
  -6  -2   5   65.26    2.03
   6   2  -5   59.33    2.28
  -5  -1   5    3.30    0.23
   5   1  -5    2.95    0.33
  -4   0   5   14.41    0.57
   4   0  -5   12.15    0.64
  -3   1   5   11.72    0.40
  -3   1   5   11.32    0.50
   3  -1  -5   12.36    0.57
  -2   2   5   38.32    1.27
  -2   2   5   37.94    1.33
   2  -2  -5   41.01    1.44
  -1   3   5    7.86    0.40
  -1   3   5    8.18    0.36
   1  -3  -5    8.51    0.43
   0   4   5   75.74    2.46
   0   4   5   74.38    2.44
   0  -4  -5   76.87    2.63
   1   5   5   19.51    0.80
   1   5   5   20.72    0.79
  -1  -5  -5   20.57    0.87
   2   6   5    7.05    0.43
   2   6   5    7.15    0.39
  -2  -6  -5    7.44    0.47
   3   7   5    2.78    0.24
   3   7   5    2.09    0.28
  -3  -7  -5    2.71    0.34
   4   8   5    3.08    0.28
   4   8   5    2.72    0.33
  -4  -8  -5    2.84    0.39
   5   9   5   60.34    2.18
  -5  -9  -5   57.63    2.32
   6  10   5   10.94    0.71
  -6 -10  -5   12.20    0.81
   7  11   5    8.16    0.62
  -7 -11  -5    7.31    0.69
   8  12   5    0.51    0.28
  -8 -12  -5    0.29    0.33
   9  13   5    0.19    0.32
  -9 -13  -5    0.96    0.42
  10  14   5    2.68    0.51
  11  15   5    0.07    0.33
  16  14  -5    0.13    0.37
  15  13  -5    0.21    0.34
  14  12  -5    0.10    0.32
  14  12  -5   -0.09    0.20
  13  11  -5    2.92    0.40
  13  11  -5    2.89    0.53
  12  10  -5    5.09    0.45
  12  10  -5    5.07    0.60
  11   9  -5   12.54    0.66
  11   9  -5   11.55    0.81
  10   8  -5    1.59    0.23
  10   8  -5    0.98    0.28
   9   7  -5   12.09    0.56
   9   7  -5   10.34    0.70
  -8  -6   5    7.92    0.35
   8   6  -5    6.27    0.52
   8   6  -5    7.75    0.40
  -7  -5   5    7.91    0.36
   7   5  -5    7.28    0.36
  -6  -4   5    0.48    0.11
   6   4  -5    0.77    0.10
   6   4  -5    0.59    0.18
  -5  -3   5    2.69    0.22
   5   3  -5    3.01    0.15
   5   3  -5    3.02    0.35
  -4  -2   5    6.96    0.35
   4   2  -5    6.31    0.44
  -3  -1   5   11.45    0.50
   3   1  -5   12.26    0.59
  -2   0   5    0.42    0.11
   2   0  -5    0.47    0.14
  -1   1   5   22.07    0.77
  -1   1   5   22.41    0.84
   1  -1  -5   23.10    0.91
   0   2   5   10.48    0.48
   0   2   5   10.49    0.44
   0  -2  -5   10.02    0.52
   1   3   5   37.92    1.36
   1   3   5   40.98    1.38
  -1  -3  -5   40.04    1.49
   2   4   5  158.07    4.94
   2   4   5  153.76    4.83
  -2  -4  -5  152.49    5.23
   3   5   5  106.94    3.38
   3   5   5  105.62    3.49
  -3  -5  -5  106.00    3.71
   4   6   5   18.83    0.84
   4   6   5   17.51    0.75
  -4  -6  -5   18.76    0.91
   5   7   5    0.13    0.18
  -5  -7  -5    0.20    0.19
   6   8   5    7.01    0.56
  -6  -8  -5    6.99    0.61
   7   9   5    1.69    0.34
  -7  -9  -5    2.35    0.44
   8  10   5    2.84    0.41
  -8 -10  -5    2.86    0.50
   9  11   5   -0.12    0.26
  -9 -11  -5    0.31    0.33
  10  12   5   -0.04    0.25
 -11 -13  -5    2.65    0.60
  15  15  -5   -0.13    0.24
  15  15  -5   -0.23    0.31
  14  14  -5    4.12    0.69
  14  14  -5    4.60    0.58
  13  13  -5    0.01    0.25
  13  13  -5   -0.09    0.21
  12  12  -5   10.22    0.79
  12  12  -5   10.81    0.69
  11  11  -5    0.41    0.20
  11  11  -5    0.10    0.22
  10  10  -5    0.98    0.31
  10  10  -5    0.90    0.22
   9   9  -5    4.18    0.34
   9   9  -5    3.86    0.48
   8   8  -5   49.34    1.74
   8   8  -5   49.68    2.01
   7   7  -5    8.36    0.58
   7   7  -5    7.65    0.41
   6   6  -5   35.66    1.47
   6   6  -5   33.92    1.20
  -5  -5   5    6.49    0.33
   5   5  -5    6.88    0.49
   5   5  -5    6.41    0.30
  -4  -4   5    8.23    0.40
   4   4  -5    9.70    0.57
   4   4  -5    9.02    0.35
   3   3  -5   14.94    0.53
   3   3  -5   15.25    0.74
  -2  -2   5   38.84    1.34
   2   2  -5   39.65    1.48
   2   2  -5   38.73    1.24
  -1  -1   5   22.82    0.84
   1   1  -5   21.97    0.91
   0   0   5  190.73    5.80
   0   0  -5  184.57    6.25
   1   1   5   18.47    0.73
  -1  -1  -5   18.57    0.81
   2   2   5  127.97    3.94
  -2  -2  -5  121.83    4.26
   3   3   5   10.15    0.52
   3   3   5    9.79    0.49
  -3  -3  -5    9.37    0.57
   4   4   5   13.02    0.65
  -4  -4  -5   12.75    0.70
   5   5   5   22.52    0.99
  -5  -5  -5   22.65    1.08
   6   6   5   12.30    0.69
  -6  -6  -5   11.89    0.76
   7   7   5    0.71    0.27
  -7  -7  -5    0.70    0.31
  -8  -8  -5   14.93    0.96
  -9  -9  -5    2.20    0.47
 -10 -10  -5   14.91    1.09
 -11 -11  -5    0.07    0.35
 -12 -12  -5    1.09    0.48
  15  17  -5    0.83    0.39
  14  16  -5    0.83    0.35
  14  16  -5    0.78    0.39
  13  15  -5    1.89    0.41
  13  15  -5    1.42    0.44
  12  14  -5    0.71    0.36
  12  14  -5    1.11    0.31
  11  13  -5    2.53    0.38
  11  13  -5    2.39    0.44
  10  12  -5    0.46    0.21
  10  12  -5    0.47    0.25
   9  11  -5    0.29    0.18
   9  11  -5   -0.05    0.19
   8  10  -5    1.68    0.35
   8  10  -5    1.19    0.22
   7   9  -5    1.67    0.31
   7   9  -5    1.84    0.24
   6   8  -5    1.88    0.23
   6   8  -5    1.64    0.31
   5   7  -5   73.08    2.40
   5   7  -5   72.16    2.70
   4   6  -5    2.31    0.20
   4   6  -5    1.96    0.32
   3   5  -5   69.68    2.36
   3   5  -5   76.51    2.66
   2   4  -5   41.93    1.63
   2   4  -5   43.92    1.42
   1   3  -5    8.45    0.35
   1   3  -5    8.76    0.48
   0   2  -5    9.82    0.51
  -1   1  -5   20.56    0.89
  -2   0  -5    5.50    0.39
  -3  -1  -5   31.66    1.29
  -4  -2  -5    0.61    0.19
  -5  -3  -5   15.86    0.82
  -6  -4  -5    2.84    0.38
  -7  -5  -5   22.29    1.15
  -8  -6  -5   33.82    1.59
  -9  -7  -5    6.16    0.67
 -10  -8  -5    6.18    0.75
 -11  -9  -5   10.85    0.97
 -12 -10  -5   -0.28    0.33
  14  18  -5    1.05    0.38
  14  18  -5    0.29    0.35
  13  17  -5    1.14    0.39
  13  17  -5    1.43    0.45
  12  16  -5    0.10    0.30
  12  16  -5    0.20    0.27
  11  15  -5    1.71    0.40
  11  15  -5    1.49    0.36
  10  14  -5   -0.04    0.19
  10  14  -5    0.14    0.21
   9  13  -5   -0.19    0.20
   9  13  -5    0.11    0.20
   8  12  -5    6.43    0.58
   8  12  -5    7.12    0.50
   7  11  -5    5.60    0.43
   7  11  -5    4.44    0.49
   6  10  -5   22.17    1.10
   6  10  -5   23.34    0.97
   5   9  -5   46.23    1.67
   5   9  -5   46.36    1.87
   4   8  -5   48.94    1.81
   4   8  -5   56.11    2.08
   3   7  -5   40.68    1.50
   3   7  -5   44.93    1.72
   2   6  -5   61.52    2.08
   2   6  -5   61.75    2.28
   1   5  -5    1.35    0.21
   1   5  -5    1.31    0.15
   0   4  -5   76.66    2.73
   0   4  -5   77.80    2.49
  -1   3  -5   38.78    1.49
  -2   2  -5  125.55    4.31
  -3   1  -5   29.21    1.20
  -4   0  -5   37.11    1.50
  -5  -1  -5   43.82    1.76
  -6  -2  -5    4.88    0.45
  -7  -3  -5    5.51    0.57
  -8  -4  -5   18.11    1.04
  -9  -5  -5    1.78    0.42
 -10  -6  -5   20.02    1.20
 -11  -7  -5    2.58    0.55
 -12  -8  -5    2.94    0.58
 -13  -9  -5    2.27    0.59
  13  19  -5   -0.38    0.28
  13  19  -5    0.23    0.34
  12  18  -5    2.76    0.53
  12  18  -5    2.94    0.55
  11  17  -5    1.30    0.38
  11  17  -5    1.13    0.36
  10  16  -5    0.21    0.28
  10  16  -5    0.02    0.23
   9  15  -5    4.58    0.58
   9  15  -5    3.97    0.50
   8  14  -5   19.33    1.07
   8  14  -5   18.16    0.96
   7  13  -5   -0.22    0.14
   7  13  -5    0.12    0.17
   6  12  -5   17.25    0.93
   6  12  -5   16.39    0.84
   5  11  -5    1.41    0.29
   5  11  -5   -0.13    0.14
   4  10  -5    0.76    0.21
   4  10  -5    1.19    0.26
   3   9  -5    9.55    0.53
   3   9  -5    9.56    0.62
   2   8  -5    8.09    0.53
   2   8  -5    7.88    0.47
   1   7  -5   32.86    1.35
   1   7  -5   33.88    1.22
   0   6  -5    3.00    0.32
   0   6  -5    3.25    0.24
  -1   5  -5   20.77    0.80
  -1   5  -5   19.67    0.89
  -2   4  -5  156.72    5.34
  -2   4  -5  157.42    4.99
  -3   3  -5    9.73    0.57
  -4   2  -5    0.35    0.18
  -5   1  -5   43.56    1.74
  -6   0  -5   31.71    1.39
  -7  -1  -5   13.01    0.80
  -8  -2  -5    0.41    0.27
  -9  -3  -5    0.03    0.25
 -10  -4  -5    0.21    0.26
 -11  -5  -5    2.32    0.48
 -12  -6  -5    5.46    0.71
 -13  -7  -5    0.80    0.46
  12  20  -5    0.52    0.38
  11  19  -5    4.32    0.61
  11  19  -5    4.24    0.63
  10  18  -5    0.86    0.36
  10  18  -5    0.70    0.33
   9  17  -5    4.99    0.59
   9  17  -5    3.72    0.54
   8  16  -5    0.62    0.28
   8  16  -5    0.35    0.26
   7  15  -5    1.26    0.33
   7  15  -5    1.02    0.29
   6  14  -5    1.64    0.34
   6  14  -5    1.23    0.31
   5  13  -5    6.57    0.56
   5  13  -5    5.73    0.55
   4  12  -5   14.84    0.78
   4  12  -5   14.53    0.83
   3  11  -5   26.43    1.10
   3  11  -5   23.99    1.18
   2  10  -5    0.54    0.20
   2  10  -5    0.57    0.24
   1   9  -5   47.68    1.87
   1   9  -5   48.28    1.76
   0   8  -5    0.53    0.19
   0   8  -5    0.67    0.16
  -1   7  -5    5.69    0.36
  -1   7  -5    5.98    0.44
  -2   6  -5    7.13    0.47
  -2   6  -5    7.31    0.43
  -3   5  -5  104.87    3.73
  -3   5  -5  107.06    3.48
  -4   4  -5   13.61    0.73
  -5   3  -5   16.61    0.85
  -6   2  -5    4.03    0.44
  -7   1  -5   13.54    0.80
  -8   0  -5   13.92    0.86
  -9  -1  -5    0.52    0.27
 -10  -2  -5    0.32    0.28
 -11  -3  -5    9.06    0.81
 -12  -4  -5    0.59    0.38
 -13  -5  -5   18.43    1.27
 -14  -6  -5    0.15    0.38
  11  21  -5   -0.31    0.31
   9  19  -5    1.34    0.40
   9  19  -5    1.42    0.41
   8  18  -5    0.01    0.27
   8  18  -5   -0.02    0.23
   7  17  -5    0.68    0.29
   7  17  -5    0.61    0.29
   6  16  -5    0.40    0.24
   6  16  -5    0.09    0.22
   5  15  -5    0.46    0.24
   5  15  -5    0.94    0.29
   4  14  -5   26.71    1.27
   4  14  -5   27.22    1.24
   3  13  -5   19.86    0.96
   3  13  -5   19.16    1.01
   2  12  -5    3.57    0.46
   2  12  -5    5.01    0.44
   1  11  -5    0.68    0.22
   1  11  -5    1.54    0.29
   0  10  -5   55.69    2.00
   0  10  -5   55.15    2.11
  -1   9  -5    2.86    0.31
  -1   9  -5    2.96    0.35
  -2   8  -5   15.08    0.80
  -2   8  -5   17.62    0.77
  -3   7  -5    2.28    0.28
  -3   7  -5    2.66    0.33
  -4   6  -5   18.55    0.85
  -4   6  -5   18.69    0.92
  -5   5  -5   22.24    1.07
  -6   4  -5    2.12    0.35
  -7   3  -5    4.78    0.53
  -8   2  -5    0.53    0.25
  -9   1  -5    0.13    0.23
 -10   0  -5   59.92    2.49
 -11  -1  -5    9.08    0.78
 -12  -2  -5   -0.02    0.31
 -13  -3  -5    0.14    0.38
 -14  -4  -5    7.87    0.92
  10  22  -5   -0.22    0.32
   9  21  -5    0.22    0.34
   8  20  -5    0.11    0.30
   7  19  -5    3.69    0.57
   6  18  -5    3.37    0.52
   6  18  -5    3.72    0.49
   5  17  -5    1.46    0.33
   5  17  -5    0.90    0.32
   4  16  -5    4.33    0.51
   4  16  -5    4.82    0.54
   3  15  -5    8.63    0.62
   3  15  -5    8.26    0.62
   2  14  -5    7.58    0.60
   2  14  -5    7.56    0.57
   1  13  -5    9.25    0.62
   1  13  -5    8.36    0.64
   0  12  -5   18.73    0.96
   0  12  -5   20.11    0.99
  -1  11  -5    0.84    0.23
  -1  11  -5    0.93    0.24
  -2  10  -5    8.69    0.54
  -2  10  -5    8.48    0.56
  -3   9  -5    2.59    0.35
  -3   9  -5    3.50    0.37
  -4   8  -5    3.20    0.40
  -4   8  -5    3.20    0.35
  -5   7  -5   -0.02    0.20
  -5   7  -5   -0.07    0.17
  -6   6  -5   12.31    0.70
  -6   6  -5   14.02    0.83
  -7   5  -5   23.69    1.18
  -8   4  -5   18.72    1.04
  -9   3  -5    0.13    0.27
 -10   2  -5    0.11    0.26
 -11   1  -5    8.84    0.80
 -12   0  -5    0.04    0.25
 -13  -1  -5    4.17    0.66
   8  22  -5   -0.48    0.30
   7  21  -5    1.13    0.41
   6  20  -5    2.75    0.49
   5  19  -5    7.32    0.75
   4  18  -5    0.59    0.31
   3  17  -5    9.24    0.69
   3  17  -5    9.25    0.67
   2  16  -5    0.35    0.25
   2  16  -5    0.29    0.24
   1  15  -5    0.16    0.23
   1  15  -5    0.41    0.24
   0  14  -5    0.59    0.24
   0  14  -5    0.32    0.23
  -1  13  -5    0.15    0.21
  -1  13  -5    0.20    0.21
  -2  12  -5    2.48    0.36
  -2  12  -5    2.69    0.38
  -3  11  -5    0.84    0.25
  -3  11  -5    0.43    0.23
  -4  10  -5   30.47    1.37
  -4  10  -5   30.58    1.31
  -5   9  -5   64.01    2.49
  -5   9  -5   65.08    2.37
  -6   8  -5    6.70    0.56
  -6   8  -5    6.94    0.56
  -7   7  -5    1.37    0.36
  -7   7  -5    0.30    0.25
  -8   6  -5   32.75    1.50
  -8   6  -5   31.10    1.37
  -9   5  -5    1.76    0.37
 -10   4  -5    0.21    0.29
 -11   3  -5    7.65    0.77
 -12   2  -5   -0.11    0.26
 -13   1  -5    3.76    0.64
 -14   0  -5    0.86    0.41
   7  23  -5    0.28    0.36
   6  22  -5    2.56    0.50
   5  21  -5    0.57    0.36
   4  20  -5    0.03    0.28
   3  19  -5    0.21    0.28
   2  18  -5    1.74    0.37
   1  17  -5    0.27    0.25
   0  16  -5    4.89    0.55
   0  16  -5    4.23    0.52
  -1  15  -5    2.49    0.41
  -1  15  -5    2.43    0.43
  -2  14  -5   18.08    0.99
  -2  14  -5   18.60    1.01
  -3  13  -5    3.16    0.41
  -3  13  -5    2.74    0.40
  -4  12  -5    4.89    0.52
  -4  12  -5    5.05    0.53
  -5  11  -5    0.15    0.22
  -5  11  -5    0.71    0.28
  -6  10  -5   14.85    0.85
  -6  10  -5   12.62    0.83
  -7   9  -5    1.80    0.38
  -7   9  -5    1.69    0.35
  -8   8  -5   16.68    0.92
  -8   8  -5   16.87    1.02
  -9   7  -5    6.51    0.57
  -9   7  -5    6.49    0.68
 -10   6  -5   19.87    1.08
 -10   6  -5   20.00    1.15
 -11   5  -5    2.88    0.52
 -12   4  -5    0.62    0.38
 -13   3  -5    0.64    0.40
 -14   2  -5    0.86    0.39
   5  23  -5   -0.03    0.29
   4  22  -5    0.05    0.31
   3  21  -5    0.72    0.34
   2  20  -5   -0.09    0.26
   1  19  -5   12.50    0.87
   0  18  -5    8.39    0.72
  -1  17  -5    0.94    0.33
  -2  16  -5    0.90    0.34
  -3  15  -5    8.95    0.70
  -3  15  -5    9.80    0.76
  -4  14  -5    0.83    0.28
  -4  14  -5    1.36    0.35
  -5  13  -5    6.14    0.62
  -5  13  -5    7.29    0.63
  -6  12  -5    3.15    0.47
  -6  12  -5    3.56    0.48
  -7  11  -5    9.29    0.72
  -7  11  -5   10.10    0.74
  -8  10  -5    3.19    0.47
  -8  10  -5    3.51    0.51
  -9   9  -5    2.02    0.42
  -9   9  -5    2.11    0.42
 -10   8  -5    4.62    0.64
 -10   8  -5    4.76    0.58
 -11   7  -5    2.25    0.47
 -11   7  -5    2.55    0.54
 -12   6  -5    5.80    0.75
 -12   6  -5    6.33    0.72
 -13   5  -5   17.30    1.19
 -14   4  -5    6.65    0.81
   4  24  -5    2.24    0.52
   3  23  -5    3.22    0.56
   2  22  -5    0.45    0.34
   1  21  -5    0.58    0.33
   0  20  -5    2.59    0.48
  -1  19  -5    3.29    0.53
  -2  18  -5    4.06    0.59
  -3  17  -5    3.57    0.58
  -4  16  -5    4.62    0.61
  -5  15  -5    4.46    0.56
  -6  14  -5    0.89    0.34
  -6  14  -5    1.02    0.34
  -7  13  -5    4.82    0.59
  -7  13  -5    5.43    0.64
  -8  12  -5    0.52    0.32
  -8  12  -5    0.29    0.28
  -9  11  -5   -0.19    0.27
  -9  11  -5   -0.04    0.25
 -10  10  -5   16.32    1.02
 -10  10  -5   17.50    1.12
 -11   9  -5   11.06    0.89
 -11   9  -5   12.60    0.99
 -12   8  -5    1.52    0.47
 -12   8  -5    1.86    0.47
 -13   7  -5    0.56    0.35
 -13   7  -5    0.26    0.34
 -14   6  -5    0.18    0.37
 -14   6  -5    0.28    0.33
 -15   5  -5    0.98    0.48
   2  24  -5    1.86    0.50
   1  23  -5   -0.13    0.28
   0  22  -5    3.58    0.57
  -1  21  -5    1.37    0.43
  -2  20  -5   -0.21    0.31
  -3  19  -5    0.65    0.38
  -4  18  -5    3.94    0.65
  -5  17  -5    0.20    0.33
  -6  16  -5   -0.03    0.27
  -7  15  -5    9.60    0.85
  -8  14  -5   27.64    1.47
  -9  13  -5    0.48    0.31
  -9  13  -5    0.35    0.30
 -10  12  -5    0.56    0.35
 -10  12  -5    0.41    0.36
 -11  11  -5    0.33    0.35
 -11  11  -5   -0.27    0.29
 -12  10  -5   -0.05    0.32
 -12  10  -5   -0.12    0.33
 -13   9  -5    2.79    0.63
 -13   9  -5    3.40    0.57
 -14   8  -5    0.07    0.39
 -14   8  -5    0.17    0.36
 -15   7  -5    0.79    0.45
  -1  23  -5    0.57    0.39
  -2  22  -5    0.28    0.38
  -3  21  -5   -0.05    0.30
  -4  20  -5    1.42    0.48
  -5  19  -5   16.48    1.23
  -6  18  -5    1.29    0.45
  -7  17  -5    2.13    0.53
  -8  16  -5    0.02    0.35
  -9  15  -5    0.22    0.31
 -10  14  -5    3.28    0.57
 -11  13  -5    3.72    0.62
 -12  12  -5    1.91    0.51
 -13  11  -5    1.62    0.50
 -13  11  -5    2.01    0.57
 -14  10  -5   -0.36    0.31
  -4  22  -5   -0.46    0.37
  -5  21  -5    0.03    0.38
  -6  20  -5    0.74    0.49
  -7  19  -5    0.11    0.43
  -8  18  -5    1.48    0.53
  -9  17  -5    1.98    0.54
 -10  16  -5    0.65    0.41
 -11  15  -5   -0.08    0.36
 -12  14  -5    4.90    0.73
 -13  13  -5    2.91    0.57
 -19  13   6    0.28    0.48
 -18  14   6    6.96    0.89
 -17  15   6    3.61    0.70
 -16  16   6    0.54    0.46
 -15  17   6    0.63    0.45
 -14  18   6    0.52    0.48
 -13  19   6    0.54    0.49
 -12  20   6    0.35    0.42
 -11  21   6    3.09    0.61
 -10  22   6   -0.56    0.36
 -20  10   6    4.58    0.72
 -19  11   6    0.90    0.45
 -18  12   6    0.53    0.44
 -17  13   6    0.51    0.40
 -16  14   6    0.23    0.36
 -15  15   6    1.32    0.47
 -14  16   6    5.25    0.78
 -13  17   6    0.46    0.45
 -12  18   6    0.80    0.46
 -11  19   6    2.32    0.54
 -10  20   6    1.76    0.54
  -9  21   6    0.32    0.41
  -8  22   6    0.09    0.39
  -8  22   6    0.79    0.34
  -7  23   6    1.17    0.42
  -7  23   6    1.36    0.40
 -21   7   6    0.55    0.42
 -20   8   6    0.64    0.43
 -19   9   6    0.26    0.38
 -18  10   6   -0.28    0.31
 -17  11   6    7.40    0.84
 -16  12   6    3.12    0.58
 -15  13   6    2.76    0.54
 -14  14   6    0.49    0.37
 -13  15   6    0.16    0.38
 -12  16   6    5.16    0.73
 -11  17   6    0.06    0.36
 -10  18   6    1.09    0.45
  -9  19   6    6.68    0.79
  -8  20   6    1.34    0.45
  -7  21   6    4.72    0.65
  -7  21   6    4.39    0.66
  -6  22   6    1.11    0.45
  -6  22   6    0.56    0.32
  -5  23   6    0.70    0.40
 -22   4   6    0.81    0.42
 -21   5   6    0.12    0.36
 -20   6   6    4.27    0.64
 -19   7   6    1.84    0.48
 -18   8   6    4.98    0.64
 -17   9   6    1.04    0.40
 -16  10   6    1.06    0.38
 -15  11   6    1.56    0.44
 -14  12   6    1.49    0.41
 -13  13   6    0.06    0.30
 -12  14   6    8.41    0.83
 -11  15   6    5.07    0.68
 -10  16   6    3.85    0.60
  -9  17   6    2.45    0.47
  -8  18   6    0.10    0.29
  -7  19   6    0.43    0.35
  -6  20   6    0.72    0.31
  -6  20   6    0.44    0.36
  -5  21   6    0.38    0.30
  -5  21   6    0.08    0.36
  -4  22   6    0.05    0.30
  -3  23   6    0.32    0.38
 -22   2   6    0.02    0.34
 -21   3   6    0.95    0.42
 -20   4   6    1.20    0.44
 -19   5   6    0.31    0.32
 -18   6   6    3.03    0.52
 -17   7   6    0.41    0.33
 -16   8   6    0.05    0.28
 -15   9   6   12.73    0.88
 -14  10   6   17.19    1.02
 -13  11   6    3.61    0.51
 -12  12   6    3.83    0.49
 -11  13   6   -0.24    0.23
 -10  14   6    0.53    0.32
  -9  15   6    3.51    0.52
  -8  16   6    1.57    0.41
  -7  17   6    0.80    0.34
  -6  18   6    0.21    0.29
  -6  18   6    0.19    0.25
  -5  19   6    1.50    0.42
  -5  19   6    1.72    0.41
  -4  20   6    5.48    0.70
  -4  20   6    6.07    0.74
  -3  21   6    0.10    0.30
  -2  22   6    1.56    0.51
  -1  23   6    0.71    0.43
 -21   1   6    1.71    0.52
 -20   2   6   -0.21    0.28
 -20   2   6   -0.14    0.32
 -19   3   6   -0.12    0.30
 -19   3   6    0.01    0.29
 -18   4   6    2.44    0.46
 -18   4   6    2.14    0.50
 -17   5   6   17.46    1.09
 -17   5   6   18.46    1.03
 -16   6   6    0.16    0.28
 -15   7   6    2.94    0.44
 -14   8   6    0.13    0.20
 -13   9   6    0.62    0.27
 -12  10   6    6.34    0.56
 -11  11   6    4.32    0.50
 -10  12   6    4.65    0.54
  -9  13   6    1.21    0.34
  -8  14   6    1.08    0.31
  -7  15   6   14.80    0.91
  -6  16   6   -0.20    0.21
  -5  17   6    1.99    0.40
  -5  17   6    1.88    0.39
  -4  18   6    0.13    0.25
  -4  18   6    0.29    0.25
  -3  19   6    6.97    0.76
  -2  20   6    0.06    0.29
  -1  21   6    4.15    0.65
   0  22   6    0.18    0.38
   1  23   6    1.51    0.53
 -21  -1   6    1.33    0.51
 -20   0   6   15.48    1.14
 -19   1   6    0.30    0.33
 -18   2   6    2.07    0.45
 -17   3   6    0.12    0.25
 -17   3   6    0.54    0.30
 -16   4   6    3.56    0.49
 -16   4   6    3.96    0.50
 -15   5   6    7.67    0.62
 -15   5   6    7.33    0.60
 -14   6   6    1.82    0.33
 -14   6   6    2.00    0.35
 -13   7   6    6.26    0.54
 -12   8   6    1.18    0.29
 -11   9   6    2.34    0.36
 -10  10   6   27.53    1.23
  -9  11   6    1.72    0.35
  -8  12   6    1.81    0.37
  -7  13   6    0.21    0.20
  -6  14   6   26.33    1.25
  -5  15   6    0.17    0.27
  -5  15   6    0.23    0.22
  -4  16   6    6.20    0.63
  -4  16   6    8.93    0.71
  -3  17   6    4.73    0.58
  -3  17   6    3.01    0.46
  -2  18   6    0.18    0.28
  -1  19   6    0.23    0.36
   0  20   6    0.18    0.29
   1  21   6   -0.01    0.31
   2  22   6    1.09    0.38
 -20  -2   6   -0.10    0.28
 -19  -1   6    0.88    0.36
 -18   0   6    2.15    0.46
 -17   1   6    5.99    0.66
 -16   2   6    5.13    0.59
 -15   3   6    6.69    0.56
 -15   3   6    6.71    0.58
 -14   4   6    5.95    0.56
 -14   4   6    6.62    0.53
 -13   5   6    6.94    0.53
 -13   5   6    7.49    0.55
 -12   6   6    8.38    0.55
 -12   6   6    8.15    0.56
 -11   7   6    0.36    0.16
 -11   7   6    0.35    0.20
 -10   8   6   13.72    0.73
  -9   9   6   26.37    1.14
  -8  10   6    9.55    0.65
  -7  11   6    8.50    0.63
  -6  12   6   32.38    1.41
  -5  13   6    0.47    0.25
  -5  13   6    0.55    0.25
  -4  14   6    1.42    0.32
  -4  14   6    1.14    0.29
  -3  15   6    0.13    0.26
  -3  15   6    0.41    0.24
  -2  16   6    0.80    0.28
  -2  16   6    0.58    0.32
  -1  17   6    0.46    0.33
   0  18   6    0.34    0.34
   1  19   6    4.38    0.66
   2  20   6    2.55    0.56
   3  21   6    0.39    0.39
 -20  -4   6    1.72    0.53
 -19  -3   6    0.04    0.33
 -18  -2   6    2.42    0.51
 -17  -1   6    6.30    0.70
  17   1  -6    6.06    0.66
  16   0  -6    3.07    0.48
 -15   1   6    6.47    0.48
  15  -1  -6    6.32    0.57
  14  -2  -6    1.94    0.33
 -13   3   6    0.98    0.26
  13  -3  -6    1.26    0.27
 -12   4   6   45.17    1.66
  12  -4  -6   42.12    1.69
 -11   5   6   21.50    0.94
  11  -5  -6   20.92    0.92
 -10   6   6    0.90    0.21
  10  -6  -6    0.68    0.16
  -9   7   6   46.37    1.70
   9  -7  -6   46.12    1.63
  -8   8   6    2.07    0.30
  -7   9   6    8.42    0.56
  -6  10   6    8.35    0.62
  -6  10   6    8.74    0.59
  -5  11   6    3.38    0.42
  -5  11   6    5.05    0.49
  -4  12   6    0.40    0.24
  -4  12   6    0.53    0.27
  -3  13   6    2.44    0.38
  -3  13   6    2.02    0.35
  -2  14   6    7.72    0.56
  -2  14   6    6.29    0.63
  -1  15   6    8.32    0.62
  -1  15   6    8.35    0.71
   0  16   6   -0.21    0.25
   1  17   6    3.29    0.55
   2  18   6    0.21    0.32
   3  19   6    3.75    0.59
   4  20   6   -0.02    0.30
   5  21   6    0.12    0.35
 -20  -6   6    5.05    0.81
 -19  -5   6   -0.28    0.26
 -18  -4   6    2.15    0.51
  18   4  -6    2.20    0.54
  17   3  -6    0.33    0.30
  16   2  -6    4.54    0.56
  15   1  -6    6.59    0.59
 -14   0   6   12.25    0.65
  14   0  -6   11.74    0.74
 -13   1   6    4.01    0.38
  13  -1  -6    4.72    0.44
 -12   2   6   25.72    1.06
  12  -2  -6   25.10    1.12
 -11   3   6    4.04    0.36
  11  -3  -6    4.33    0.37
 -10   4   6   23.70    0.96
  10  -4  -6   23.69    0.99
  -9   5   6   18.16    0.78
   9  -5  -6   18.22    0.76
  -8   6   6   14.29    0.67
   8  -6  -6   15.25    0.62
  -7   7   6   10.69    0.60
  -7   7   6   11.70    0.64
   7  -7  -6   11.14    0.45
  -6   8   6   30.41    1.23
  -6   8   6   29.48    1.22
   6  -8  -6   28.86    0.99
  -5   9   6    1.69    0.29
  -5   9   6    1.47    0.27
  -4  10   6    9.02    0.57
  -4  10   6    9.39    0.60
  -3  11   6    0.41    0.20
  -3  11   6    0.26    0.21
  -2  12   6   29.03    1.31
  -2  12   6   31.34    1.26
  -1  13   6    0.56    0.20
  -1  13   6    0.28    0.24
   0  14   6    5.05    0.57
   0  14   6    5.83    0.48
   1  15   6   -0.10    0.22
   2  16   6    6.34    0.67
   3  17   6    0.21    0.30
   4  18   6    0.91    0.41
   5  19   6    0.54    0.41
   6  20   6    0.01    0.39
 -19  -7   6    2.12    0.54
  19   7  -6    1.80    0.48
  18   6  -6    2.27    0.49
  17   5  -6   18.03    1.18
  16   4  -6    4.08    0.58
  15   3  -6    6.69    0.69
  14   2  -6    2.03    0.39
 -13  -1   6    4.59    0.35
  13   1  -6    3.38    0.43
 -12   0   6    1.93    0.26
  12   0  -6    1.55    0.27
 -11   1   6   13.11    0.63
  11  -1  -6   11.58    0.66
 -10   2   6    2.68    0.26
 -10   2   6    1.63    0.24
  10  -2  -6    2.59    0.30
  -9   3   6   45.07    1.65
  -9   3   6   47.10    1.61
   9  -3  -6   46.07    1.70
  -8   4   6    0.11    0.13
  -8   4   6    0.20    0.11
   8  -4  -6    0.21    0.11
  -7   5   6   23.35    0.98
  -7   5   6   23.06    0.91
   7  -5  -6   23.85    0.90
  -6   6   6    6.08    0.42
  -6   6   6    5.19    0.39
   6  -6  -6    5.86    0.30
  -5   7   6   33.43    1.24
  -5   7   6   30.34    1.22
   5  -7  -6   30.42    1.10
  -4   8   6    7.64    0.49
  -4   8   6    6.71    0.46
   4  -8  -6    8.03    0.35
  -3   9   6    6.06    0.46
  -3   9   6    6.76    0.46
   3  -9  -6    6.90    0.33
  -2  10   6   -0.05    0.14
  -2  10   6   -0.25    0.16
  -1  11   6   21.43    1.03
  -1  11   6   23.68    0.98
   0  12   6    5.33    0.53
   0  12   6    5.68    0.43
   1  13   6   -0.04    0.16
   1  13   6   -0.01    0.18
   2  14   6    0.93    0.31
   3  15   6    0.10    0.21
   4  16   6    1.27    0.37
   5  17   6    0.20    0.34
   6  18   6    0.00    0.35
   7  19   6    1.56    0.51
 -19  -9   6    0.87    0.48
  19   9  -6    0.13    0.36
  18   8  -6    3.83    0.64
  17   7  -6    0.84    0.40
  16   6  -6    0.72    0.32
  15   5  -6    7.18    0.75
  14   4  -6    5.50    0.60
 -13  -3   6    1.03    0.20
  13   3  -6    1.00    0.30
 -12  -2   6   24.64    0.98
  12   2  -6   26.96    1.22
 -11  -1   6   13.59    0.61
  11   1  -6   12.07    0.71
 -10   0   6   16.90    0.72
  10   0  -6   16.06    0.82
  -9   1   6   34.99    1.27
   9  -1  -6   33.83    1.36
  -8   2   6   21.75    0.81
  -8   2   6   20.94    0.87
   8  -2  -6   21.95    0.91
  -7   3   6   17.97    0.77
  -7   3   6   17.49    0.69
   7  -3  -6   18.16    0.76
  -6   4   6    2.58    0.24
  -6   4   6    2.24    0.25
   6  -4  -6    2.27    0.23
  -5   5   6   -0.01    0.10
  -5   5   6    0.17    0.12
   5  -5  -6    0.06    0.10
  -4   6   6  147.50    4.83
  -4   6   6  145.21    4.88
   4  -6  -6  165.23    5.09
  -3   7   6    8.38    0.47
  -3   7   6    8.63    0.48
   3  -7  -6    8.31    0.42
  -2   8   6   31.26    1.15
  -2   8   6   30.58    1.13
   2  -8  -6   25.22    1.08
  -1   9   6    2.09    0.26
  -1   9   6    1.72    0.27
   1  -9  -6    1.49    0.23
   0  10   6    0.78    0.22
   0  10   6    0.58    0.19
   0 -10  -6    0.51    0.18
   1  11   6    1.26    0.27
   1  11   6    1.45    0.24
  -1 -11  -6    1.26    0.26
   2  12   6    8.06    0.51
   2  12   6    8.71    0.59
   3  13   6   -0.02    0.17
   4  14   6    0.12    0.24
   5  15   6    4.34    0.56
   6  16   6    2.69    0.50
   7  17   6    3.38    0.61
   8  18   6    0.31    0.38
  18  10  -6    0.30    0.35
  17   9  -6    0.68    0.43
  16   8  -6    0.70    0.37
  15   7  -6    2.97    0.50
  14   6  -6    1.82    0.39
  13   5  -6    6.61    0.59
 -12  -4   6   41.51    1.44
  12   4  -6   43.30    1.80
 -11  -3   6    4.20    0.29
  11   3  -6    4.18    0.45
 -10  -2   6    2.41    0.24
  10   2  -6    2.60    0.36
  -9  -1   6   32.28    1.19
   9   1  -6   33.91    1.38
  -8   0   6   45.47    1.59
   8   0  -6   47.25    1.77
  -7   1   6   19.67    0.71
  -7   1   6   19.47    0.80
   7  -1  -6   20.50    0.89
  -6   2   6   50.48    1.61
  -6   2   6   46.54    1.68
   6  -2  -6   50.06    1.82
  -5   3   6   15.18    0.65
  -5   3   6   13.66    0.58
   5  -3  -6   14.66    0.68
  -4   4   6    3.13    0.22
  -4   4   6    2.82    0.27
   4  -4  -6    2.56    0.26
  -3   5   6   18.72    0.78
  -3   5   6   20.87    0.77
   3  -5  -6   17.99    0.79
  -2   6   6    2.46    0.27
  -2   6   6    2.37    0.24
   2  -6  -6    2.48    0.25
  -1   7   6   24.34    0.97
  -1   7   6   24.13    0.97
   1  -7  -6   25.41    1.01
   0   8   6   11.18    0.58
   0   8   6   10.62    0.55
   0  -8  -6   11.37    0.59
   1   9   6    5.26    0.37
   1   9   6    4.46    0.37
  -1  -9  -6    5.14    0.42
   2  10   6   25.71    1.10
   2  10   6   25.04    1.00
  -2 -10  -6   24.19    1.14
   3  11   6    1.38    0.28
  -3 -11  -6    1.46    0.31
   4  12   6    4.52    0.50
  -4 -12  -6    4.32    0.53
   5  13   6    0.70    0.30
   6  14   6    2.26    0.45
   7  15   6   -0.34    0.27
   8  16   6    0.35    0.29
   9  17   6    0.01    0.35
  17  11  -6    4.88    0.76
  16  10  -6    0.25    0.38
  15   9  -6    9.43    0.84
  14   8  -6    0.45    0.30
  13   7  -6    4.23    0.55
  12   6  -6    7.53    0.65
 -11  -5   6   18.89    0.71
 -10  -4   6   21.47    0.81
  10   4  -6   22.22    1.07
  -9  -3   6   44.50    1.49
   9   3  -6   43.44    1.77
  -8  -2   6   21.80    0.83
   8   2  -6   21.03    1.00
  -7  -1   6   19.71    0.79
   7   1  -6   20.42    0.93
  -6   0   6   90.68    2.79
  -6   0   6   91.56    2.88
   6   0  -6   85.81    3.17
  -5   1   6   23.09    0.86
  -5   1   6   22.45    0.75
   5  -1  -6   20.38    0.96
  -4   2   6   59.33    1.82
  -4   2   6   56.87    1.92
   4  -2  -6   54.35    2.06
  -3   3   6   43.10    1.41
  -3   3   6   42.27    1.50
   3  -3  -6   43.53    1.60
  -2   4   6    2.91    0.22
  -2   4   6    3.42    0.27
   2  -4  -6    3.59    0.29
  -1   5   6   31.42    1.17
  -1   5   6   32.29    1.20
   1  -5  -6   35.34    1.29
   0   6   6    3.16    0.27
   0   6   6    2.81    0.27
   0  -6  -6    3.35    0.31
   1   7   6   40.35    1.48
   1   7   6   39.47    1.44
  -1  -7  -6   41.68    1.58
   2   8   6   33.92    1.28
   2   8   6   34.51    1.36
  -2  -8  -6   36.89    1.46
   3   9   6    2.94    0.37
   3   9   6    3.12    0.31
  -3  -9  -6    2.79    0.39
   4  10   6    1.63    0.31
  -4 -10  -6    1.55    0.34
   5  11   6    3.08    0.42
  -5 -11  -6    2.21    0.42
   6  12   6    3.55    0.48
  -6 -12  -6    2.93    0.50
   7  13   6    0.10    0.22
   8  14   6    0.16    0.30
   9  15   6    1.00    0.41
  10  16   6    0.58    0.38
  17  13  -6    0.30    0.40
  16  12  -6    2.08    0.51
  15  11  -6    0.93    0.38
  14  10  -6   12.21    0.92
  13   9  -6    0.54    0.31
  12   8  -6    0.70    0.31
  11   7  -6    0.79    0.18
  11   7  -6   -0.01    0.18
 -10  -6   6    0.64    0.13
  10   6  -6    0.72    0.27
  -9  -5   6   17.19    0.65
   9   5  -6   15.72    0.88
  -8  -4   6    0.15    0.10
   8   4  -6    0.28    0.17
  -7  -3   6   17.05    0.68
   7   3  -6   16.42    0.85
  -6  -2   6   47.06    1.57
   6   2  -6   45.02    1.82
  -5  -1   6   22.38    0.85
   5   1  -6   22.17    1.02
  -4   0   6   51.27    1.73
   4   0  -6   51.32    1.92
  -3   1   6    0.02    0.05
  -3   1   6    0.28    0.12
   3  -1  -6    0.16    0.13
  -2   2   6   41.90    1.34
  -2   2   6   38.81    1.42
   2  -2  -6   41.49    1.53
  -1   3   6   11.20    0.47
  -1   3   6   10.04    0.51
   1  -3  -6   11.85    0.57
   0   4   6    0.86    0.15
   0   4   6    1.26    0.18
   0  -4  -6    1.14    0.21
   1   5   6    0.50    0.15
   1   5   6    0.57    0.15
  -1  -5  -6    0.59    0.18
   2   6   6    3.31    0.29
   2   6   6    3.49    0.34
  -2  -6  -6    3.67    0.38
   3   7   6    5.70    0.38
   3   7   6    6.02    0.44
  -3  -7  -6    5.94    0.50
   4   8   6    1.00    0.24
   4   8   6    1.11    0.21
  -4  -8  -6    0.72    0.28
   5   9   6    0.05    0.19
  -5  -9  -6   -0.44    0.19
   6  10   6    0.19    0.19
  -6 -10  -6    0.23    0.27
   7  11   6   -0.09    0.20
  -7 -11  -6   -0.21    0.26
   8  12   6    0.87    0.31
  -8 -12  -6    0.45    0.37
   9  13   6    1.89    0.42
  -9 -13  -6    1.30    0.48
  10  14   6    1.15    0.39
  16  14  -6    0.13    0.38
  15  13  -6    2.03    0.53
  14  12  -6    0.96    0.30
  14  12  -6    1.13    0.39
  13  11  -6    3.38    0.41
  13  11  -6    3.43    0.55
  12  10  -6    5.51    0.44
  12  10  -6    5.54    0.64
  11   9  -6    1.98    0.41
  11   9  -6    1.59    0.26
  10   8  -6   12.47    0.61
  10   8  -6   11.33    0.80
   9   7  -6   43.19    1.50
   9   7  -6   41.07    1.79
  -8  -6   6   15.11    0.60
   8   6  -6   14.18    0.83
   8   6  -6   15.03    0.61
  -7  -5   6   23.89    0.89
   7   5  -6   22.53    0.86
   7   5  -6   29.23    1.21
  -6  -4   6    2.14    0.22
   6   4  -6    2.46    0.15
   6   4  -6    2.08    0.32
  -5  -3   6   15.39    0.64
   5   3  -6   15.50    0.81
   5   3  -6   15.18    0.51
  -4  -2   6   59.28    1.98
   4   2  -6   60.00    2.22
  -3  -1   6    0.11    0.10
   3   1  -6    0.20    0.13
  -2   0   6   75.64    2.54
   2   0  -6   81.09    2.78
  -1   1   6   30.07    1.11
   1  -1  -6   30.46    1.20
   0   2   6   83.29    2.69
   0   2   6   82.36    2.71
   0  -2  -6   84.48    2.93
   1   3   6   33.50    1.22
   1   3   6   34.52    1.22
  -1  -3  -6   32.84    1.33
   2   4   6   32.55    1.21
   2   4   6   31.88    1.19
  -2  -4  -6   32.06    1.32
   3   5   6    9.02    0.48
   3   5   6    8.43    0.50
  -3  -5  -6    8.96    0.57
   4   6   6    0.52    0.18
   4   6   6    0.41    0.18
  -4  -6  -6    1.60    0.32
   5   7   6    0.74    0.24
  -5  -7  -6    0.84    0.29
   6   8   6    3.22    0.40
  -6  -8  -6    3.75    0.51
   7   9   6    0.19    0.23
  -7  -9  -6   -0.03    0.24
   8  10   6    0.28    0.28
  -8 -10  -6    0.79    0.37
  -9 -11  -6    0.29    0.37
 -10 -12  -6    3.98    0.68
 -11 -13  -6    0.38    0.44
  15  15  -6    0.96    0.35
  15  15  -6    0.59    0.42
  14  14  -6    0.12    0.24
  14  14  -6    0.43    0.37
  13  13  -6    0.11    0.26
  13  13  -6    0.38    0.25
  12  12  -6    4.12    0.45
  12  12  -6    2.95    0.52
  11  11  -6    4.43    0.44
  11  11  -6    4.74    0.61
  10  10  -6   24.69    1.26
  10  10  -6   23.47    1.01
   9   9  -6   29.04    1.36
   9   9  -6   26.37    1.07
   8   8  -6    1.98    0.34
   8   8  -6    1.90    0.23
   7   7  -6   11.15    0.70
   7   7  -6   10.46    0.48
   6   6  -6    5.59    0.48
   6   6  -6    5.51    0.29
  -5  -5   6    0.07    0.11
   5   5  -6   -0.01    0.18
   5   5  -6   -0.06    0.06
  -4  -4   6    2.79    0.24
   4   4  -6    3.05    0.17
   4   4  -6    3.23    0.37
  -3  -3   6   43.34    1.47
   3   3  -6   41.45    1.37
  -2  -2   6   40.14    1.39
   2   2  -6   38.87    1.26
  -1  -1   6   31.50    1.15
   1   1  -6   31.08    1.25
   0   0   6   20.34    0.83
   0   0  -6   20.12    0.89
   1   1   6    9.96    0.51
  -1  -1  -6    9.21    0.54
   2   2   6    5.91    0.37
  -2  -2  -6    5.50    0.41
  -3  -3  -6   22.96    1.04
  -4  -4  -6   12.86    0.75
  -5  -5  -6    4.51    0.49
  -6  -6  -6   -0.07    0.22
  -7  -7  -6    7.67    0.68
  -8  -8  -6    0.74    0.33
  -9  -9  -6    1.18    0.40
 -10 -10  -6    1.63    0.49
 -11 -11  -6    0.43    0.41
  14  16  -6    4.45    0.62
  14  16  -6    4.11    0.66
  13  15  -6    1.19    0.34
  13  15  -6    0.38    0.35
  12  14  -6    8.36    0.85
  12  14  -6    8.48    0.65
  11  13  -6    0.01    0.19
  11  13  -6   -0.05    0.23
  10  12  -6    5.46    0.45
  10  12  -6    5.10    0.61
   9  11  -6    2.26    0.30
   9  11  -6    2.35    0.42
   8  10  -6   10.04    0.55
   8  10  -6   10.01    0.71
   7   9  -6    8.56    0.46
   7   9  -6    8.74    0.65
   6   8  -6   31.81    1.15
   6   8  -6   30.71    1.41
   5   7  -6   34.10    1.20
   5   7  -6   33.39    1.48
   4   6  -6  162.52    5.60
   4   6  -6  161.00    5.08
   3   5  -6   19.11    0.94
   3   5  -6   21.26    0.77
   2   4  -6    3.25    0.20
   2   4  -6    3.28    0.35
   1   3  -6   10.68    0.43
   1   3  -6   10.82    0.59
   0   2  -6   82.59    2.93
  -1   1  -6    9.30    0.55
  -2   0  -6    4.75    0.40
  -3  -1  -6    0.30    0.19
  -4  -2  -6   52.01    2.03
  -5  -3  -6    4.07    0.45
  -6  -4  -6    0.99    0.29
  -7  -5  -6   -0.13    0.25
  -8  -6  -6   10.03    0.79
  -9  -7  -6    4.21    0.61
 -10  -8  -6    4.43    0.64
 -11  -9  -6    0.25    0.38
 -12 -10  -6    0.50    0.44
  14  18  -6   -0.11    0.32
  13  17  -6    0.43    0.33
  13  17  -6    0.20    0.33
  12  16  -6    4.31    0.56
  12  16  -6    5.51    0.70
  11  15  -6    5.85    0.68
  11  15  -6    5.49    0.59
  10  14  -6    0.06    0.25
  10  14  -6    0.59    0.24
   9  13  -6    0.87    0.24
   9  13  -6    0.60    0.30
   8  12  -6    1.55    0.35
   8  12  -6    1.51    0.28
   7  11  -6    9.11    0.55
   7  11  -6    9.10    0.68
   6  10  -6    8.59    0.63
   6  10  -6    9.19    0.53
   5   9  -6    1.53    0.32
   5   9  -6    1.46    0.23
   4   8  -6    6.36    0.40
   4   8  -6    8.03    0.59
   3   7  -6    8.94    0.59
   3   7  -6    9.57    0.48
   2   6  -6    2.57    0.33
   2   6  -6    2.75    0.25
   1   5  -6   33.08    1.36
   1   5  -6   34.49    1.18
   0   4  -6    1.13    0.15
   0   4  -6    0.80    0.19
  -1   3  -6   32.38    1.32
  -2   2  -6    5.64    0.43
  -3   1  -6    0.24    0.18
  -4   0  -6    2.33    0.33
  -5  -1  -6    7.91    0.59
  -6  -2  -6    4.59    0.52
  -7  -3  -6    3.09    0.45
  -8  -4  -6    1.13    0.33
  -9  -5  -6    0.16    0.25
 -10  -6  -6    0.90    0.37
 -11  -7  -6    4.01    0.65
 -12  -8  -6    0.63    0.41
  13  19  -6    0.30    0.33
  12  18  -6    0.60    0.34
  12  18  -6    0.32    0.32
  11  17  -6    0.32    0.29
  11  17  -6    0.44    0.33
  10  16  -6    4.32    0.54
  10  16  -6    4.32    0.58
   9  15  -6    3.85    0.53
   9  15  -6    3.49    0.46
   8  14  -6    0.98    0.33
   8  14  -6    0.78    0.28
   7  13  -6    0.65    0.24
   7  13  -6    0.28    0.23
   6  12  -6   33.01    1.45
   6  12  -6   28.91    1.27
   5  11  -6    4.97    0.52
   5  11  -6    3.81    0.41
   4  10  -6    8.33    0.52
   4  10  -6    9.13    0.65
   3   9  -6    6.14    0.51
   3   9  -6    6.63    0.43
   2   8  -6   30.30    1.17
   2   8  -6   29.89    1.31
   1   7  -6   24.55    0.93
   1   7  -6   23.55    1.07
   0   6  -6    3.47    0.26
   0   6  -6    3.51    0.37
  -1   5  -6    0.45    0.19
  -1   5  -6    0.28    0.12
  -2   4  -6   31.77    1.34
  -3   3  -6   25.58    1.15
  -4   2  -6   48.23    1.91
  -5   1  -6    8.78    0.60
  -6   0  -6    7.97    0.60
  -7  -1  -6    0.61    0.29
  -8  -2  -6    6.94    0.69
  -9  -3  -6    4.98    0.62
 -10  -4  -6    2.33    0.49
 -11  -5  -6    1.13    0.47
 -12  -6  -6   -0.26    0.36
 -13  -7  -6    1.04    0.52
  11  19  -6    0.89    0.40
  11  19  -6    1.15    0.41
  10  18  -6    1.43    0.40
  10  18  -6    1.91    0.43
   9  17  -6    2.56    0.46
   9  17  -6    1.79    0.39
   8  16  -6    2.06    0.40
   8  16  -6    0.61    0.30
   7  15  -6    9.90    0.71
   7  15  -6   11.74    0.81
   6  14  -6   24.17    1.18
   6  14  -6   19.42    1.03
   5  13  -6    0.77    0.24
   5  13  -6    0.57    0.25
   4  12  -6    1.12    0.30
   4  12  -6    0.72    0.23
   3  11  -6    0.49    0.25
   3  11  -6    0.29    0.17
   2  10  -6   -0.09    0.15
   2  10  -6   -0.10    0.15
   1   9  -6    1.73    0.30
   1   9  -6    1.70    0.26
   0   8  -6   11.65    0.56
   0   8  -6   11.35    0.66
  -1   7  -6   43.25    1.54
  -1   7  -6   42.19    1.71
  -2   6  -6    3.16    0.38
  -2   6  -6    3.60    0.34
  -3   5  -6    8.73    0.58
  -3   5  -6    9.31    0.52
  -4   4  -6   12.40    0.75
  -5   3  -6    3.82    0.45
  -6   2  -6    4.41    0.50
  -7   1  -6    0.29    0.22
  -8   0  -6    7.82    0.65
  -9  -1  -6    0.09    0.24
 -10  -2  -6    0.09    0.31
 -11  -3  -6    2.56    0.51
 -12  -4  -6    1.60    0.47
 -13  -5  -6    0.32    0.43
  10  20  -6    1.13    0.42
   9  19  -6    4.64    0.62
   9  19  -6    5.37    0.65
   8  18  -6    0.12    0.26
   8  18  -6    0.03    0.23
   7  17  -6    1.11    0.34
   7  17  -6    0.44    0.26
   6  16  -6    0.11    0.23
   6  16  -6    0.13    0.25
   5  15  -6    0.17    0.23
   5  15  -6    0.28    0.25
   4  14  -6    1.27    0.29
   4  14  -6    1.23    0.31
   3  13  -6    2.56    0.36
   3  13  -6    2.26    0.40
   2  12  -6   31.86    1.49
   2  12  -6   34.35    1.37
   1  11  -6   20.80    0.99
   1  11  -6   22.26    1.08
   0  10  -6    0.47    0.18
   0  10  -6    0.58    0.23
  -1   9  -6    3.92    0.44
  -1   9  -6    5.01    0.38
  -2   8  -6   35.86    1.37
  -2   8  -6   35.82    1.52
  -3   7  -6    5.77    0.44
  -3   7  -6    5.71    0.47
  -4   6  -6    0.46    0.19
  -4   6  -6    0.90    0.27
  -5   5  -6    4.17    0.48
  -6   4  -6    1.04    0.29
  -7   3  -6    3.37    0.47
  -8   2  -6    7.45    0.67
  -9   1  -6   -0.03    0.25
 -10   0  -6   -0.15    0.29
 -11  -1  -6    0.41    0.30
 -12  -2  -6    3.44    0.61
 -13  -3  -6    1.15    0.47
   9  21  -6    0.55    0.34
   8  20  -6    0.94    0.37
   7  19  -6    0.37    0.30
   6  18  -6    0.11    0.27
   6  18  -6   -0.08    0.23
   5  17  -6    1.68    0.37
   5  17  -6    1.65    0.37
   4  16  -6    6.86    0.61
   4  16  -6    7.56    0.63
   3  15  -6    0.34    0.24
   3  15  -6    0.28    0.25
   2  14  -6    7.93    0.67
   2  14  -6    8.18    0.59
   1  13  -6    0.70    0.24
   1  13  -6    0.71    0.27
   0  12  -6    5.58    0.51
   0  12  -6    5.12    0.50
  -1  11  -6    1.52    0.32
  -1  11  -6    1.57    0.29
  -2  10  -6   26.29    1.23
  -2  10  -6   26.77    1.13
  -3   9  -6    2.50    0.33
  -3   9  -6    2.90    0.41
  -4   8  -6    0.67    0.24
  -4   8  -6    1.06    0.30
  -5   7  -6    0.59    0.29
  -5   7  -6    1.41    0.26
  -6   6  -6   -0.22    0.24
  -6   6  -6    0.29    0.21
  -7   5  -6   -0.03    0.21
  -8   4  -6    1.35    0.36
  -9   3  -6    4.63    0.59
 -10   2  -6    0.09    0.31
 -11   1  -6    0.46    0.29
 -12   0  -6    3.91    0.62
 -13  -1  -6   -0.17    0.28
   7  21  -6    3.76    0.59
   6  20  -6    0.47    0.35
   5  19  -6    1.42    0.41
   4  18  -6    0.33    0.25
   4  18  -6    0.26    0.25
   3  17  -6    4.13    0.51
   3  17  -6    3.94    0.51
   2  16  -6    0.68    0.30
   2  16  -6    0.77    0.29
   1  15  -6    8.84    0.65
   1  15  -6    8.40    0.69
   0  14  -6    5.84    0.58
   0  14  -6    6.62    0.58
  -1  13  -6    0.07    0.20
  -1  13  -6    0.07    0.21
  -2  12  -6    9.41    0.62
  -2  12  -6    9.07    0.66
  -3  11  -6    1.96    0.35
  -3  11  -6    2.35    0.34
  -4  10  -6    1.61    0.32
  -4  10  -6    1.72    0.32
  -5   9  -6    0.01    0.20
  -5   9  -6    0.24    0.24
  -6   8  -6    4.18    0.54
  -6   8  -6    4.63    0.49
  -7   7  -6    6.96    0.57
  -7   7  -6    8.30    0.70
  -8   6  -6   10.36    0.69
  -8   6  -6   10.74    0.79
  -9   5  -6    0.30    0.30
 -10   4  -6    1.76    0.42
 -11   3  -6    1.71    0.44
 -12   2  -6    2.79    0.54
 -13   1  -6   -0.24    0.34
   6  22  -6    1.49    0.43
   5  21  -6    0.21    0.30
   4  20  -6    6.51    0.71
   3  19  -6    8.01    0.70
   2  18  -6    0.25    0.28
   1  17  -6   -0.21    0.19
   1  17  -6    0.08    0.26
   0  16  -6    0.21    0.26
   0  16  -6    0.02    0.25
  -1  15  -6    0.04    0.23
  -1  15  -6    0.11    0.23
  -2  14  -6    0.66    0.28
  -2  14  -6    0.87    0.28
  -3  13  -6    0.33    0.24
  -3  13  -6    0.36    0.23
  -4  12  -6    5.28    0.56
  -4  12  -6    4.45    0.50
  -5  11  -6    3.25    0.47
  -5  11  -6    3.10    0.44
  -6  10  -6    0.48    0.29
  -6  10  -6    0.21    0.25
  -7   9  -6    0.55    0.32
  -7   9  -6    0.32    0.25
  -8   8  -6    0.27    0.22
  -8   8  -6   -0.09    0.28
  -9   7  -6    4.94    0.57
  -9   7  -6    5.21    0.64
 -10   6  -6    0.83    0.33
 -10   6  -6    0.51    0.32
 -11   5  -6    1.46    0.42
 -12   4  -6    1.69    0.45
 -13   3  -6    0.57    0.38
   5  23  -6    0.80    0.37
   4  22  -6    0.10    0.29
   3  21  -6    0.26    0.30
   2  20  -6    0.19    0.28
   1  19  -6   -0.20    0.22
   0  18  -6    0.39    0.30
  -1  17  -6    4.38    0.57
  -2  16  -6    6.27    0.71
  -2  16  -6    7.83    0.68
  -3  15  -6    0.32    0.30
  -3  15  -6   -0.01    0.22
  -4  14  -6    0.50    0.27
  -4  14  -6    0.57    0.29
  -5  13  -6    0.93    0.32
  -5  13  -6    1.13    0.34
  -6  12  -6    4.41    0.57
  -7  11  -6    0.26    0.29
  -7  11  -6   -0.15    0.24
  -8  10  -6    0.63    0.32
  -8  10  -6    0.35    0.32
  -9   9  -6    1.17    0.41
  -9   9  -6    0.97    0.35
 -10   8  -6    4.39    0.65
 -10   8  -6    4.96    0.59
 -11   7  -6    4.29    0.67
 -11   7  -6    3.69    0.54
 -12   6  -6   -0.31    0.36
 -12   6  -6   -0.23    0.29
 -13   5  -6    0.08    0.30
 -13   5  -6    0.27    0.39
   3  23  -6    0.11    0.33
   2  22  -6    1.22    0.41
   1  21  -6    4.00    0.57
   0  20  -6   -0.23    0.29
  -1  19  -6    4.12    0.59
  -2  18  -6    0.43    0.32
  -3  17  -6    0.11    0.32
  -4  16  -6    0.04    0.34
  -5  15  -6    4.11    0.57
  -5  15  -6    4.38    0.59
  -6  14  -6    3.00    0.53
  -6  14  -6    3.75    0.54
  -7  13  -6    0.14    0.30
  -7  13  -6    0.37    0.30
  -8  12  -6    0.83    0.36
  -8  12  -6    0.57    0.35
  -9  11  -6    0.30    0.34
  -9  11  -6    0.77    0.35
 -10  10  -6    1.10    0.41
 -10  10  -6    1.43    0.46
 -11   9  -6    0.42    0.34
 -11   9  -6    0.35    0.37
 -12   8  -6    0.77    0.37
 -12   8  -6    0.34    0.41
 -13   7  -6    2.22    0.53
 -13   7  -6    1.60    0.53
 -14   6  -6   -0.22    0.37
 -15   5  -6    0.13    0.40
   1  23  -6    0.64    0.39
   0  22  -6    0.26    0.32
  -1  21  -6   -0.34    0.28
  -2  20  -6    2.29    0.53
  -3  19  -6    4.89    0.70
  -4  18  -6    0.53    0.42
  -5  17  -6    0.52    0.37
  -6  16  -6    2.29    0.49
  -7  15  -6   -0.22    0.29
  -8  14  -6    0.70    0.39
  -9  13  -6    1.95    0.46
  -9  13  -6    2.49    0.49
 -10  12  -6    5.82    0.73
 -10  12  -6    5.75    0.70
 -11  11  -6    0.99    0.36
 -11  11  -6    1.29    0.45
 -12  10  -6    0.23    0.35
 -12  10  -6   -0.09    0.35
 -13   9  -6   -0.22    0.33
 -14   8  -6    0.46    0.41
  -1  23  -6    1.78    0.48
  -2  22  -6   -0.30    0.32
  -3  21  -6    0.44    0.41
  -4  20  -6   -0.15    0.34
  -5  19  -6    0.77    0.47
  -6  18  -6    0.19    0.40
  -7  17  -6    3.07    0.59
  -8  16  -6    0.40    0.39
  -9  15  -6    1.26    0.45
 -10  14  -6    2.86    0.59
 -11  13  -6   -0.26    0.28
 -12  12  -6   -0.27    0.34
 -13  11  -6    0.16    0.37
  -5  21  -6    0.55    0.47
  -6  20  -6    0.56    0.47
  -7  19  -6    1.22    0.54
  -8  18  -6   -0.38    0.37
  -9  17  -6    0.00    0.39
 -10  16  -6    0.05    0.39
 -11  15  -6    0.33    0.43
 -19  13   7    1.73    0.54
 -18  14   7   10.40    1.06
 -17  15   7    7.48    0.92
 -16  16   7   -0.24    0.38
 -15  17   7   -0.59    0.37
 -14  18   7    0.78    0.49
 -13  19   7    0.12    0.43
 -12  20   7    3.42    0.67
 -11  21   7   -0.02    0.40
 -10  22   7    1.24    0.49
 -10  22   7    0.56    0.36
 -21   9   7    6.47    0.82
 -20  10   7   12.29    1.05
 -19  11   7    0.22    0.40
 -18  12   7    0.23    0.37
 -17  13   7    1.52    0.48
 -16  14   7   -0.01    0.33
 -15  15   7    4.99    0.73
 -14  16   7    1.14    0.49
 -13  17   7    2.83    0.63
 -12  18   7   -0.12    0.36
 -11  19   7    1.30    0.44
 -10  20   7    7.69    0.86
 -10  20   7   10.01    0.96
  -9  21   7   -0.23    0.33
  -9  21   7   -0.16    0.26
  -8  22   7    0.57    0.39
  -8  22   7   -0.10    0.30
 -21   7   7   -0.13    0.33
 -20   8   7    1.27    0.45
 -19   9   7    1.30    0.44
 -18  10   7    4.43    0.65
 -17  11   7    3.52    0.59
 -16  12   7    2.37    0.50
 -15  13   7    3.46    0.58
 -14  14   7    0.42    0.38
 -13  15   7   20.52    1.29
 -12  16   7    2.55    0.55
 -11  17   7   -0.11    0.26
 -10  18   7    6.23    0.75
  -9  19   7   14.50    1.06
  -9  19   7   14.92    1.07
  -8  20   7    0.18    0.37
  -8  20   7    0.69    0.33
  -7  21   7    3.90    0.61
  -7  21   7    3.99    0.60
  -6  22   7    0.59    0.42
  -5  23   7    0.37    0.40
 -22   4   7    1.57    0.45
 -21   5   7    1.59    0.45
 -20   6   7    1.12    0.41
 -19   7   7    1.40    0.43
 -18   8   7    1.34    0.41
 -17   9   7    0.03    0.30
 -16  10   7   17.58    1.09
 -15  11   7   10.19    0.82
 -14  12   7    0.56    0.35
 -13  13   7   11.30    0.88
 -12  14   7   35.28    1.71
 -11  15   7    0.63    0.39
 -10  16   7    3.38    0.56
  -9  17   7    0.77    0.38
  -8  18   7    0.18    0.31
  -8  18   7    0.08    0.27
  -7  19   7    4.69    0.64
  -7  19   7    4.22    0.60
  -6  20   7   -0.11    0.33
  -6  20   7   -0.04    0.26
  -5  21   7    0.33    0.32
  -4  22   7    0.87    0.44
  -3  23   7   -0.53    0.33
 -22   2   7    0.09    0.31
 -21   3   7    0.74    0.37
 -20   4   7    4.45    0.62
 -19   5   7    7.55    0.76
 -18   6   7   12.99    0.95
 -17   7   7    4.63    0.60
 -16   8   7    4.07    0.55
 -15   9   7   62.47    2.44
 -14  10   7   12.76    0.85
 -13  11   7    1.57    0.37
 -12  12   7    0.15    0.27
 -11  13   7    0.07    0.26
 -10  14   7    6.86    0.72
  -9  15   7    2.36    0.43
  -8  16   7    0.86    0.35
  -8  16   7    0.70    0.33
  -7  17   7    1.22    0.40
  -7  17   7    0.98    0.33
  -6  18   7    1.59    0.39
  -6  18   7    1.74    0.43
  -5  19   7   17.82    1.15
  -5  19   7   18.19    1.11
  -4  20   7    7.06    0.80
  -3  21   7    0.82    0.43
  -2  22   7    0.21    0.36
 -21   1   7   10.98    0.88
 -21   1   7   11.43    1.00
 -20   2   7    2.10    0.45
 -20   2   7    2.68    0.55
 -19   3   7    2.14    0.50
 -19   3   7    1.97    0.43
 -18   4   7   40.74    1.77
 -18   4   7   38.44    1.68
 -18   4   7   41.53    1.87
 -17   5   7   26.33    1.30
 -16   6   7    0.76    0.29
 -15   7   7    1.66    0.36
 -14   8   7    4.60    0.52
 -13   9   7    3.41    0.45
 -12  10   7    1.59    0.34
 -11  11   7    0.52    0.26
 -10  12   7    0.43    0.28
  -9  13   7    1.60    0.37
  -8  14   7   20.98    1.18
  -8  14   7   23.06    1.17
  -7  15   7   37.35    1.59
  -7  15   7   30.95    1.53
  -6  16   7    1.24    0.33
  -6  16   7    1.30    0.37
  -5  17   7    0.84    0.32
  -5  17   7    0.85    0.33
  -4  18   7   12.66    0.93
  -4  18   7   11.72    0.85
  -3  19   7    2.15    0.52
  -2  20   7    2.19    0.53
  -1  21   7    2.04    0.53
   0  22   7    0.09    0.36
 -21  -1   7    9.29    0.97
 -20   0   7   19.69    1.27
 -19   1   7    0.23    0.33
 -18   2   7    1.30    0.37
 -18   2   7    1.78    0.42
 -17   3   7    2.81    0.47
 -17   3   7    1.72    0.38
 -17   3   7    1.74    0.34
 -16   4   7    0.15    0.22
 -16   4   7    0.22    0.25
 -15   5   7   10.76    0.71
 -15   5   7   10.09    0.68
 -14   6   7    0.11    0.20
 -14   6   7    0.28    0.21
 -13   7   7    2.69    0.38
 -12   8   7    8.79    0.61
 -11   9   7   18.54    0.93
 -10  10   7   81.18    2.90
  -9  11   7   21.33    1.10
  -8  12   7    1.21    0.32
  -8  12   7    0.60    0.26
  -7  13   7   24.78    1.20
  -7  13   7   22.82    1.16
  -6  14   7   18.87    1.08
  -6  14   7   22.19    1.11
  -5  15   7    1.38    0.35
  -5  15   7    1.50    0.35
  -4  16   7    6.16    0.65
  -4  16   7    7.63    0.66
  -3  17   7   -0.09    0.28
  -3  17   7   -0.26    0.23
  -2  18   7    4.77    0.66
  -1  19   7    0.41    0.35
   0  20   7    2.00    0.53
   1  21   7    0.42    0.39
   2  22   7    2.18    0.59
 -21  -3   7    1.06    0.44
 -20  -2   7    1.97    0.52
 -19  -1   7    0.26    0.28
 -18   0   7    4.21    0.59
  17  -1  -7    0.73    0.28
 -16   2   7    1.48    0.29
 -16   2   7    1.17    0.31
  16  -2  -7    1.16    0.31
 -15   3   7    0.12    0.21
 -15   3   7    0.09    0.20
  15  -3  -7    0.19    0.22
 -14   4   7    4.52    0.45
 -14   4   7    4.05    0.44
  14  -4  -7    3.71    0.42
 -13   5   7   85.12    2.96
  13  -5  -7   85.08    3.05
 -12   6   7   75.19    2.60
  12  -6  -7   72.53    2.63
 -11   7   7    0.36    0.21
 -10   8   7   45.36    1.72
  -9   9   7   89.43    3.20
  -9   9   7   96.20    3.26
  -8  10   7    4.90    0.51
  -8  10   7    5.24    0.53
  -7  11   7   25.62    1.23
  -7  11   7   27.28    1.22
  -6  12   7    0.19    0.22
  -6  12   7    0.03    0.18
  -5  13   7    2.97    0.43
  -5  13   7    3.40    0.44
  -4  14   7    4.97    0.54
  -4  14   7    5.38    0.59
  -3  15   7    1.19    0.36
  -3  15   7    1.43    0.33
  -2  16   7    6.45    0.71
  -2  16   7    5.73    0.59
  -1  17   7    1.90    0.44
   0  18   7    0.45    0.37
   1  19   7   18.04    1.19
   2  20   7    2.67    0.60
   3  21   7    2.26    0.57
 -20  -4   7    4.81    0.71
 -19  -3   7    1.31    0.41
  19   3  -7    1.86    0.46
  18   2  -7    1.54    0.42
  17   1  -7    0.86    0.32
  16   0  -7   27.75    1.35
 -15   1   7   50.32    1.84
  15  -1  -7   48.68    2.03
 -14   2   7    0.53    0.20
 -14   2   7    0.36    0.21
  14  -2  -7    0.39    0.21
 -13   3   7   14.59    0.76
 -13   3   7   14.40    0.74
  13  -3  -7   13.57    0.76
 -12   4   7  108.83    3.55
 -12   4   7  106.71    3.56
  12  -4  -7  102.84    3.70
 -11   5   7   25.68    1.11
 -11   5   7   25.17    1.04
  11  -5  -7   24.27    1.03
 -10   6   7   15.13    0.72
 -10   6   7   14.23    0.77
  10  -6  -7   14.97    0.67
  -9   7   7    0.56    0.18
  -9   7   7    0.12    0.16
   9  -7  -7    0.37    0.12
  -8   8   7    1.62    0.29
  -8   8   7    1.32    0.27
  -7   9   7   24.82    1.08
  -7   9   7   22.58    1.08
  -6  10   7    1.31    0.30
  -6  10   7    1.81    0.32
  -5  11   7   21.32    1.04
  -5  11   7   20.72    1.02
  -4  12   7    2.16    0.38
  -4  12   7    2.04    0.34
  -3  13   7    0.71    0.29
  -3  13   7    0.45    0.23
  -2  14   7   41.92    1.79
  -2  14   7   43.80    1.72
  -1  15   7   27.60    1.23
  -1  15   7   25.06    1.28
   0  16   7    2.43    0.47
   1  17   7    0.46    0.31
   2  18   7    2.70    0.54
   3  19   7   -0.64    0.28
   4  20   7    1.27    0.48
 -20  -6   7    1.20    0.47
  20   6  -7    1.41    0.49
  19   5  -7    6.35    0.78
  18   4  -7   40.45    1.96
  17   3  -7    2.22    0.47
  16   2  -7    0.85    0.32
 -15  -1   7   49.88    1.77
  15   1  -7   45.91    2.00
 -14   0   7   78.55    2.64
  14   0  -7   76.15    2.91
 -13   1   7    3.10    0.34
  13  -1  -7    2.17    0.34
 -12   2   7    0.55    0.19
 -12   2   7    0.51    0.18
  12  -2  -7    0.96    0.22
 -11   3   7    0.83    0.22
 -11   3   7    1.16    0.20
  11  -3  -7    0.85    0.20
 -10   4   7    6.86    0.40
 -10   4   7    6.92    0.48
  10  -4  -7    5.92    0.40
  -9   5   7    6.53    0.48
  -9   5   7    6.92    0.40
   9  -5  -7    5.67    0.37
  -8   6   7   57.90    2.07
  -8   6   7   59.82    2.03
   8  -6  -7   55.71    2.01
  -7   7   7    0.79    0.23
  -7   7   7    0.81    0.22
   7  -7  -7    0.51    0.12
  -6   8   7    0.13    0.18
  -6   8   7    0.30    0.20
  -5   9   7   73.88    2.54
  -5   9   7   70.38    2.53
  -4  10   7  206.37    6.35
  -4  10   7  191.66    6.43
  -3  11   7   -0.09    0.21
  -3  11   7    0.53    0.21
  -2  12   7    2.22    0.32
  -2  12   7    1.26    0.31
  -1  13   7   14.19    0.83
  -1  13   7   13.47    0.75
   0  14   7    2.39    0.43
   0  14   7    2.63    0.37
   1  15   7    7.15    0.63
   2  16   7    0.74    0.34
   3  17   7   -0.08    0.26
   4  18   7    0.49    0.38
   5  19   7   -0.24    0.33
  19   7  -7    1.49    0.50
  18   6  -7   11.51    0.95
  17   5  -7   24.44    1.38
  16   4  -7    0.14    0.26
  15   3  -7    0.35    0.23
 -14  -2   7    0.53    0.18
  14   2  -7    0.53    0.23
 -13  -1   7    2.36    0.29
  13   1  -7    2.39    0.36
 -12   0   7   14.52    0.69
  12   0  -7   14.45    0.79
 -11   1   7   13.07    0.60
 -11   1   7   12.26    0.63
  11  -1  -7   12.95    0.71
 -10   2   7    4.42    0.31
 -10   2   7    4.16    0.38
  10  -2  -7    3.71    0.35
  -9   3   7    2.54    0.30
  -9   3   7    2.77    0.24
   9  -3  -7    2.57    0.28
  -8   4   7   71.70    2.33
  -8   4   7   66.03    2.38
   8  -4  -7   71.64    2.46
  -7   5   7  302.72    9.57
  -7   5   7  304.64    9.45
   7  -5  -7  308.45   10.02
  -6   6   7   21.14    0.94
  -6   6   7   22.16    0.94
   6  -6  -7   23.46    0.89
  -5   7   7    0.59    0.19
  -5   7   7    0.93    0.20
   5  -7  -7    1.18    0.17
  -4   8   7   11.69    0.64
  -4   8   7   10.59    0.60
   4  -8  -7   12.48    0.54
  -3   9   7   20.17    0.94
  -3   9   7   22.06    0.97
   3  -9  -7   22.90    0.89
  -2  10   7   33.72    1.30
  -2  10   7   30.84    1.31
  -1  11   7    2.31    0.32
  -1  11   7    2.85    0.37
   0  12   7   -0.07    0.18
   0  12   7    0.24    0.18
   1  13   7    2.47    0.39
   2  14   7    1.20    0.34
   3  15   7   16.93    1.04
   4  16   7    1.33    0.41
   5  17   7    1.81    0.47
   6  18   7    0.97    0.44
  19   9  -7    1.06    0.42
  18   8  -7    1.40    0.50
  17   7  -7    3.44    0.61
  16   6  -7    0.68    0.35
  15   5  -7    9.64    0.79
  14   4  -7    3.11    0.45
 -13  -3   7   14.39    0.65
  13   3  -7   13.93    0.84
 -12  -2   7    0.71    0.18
  12   2  -7    0.47    0.23
 -11  -1   7   12.81    0.61
  11   1  -7   12.73    0.74
 -10   0   7  357.15   10.99
  10   0  -7  359.57   11.87
  -9   1   7  149.63    4.80
  -9   1   7  154.77    4.85
   9  -1  -7  154.20    5.22
  -8   2   7    4.15    0.34
  -8   2   7    4.15    0.25
   8  -2  -7    4.21    0.35
  -7   3   7   41.44    1.55
  -7   3   7   44.32    1.49
   7  -3  -7   44.12    1.64
  -6   4   7  107.10    3.63
  -6   4   7  111.97    3.66
   6  -4  -7  120.35    3.90
  -5   5   7   20.93    0.88
  -5   5   7   20.31    0.83
   5  -5  -7   22.23    0.91
  -4   6   7    6.77    0.43
  -4   6   7    7.32    0.42
   4  -6  -7    7.91    0.44
  -3   7   7    0.29    0.14
  -3   7   7    0.49    0.15
   3  -7  -7    0.28    0.14
  -2   8   7    6.29    0.42
  -2   8   7    6.77    0.42
   2  -8  -7    5.43    0.39
  -1   9   7    8.65    0.53
  -1   9   7    8.71    0.52
   1  -9  -7    7.85    0.51
   0  10   7   55.13    1.89
   0  10   7   56.09    1.96
   0 -10  -7   46.71    1.97
   1  11   7   19.35    0.89
   1  11   7   20.32    0.96
   2  12   7    0.33    0.24
   3  13   7    1.13    0.32
   4  14   7   40.08    1.76
   5  15   7    1.67    0.42
   6  16   7    5.27    0.66
   7  17   7    0.06    0.35
  18  10  -7    4.63    0.78
  17   9  -7    0.16    0.33
  16   8  -7    4.08    0.63
  15   7  -7    1.62    0.40
  14   6  -7   -0.27    0.21
  13   5  -7   80.63    3.12
 -12  -4   7   95.43    3.06
  12   4  -7   95.68    3.55
 -11  -3   7    1.00    0.18
  11   3  -7    0.87    0.25
 -10  -2   7    4.15    0.33
  10   2  -7    4.40    0.47
  -9  -1   7  152.75    4.88
   9   1  -7  157.98    5.36
  -8   0   7    3.90    0.32
  -8   0   7    3.79    0.21
   8   0  -7    4.59    0.39
  -7   1   7   66.81    2.05
  -7   1   7   61.27    2.14
   7  -1  -7   63.17    2.36
  -6   2   7    8.60    0.38
  -6   2   7    9.10    0.48
   6  -2  -7    8.70    0.55
  -5   3   7    0.14    0.12
  -5   3   7    0.12    0.07
   5  -3  -7    0.03    0.14
  -4   4   7   56.22    1.75
  -4   4   7   52.01    1.82
   4  -4  -7   48.89    1.92
  -3   5   7    7.71    0.38
  -3   5   7    7.12    0.43
   3  -5  -7    7.14    0.45
  -2   6   7   79.67    2.62
  -2   6   7   77.52    2.64
   2  -6  -7   80.59    2.80
  -1   7   7    0.36    0.16
  -1   7   7    0.54    0.16
   1  -7  -7    0.44    0.19
   0   8   7    0.21    0.15
   0   8   7    0.41    0.17
   0  -8  -7    0.38    0.19
   1   9   7  110.51    3.55
   1   9   7  105.67    3.63
  -1  -9  -7  109.45    3.84
   2  10   7   20.03    0.87
   2  10   7   19.80    0.94
  -2 -10  -7   18.05    0.98
   3  11   7    2.31    0.36
  -3 -11  -7    2.36    0.41
   4  12   7    4.51    0.52
   5  13   7    3.17    0.49
   6  14   7    0.39    0.31
   7  15   7    1.13    0.39
   8  16   7    0.23    0.36
  17  11  -7    1.94    0.51
  16  10  -7   14.50    1.11
  15   9  -7   51.56    2.34
  14   8  -7    3.92    0.57
  13   7  -7    2.97    0.49
  12   6  -7   65.99    2.64
 -11  -5   7   21.92    0.83
  11   5  -7   21.74    1.13
 -10  -4   7    5.81    0.35
  10   4  -7    6.43    0.52
  -9  -3   7    2.34    0.24
   9   3  -7    2.36    0.37
  -8  -2   7    3.80    0.29
   8   2  -7    3.77    0.42
  -7  -1   7   61.64    1.94
  -7  -1   7   63.56    2.08
   7   1  -7   60.25    2.34
  -6   0   7    9.84    0.49
   6   0  -7    8.50    0.58
  -5   1   7  138.34    4.32
  -5   1   7  141.31    4.20
   5  -1  -7  128.78    4.70
  -4   2   7   60.33    1.89
  -4   2   7   59.91    2.02
   4  -2  -7   58.38    2.19
  -3   3   7    2.68    0.19
  -3   3   7    2.59    0.26
   3  -3  -7    3.35    0.30
  -2   4   7  200.59    6.36
  -2   4   7  198.63    6.35
   2  -4  -7  212.56    6.83
  -1   5   7  175.08    5.68
  -1   5   7  179.25    5.73
   1  -5  -7  190.56    6.13
   0   6   7    0.58    0.17
   0   6   7    0.62    0.17
   0  -6  -7    0.92    0.23
   1   7   7    6.25    0.42
   1   7   7    6.34    0.41
  -1  -7  -7    5.77    0.46
   2   8   7   12.76    0.63
   2   8   7   11.71    0.66
  -2  -8  -7   12.42    0.73
   3   9   7   -0.04    0.17
   3   9   7   -0.23    0.15
  -3  -9  -7    0.05    0.20
   4  10   7    3.88    0.44
  -4 -10  -7    2.81    0.45
   5  11   7    0.36    0.24
  -5 -11  -7   -0.11    0.25
   6  12   7   -0.12    0.25
  -6 -12  -7   -0.41    0.25
   7  13   7    2.20    0.45
   8  14   7    2.69    0.53
   9  15   7    6.01    0.73
  17  13  -7    1.98    0.53
  16  12  -7    1.82    0.49
  15  11  -7    6.33    0.78
  14  10  -7   11.65    0.95
  13   9  -7    2.46    0.47
  12   8  -7    7.93    0.71
  11   7  -7    0.73    0.30
 -10  -6   7   14.02    0.59
  10   6  -7   13.52    0.85
  -9  -5   7    6.55    0.36
   9   5  -7    5.74    0.52
  -8  -4   7   68.53    2.20
   8   4  -7   64.05    2.56
  -7  -3   7   40.98    1.41
   7   3  -7   38.32    1.67
  -6  -2   7    8.67    0.44
   6   2  -7    8.14    0.60
  -5  -1   7  145.12    4.47
   5   1  -7  137.73    4.91
  -4   0   7  333.81   10.32
   4   0  -7  339.83   11.15
  -3   1   7   12.07    0.58
   3  -1  -7   13.05    0.66
  -2   2   7   51.11    1.68
  -2   2   7   50.49    1.78
   2  -2  -7   52.65    1.92
  -1   3   7   28.16    1.01
  -1   3   7   27.67    1.08
   1  -3  -7   28.45    1.17
   0   4   7   -0.15    0.10
   0   4   7   -0.04    0.12
   0  -4  -7    0.22    0.16
   1   5   7   16.23    0.72
   1   5   7   15.55    0.72
  -1  -5  -7   17.55    0.84
   2   6   7   18.31    0.82
   2   6   7   18.35    0.81
  -2  -6  -7   17.81    0.91
   3   7   7    0.93    0.24
   3   7   7    0.27    0.20
  -3  -7  -7    0.04    0.23
   4   8   7   11.61    0.62
   4   8   7   10.06    0.65
  -4  -8  -7   10.84    0.75
   5   9   7    1.72    0.33
  -5  -9  -7    1.65    0.37
   6  10   7   22.61    1.11
  -6 -10  -7   19.52    1.19
   7  11   7    3.91    0.51
  -7 -11  -7    3.29    0.59
   8  12   7    8.82    0.75
  -8 -12  -7    7.07    0.85
  16  14  -7   -0.25    0.32
  15  13  -7    2.89    0.56
  14  12  -7    1.06    0.30
  14  12  -7    0.80    0.40
  13  11  -7    1.41    0.41
  13  11  -7    1.82    0.32
  12  10  -7    1.70    0.44
  12  10  -7    1.57    0.26
  11   9  -7   19.54    0.86
  11   9  -7   19.40    1.14
  10   8  -7   44.00    1.90
  10   8  -7   42.08    1.53
  -9  -7   7    0.41    0.14
   9   7  -7    0.32    0.22
   9   7  -7    0.59    0.13
  -8  -6   7   55.70    1.86
   8   6  -7   57.13    2.25
   8   6  -7   54.61    1.84
  -7  -5   7  301.79    9.11
   7   5  -7  287.97    9.16
   7   5  -7  303.03   10.03
  -6  -4   7  115.52    3.69
   6   4  -7  112.70    3.59
   6   4  -7  120.42    4.20
  -5  -3   7    0.14    0.12
   5   3  -7    0.13    0.18
  -4  -2   7   62.86    2.13
   4   2  -7   64.10    2.38
  -3  -1   7   11.66    0.58
   3   1  -7   12.29    0.65
   3   1  -7   12.12    0.41
  -2   0   7   17.73    0.76
   2   0  -7   18.00    0.84
  -1   1   7   14.13    0.65
   1  -1  -7   14.21    0.72
   0   2   7    7.38    0.46
   0  -2  -7    8.46    0.51
   1   3   7   18.78    0.82
   1   3   7   18.94    0.78
  -1  -3  -7   18.74    0.91
   2   4   7    0.33    0.16
   2   4   7    0.33    0.16
  -2  -4  -7    0.27    0.17
   3   5   7   95.28    3.19
   3   5   7   94.54    3.11
  -3  -5  -7   93.13    3.42
   4   6   7   56.48    2.06
  -4  -6  -7   55.70    2.23
   5   7   7    2.20    0.35
  -5  -7  -7    3.07    0.46
   6   8   7    3.75    0.47
  -6  -8  -7    4.77    0.59
  -7  -9  -7   29.99    1.54
  -8 -10  -7    4.81    0.67
  -9 -11  -7    4.80    0.71
 -10 -12  -7   -0.51    0.40
  15  15  -7    5.79    0.80
  14  14  -7    0.35    0.37
  13  13  -7   10.05    0.89
  13  13  -7    9.72    0.68
  12  12  -7    1.08    0.26
  12  12  -7    0.60    0.33
  11  11  -7    0.30    0.28
  11  11  -7    0.28    0.17
  10  10  -7   81.65    3.13
  10  10  -7   77.48    2.70
   9   9  -7   89.90    3.35
   9   9  -7   85.59    2.90
   8   8  -7    1.31    0.34
   8   8  -7    1.43    0.19
   7   7  -7    0.83    0.28
   7   7  -7    0.52    0.12
  -6  -6   7   20.45    0.86
   6   6  -7   21.89    0.77
   6   6  -7   22.70    1.12
  -5  -5   7   21.65    0.88
   5   5  -7   22.24    1.10
   5   5  -7   21.85    0.75
  -4  -4   7   55.42    1.97
   4   4  -7   62.30    1.85
   4   4  -7   55.84    2.22
  -3  -3   7    2.58    0.27
   3   3  -7    2.38    0.33
   3   3  -7    3.36    0.17
  -2  -2   7   52.37    1.79
   2   2  -7   50.61    1.64
   2   2  -7   50.24    1.94
  -1  -1   7   13.54    0.63
   1   1  -7   12.38    0.66
   0   0   7   81.90    2.72
   0   0  -7   81.79    2.94
   1   1   7  173.12    5.49
  -1  -1  -7  175.43    5.93
   2   2   7    6.15    0.42
  -2  -2  -7    5.66    0.46
  -3  -3  -7    1.51    0.29
  -4  -4  -7   48.38    1.96
  -5  -5  -7   31.03    1.44
  -6  -6  -7   16.08    0.96
  -7  -7  -7    1.21    0.37
  -8  -8  -7   -0.29    0.24
  -9  -9  -7    1.86    0.50
 -10 -10  -7    1.02    0.48
 -11 -11  -7    1.62    0.54
  14  16  -7    1.22    0.43
  13  15  -7   16.05    1.13
  12  14  -7   36.46    1.65
  12  14  -7   36.60    1.80
  11  13  -7    0.18    0.19
  11  13  -7    0.48    0.30
  10  12  -7    0.62    0.31
  10  12  -7    0.51    0.21
   9  11  -7   23.29    1.22
   9  11  -7   22.93    0.99
   8  10  -7    5.58    0.39
   8  10  -7    5.15    0.59
   7   9  -7   23.36    0.93
   7   9  -7   24.52    1.22
   6   8  -7    0.02    0.11
   6   8  -7    0.36    0.23
   5   7  -7    1.39    0.18
   5   7  -7    0.83    0.27
   4   6  -7    7.29    0.37
   4   6  -7    7.59    0.56
   3   5  -7    7.82    0.54
   3   5  -7    7.35    0.38
   2   4  -7  205.63    7.01
   2   4  -7  209.19    6.44
   1   3  -7   28.26    1.21
   1   3  -7   28.19    0.99
   0   2  -7    7.05    0.48
  -1   1  -7  169.00    5.77
  -2   0  -7  148.36    5.13
  -3  -1  -7    0.38    0.20
  -4  -2  -7    0.51    0.22
  -5  -3  -7    0.58    0.25
  -6  -4  -7    0.57    0.29
  -7  -5  -7    2.47    0.43
  -8  -6  -7    3.72    0.59
  -9  -7  -7   -0.26    0.33
 -10  -8  -7    1.47    0.46
 -11  -9  -7    0.86    0.47
  14  18  -7    0.46    0.38
  13  17  -7    2.25    0.51
  12  16  -7    2.15    0.48
  11  15  -7    0.89    0.37
  10  14  -7    7.02    0.57
  10  14  -7    6.73    0.74
   9  13  -7    1.94    0.32
   9  13  -7    2.28    0.43
   8  12  -7    1.19    0.25
   8  12  -7    0.92    0.30
   7  11  -7   26.53    1.09
   7  11  -7   25.32    1.29
   6  10  -7    0.72    0.33
   6  10  -7    1.38    0.26
   5   9  -7   70.53    2.45
   5   9  -7   74.62    2.84
   4   8  -7    9.63    0.52
   4   8  -7   11.49    0.74
   3   7  -7   -0.07    0.20
   3   7  -7    0.05    0.14
   2   6  -7   85.08    2.75
   2   6  -7   83.70    3.07
   1   5  -7  178.76    5.58
   1   5  -7  177.02    6.07
   0   4  -7   -0.09    0.10
   0   4  -7    0.27    0.17
  -1   3  -7   19.20    0.93
  -2   2  -7    5.93    0.47
  -3   1  -7    0.50    0.23
  -4   0  -7   39.16    1.65
  -5  -1  -7    0.45    0.26
  -6  -2  -7    0.99    0.31
  -7  -3  -7    5.98    0.64
  -8  -4  -7   -0.23    0.26
  -9  -5  -7   28.26    1.53
 -10  -6  -7    0.51    0.41
 -11  -7  -7    2.04    0.51
  13  19  -7    0.28    0.33
  12  18  -7    0.04    0.32
  11  17  -7    0.24    0.27
  10  16  -7    4.27    0.61
   9  15  -7    2.54    0.47
   9  15  -7    2.30    0.40
   8  14  -7   24.10    1.27
   8  14  -7   22.82    1.09
   7  13  -7   24.11    1.10
   7  13  -7   24.63    1.28
   6  12  -7   -0.13    0.17
   6  12  -7    0.06    0.17
   5  11  -7   21.19    1.10
   5  11  -7   16.40    0.84
   4  10  -7  210.96    7.22
   4  10  -7  205.99    6.65
   3   9  -7   23.36    0.97
   3   9  -7   22.53    1.14
   2   8  -7    6.77    0.44
   2   8  -7    7.15    0.53
   1   7  -7    0.44    0.19
   1   7  -7    0.73    0.16
   0   6  -7    0.86    0.16
   0   6  -7    0.50    0.20
  -1   5  -7   16.74    0.70
  -1   5  -7   15.56    0.83
  -2   4  -7    0.43    0.20
  -3   3  -7    1.70    0.31
  -4   2  -7    0.55    0.23
  -5   1  -7    0.27    0.22
  -6   0  -7   52.23    2.14
  -7  -1  -7   23.86    1.25
  -8  -2  -7   -0.08    0.26
  -9  -3  -7    0.17    0.27
 -10  -4  -7   19.68    1.23
 -11  -5  -7   -0.40    0.27
 -12  -6  -7    1.68    0.55
  12  20  -7    3.21    0.58
  11  19  -7    0.77    0.39
  10  18  -7    5.62    0.68
   9  17  -7    0.74    0.32
   8  16  -7    0.03    0.25
   8  16  -7    0.29    0.28
   7  15  -7   27.65    1.34
   7  15  -7   35.91    1.57
   6  14  -7   16.23    0.92
   6  14  -7   20.15    1.08
   5  13  -7    1.77    0.31
   5  13  -7    3.36    0.47
   4  12  -7    1.57    0.28
   4  12  -7    1.71    0.38
   3  11  -7    0.64    0.22
   3  11  -7    0.52    0.27
   2  10  -7   34.34    1.52
   2  10  -7   34.67    1.37
   1   9  -7    9.01    0.53
   1   9  -7    9.98    0.65
   0   8  -7    0.47    0.16
   0   8  -7    0.38    0.21
  -1   7  -7    6.67    0.53
  -1   7  -7    6.26    0.41
  -2   6  -7   18.97    0.84
  -2   6  -7   18.77    0.96
  -3   5  -7   97.08    3.22
  -3   5  -7   94.65    3.49
  -4   4  -7   48.78    2.00
  -5   3  -7    0.72    0.30
  -6   2  -7    2.03    0.39
  -7   1  -7   22.90    1.21
  -8   0  -7   -0.08    0.28
  -9  -1  -7    5.84    0.68
 -10  -2  -7   10.38    0.89
 -11  -3  -7    0.03    0.36
 -12  -4  -7    2.42    0.60
   9  19  -7   13.89    0.98
   8  18  -7    0.16    0.26
   7  17  -7    1.15    0.35
   7  17  -7    0.87    0.32
   6  16  -7    1.51    0.35
   6  16  -7    1.69    0.38
   5  15  -7    1.88    0.39
   5  15  -7    2.01    0.37
   4  14  -7    6.67    0.68
   4  14  -7    7.00    0.54
   3  13  -7    0.13    0.20
   3  13  -7    0.44    0.28
   2  12  -7    1.48    0.30
   2  12  -7    2.14    0.39
   1  11  -7    2.64    0.36
   1  11  -7    2.63    0.40
   0  10  -7   57.30    2.22
   0  10  -7   53.55    1.99
  -1   9  -7  114.94    3.85
  -1   9  -7  117.71    4.17
  -2   8  -7   11.66    0.78
  -2   8  -7   14.67    0.71
  -3   7  -7   -0.12    0.20
  -3   7  -7    0.14    0.23
  -4   6  -7   58.04    2.28
  -4   6  -7   55.40    2.06
  -5   5  -7   29.78    1.39
  -5   5  -7   29.03    1.24
  -6   4  -7    0.51    0.26
  -7   3  -7    5.80    0.62
  -8   2  -7   -0.16    0.27
  -9   1  -7    4.95    0.63
 -10   0  -7   -0.15    0.24
 -11  -1  -7    1.28    0.46
 -12  -2  -7    1.56    0.47
   7  19  -7    3.28    0.53
   6  18  -7    1.00    0.35
   6  18  -7    1.43    0.38
   5  17  -7    1.25    0.34
   5  17  -7    1.47    0.37
   4  16  -7    7.06    0.66
   4  16  -7    6.55    0.58
   3  15  -7    1.25    0.38
   3  15  -7    1.54    0.34
   2  14  -7   43.53    1.98
   2  14  -7   47.02    1.81
   1  13  -7   13.53    0.79
   1  13  -7   13.89    0.88
   0  12  -7    0.03    0.21
   0  12  -7   -0.18    0.17
  -1  11  -7   20.85    1.07
  -1  11  -7   21.18    0.98
  -2  10  -7   20.86    0.96
  -2  10  -7   19.91    1.07
  -3   9  -7   -0.14    0.22
  -3   9  -7   -0.06    0.20
  -4   8  -7   10.32    0.71
  -4   8  -7    9.96    0.65
  -5   7  -7    2.82    0.43
  -5   7  -7    2.59    0.36
  -6   6  -7   16.32    0.99
  -6   6  -7   16.00    0.86
  -7   5  -7    2.81    0.46
  -8   4  -7    0.15    0.31
  -9   3  -7   -0.10    0.31
 -10   2  -7    8.95    0.83
 -11   1  -7    1.30    0.42
 -12   0  -7   10.93    0.95
   5  19  -7   15.72    0.99
   4  18  -7   10.40    0.81
   4  18  -7   11.28    0.78
   3  17  -7   -0.07    0.21
   3  17  -7   -0.04    0.25
   2  16  -7    6.81    0.71
   2  16  -7    6.19    0.61
   1  15  -7   28.11    1.44
   1  15  -7   28.92    1.32
   0  14  -7    3.25    0.45
   0  14  -7    3.22    0.48
  -1  13  -7    2.05    0.38
  -1  13  -7    2.13    0.40
  -2  12  -7    0.14    0.24
  -2  12  -7    0.44    0.23
  -3  11  -7    2.11    0.36
  -3  11  -7    2.38    0.39
  -4  10  -7    3.42    0.43
  -4  10  -7    3.60    0.50
  -5   9  -7    2.12    0.39
  -5   9  -7    1.96    0.35
  -6   8  -7    4.46    0.57
  -6   8  -7    3.45    0.44
  -7   7  -7    0.22    0.32
  -7   7  -7    0.74    0.28
  -8   6  -7    2.65    0.43
  -8   6  -7    3.34    0.54
  -9   5  -7   28.64    1.53
 -10   4  -7   19.94    1.26
 -11   3  -7    0.39    0.37
 -12   2  -7    1.23    0.46
   3  19  -7    2.41    0.44
   2  18  -7    4.65    0.55
   1  17  -7    1.38    0.35
   1  17  -7    1.53    0.41
   0  16  -7    3.09    0.46
   0  16  -7    2.32    0.45
  -1  15  -7    6.26    0.68
  -1  15  -7    7.01    0.69
  -2  14  -7    1.40    0.35
  -2  14  -7    1.41    0.34
  -3  13  -7    0.94    0.32
  -3  13  -7    1.51    0.34
  -4  12  -7    5.19    0.56
  -4  12  -7    4.50    0.56
  -5  11  -7   -0.17    0.21
  -5  11  -7   -0.04    0.25
  -6  10  -7   23.39    1.19
  -6  10  -7   23.90    1.29
  -7   9  -7   30.90    1.44
  -7   9  -7   32.57    1.60
  -8   8  -7   -0.19    0.20
  -8   8  -7   -0.15    0.30
  -9   7  -7    0.02    0.27
  -9   7  -7   -0.06    0.32
 -10   6  -7    1.00    0.44
 -10   6  -7    0.06    0.29
 -11   5  -7    0.18    0.31
 -11   5  -7   -0.23    0.28
 -12   4  -7    4.14    0.68
   2  20  -7    2.20    0.46
   1  19  -7    0.63    0.32
   0  18  -7    0.83    0.34
  -1  17  -7    0.73    0.36
  -2  16  -7    0.84    0.36
  -2  16  -7   -0.04    0.28
  -3  15  -7   18.10    1.10
  -3  15  -7   18.44    1.09
  -4  14  -7   43.59    1.87
  -4  14  -7   43.57    1.96
  -5  13  -7    3.48    0.54
  -5  13  -7    4.84    0.59
  -6  12  -7    0.01    0.27
  -6  12  -7   -0.37    0.27
  -7  11  -7    5.51    0.63
  -7  11  -7    4.93    0.65
  -8  10  -7    4.64    0.57
  -8  10  -7    4.96    0.65
  -9   9  -7    1.37    0.39
  -9   9  -7    2.08    0.50
 -10   8  -7    0.40    0.39
 -10   8  -7    0.94    0.36
 -11   7  -7    1.67    0.44
 -11   7  -7    2.71    0.60
 -12   6  -7    1.30    0.47
 -13   5  -7    0.10    0.36
   0  20  -7    1.92    0.48
  -1  19  -7   17.38    1.09
  -2  18  -7    3.28    0.55
  -3  17  -7    0.50    0.38
  -4  16  -7    1.46    0.43
  -5  15  -7    2.43    0.48
  -5  15  -7    2.42    0.50
  -6  14  -7    0.78    0.35
  -6  14  -7    0.95    0.37
  -7  13  -7    4.13    0.61
  -7  13  -7    3.56    0.59
  -8  12  -7   11.16    0.90
  -8  12  -7    7.85    0.79
  -9  11  -7    6.38    0.77
  -9  11  -7    5.84    0.67
 -10  10  -7    2.16    0.52
 -10  10  -7    1.79    0.46
 -11   9  -7    1.05    0.48
 -11   9  -7    0.79    0.40
 -12   8  -7    0.08    0.33
 -12   8  -7    0.25    0.42
 -13   7  -7    0.62    0.39
  -1  21  -7    0.64    0.37
  -2  20  -7    3.03    0.57
  -3  19  -7   -0.01    0.35
  -4  18  -7    0.93    0.43
  -5  17  -7    1.95    0.50
  -6  16  -7    4.95    0.69
  -7  15  -7    1.61    0.47
  -8  14  -7    2.37    0.53
  -8  14  -7    2.44    0.52
  -9  13  -7    0.84    0.42
  -9  13  -7    0.61    0.39
 -10  12  -7    0.04    0.35
 -10  12  -7   -0.16    0.31
 -11  11  -7    1.90    0.54
 -11  11  -7    2.29    0.51
 -13   9  -7    2.23    0.52
  -3  21  -7    2.89    0.63
  -4  20  -7    1.20    0.49
  -5  19  -7    0.07    0.41
  -6  18  -7    0.81    0.46
  -7  17  -7   -0.42    0.39
  -8  16  -7   -0.10    0.36
  -9  15  -7    7.74    0.87
 -10  14  -7    4.68    0.72
 -11  13  -7   -0.08    0.31
 -20  12   8    0.25    0.41
 -19  13   8    2.55    0.58
 -18  14   8    8.63    0.95
 -17  15   8    1.53    0.54
 -16  16   8   -0.60    0.38
 -15  17   8    0.27    0.42
 -14  18   8   -0.26    0.38
 -13  19   8    1.14    0.48
 -13  19   8    1.38    0.49
 -12  20   8    0.20    0.34
 -12  20   8   -0.20    0.38
 -11  21   8    0.24    0.41
 -11  21   8    0.86    0.42
 -21   9   8    5.15    0.72
 -21   9   8    5.02    0.70
 -20  10   8    2.15    0.52
 -19  11   8    0.39    0.39
 -18  12   8    0.42    0.37
 -17  13   8    0.48    0.36
 -16  14   8    1.08    0.45
 -15  15   8    0.60    0.42
 -14  16   8    1.26    0.49
 -13  17   8    1.66    0.50
 -12  18   8    0.31    0.37
 -12  18   8    0.55    0.39
 -11  19   8    9.17    0.95
 -11  19   8   11.87    0.99
 -10  20   8    3.93    0.65
 -10  20   8    5.27    0.74
  -9  21   8   -0.15    0.29
  -9  21   8    0.00    0.35
  -8  22   8   -0.24    0.33
  -8  22   8    0.21    0.37
 -21   7   8    0.48    0.36
 -20   8   8    0.13    0.34
 -20   8   8    0.30    0.32
 -19   9   8    0.40    0.38
 -18  10   8    1.77    0.47
 -17  11   8    1.26    0.42
 -16  12   8    2.34    0.47
 -15  13   8    1.68    0.44
 -14  14   8    5.46    0.70
 -13  15   8   10.46    0.93
 -12  16   8    0.91    0.39
 -12  16   8    0.83    0.38
 -11  17   8   -0.28    0.31
 -11  17   8    0.04    0.27
 -10  18   8    9.80    0.94
 -10  18   8   11.50    0.95
  -9  19   8    2.08    0.52
  -9  19   8    1.88    0.49
  -8  20   8    0.59    0.35
  -8  20   8    0.63    0.39
  -7  21   8    1.86    0.51
  -7  21   8    1.68    0.45
  -6  22   8    0.69    0.37
 -21   5   8    0.90    0.44
 -20   6   8    2.09    0.46
 -20   6   8    2.03    0.44
 -19   7   8    0.34    0.32
 -19   7   8    0.29    0.28
 -18   8   8    4.50    0.59
 -18   8   8    4.66    0.60
 -17   9   8    0.60    0.33
 -16  10   8   10.79    0.82
 -15  11   8    6.78    0.69
 -14  12   8   -0.03    0.28
 -13  13   8    7.94    0.79
 -12  14   8    7.17    0.78
 -11  15   8    0.35    0.33
 -11  15   8   -0.29    0.30
 -10  16   8    2.93    0.53
 -10  16   8    2.42    0.50
  -9  17   8    0.57    0.33
  -9  17   8    0.13    0.32
  -8  18   8    3.91    0.59
  -8  18   8    3.88    0.59
  -7  19   8   -0.32    0.31
  -7  19   8   -0.10    0.27
  -6  20   8    1.25    0.41
  -6  20   8    0.24    0.35
  -5  21   8   -0.35    0.33
  -4  22   8    1.04    0.47
 -20   4   8    0.01    0.26
 -19   5   8    4.61    0.56
 -19   5   8    5.63    0.63
 -18   6   8    7.14    0.72
 -18   6   8    8.00    0.76
 -17   7   8   -0.08    0.25
 -17   7   8    0.10    0.27
 -16   8   8    6.93    0.67
 -15   9   8   15.05    0.91
 -14  10   8    2.61    0.44
 -13  11   8    4.08    0.52
 -12  12   8    0.92    0.34
 -12  12   8    0.51    0.31
 -11  13   8    5.23    0.68
 -11  13   8    4.78    0.60
 -10  14   8    2.00    0.44
 -10  14   8    2.97    0.47
  -9  15   8    0.58    0.32
  -9  15   8    0.24    0.29
  -8  16   8    1.41    0.41
  -8  16   8    1.04    0.36
  -7  17   8    4.62    0.62
  -7  17   8    5.34    0.63
  -6  18   8    3.09    0.53
  -6  18   8    3.08    0.54
  -5  19   8   16.51    1.11
  -5  19   8   15.96    1.07
  -4  20   8    2.85    0.55
  -3  21   8    1.62    0.49
  -2  22   8    0.75    0.44
 -21   1   8    3.29    0.61
 -20   2   8    0.01    0.29
 -20   2   8    0.36    0.33
 -19   3   8    2.18    0.48
 -19   3   8    1.87    0.40
 -18   4   8    8.52    0.71
 -18   4   8   10.20    0.73
 -17   5   8    4.02    0.52
 -17   5   8    5.11    0.56
 -16   6   8    3.12    0.47
 -16   6   8    3.54    0.45
 -15   7   8    0.12    0.24
 -15   7   8    0.30    0.24
 -14   8   8    3.31    0.43
 -14   8   8    2.57    0.43
 -13   9   8    3.74    0.45
 -13   9   8    3.26    0.50
 -12  10   8    1.75    0.39
 -12  10   8    0.71    0.26
 -11  11   8    3.57    0.47
 -11  11   8    3.77    0.54
 -10  12   8    2.73    0.44
 -10  12   8    3.88    0.53
  -9  13   8    0.26    0.28
  -9  13   8    0.11    0.24
  -8  14   8   31.78    1.57
  -8  14   8   36.02    1.55
  -7  15   8   15.34    1.02
  -7  15   8   19.77    1.06
  -6  16   8    0.95    0.36
  -6  16   8    0.69    0.33
  -5  17   8    0.34    0.28
  -5  17   8    0.41    0.33
  -4  18   8    3.05    0.52
  -4  18   8    3.01    0.54
  -3  19   8   -0.04    0.32
  -2  20   8    2.65    0.58
  -1  21   8   -0.04    0.34
 -21  -1   8    3.46    0.64
 -20   0   8    5.06    0.71
 -19   1   8    0.25    0.26
 -19   1   8    0.19    0.30
 -18   2   8   -0.12    0.21
 -18   2   8    0.73    0.32
 -17   3   8    0.45    0.23
 -17   3   8    0.26    0.22
  17  -3  -8    0.31    0.24
 -16   4   8    5.04    0.53
 -16   4   8    5.12    0.52
  16  -4  -8    4.88    0.51
 -15   5   8    1.66    0.34
 -15   5   8    1.35    0.29
 -14   6   8    4.61    0.46
 -14   6   8    4.68    0.52
 -13   7   8    0.19    0.24
 -13   7   8    0.54    0.24
 -12   8   8   -0.11    0.20
 -12   8   8    0.12    0.18
 -11   9   8   23.98    1.11
 -11   9   8   24.65    1.20
 -10  10   8   65.18    2.46
 -10  10   8   65.22    2.47
  -9  11   8    0.22    0.25
  -9  11   8    0.02    0.25
  -8  12   8    0.13    0.23
  -8  12   8    0.31    0.26
  -7  13   8   20.93    1.08
  -7  13   8   20.25    1.11
  -6  14   8    3.68    0.49
  -6  14   8    2.95    0.48
  -5  15   8    3.72    0.53
  -5  15   8    3.03    0.47
  -4  16   8   -0.19    0.26
  -4  16   8   -0.07    0.22
  -3  17   8    3.56    0.57
  -3  17   8    3.29    0.49
  -2  18   8    2.56    0.49
  -1  19   8    0.40    0.33
   0  20   8    6.42    0.80
   1  21   8    0.44    0.41
 -21  -3   8    1.70    0.49
 -20  -2   8   -0.06    0.27
  20   2  -8    0.15    0.31
  19   1  -8    0.37    0.26
  18   0  -8    3.52    0.53
 -17   1   8   -0.12    0.19
  17  -1  -8    0.11    0.23
 -16   2   8   -0.10    0.19
 -16   2   8    0.09    0.19
  16  -2  -8   -0.18    0.18
 -15   3   8    1.91    0.33
 -15   3   8    2.79    0.37
  15  -3  -8    2.79    0.39
 -14   4   8    2.77    0.38
 -14   4   8    2.97    0.37
  14  -4  -8    3.69    0.41
 -13   5   8   64.37    2.37
 -13   5   8   65.64    2.31
  13  -5  -8   63.88    2.39
 -12   6   8    4.32    0.48
 -12   6   8    3.19    0.39
 -11   7   8    1.25    0.29
 -11   7   8    0.98    0.25
 -10   8   8   21.74    1.07
 -10   8   8   20.24    0.97
  -9   9   8   28.33    1.26
  -9   9   8   28.84    1.31
  -8  10   8    4.59    0.49
  -8  10   8    6.27    0.53
  -7  11   8    8.55    0.66
  -7  11   8    8.29    0.62
  -6  12   8    0.96    0.29
  -6  12   8    1.07    0.29
  -5  13   8    6.06    0.59
  -5  13   8    5.67    0.58
  -4  14   8   -0.33    0.19
  -4  14   8   -0.23    0.18
  -3  15   8   16.00    0.94
  -3  15   8   16.59    1.01
  -2  16   8   -0.02    0.26
  -2  16   8    0.70    0.29
  -1  17   8    0.93    0.38
   0  18   8    5.00    0.67
   1  19   8   13.61    1.05
   2  20   8    0.44    0.38
  20   4  -8    0.24    0.32
  19   3  -8    1.58    0.43
  18   2  -8   -0.09    0.26
  17   1  -8    0.29    0.23
 -16   0   8   25.72    1.12
  16   0  -8   25.46    1.28
 -15   1   8   19.69    0.95
 -15   1   8   20.15    0.94
  15  -1  -8   20.07    1.05
 -14   2   8    0.42    0.21
 -14   2   8    0.23    0.19
  14  -2  -8    0.21    0.20
 -13   3   8    4.96    0.48
 -13   3   8    4.96    0.42
  13  -3  -8    5.07    0.43
 -12   4   8   46.79    1.69
 -12   4   8   47.01    1.78
  12  -4  -8   46.12    1.79
 -11   5   8    0.89    0.23
 -11   5   8    0.83    0.21
  11  -5  -8    1.20    0.21
 -10   6   8    1.30    0.27
 -10   6   8    0.93    0.21
  10  -6  -8    1.01    0.18
  -9   7   8    1.24    0.28
  -9   7   8    1.19    0.26
  -8   8   8    9.26    0.62
  -8   8   8    8.40    0.56
  -7   9   8   14.67    0.79
  -7   9   8   16.55    0.86
  -6  10   8   52.26    1.94
  -6  10   8   47.96    1.88
  -5  11   8    8.88    0.62
  -5  11   8    9.05    0.62
  -4  12   8    0.30    0.22
  -4  12   8    0.27    0.23
  -3  13   8   10.06    0.73
  -3  13   8   11.42    0.72
  -2  14   8   51.79    2.11
  -2  14   8   54.63    2.06
  -1  15   8    3.57    0.52
  -1  15   8    4.22    0.51
   0  16   8    3.40    0.53
   1  17   8    0.28    0.32
   2  18   8    0.55    0.40
   3  19   8    0.99    0.40
   4  20   8    0.04    0.40
  20   6  -8    2.45    0.59
  19   5  -8    5.17    0.74
  18   4  -8    9.47    0.87
  17   3  -8    0.47    0.27
  16   2  -8    0.09    0.23
 -15  -1   8   18.85    0.89
  15   1  -8   20.26    1.08
 -14   0   8    0.37    0.23
  14   0  -8    1.05    0.27
 -13   1   8   13.09    0.68
 -13   1   8   12.36    0.64
  13  -1  -8   12.71    0.74
 -12   2   8    9.14    0.56
 -12   2   8    8.91    0.49
  12  -2  -8    9.29    0.58
 -11   3   8    2.83    0.27
 -11   3   8    2.54    0.32
  11  -3  -8    2.74    0.32
 -10   4   8   21.34    0.96
 -10   4   8   21.27    0.86
  10  -4  -8   21.54    0.93
  -9   5   8    6.40    0.48
  -9   5   8    6.93    0.43
   9  -5  -8    6.32    0.40
  -8   6   8   28.88    1.21
  -8   6   8   30.08    1.19
   8  -6  -8   29.23    1.13
  -7   7   8   -0.25    0.13
  -7   7   8   -0.07    0.15
   7  -7  -8   -0.20    0.09
  -6   8   8    1.59    0.28
  -6   8   8    1.13    0.24
  -5   9   8  191.98    6.01
  -5   9   8  182.10    6.03
  -4  10   8   34.73    1.42
  -4  10   8   35.89    1.43
  -3  11   8    3.06    0.37
  -2  12   8    0.48    0.24
  -2  12   8    0.90    0.26
  -1  13   8    1.88    0.39
  -1  13   8    1.51    0.33
   0  14   8    3.56    0.48
   1  15   8    0.87    0.31
   2  16   8   -0.32    0.26
   3  17   8    0.75    0.38
   4  18   8    2.38    0.54
   5  19   8    5.52    0.77
  19   7  -8    0.53    0.35
  18   6  -8    8.54    0.93
  17   5  -8    4.20    0.64
  16   4  -8    5.48    0.67
  15   3  -8    2.91    0.46
 -14  -2   8    0.39    0.19
  14   2  -8    0.60    0.25
 -13  -1   8   12.29    0.64
  13   1  -8   12.39    0.75
 -12   0   8    1.37    0.24
  12   0  -8    1.58    0.29
 -11   1   8   22.26    0.89
 -11   1   8   23.98    0.99
  11  -1  -8   23.71    1.08
 -10   2   8    3.11    0.25
 -10   2   8    3.00    0.34
  10  -2  -8    3.26    0.36
  -9   3   8    2.00    0.27
  -9   3   8    1.84    0.21
   9  -3  -8    1.81    0.26
  -8   4   8  167.24    5.36
  -8   4   8  166.40    5.36
   8  -4  -8  169.99    5.67
  -7   5   8  149.68    4.83
  -7   5   8  143.99    4.81
   7  -5  -8  156.91    5.09
  -6   6   8    8.13    0.47
  -6   6   8    8.49    0.54
   6  -6  -8    8.47    0.50
  -5   7   8   19.74    0.84
  -5   7   8   18.57    0.88
   5  -7  -8   20.14    0.86
  -4   8   8   16.66    0.84
  -4   8   8   16.47    0.79
   4  -8  -8   18.66    0.79
  -3   9   8    4.43    0.42
  -3   9   8    4.62    0.44
  -2  10   8    4.33    0.42
  -2  10   8    4.78    0.41
  -1  11   8   -0.04    0.17
  -1  11   8   -0.13    0.15
   0  12   8    0.23    0.18
   0  12   8   -0.02    0.21
   1  13   8    6.39    0.61
   2  14   8    7.64    0.67
   3  15   8   19.96    1.15
   4  16   8    0.09    0.31
   5  17   8    1.38    0.45
   6  18   8    4.31    0.69
  19   9  -8    0.33    0.37
  18   8  -8    3.30    0.63
  17   7  -8    0.26    0.32
  16   6  -8    2.98    0.51
  15   5  -8    1.84    0.42
  14   4  -8    3.51    0.51
 -13  -3   8    4.91    0.38
  13   3  -8    5.19    0.57
 -12  -2   8    9.01    0.51
  12   2  -8    9.39    0.66
 -11  -1   8   22.92    0.95
  11   1  -8   23.43    1.12
 -10   0   8  158.97    5.17
 -10   0   8  167.08    5.23
  10   0  -8  169.61    5.69
  -9   1   8    6.11    0.31
  -9   1   8    6.46    0.43
   9  -1  -8    5.83    0.47
  -8   2   8   13.37    0.67
  -8   2   8   14.04    0.57
   8  -2  -8   14.13    0.73
  -7   3   8    4.97    0.31
  -7   3   8    6.10    0.42
   7  -3  -8    6.38    0.45
  -6   4   8   -0.08    0.09
  -6   4   8   -0.38    0.14
   6  -4  -8    0.12    0.14
  -5   5   8   26.46    0.98
  -5   5   8   25.57    1.07
   5  -5  -8   27.00    1.12
  -4   6   8    3.02    0.27
  -4   6   8    3.29    0.34
   4  -6  -8    2.90    0.32
  -3   7   8   -0.17    0.12
  -3   7   8    0.01    0.15
   3  -7  -8    0.09    0.14
  -2   8   8   25.90    1.02
  -2   8   8   24.11    0.97
   2  -8  -8   19.59    0.98
  -1   9   8   14.18    0.70
  -1   9   8   14.20    0.70
   1  -9  -8   11.92    0.72
   0  10   8   57.40    2.05
   0  10   8   57.37    2.09
   1  11   8   11.71    0.67
   1  11   8   12.24    0.72
   2  12   8    5.97    0.52
   3  13   8   14.52    0.90
   4  14   8   11.06    0.81
   5  15   8    0.85    0.38
   6  16   8    0.99    0.41
   7  17   8    0.65    0.43
  18  10  -8    0.64    0.38
  17   9  -8    0.64    0.38
  16   8  -8    6.17    0.77
  15   7  -8   -0.05    0.27
  14   6  -8    3.76    0.52
  13   5  -8   57.98    2.40
 -12  -4   8   43.88    1.56
  12   4  -8   45.62    1.93
 -11  -3   8    2.67    0.27
  11   3  -8    3.00    0.42
 -10  -2   8    3.06    0.30
  10   2  -8    3.19    0.41
  -9  -1   8    5.01    0.40
  -9  -1   8    6.35    0.28
   9   1  -8    6.22    0.50
  -8   0   8    3.07    0.31
  -8   0   8    3.03    0.18
   8   0  -8    2.76    0.37
  -7   1   8    9.95    0.55
  -7   1   8   10.39    0.38
   7  -1  -8    9.71    0.64
  -6   2   8    8.59    0.33
  -6   2   8    7.78    0.48
   6  -2  -8    8.59    0.57
  -5   3   8    4.24    0.22
  -5   3   8    3.53    0.35
   5  -3  -8    3.61    0.39
  -4   4   8    0.78    0.18
  -4   4   8    1.03    0.14
   4  -4  -8    1.03    0.23
  -3   5   8  127.06    4.16
  -3   5   8  131.25    4.12
   3  -5  -8  129.88    4.47
  -2   6   8   84.47    2.79
  -2   6   8   81.79    2.74
   2  -6  -8   82.93    2.98
  -1   7   8    0.14    0.13
  -1   7   8    0.00    0.15
   1  -7  -8    0.23    0.18
   0   8   8   39.41    1.48
   0   8   8   38.49    1.47
   0  -8  -8   38.67    1.60
   1   9   8   58.50    2.03
   1   9   8   58.39    2.08
  -1  -9  -8   52.77    2.20
   2  10   8    5.75    0.45
   2  10   8    5.51    0.49
  -2 -10  -8    5.81    0.53
   3  11   8    5.30    0.54
   4  12   8    2.23    0.39
   5  13   8    0.33    0.30
   6  14   8    3.39    0.55
   7  15   8    0.25    0.35
   8  16   8    1.30    0.45
  17  11  -8    0.51    0.41
  16  10  -8    8.34    0.91
  15   9  -8   12.55    1.00
  14   8  -8    2.74    0.51
  13   7  -8    0.25    0.28
  12   6  -8    4.11    0.56
 -11  -5   8    0.82    0.18
  11   5  -8    1.17    0.30
 -10  -4   8   19.57    0.79
  10   4  -8   18.28    1.02
  -9  -3   8    1.32    0.22
   9   3  -8    1.89    0.35
  -8  -2   8   12.97    0.61
  -8  -2   8   12.04    0.42
   8   2  -8   11.53    0.75
  -7  -1   8    9.58    0.50
   7   1  -8    8.32    0.62
  -6   0   8  110.27    3.43
   6   0  -8   99.99    3.78
  -5   1   8  207.18    6.33
   5  -1  -8  196.97    6.87
  -4   2   8    0.38    0.14
  -4   2   8   -0.02    0.06
   4  -2  -8    0.03    0.14
  -3   3   8    4.87    0.27
  -3   3   8    4.41    0.37
   3  -3  -8    5.01    0.42
  -2   4   8  168.67    5.53
  -2   4   8  176.27    5.52
   2  -4  -8  181.51    5.97
  -1   5   8   48.02    1.66
  -1   5   8   45.39    1.69
   1  -5  -8   48.48    1.85
   0   6   8   13.73    0.70
   0   6   8   14.26    0.67
   0  -6  -8   15.31    0.80
   1   7   8    3.14    0.34
   1   7   8    3.34    0.36
  -1  -7  -8    4.48    0.47
   2   8   8    0.24    0.20
   2   8   8    0.17    0.21
  -2  -8  -8    0.37    0.24
   3   9   8    3.17    0.39
   3   9   8    3.04    0.37
  -3  -9  -8    3.86    0.50
   4  10   8    1.67    0.31
  -4 -10  -8    2.07    0.41
   5  11   8    7.13    0.69
  -5 -11  -8    7.65    0.79
   6  12   8    2.07    0.43
   7  13   8    0.94    0.38
   8  14   8    6.90    0.78
  17  13  -8   -0.21    0.33
  16  12  -8    2.19    0.54
  15  11  -8    5.28    0.73
  14  10  -8    2.70    0.51
  13   9  -8    3.50    0.56
  12   8  -8    0.11    0.25
  11   7  -8    1.01    0.31
 -10  -6   8    0.70    0.17
  10   6  -8    1.08    0.31
  -9  -5   8    5.41    0.38
   9   5  -8    6.13    0.54
  -8  -4   8  163.97    5.07
   8   4  -8  158.00    5.67
  -7  -3   8    5.55    0.39
   7   3  -8    6.09    0.62
  -6  -2   8    8.37    0.48
   6   2  -8    8.24    0.62
  -5  -1   8  212.53    6.72
   5   1  -8  218.69    7.34
  -4   0   8  330.55   10.45
   4   0  -8  349.62   11.31
  -3   1   8    0.13    0.13
   3  -1  -8    0.30    0.16
  -2   2   8    1.55    0.25
   2  -2  -8    2.15    0.31
  -1   3   8   14.95    0.64
  -1   3   8   14.46    0.72
   1  -3  -8   16.38    0.80
   0   4   8    1.03    0.18
   0   4   8    1.30    0.24
   0  -4  -8    1.17    0.26
   1   5   8    5.24    0.39
   1   5   8    5.12    0.41
  -1  -5  -8    5.70    0.49
   2   6   8   19.23    0.91
   2   6   8   19.90    0.91
  -2  -6  -8   21.41    1.05
   3   7   8    0.26    0.19
   3   7   8    0.29    0.21
  -3  -7  -8    0.24    0.25
   4   8   8    1.10    0.27
   4   8   8    1.71    0.29
  -4  -8  -8    1.14    0.33
   5   9   8   18.06    0.97
  -5  -9  -8   17.46    1.08
   6  10   8   47.14    1.92
  -6 -10  -8   44.50    2.09
   7  11   8    0.23    0.28
  -7 -11  -8    0.27    0.37
  16  14  -8    1.30    0.50
  15  13  -8    2.07    0.53
  14  12  -8    0.30    0.33
  13  11  -8    3.74    0.58
  12  10  -8    0.91    0.32
  11   9  -8   22.17    1.25
  10   8  -8   19.81    1.12
  -9  -7   8    0.94    0.20
   9   7  -8    1.26    0.32
  -8  -6   8   28.40    1.11
   8   6  -8   30.76    1.43
  -7  -5   8  150.62    4.86
   7   5  -8  157.96    5.49
  -6  -4   8   -0.02    0.13
   6   4  -8    0.19    0.23
  -5  -3   8    4.46    0.34
   5   3  -8    4.43    0.49
  -4  -2   8   -0.13    0.16
   4   2  -8    0.63    0.23
  -3  -1   8    0.09    0.19
   3   1  -8    0.24    0.17
  -2   0   8   40.90    1.53
   2   0  -8   43.38    1.69
  -1   1   8    3.26    0.34
   1  -1  -8    4.40    0.41
   0   2   8    0.63    0.21
   0  -2  -8    0.50    0.21
   1   3   8    3.33    0.36
  -1  -3  -8    3.58    0.41
   2   4   8    8.62    0.53
  -2  -4  -8    9.07    0.62
   3   5   8  105.31    3.51
  -3  -5  -8  107.22    3.86
  -4  -6  -8   11.06    0.78
  -5  -7  -8   -0.18    0.20
  -6  -8  -8    4.92    0.64
  -7  -9  -8   14.60    1.05
  -8 -10  -8    4.54    0.70
  -9 -11  -8    0.16    0.41
  15  15  -8    0.38    0.32
  14  14  -8    5.21    0.71
  13  13  -8    8.36    0.91
  12  12  -8    0.48    0.32
  11  11  -8    3.19    0.51
  10  10  -8   72.26    2.91
   9   9  -8   32.29    1.56
   8   8  -8    7.51    0.65
   7   7  -8   -0.08    0.19
   6   6  -8    8.56    0.68
  -5  -5   8   25.97    1.05
   5   5  -8   26.21    1.27
   5   5  -8   26.89    0.89
  -4  -4   8    0.79    0.21
   4   4  -8    1.19    0.10
   4   4  -8    0.81    0.28
  -3  -3   8    4.44    0.37
   3   3  -8    4.83    0.22
   3   3  -8    5.02    0.44
  -2  -2   8    1.59    0.25
   2   2  -8    1.73    0.30
   2   2  -8    1.79    0.16
  -1  -1   8    4.23    0.36
   1   1  -8    4.09    0.44
   0   0   8  282.72    8.83
   0   0  -8  286.55    9.52
   1   1   8   94.94    3.17
  -1  -1  -8   96.07    3.45
  -2  -2  -8    3.02    0.40
  -3  -3  -8   33.27    1.48
  -4  -4  -8   48.52    2.01
  -5  -5  -8    0.07    0.25
  -6  -6  -8    2.03    0.41
  -7  -7  -8    0.91    0.39
  -8  -8  -8   -0.39    0.28
  -9  -9  -8    3.07    0.61
 -10 -10  -8    2.83    0.62
  14  16  -8    1.57    0.49
  13  15  -8   10.50    0.92
  12  14  -8    7.07    0.80
  11  13  -8    6.12    0.71
  10  12  -8    3.44    0.52
   9  11  -8    0.23    0.26
   8  10  -8    5.32    0.61
   7   9  -8   15.78    0.98
   6   8  -8    0.86    0.31
   6   8  -8    1.23    0.19
   5   7  -8   19.99    0.77
   5   7  -8   19.94    1.08
   4   6  -8    2.69    0.23
   4   6  -8    3.15    0.43
   3   5  -8  141.88    4.43
   3   5  -8  138.29    4.91
   2   4  -8  168.97    5.39
   2   4  -8  177.11    5.94
   1   3  -8   15.65    0.82
   1   3  -8   14.90    0.61
   0   2  -8    0.47    0.23
  -1   1  -8   95.48    3.45
  -2   0  -8    0.12    0.17
  -3  -1  -8    9.68    0.66
  -4  -2  -8    1.73    0.34
  -5  -3  -8    0.11    0.25
  -6  -4  -8   11.35    0.81
  -7  -5  -8    1.77    0.44
  -8  -6  -8   11.94    0.96
  -9  -7  -8    0.14    0.32
 -10  -8  -8    0.64    0.45
  13  17  -8    1.15    0.44
  12  16  -8    0.48    0.36
  11  15  -8    0.29    0.30
  10  14  -8    2.64    0.51
   9  13  -8    0.01    0.21
   8  12  -8    0.06    0.22
   7  11  -8    8.38    0.68
   6  10  -8   50.92    2.17
   5   9  -8  199.13    6.73
   5   9  -8  184.09    6.07
   4   8  -8   15.10    0.69
   4   8  -8   16.92    0.95
   3   7  -8   -0.06    0.12
   3   7  -8   -0.11    0.16
   2   6  -8   87.79    3.22
   2   6  -8   87.22    2.84
   1   5  -8   47.34    1.90
   1   5  -8   47.24    1.61
   0   4  -8    1.07    0.17
   0   4  -8    1.05    0.25
  -1   3  -8    3.13    0.39
  -2   2  -8    2.93    0.39
  -3   1  -8    9.35    0.68
  -4   0  -8    3.92    0.49
  -5  -1  -8   31.22    1.46
  -6  -2  -8    8.54    0.69
  -7  -3  -8    0.21    0.26
  -8  -4  -8   24.51    1.36
  -9  -5  -8   33.71    1.73
 -10  -6  -8    0.50    0.39
 -11  -7  -8    0.96    0.47
  12  18  -8    0.15    0.32
  11  17  -8   -0.13    0.27
  10  16  -8    2.73    0.50
   9  15  -8    0.63    0.33
   8  14  -8   34.27    1.65
   7  13  -8   19.80    1.13
   6  12  -8    1.29    0.36
   5  11  -8    7.65    0.52
   5  11  -8    8.91    0.70
   4  10  -8   36.93    1.40
   4  10  -8   36.35    1.68
   3   9  -8    4.14    0.51
   3   9  -8    5.42    0.40
   2   8  -8   25.74    1.04
   2   8  -8   26.37    1.24
   1   7  -8    0.03    0.20
   1   7  -8    0.29    0.14
   0   6  -8   14.18    0.63
   0   6  -8   13.28    0.78
  -1   5  -8    5.85    0.39
  -1   5  -8    5.66    0.49
  -2   4  -8    9.22    0.51
  -2   4  -8    9.29    0.67
  -3   3  -8   32.63    1.48
  -4   2  -8    1.97    0.36
  -5   1  -8   31.30    1.49
  -6   0  -8   45.23    1.97
  -7  -1  -8    6.45    0.68
  -8  -2  -8    6.29    0.72
  -9  -3  -8    4.55    0.67
 -10  -4  -8    0.49    0.37
 -11  -5  -8    2.82    0.61
  11  19  -8    9.44    0.87
  10  18  -8   10.07    0.86
   9  17  -8    0.76    0.34
   8  16  -8    1.25    0.37
   7  15  -8   17.91    1.10
   6  14  -8    3.45    0.53
   5  13  -8    5.89    0.66
   4  12  -8    0.14    0.20
   4  12  -8   -0.02    0.27
   3  11  -8    2.97    0.47
   3  11  -8    3.44    0.38
   2  10  -8    4.64    0.43
   2  10  -8    3.44    0.48
   1   9  -8   13.72    0.83
   1   9  -8   14.62    0.70
   0   8  -8   39.75    1.71
   0   8  -8   41.11    1.50
  -1   7  -8    4.06    0.37
  -1   7  -8    3.61    0.47
  -2   6  -8   20.11    0.89
  -2   6  -8   19.49    1.03
  -3   5  -8  109.98    3.97
  -3   5  -8  107.69    3.63
  -4   4  -8   48.99    2.05
  -5   3  -8   -0.18    0.22
  -6   2  -8   10.04    0.79
  -7   1  -8    6.70    0.70
  -8   0  -8    0.20    0.27
  -9  -1  -8    3.20    0.57
 -10  -2  -8    1.38    0.44
 -11  -3  -8    1.75    0.52
  10  20  -8    2.92    0.54
   9  19  -8    2.05    0.47
   8  18  -8    3.57    0.56
   7  17  -8    5.13    0.63
   6  16  -8    0.85    0.33
   5  15  -8    3.26    0.52
   4  14  -8   -0.22    0.21
   3  13  -8   10.44    0.66
   3  13  -8   11.39    0.85
   2  12  -8    1.23    0.27
   2  12  -8    0.70    0.28
   1  11  -8   -0.03    0.20
   1  11  -8   -0.19    0.19
   0  10  -8   57.86    2.31
   0  10  -8   57.12    2.07
  -1   9  -8   58.26    2.12
  -1   9  -8   60.46    2.38
  -2   8  -8    0.66    0.22
  -2   8  -8    0.70    0.30
  -3   7  -8    0.23    0.23
  -3   7  -8    0.29    0.22
  -4   6  -8   12.60    0.70
  -4   6  -8   11.68    0.82
  -5   5  -8   -0.11    0.18
  -5   5  -8   -0.24    0.18
  -6   4  -8   13.14    0.91
  -7   3  -8   -0.32    0.26
  -8   2  -8    6.62    0.74
  -9   1  -8    3.29    0.55
 -10   0  -8    0.37    0.33
 -11  -1  -8   14.87    1.14
   7  19  -8    0.19    0.30
   6  18  -8    2.22    0.47
   5  17  -8    0.91    0.34
   4  16  -8    0.02    0.26
   3  15  -8   18.14    1.13
   2  14  -8   59.60    2.18
   2  14  -8   54.63    2.41
   1  13  -8    1.88    0.40
   1  13  -8    2.27    0.37
   0  12  -8    0.07    0.19
   0  12  -8    0.19    0.23
  -1  11  -8   11.19    0.77
  -1  11  -8   11.73    0.68
  -2  10  -8    6.55    0.51
  -2  10  -8    6.37    0.58
  -3   9  -8    4.26    0.45
  -3   9  -8    3.85    0.51
  -4   8  -8    1.24    0.29
  -4   8  -8    0.75    0.29
  -5   7  -8   -0.03    0.18
  -5   7  -8    0.49    0.27
  -6   6  -8    2.18    0.38
  -6   6  -8    2.80    0.47
  -7   5  -8    0.41    0.29
  -7   5  -8    1.44    0.43
  -8   4  -8   26.21    1.45
  -9   3  -8    6.00    0.74
 -10   2  -8    2.01    0.49
 -11   1  -8   13.74    1.06
   5  19  -8   14.04    1.02
   4  18  -8    2.86    0.50
   3  17  -8    3.06    0.52
   2  16  -8    0.47    0.32
   1  15  -8    3.69    0.47
   1  15  -8    4.54    0.61
   0  14  -8    5.31    0.62
   0  14  -8    4.38    0.52
  -1  13  -8    6.45    0.68
  -1  13  -8    7.18    0.58
  -2  12  -8    6.32    0.66
  -2  12  -8    6.36    0.54
  -3  11  -8    5.63    0.56
  -3  11  -8    6.32    0.67
  -4  10  -8    1.81    0.36
  -4  10  -8    1.96    0.43
  -5   9  -8   19.91    1.01
  -5   9  -8   18.18    1.12
  -6   8  -8    5.17    0.66
  -6   8  -8    4.52    0.53
  -7   7  -8    1.04    0.38
  -7   7  -8    1.23    0.35
  -8   6  -8   10.35    0.91
  -8   6  -8   10.90    0.80
  -9   5  -8   35.51    1.60
  -9   5  -8   33.27    1.74
 -10   4  -8    0.86    0.43
 -11   3  -8    1.65    0.48
   2  18  -8    2.31    0.48
   1  17  -8    1.61    0.45
   0  16  -8    2.74    0.52
   0  16  -8    3.44    0.50
  -1  15  -8    1.62    0.44
  -1  15  -8    1.02    0.37
  -2  14  -8    7.97    0.70
  -2  14  -8    7.16    0.69
  -3  13  -8   14.79    1.01
  -3  13  -8   16.53    0.94
  -4  12  -8    3.25    0.48
  -4  12  -8    2.20    0.45
  -5  11  -8    8.30    0.83
  -5  11  -8    7.17    0.69
  -6  10  -8   52.23    2.23
  -6  10  -8   46.81    2.01
  -7   9  -8   15.56    0.95
  -7   9  -8   14.72    1.06
  -8   8  -8   -0.22    0.29
  -8   8  -8    0.00    0.27
  -9   7  -8   -0.03    0.27
  -9   7  -8    0.05    0.34
 -10   6  -8    0.28    0.32
 -10   6  -8   -0.09    0.36
 -11   5  -8    2.40    0.50
 -11   5  -8    2.47    0.56
  -1  17  -8    0.15    0.29
  -2  16  -8    0.12    0.32
  -2  16  -8   -0.08    0.29
  -3  15  -8   21.69    1.26
  -3  15  -8   20.91    1.20
  -4  14  -8   13.56    0.92
  -4  14  -8   14.54    1.01
  -5  13  -8    0.15    0.28
  -5  13  -8    0.11    0.29
  -6  12  -8    1.68    0.42
  -6  12  -8    2.95    0.53
  -7  11  -8    0.53    0.36
  -7  11  -8    0.14    0.29
  -8  10  -8    6.36    0.69
  -8  10  -8    6.85    0.80
  -9   9  -8    3.44    0.54
  -9   9  -8    3.35    0.61
 -10   8  -8    0.77    0.36
 -10   8  -8    0.93    0.47
 -11   7  -8    0.57    0.37
 -11   7  -8    1.19    0.48
 -12   6  -8    2.43    0.54
 -13   5  -8    3.45    0.65
  -4  16  -8    0.08    0.33
  -4  16  -8   -0.10    0.29
  -5  15  -8    1.47    0.44
  -5  15  -8    1.00    0.40
  -6  14  -8    5.62    0.73
  -6  14  -8    6.70    0.73
  -7  13  -8    0.69    0.38
  -7  13  -8    0.50    0.36
  -8  12  -8    0.34    0.36
  -8  12  -8   -0.21    0.30
  -9  11  -8    0.57    0.36
  -9  11  -8    0.46    0.40
 -10  10  -8    4.26    0.71
 -10  10  -8    4.96    0.67
 -11   9  -8   11.63    0.96
 -12   8  -8    2.60    0.57
  -5  17  -8    0.96    0.46
  -6  16  -8    1.87    0.50
  -7  15  -8    0.37    0.42
  -8  14  -8    7.53    0.86
  -8  14  -8   10.17    0.93
  -9  13  -8    4.49    0.70
  -9  13  -8    6.11    0.81
 -10  12  -8   -0.17    0.34
 -11  11  -8    1.81    0.54
  -8  16  -8    0.58    0.43
 -20  12   9    0.78    0.38
 -19  13   9    0.27    0.41
 -18  14   9    1.39    0.48
 -18  14   9    1.12    0.47
 -17  15   9    1.29    0.51
 -17  15   9    0.51    0.44
 -16  16   9    0.51    0.43
 -16  16   9    0.20    0.44
 -15  17   9    0.45    0.36
 -15  17   9    0.18    0.41
 -14  18   9    0.56    0.41
 -14  18   9    0.47    0.42
 -13  19   9    0.35    0.40
 -13  19   9   -0.02    0.29
 -12  20   9    0.22    0.31
 -12  20   9   -0.05    0.37
 -21   9   9   -0.14    0.32
 -19  11   9    0.55    0.37
 -18  12   9    0.30    0.38
 -18  12   9    0.12    0.35
 -17  13   9    0.13    0.33
 -17  13   9   -0.07    0.31
 -16  14   9    0.51    0.42
 -16  14   9    0.00    0.35
 -15  15   9   -0.12    0.36
 -15  15   9    0.24    0.32
 -14  16   9    1.88    0.53
 -14  16   9    2.35    0.52
 -13  17   9    2.74    0.62
 -13  17   9    3.08    0.58
 -12  18   9   -0.07    0.35
 -12  18   9    0.49    0.36
 -11  19   9    2.05    0.54
 -11  19   9    1.41    0.46
 -10  20   9    0.39    0.37
 -10  20   9    0.62    0.37
  -9  21   9    0.20    0.34
  -9  21   9    0.00    0.35
 -20   8   9    0.02    0.28
 -19   9   9   -0.27    0.24
 -18  10   9    0.49    0.32
 -18  10   9    1.03    0.39
 -17  11   9    2.10    0.50
 -17  11   9    2.46    0.48
 -16  12   9    6.65    0.71
 -16  12   9    4.67    0.70
 -15  13   9    0.49    0.37
 -15  13   9    0.79    0.37
 -14  14   9   -0.13    0.25
 -14  14   9   -0.16    0.30
 -13  15   9    0.85    0.42
 -13  15   9    0.57    0.35
 -12  16   9   -0.23    0.32
 -12  16   9    0.36    0.32
 -11  17   9    0.63    0.36
 -11  17   9    0.52    0.37
 -10  18   9    0.59    0.36
 -10  18   9    0.44    0.34
  -9  19   9    0.80    0.38
  -9  19   9    0.44    0.37
  -8  20   9    0.09    0.34
  -8  20   9    0.02    0.35
  -7  21   9    0.01    0.34
  -7  21   9    0.35    0.37
  -6  22   9    0.60    0.43
 -20   6   9    1.72    0.39
 -19   7   9    6.44    0.72
 -18   8   9    1.74    0.45
 -18   8   9    1.27    0.39
 -17   9   9    2.18    0.45
 -17   9   9    1.12    0.36
 -16  10   9    0.78    0.33
 -16  10   9    0.68    0.35
 -15  11   9   -0.02    0.25
 -15  11   9   -0.32    0.21
 -14  12   9    0.32    0.34
 -14  12   9    0.46    0.31
 -13  13   9    0.07    0.30
 -13  13   9    0.06    0.30
 -12  14   9    2.07    0.46
 -12  14   9    2.03    0.48
 -11  15   9    0.28    0.28
 -11  15   9   -0.17    0.29
 -10  16   9    0.26    0.27
 -10  16   9    0.31    0.30
  -9  17   9    4.43    0.65
  -9  17   9    3.74    0.56
  -8  18   9    0.59    0.35
  -8  18   9    0.36    0.33
  -7  19   9    0.90    0.37
  -7  19   9    0.28    0.36
  -6  20   9    0.44    0.35
  -6  20   9    0.24    0.35
  -5  21   9    1.37    0.48
  -4  22   9   -0.15    0.34
 -19   5   9   -0.12    0.23
 -18   6   9    0.79    0.34
 -17   7   9    0.38    0.26
 -17   7   9    0.53    0.29
 -16   8   9    0.49    0.32
 -16   8   9    0.41    0.27
 -15   9   9    3.44    0.46
 -15   9   9    3.40    0.54
 -14  10   9    0.43    0.25
 -14  10   9    0.07    0.29
 -13  11   9    1.72    0.41
 -13  11   9    1.67    0.38
 -12  12   9   12.75    0.94
 -12  12   9   12.21    0.86
 -11  13   9    1.89    0.41
 -11  13   9    2.69    0.50
 -10  14   9    0.21    0.24
 -10  14   9    0.27    0.27
  -9  15   9    0.19    0.29
  -9  15   9    0.55    0.34
  -8  16   9    2.33    0.51
  -8  16   9    2.47    0.46
  -7  17   9   -0.34    0.25
  -7  17   9    0.37    0.31
  -6  18   9    1.59    0.44
  -6  18   9    0.74    0.38
  -5  19   9    4.00    0.63
  -5  19   9    3.20    0.55
  -4  20   9   -0.17    0.31
  -3  21   9   -0.28    0.31
 -22   0   9    0.19    0.36
 -21   1   9    0.11    0.33
 -20   2   9   -0.02    0.29
 -18   4   9   -0.12    0.22
 -17   5   9    1.69    0.38
 -16   6   9    0.49    0.26
 -16   6   9    0.23    0.22
 -15   7   9    7.68    0.72
 -15   7   9    7.57    0.60
 -14   8   9    2.85    0.39
 -14   8   9    2.69    0.46
 -13   9   9    1.59    0.37
 -13   9   9    1.71    0.32
 -12  10   9   -0.15    0.20
 -12  10   9    0.21    0.27
 -11  11   9    6.33    0.63
 -11  11   9    5.80    0.64
 -10  12   9    4.61    0.52
 -10  12   9    5.09    0.61
  -9  13   9    0.02    0.23
  -9  13   9    0.14    0.25
  -8  14   9    7.00    0.66
  -8  14   9    5.71    0.66
  -7  15   9    0.13    0.26
  -7  15   9    0.51    0.31
  -6  16   9    0.28    0.29
  -6  16   9    0.18    0.29
  -5  17   9   -0.19    0.25
  -5  17   9   -0.11    0.26
  -4  18   9   -0.31    0.30
  -4  18   9    0.15    0.30
  -3  19   9    0.01    0.35
  -2  20   9    0.30    0.37
  -1  21   9    0.10    0.37
 -21  -1   9    0.35    0.35
 -20   0   9    1.93    0.49
  20   0  -9    1.03    0.41
  19  -1  -9   -0.12    0.24
  18  -2  -9    4.57    0.57
 -17   3   9    5.37    0.56
  17  -3  -9    6.21    0.58
 -16   4   9    0.62    0.27
  16  -4  -9    0.39    0.27
 -15   5   9    0.18    0.21
 -15   5   9    0.28    0.21
 -14   6   9    5.83    0.49
 -14   6   9    5.18    0.56
 -13   7   9    5.60    0.58
 -13   7   9    5.97    0.49
 -12   8   9    4.48    0.53
 -12   8   9    4.75    0.47
 -11   9   9    2.92    0.43
 -11   9   9    4.16    0.48
 -10  10   9    0.19    0.26
 -10  10   9    0.29    0.22
  -9  11   9    0.98    0.29
  -9  11   9    0.83    0.29
  -8  12   9    0.48    0.25
  -7  13   9   -0.03    0.22
  -7  13   9    0.03    0.25
  -6  14   9   -0.11    0.23
  -6  14   9   -0.17    0.22
  -5  15   9    0.74    0.31
  -5  15   9    0.69    0.30
  -4  16   9    0.48    0.29
  -4  16   9    0.44    0.33
  -3  17   9    3.88    0.52
  -3  17   9    2.79    0.51
  -2  18   9    0.33    0.30
  -1  19   9    3.55    0.61
   0  20   9   -0.20    0.33
  21   3  -9    0.53    0.36
  20   2  -9   -0.14    0.30
  19   1  -9   -0.25    0.26
  18   0  -9    0.08    0.25
 -17   1   9    0.80    0.28
  17  -1  -9    0.88    0.30
 -16   2   9    5.75    0.54
  16  -2  -9    4.86    0.54
 -15   3   9    9.05    0.63
  15  -3  -9    8.56    0.61
 -14   4   9   -0.06    0.19
 -14   4   9   -0.01    0.16
  14  -4  -9    0.16    0.18
 -13   5   9    0.19    0.17
 -13   5   9    0.18    0.20
  13  -5  -9    0.62    0.21
 -12   6   9    0.34    0.18
 -12   6   9    0.05    0.22
 -11   7   9    6.11    0.59
 -11   7   9    6.14    0.48
 -10   8   9    0.05    0.20
 -10   8   9   -0.19    0.17
  -9   9   9    1.71    0.32
  -9   9   9    1.47    0.32
  -8  10   9   -0.13    0.20
  -8  10   9    0.10    0.20
  -7  11   9    1.16    0.30
  -7  11   9    1.35    0.30
  -6  12   9    3.46    0.48
  -6  12   9    3.06    0.43
  -5  13   9    4.60    0.52
  -5  13   9    6.44    0.62
  -4  14   9    3.66    0.51
  -4  14   9    4.64    0.55
  -3  15   9    1.17    0.35
  -3  15   9    1.43    0.34
  -2  16   9    1.23    0.36
  -1  17   9    0.21    0.31
   0  18   9    3.88    0.61
   1  19   9    0.72    0.40
   2  20   9    0.22    0.35
  20   4  -9    1.81    0.49
  19   3  -9    0.60    0.35
  18   2  -9    4.13    0.58
  17   1  -9    0.86    0.32
 -16   0   9   -0.17    0.16
  16   0  -9   -0.09    0.21
 -15   1   9    0.04    0.19
  15  -1  -9    0.13    0.21
 -14   2   9   19.79    0.95
  14  -2  -9   19.35    1.00
 -13   3   9    7.08    0.55
 -13   3   9    7.45    0.46
  13  -3  -9    7.39    0.53
 -12   4   9    0.29    0.20
 -12   4   9    0.65    0.18
  12  -4  -9    0.52    0.18
 -11   5   9    0.85    0.20
 -11   5   9    1.03    0.26
  11  -5  -9    0.75    0.19
 -10   6   9   13.27    0.74
 -10   6   9   12.97    0.69
  10  -6  -9   13.14    0.68
  -9   7   9   10.36    0.61
  -9   7   9    8.88    0.62
  -8   8   9   27.57    1.15
  -8   8   9   26.17    1.21
  -7   9   9    0.49    0.25
  -7   9   9    0.58    0.22
  -6  10   9   -0.11    0.17
  -6  10   9    0.08    0.17
  -5  11   9    0.14    0.18
  -5  11   9   -0.20    0.16
  -4  12   9    2.23    0.37
  -4  12   9    2.50    0.38
  -3  13   9    4.07    0.48
  -3  13   9    4.37    0.51
  -2  14   9    3.11    0.47
  -2  14   9    3.50    0.48
  -1  15   9   -0.03    0.25
   0  16   9    0.60    0.33
   1  17   9    0.03    0.29
   2  18   9    2.12    0.52
   3  19   9    0.03    0.35
  20   6  -9    1.20    0.48
  19   5  -9    0.26    0.30
  18   4  -9    0.19    0.32
  17   3  -9    5.08    0.64
  16   2  -9    4.86    0.58
 -15  -1   9   -0.07    0.18
  15   1  -9    0.04    0.18
 -14   0   9   -0.01    0.16
  14   0  -9    0.05    0.19
 -13   1   9    9.51    0.59
  13  -1  -9   10.28    0.66
 -12   2   9   10.66    0.65
  12  -2  -9   11.31    0.67
 -11   3   9    9.50    0.60
 -11   3   9    9.60    0.49
  11  -3  -9    9.09    0.57
 -10   4   9    6.51    0.41
 -10   4   9    6.68    0.50
  10  -4  -9    6.58    0.45
  -9   5   9    2.32    0.33
  -9   5   9    2.67    0.31
   9  -5  -9    2.75    0.30
  -8   6   9    0.73    0.19
  -8   6   9    0.32    0.17
   8  -6  -9    0.28    0.15
  -7   7   9   22.79    1.03
  -7   7   9   21.92    0.94
  -6   8   9    1.43    0.25
  -6   8   9    1.48    0.29
  -5   9   9    1.11    0.26
  -5   9   9    0.52    0.19
  -4  10   9    1.50    0.27
  -4  10   9    1.54    0.31
  -3  11   9    4.00    0.46
  -3  11   9    3.12    0.39
  -2  12   9    0.90    0.27
  -2  12   9   -0.14    0.18
  -1  13   9    2.38    0.38
  -1  13   9    2.72    0.42
   0  14   9    0.21    0.25
   1  15   9    0.66    0.33
   2  16   9    0.03    0.29
   3  17   9    4.75    0.67
   4  18   9    0.63    0.41
  19   7  -9    4.83    0.73
  18   6  -9    0.68    0.35
  17   5  -9    1.53    0.44
  16   4  -9    0.35    0.30
 -14  -2   9   21.05    0.94
  14   2  -9   21.51    1.15
 -13  -1   9   11.06    0.61
  13   1  -9   10.60    0.71
 -12   0   9   16.75    0.80
  12   0  -9   16.53    0.90
 -11   1   9    5.94    0.46
  11  -1  -9    7.18    0.52
 -10   2   9   15.19    0.76
  10  -2  -9   15.63    0.81
  -9   3   9   12.61    0.68
  -9   3   9   12.56    0.60
   9  -3  -9   13.24    0.71
  -8   4   9    0.36    0.18
  -8   4   9    0.25    0.13
   8  -4  -9    0.40    0.17
  -7   5   9    0.60    0.19
  -7   5   9    0.64    0.15
   7  -5  -9    0.34    0.18
  -6   6   9   15.75    0.81
  -6   6   9   16.40    0.70
   6  -6  -9   16.61    0.81
  -5   7   9    7.99    0.46
  -5   7   9    6.48    0.50
   5  -7  -9    7.96    0.51
  -4   8   9   15.53    0.72
  -4   8   9   14.87    0.79
  -3   9   9    4.72    0.47
  -3   9   9    4.61    0.38
  -2  10   9    0.45    0.23
  -2  10   9    0.35    0.19
  -1  11   9    0.67    0.24
  -1  11   9    0.96    0.26
   0  12   9   15.53    0.83
   0  12   9   13.46    0.81
   1  13   9    0.67    0.28
   2  14   9    2.98    0.48
   3  15   9    0.78    0.34
   4  16   9    0.97    0.40
   5  17   9    0.15    0.33
  19   9  -9    0.05    0.31
  18   8  -9    2.42    0.58
  17   7  -9    0.85    0.36
  16   6  -9   -0.07    0.22
  15   5  -9    0.30    0.24
  14   4  -9    0.06    0.22
 -13  -3   9    6.85    0.46
  13   3  -9    7.26    0.64
 -12  -2   9   11.43    0.62
  12   2  -9   12.95    0.80
 -11  -1   9    6.17    0.44
  11   1  -9    6.35    0.52
 -10   0   9    2.56    0.31
  10   0  -9    2.09    0.35
  -9   1   9    5.55    0.43
   9  -1  -9    5.35    0.47
  -8   2   9    9.02    0.54
   8  -2  -9    9.11    0.61
  -7   3   9   11.95    0.65
  -7   3   9   11.91    0.47
   7  -3  -9   11.61    0.71
  -6   4   9    6.04    0.32
  -6   4   9    6.20    0.45
   6  -4  -9    6.28    0.50
  -5   5   9    7.72    0.39
  -5   5   9    7.69    0.50
   5  -5  -9    8.24    0.54
  -4   6   9    0.47    0.20
  -4   6   9    0.48    0.14
   4  -6  -9    0.43    0.19
  -3   7   9   28.41    1.15
  -3   7   9   28.50    1.06
   3  -7  -9   23.82    1.15
  -2   8   9    4.79    0.36
  -2   8   9    4.49    0.43
   2  -8  -9    4.06    0.43
  -1   9   9    3.94    0.40
  -1   9   9    4.71    0.44
   1  -9  -9    3.49    0.44
   0  10   9   13.15    0.73
   0  10   9   13.86    0.74
   1  11   9    6.23    0.53
   1  11   9    5.97    0.49
   2  12   9    1.15    0.31
   3  13   9    0.79    0.32
   4  14   9    0.19    0.27
   5  15   9    0.15    0.29
   6  16   9    0.10    0.30
  18  10  -9    0.79    0.38
  17   9  -9    0.53    0.33
  16   8  -9    0.55    0.34
  15   7  -9    5.69    0.70
  14   6  -9    5.32    0.66
  13   5  -9    0.16    0.26
 -12  -4   9    0.24    0.16
  12   4  -9    0.52    0.26
 -11  -3   9    9.05    0.51
  11   3  -9    9.28    0.69
 -10  -2   9   14.57    0.69
  10   2  -9   14.37    0.87
  -9  -1   9    4.68    0.38
   9   1  -9    4.63    0.51
  -8   0   9   16.31    0.75
   8   0  -9   14.72    0.89
  -7   1   9    8.06    0.49
   7  -1  -9    7.30    0.61
  -6   2   9   32.96    1.24
   6  -2  -9   28.97    1.37
  -5   3   9   41.63    1.32
  -5   3   9   41.33    1.50
   5  -3  -9   36.13    1.61
  -4   4   9    0.70    0.13
  -4   4   9    0.73    0.20
   4  -4  -9    1.11    0.26
  -3   5   9    5.68    0.34
  -3   5   9    5.54    0.44
   3  -5  -9    4.96    0.44
  -2   6   9    7.27    0.50
  -2   6   9    7.25    0.42
   2  -6  -9    6.49    0.51
  -1   7   9    4.40    0.35
  -1   7   9    4.06    0.40
   1  -7  -9    4.29    0.48
   0   8   9    0.23    0.17
   0   8   9    0.08    0.18
   0  -8  -9    0.26    0.24
   1   9   9    3.91    0.41
   1   9   9    3.89    0.42
  -1  -9  -9    3.95    0.51
   2  10   9    2.75    0.39
   2  10   9    3.23    0.40
  -2 -10  -9    3.02    0.48
   3  11   9    0.22    0.23
   4  12   9    1.63    0.37
   5  13   9    3.16    0.50
   6  14   9    0.19    0.26
   7  15   9    2.18    0.50
  17  11  -9    2.35    0.56
  16  10  -9    0.36    0.38
  15   9  -9    2.91    0.56
  14   8  -9    2.49    0.51
  13   7  -9    5.43    0.67
 -12  -6   9    0.11    0.15
  12   6  -9    0.39    0.26
 -11  -5   9    0.66    0.18
  11   5  -9    0.26    0.21
 -10  -4   9    6.27    0.41
  10   4  -9    5.93    0.56
  -9  -3   9   13.43    0.66
   9   3  -9   13.59    0.86
  -8  -2   9    7.66    0.47
   8   2  -9    7.10    0.63
  -7  -1   9    7.61    0.49
   7   1  -9    7.04    0.62
  -6   0   9   32.26    1.25
   6   0  -9   31.36    1.45
  -5   1   9    1.91    0.29
   5  -1  -9    2.03    0.33
  -4   2   9    4.74    0.38
  -4   2   9    4.28    0.22
   4  -2  -9    4.52    0.47
  -3   3   9    4.16    0.26
  -3   3   9    4.53    0.42
   3  -3  -9    4.87    0.43
  -2   4   9    1.27    0.23
  -2   4   9    1.16    0.17
   2  -4  -9    1.57    0.28
  -1   5   9    5.09    0.35
  -1   5   9    3.86    0.40
   1  -5  -9    4.94    0.50
   0   6   9    0.28    0.15
   0   6   9    0.08    0.17
   0  -6  -9    0.09    0.19
   1   7   9    6.77    0.50
   1   7   9    6.68    0.47
  -1  -7  -9    6.30    0.56
   2   8   9    3.65    0.40
   2   8   9    3.97    0.42
  -2  -8  -9    3.99    0.52
   3   9   9    2.12    0.33
   3   9   9    1.25    0.30
  -3  -9  -9    1.94    0.41
   4  10   9    7.45    0.61
  -4 -10  -9    6.76    0.74
   5  11   9   -0.23    0.21
   6  12   9    2.51    0.46
   7  13   9    1.08    0.37
  17  13  -9   -0.34    0.25
  16  12  -9    5.64    0.82
  15  11  -9   -0.34    0.30
  14  10  -9   -0.01    0.32
  13   9  -9    1.56    0.43
  12   8  -9    5.25    0.67
 -11  -7   9    5.57    0.40
  11   7  -9    6.45    0.70
 -10  -6   9   13.00    0.64
  10   6  -9   13.43    0.88
  -9  -5   9    2.95    0.31
   9   5  -9    2.52    0.43
  -8  -4   9    0.63    0.19
   8   4  -9    0.29    0.21
  -7  -3   9   11.80    0.62
   7   3  -9   11.68    0.83
  -6  -2   9   36.45    1.37
   6   2  -9   34.38    1.60
  -5  -1   9    1.69    0.26
   5   1  -9    2.05    0.36
  -4   0   9    1.78    0.27
   4   0  -9    2.24    0.36
  -3   1   9   20.38    0.91
   3  -1  -9   20.68    1.01
  -2   2   9   19.24    0.90
   2  -2  -9   21.99    1.02
  -1   3   9   14.79    0.76
   1  -3  -9   15.78    0.83
   0   4   9   15.40    0.78
   0   4   9   15.54    0.71
   0  -4  -9   17.56    0.89
   1   5   9    0.40    0.17
   1   5   9    0.12    0.16
  -1  -5  -9    0.44    0.26
   2   6   9   -0.14    0.17
   2   6   9    0.32    0.21
  -2  -6  -9    0.09    0.23
   3   7   9    2.67    0.36
   3   7   9    2.44    0.35
  -3  -7  -9    2.74    0.46
   4   8   9    3.35    0.43
  -4  -8  -9    3.62    0.54
  -5  -9  -9   10.37    0.88
  -6 -10  -9   -0.10    0.31
  16  14  -9    0.10    0.36
  15  13  -9    1.04    0.45
  14  12  -9    0.20    0.30
  13  11  -9    2.86    0.55
  12  10  -9   -0.17    0.21
  11   9  -9    3.79    0.57
  10   8  -9   -0.07    0.19
  -9  -7   9    8.68    0.52
   9   7  -9   10.73    0.80
  -8  -6   9    0.41    0.18
   8   6  -9    0.21    0.26
  -7  -5   9    0.71    0.20
   7   5  -9    0.63    0.31
  -6  -4   9    5.45    0.43
   6   4  -9    6.26    0.57
  -5  -3   9   45.00    1.66
   5   3  -9   44.86    1.89
  -4  -2   9    4.73    0.43
   4   2  -9    4.91    0.46
  -3  -1   9   20.27    0.92
   3   1  -9   20.58    1.01
  -2   0   9    0.55    0.20
   2   0  -9    0.39    0.20
  -1   1   9    0.26    0.19
   1  -1  -9   -0.20    0.17
   0   2   9    2.23    0.31
   0  -2  -9    2.35    0.35
   1   3   9    5.96    0.46
  -1  -3  -9    5.84    0.54
   2   4   9   11.45    0.66
  -2  -4  -9   10.94    0.77
  -3  -5  -9    8.78    0.70
  -4  -6  -9    0.10    0.26
  -5  -7  -9    2.77    0.50
  -6  -8  -9   -0.16    0.29
  -7  -9  -9    0.29    0.30
  -8 -10  -9   -0.24    0.33
  -9 -11  -9   -0.36    0.39
  15  15  -9    0.53    0.40
  13  13  -9    0.24    0.30
  12  12  -9   12.45    0.94
  11  11  -9    7.00    0.78
  10  10  -9    0.22    0.26
   9   9  -9    1.45    0.37
   8   8  -9   28.73    1.45
   7   7  -9   25.51    1.33
   6   6  -9   17.11    1.03
  -5  -5   9    9.23    0.53
   5   5  -9    7.68    0.63
  -4  -4   9    0.86    0.22
   4   4  -9    0.78    0.26
  -3  -3   9    3.67    0.38
   3   3  -9    4.80    0.49
  -2  -2   9   22.01    0.96
   2   2  -9   19.46    1.02
  -1  -1   9    0.12    0.19
   1   1  -9    0.12    0.20
   0   0   9    1.91    0.31
   0   0  -9    1.55    0.29
  -1  -1  -9    7.50    0.57
  -2  -2  -9   47.34    1.97
  -3  -3  -9    1.79    0.36
  -4  -4  -9    0.18    0.26
  -5  -5  -9    0.88    0.35
  -6  -6  -9    1.67    0.43
  -7  -7  -9   -0.09    0.33
  -8  -8  -9    5.06    0.73
  -9  -9  -9    0.32    0.43
  14  16  -9    2.33    0.54
  13  15  -9    0.25    0.35
  12  14  -9    1.99    0.49
  11  13  -9    2.36    0.48
  10  12  -9    4.49    0.60
   9  11  -9    0.90    0.33
   8  10  -9   -0.19    0.19
   7   9  -9    0.49    0.27
   6   8  -9    1.31    0.37
   5   7  -9    7.31    0.62
   4   6  -9    0.52    0.25
   3   5  -9    6.08    0.52
   2   4  -9    1.58    0.32
   1   3  -9   16.46    0.88
   1   3  -9   15.59    0.64
   0   2  -9    2.29    0.34
  -1   1  -9    7.30    0.58
  -2   0  -9    0.90    0.29
  -3  -1  -9    4.28    0.54
  -4  -2  -9    2.47    0.42
  -5  -3  -9    5.24    0.63
  -6  -4  -9    0.12    0.29
  -7  -5  -9    5.71    0.73
  -8  -6  -9    2.29    0.54
  -9  -7  -9    1.46    0.47
  13  17  -9    4.44    0.68
  12  16  -9   -0.21    0.23
  11  15  -9    0.06    0.29
  10  14  -9    0.10    0.27
   9  13  -9   -0.16    0.19
   8  12  -9    0.17    0.22
   7  11  -9    1.62    0.39
   6  10  -9   -0.15    0.20
   5   9  -9    1.57    0.39
   4   8  -9   16.93    1.00
   3   7  -9   32.47    1.49
   2   6  -9    6.26    0.53
   1   5  -9    4.15    0.31
   1   5  -9    4.58    0.50
   0   4  -9   15.69    0.68
   0   4  -9   15.33    0.87
  -1   3  -9    4.56    0.50
  -2   2  -9   42.58    1.81
  -3   1  -9    3.62    0.48
  -4   0  -9    1.99    0.40
  -5  -1  -9    3.04    0.47
  -6  -2  -9    9.11    0.75
  -7  -3  -9   -0.06    0.32
  -8  -4  -9    2.48    0.53
  -9  -5  -9    1.53    0.50
 -10  -6  -9    2.22    0.59
  12  18  -9    0.56    0.34
  11  17  -9    0.56    0.33
  10  16  -9   -0.03    0.27
   9  15  -9    0.43    0.31
   8  14  -9    6.64    0.74
   7  13  -9    0.21    0.28
   6  12  -9    3.31    0.53
   5  11  -9   -0.02    0.25
   4  10  -9    1.27    0.34
   3   9  -9    4.81    0.55
   2   8  -9    4.33    0.53
   1   7  -9    4.59    0.51
   0   6  -9   -0.11    0.17
   0   6  -9    0.16    0.14
  -1   5  -9    0.28    0.16
  -1   5  -9    0.26    0.23
  -2   4  -9   10.38    0.74
  -2   4  -9   11.78    0.61
  -3   3  -9    1.52    0.34
  -4   2  -9    2.60    0.46
  -5   1  -9    3.47    0.51
  -6   0  -9   16.73    1.06
  -7  -1  -9    0.03    0.26
  -8  -2  -9   -0.43    0.27
  -9  -3  -9   -0.10    0.34
 -10  -4  -9    0.51    0.41
  11  19  -9    1.64    0.47
  10  18  -9    0.94    0.37
   9  17  -9    3.74    0.59
   8  16  -9    2.44    0.48
   7  15  -9    0.11    0.28
   6  14  -9   -0.25    0.19
   5  13  -9    4.86    0.63
   4  12  -9    2.39    0.44
   3  11  -9    4.20    0.57
   2  10  -9    0.31    0.24
   1   9  -9    4.27    0.53
   0   8  -9    0.14    0.20
  -1   7  -9    5.98    0.56
  -1   7  -9    6.77    0.46
  -2   6  -9    0.15    0.25
  -2   6  -9    0.23    0.19
  -3   5  -9    8.24    0.66
  -3   5  -9    8.50    0.57
  -4   4  -9    0.11    0.24
  -5   3  -9    4.34    0.56
  -6   2  -9   10.03    0.79
  -7   1  -9    0.04    0.25
  -8   0  -9    4.43    0.66
  -9  -1  -9   -0.19    0.33
 -10  -2  -9    0.39    0.41
  10  20  -9   -0.03    0.31
   9  19  -9    0.61    0.37
   8  18  -9   -0.12    0.26
   7  17  -9    0.58    0.33
   6  16  -9    0.09    0.27
   5  15  -9    0.75    0.31
   4  14  -9    4.27    0.64
   3  13  -9    3.90    0.58
   2  12  -9    0.50    0.28
   1  11  -9    0.54    0.27
   0  10  -9   14.51    0.92
  -1   9  -9    4.42    0.54
  -1   9  -9    4.90    0.46
  -2   8  -9    4.74    0.45
  -2   8  -9    4.60    0.57
  -3   7  -9    2.46    0.36
  -3   7  -9    3.19    0.47
  -4   6  -9   -0.03    0.18
  -4   6  -9    0.14    0.24
  -5   5  -9    1.03    0.28
  -5   5  -9    1.32    0.39
  -6   4  -9    0.43    0.29
  -7   3  -9    0.07    0.32
  -8   2  -9   -0.41    0.30
  -9   1  -9    0.01    0.29
 -10   0  -9    8.88    0.96
   8  20  -9   -0.05    0.28
   7  19  -9    0.56    0.35
   6  18  -9    1.11    0.40
   5  17  -9    0.17    0.30
   4  16  -9    0.52    0.33
   3  15  -9    1.71    0.44
   2  14  -9    2.30    0.49
   1  13  -9    2.40    0.47
   0  12  -9   14.28    0.93
  -1  11  -9    5.25    0.62
  -2  10  -9    2.91    0.48
  -2  10  -9    3.40    0.43
  -3   9  -9    1.20    0.35
  -3   9  -9    2.32    0.37
  -4   8  -9    3.30    0.51
  -4   8  -9    3.98    0.46
  -5   7  -9    2.05    0.43
  -5   7  -9    2.02    0.37
  -6   6  -9    1.42    0.35
  -6   6  -9    1.76    0.45
  -7   5  -9    6.56    0.79
  -7   5  -9    6.36    0.63
  -8   4  -9    2.39    0.54
  -9   3  -9    0.32    0.34
 -10   2  -9   -0.03    0.40
   4  18  -9    0.01    0.32
   3  17  -9    3.98    0.62
   2  16  -9    0.41    0.32
   1  15  -9    0.25    0.31
   0  14  -9    0.13    0.28
  -1  13  -9    0.54    0.33
  -3  11  -9   -0.17    0.28
  -4  10  -9    6.79    0.77
  -4  10  -9    8.27    0.67
  -5   9  -9   13.42    0.83
  -5   9  -9   12.20    0.92
  -6   8  -9    0.36    0.35
  -6   8  -9    0.93    0.34
  -7   7  -9    0.52    0.39
  -7   7  -9    0.58    0.29
  -8   6  -9    2.85    0.59
  -8   6  -9    2.68    0.46
  -9   5  -9    1.48    0.41
  -9   5  -9    2.02    0.52
 -10   4  -9    0.59    0.46
   2  18  -9    0.15    0.34
   1  17  -9    0.52    0.37
   0  16  -9    0.47    0.35
  -1  15  -9    0.63    0.35
  -2  14  -9    3.14    0.55
  -3  13  -9    1.45    0.40
  -4  12  -9    1.40    0.43
  -5  11  -9   -0.09    0.30
  -5  11  -9    0.01    0.29
  -6  10  -9    0.27    0.30
  -6  10  -9    0.23    0.33
  -7   9  -9    0.42    0.36
  -7   9  -9    0.46    0.32
  -8   8  -9    7.00    0.73
  -8   8  -9   10.58    0.94
  -9   7  -9    1.55    0.50
  -9   7  -9    1.97    0.43
 -10   6  -9    2.02    0.49
 -11   5  -9    1.12    0.40
 -12   4  -9   -0.36    0.38
  -1  17  -9   -0.01    0.33
  -2  16  -9    0.16    0.32
  -3  15  -9    1.33    0.41
  -4  14  -9   -0.12    0.29
  -5  13  -9    4.00    0.63
  -6  12  -9    3.30    0.60
  -7  11  -9    1.00    0.39
  -7  11  -9    0.53    0.39
  -8  10  -9   -0.09    0.29
  -8  10  -9    0.20    0.38
  -9   9  -9    0.44    0.42
  -9   9  -9    0.94    0.38
 -10   8  -9    0.48    0.36
 -11   7  -9   -0.07    0.33
  -4  16  -9    1.25    0.44
  -5  15  -9    0.19    0.33
  -6  14  -9   -0.10    0.32
  -7  13  -9    0.63    0.43
  -8  12  -9    0.17    0.36
  -9  11  -9    0.21    0.36
 -10  10  -9    1.41    0.45
 -19  13  10   -0.50    0.28
 -18  14  10    2.11    0.58
 -17  15  10    3.92    0.75
 -16  16  10    0.69    0.46
 -15  17  10    0.02    0.37
 -14  18  10    0.76    0.45
 -14  18  10    1.16    0.46
 -13  19  10   -0.29    0.32
 -13  19  10    0.93    0.47
 -21   9  10    1.31    0.44
 -20  10  10    5.54    0.77
 -19  11  10    3.27    0.59
 -18  12  10   -0.22    0.24
 -17  13  10    1.21    0.46
 -16  14  10    1.30    0.47
 -15  15  10    0.97    0.44
 -14  16  10    4.82    0.76
 -14  16  10    4.69    0.65
 -13  17  10    0.50    0.37
 -13  17  10    0.74    0.43
 -12  18  10    1.42    0.50
 -12  18  10    0.01    0.36
 -11  19  10   -0.16    0.36
 -11  19  10    0.25    0.34
 -10  20  10    0.90    0.42
 -10  20  10    0.22    0.37
  -9  21  10    0.61    0.38
 -21   7  10   -0.06    0.27
 -20   8  10    1.73    0.47
 -19   9  10    3.69    0.60
 -18  10  10   -0.23    0.23
 -17  11  10    4.62    0.69
 -16  12  10    0.72    0.38
 -15  13  10    1.82    0.50
 -14  14  10    0.87    0.39
 -14  14  10   -0.08    0.32
 -13  15  10   -0.02    0.31
 -13  15  10   -0.32    0.23
 -12  16  10    1.76    0.52
 -12  16  10    1.72    0.45
 -11  17  10    0.20    0.36
 -11  17  10    0.07    0.30
 -10  18  10   -0.05    0.29
 -10  18  10    0.13    0.32
  -9  19  10    4.96    0.68
  -9  19  10    4.17    0.66
  -8  20  10    1.48    0.47
  -8  20  10    1.78    0.50
  -7  21  10    1.63    0.49
  -7  21  10    2.57    0.56
 -20   6  10    2.14    0.47
 -19   7  10    0.53    0.33
 -18   8  10    1.05    0.38
 -17   9  10    2.77    0.52
 -16  10  10    0.31    0.28
 -15  11  10    1.62    0.47
 -14  12  10    1.39    0.46
 -13  13  10    0.53    0.37
 -13  13  10    0.83    0.36
 -12  14  10    6.55    0.84
 -12  14  10    9.12    0.78
 -11  15  10    5.71    0.74
 -11  15  10    6.05    0.67
 -10  16  10    1.72    0.43
 -10  16  10    1.87    0.50
  -9  17  10    0.06    0.32
  -9  17  10    0.43    0.32
  -8  18  10    0.17    0.32
  -8  18  10    0.06    0.29
  -7  19  10    0.40    0.36
  -7  19  10    0.24    0.34
  -6  20  10    1.08    0.46
  -6  20  10    1.18    0.43
  -5  21  10    0.75    0.42
 -19   5  10    0.84    0.34
 -18   6  10    2.29    0.47
 -17   7  10    0.69    0.35
 -16   8  10   -0.11    0.26
 -15   9  10   11.00    0.88
 -14  10  10   16.62    1.07
 -13  11  10    1.16    0.37
 -13  11  10    1.29    0.43
 -12  12  10    1.91    0.41
 -12  12  10    2.43    0.48
 -11  13  10   -0.17    0.23
 -11  13  10    0.30    0.27
 -10  14  10    0.80    0.33
 -10  14  10   -0.12    0.29
  -9  15  10    2.69    0.52
  -9  15  10    2.95    0.48
  -8  16  10    0.69    0.34
  -8  16  10    0.50    0.35
  -7  17  10    0.01    0.29
  -7  17  10   -0.26    0.24
  -6  18  10   -0.22    0.28
  -6  18  10   -0.32    0.28
  -5  19  10    0.13    0.33
  -4  20  10    3.41    0.62
  -3  21  10    0.01    0.33
 -22   0  10    1.53    0.50
 -21   1  10    1.09    0.38
 -18   4  10    2.77    0.46
 -17   5  10   22.09    1.16
 -16   6  10    1.27    0.36
 -15   7  10    1.14    0.36
 -14   8  10   -0.11    0.23
 -13   9  10    2.07    0.41
 -12  10  10    6.00    0.61
 -12  10  10    6.76    0.71
 -11  11  10    4.92    0.61
 -11  11  10    5.74    0.58
 -10  12  10    0.91    0.31
 -10  12  10    1.56    0.40
  -9  13  10    0.37    0.30
  -9  13  10    0.85    0.31
  -8  14  10   -0.23    0.20
  -8  14  10   -0.16    0.24
  -7  15  10    6.09    0.66
  -7  15  10    6.52    0.73
  -6  16  10    0.98    0.35
  -6  16  10    2.00    0.44
  -5  17  10   -0.06    0.29
  -5  17  10    0.32    0.30
  -4  18  10    0.10    0.31
  -3  19  10    3.92    0.64
  -2  20  10   -0.02    0.36
  21   1 -10    0.59    0.38
  20   0 -10   14.11    1.02
  19  -1 -10    3.54    0.55
 -18   2  10    0.18    0.26
  18  -2 -10    0.19    0.25
 -17   3  10    0.71    0.30
  17  -3 -10    0.46    0.31
 -16   4  10    5.51    0.57
 -15   5  10    2.99    0.44
 -14   6  10    4.37    0.53
 -13   7  10    1.65    0.35
 -12   8  10    0.93    0.32
 -11   9  10    1.43    0.32
 -11   9  10    1.64    0.37
 -10  10  10    5.54    0.54
 -10  10  10    4.99    0.57
  -9  11  10    4.71    0.58
  -9  11  10    5.02    0.53
  -8  12  10    0.06    0.22
  -8  12  10   -0.10    0.21
  -7  13  10    0.05    0.21
  -7  13  10   -0.13    0.20
  -6  14  10   17.13    0.99
  -6  14  10   18.07    1.05
  -5  15  10    2.13    0.43
  -5  15  10    2.03    0.44
  -4  16  10    1.90    0.44
  -4  16  10    1.76    0.42
  -3  17  10    1.96    0.45
  -2  18  10    0.03    0.33
  -1  19  10   -0.12    0.33
   0  20  10   -0.19    0.32
  21   3 -10    0.84    0.44
  20   2 -10    0.23    0.34
  19   1 -10    3.79    0.59
  18   0 -10    0.17    0.27
 -17   1  10    4.71    0.50
  17  -1 -10    4.90    0.57
 -16   2  10    2.71    0.41
  16  -2 -10    3.12    0.46
 -15   3  10    0.64    0.28
  15  -3 -10    1.39    0.30
 -14   4  10    9.56    0.67
  14  -4 -10    9.48    0.62
 -13   5  10    3.40    0.45
 -12   6  10    3.33    0.44
 -11   7  10    0.10    0.21
 -10   8  10   -0.32    0.20
  -9   9  10   21.82    1.03
  -9   9  10   23.58    1.15
  -8  10  10   10.43    0.67
  -8  10  10   11.22    0.78
  -7  11  10    0.83    0.26
  -7  11  10   -0.20    0.20
  -6  12  10   10.23    0.73
  -6  12  10    8.65    0.64
  -5  13  10    0.62    0.29
  -5  13  10    0.22    0.23
  -4  14  10    0.14    0.23
  -4  14  10    0.14    0.24
  -3  15  10    1.21    0.37
  -3  15  10    1.04    0.33
  -2  16  10   -0.04    0.27
  -1  17  10    0.19    0.30
   0  18  10    0.57    0.36
   1  19  10    1.17    0.46
  20   4 -10    1.84    0.51
  19   3 -10   -0.06    0.29
  18   2 -10    0.53    0.32
  17   1 -10    5.38    0.63
 -16   0  10    0.31    0.22
  16   0 -10    0.23    0.25
 -15   1  10    7.70    0.57
  15  -1 -10    6.91    0.62
 -14   2  10   -0.15    0.17
  14  -2 -10    0.15    0.20
 -13   3  10    0.18    0.18
  13  -3 -10    0.20    0.19
 -12   4  10   29.81    1.30
  12  -4 -10   29.95    1.28
 -11   5  10   18.36    0.93
  11  -5 -10   17.78    0.86
 -10   6  10    0.82    0.25
  -9   7  10    9.47    0.65
  -8   8  10    0.39    0.20
  -8   8  10    0.49    0.24
  -7   9  10    3.06    0.43
  -7   9  10    2.88    0.35
  -6  10  10    0.80    0.28
  -6  10  10    0.95    0.25
  -5  11  10    0.76    0.28
  -5  11  10    0.82    0.26
  -4  12  10    0.23    0.23
  -4  12  10    0.13    0.20
  -3  13  10    0.60    0.27
  -3  13  10    0.59    0.26
  -2  14  10    1.96    0.39
  -2  14  10    1.55    0.34
  -1  15  10    4.64    0.57
   0  16  10    1.31    0.40
   1  17  10    3.59    0.58
   2  18  10   -0.21    0.31
  20   6 -10    1.02    0.45
  19   5 -10    1.47    0.45
  18   4 -10    3.07    0.56
  17   3 -10    0.40    0.27
  16   2 -10    2.55    0.46
 -15  -1  10    6.92    0.53
  15   1 -10    6.70    0.62
 -14   0  10   22.97    1.03
  14   0 -10   21.98    1.15
 -13   1  10    0.13    0.17
  13  -1 -10    0.31    0.21
 -12   2  10    5.36    0.51
  12  -2 -10    7.09    0.53
 -11   3  10    0.35    0.20
  11  -3 -10    0.31    0.18
 -10   4  10    2.77    0.36
  10  -4 -10    3.18    0.37
  -9   5  10    6.41    0.50
   9  -5 -10    6.55    0.48
  -8   6  10    5.08    0.50
   8  -6 -10    5.04    0.42
  -7   7  10    0.18    0.15
  -7   7  10    0.05    0.19
  -6   8  10   11.79    0.62
  -6   8  10   11.57    0.70
  -5   9  10    0.25    0.20
  -5   9  10    0.29    0.17
  -4  10  10   17.75    0.86
  -4  10  10   17.62    0.94
  -3  11  10    2.68    0.36
  -3  11  10    1.95    0.35
  -2  12  10    4.48    0.48
  -2  12  10    4.12    0.49
  -1  13  10    0.05    0.22
  -1  13  10    0.13    0.22
   0  14  10    3.27    0.49
   1  15  10    0.05    0.28
   2  16  10    6.28    0.71
   3  17  10   -0.25    0.31
  19   7 -10    0.41    0.34
  18   6 -10    1.93    0.50
  17   5 -10   23.92    1.41
  16   4 -10    6.02    0.72
  15   3 -10    0.77    0.32
 -14  -2  10    0.10    0.17
  14   2 -10   -0.13    0.22
 -13  -1  10   -0.05    0.16
  13   1 -10   -0.01    0.20
 -12   0  10   12.80    0.70
  12   0 -10   11.67    0.75
 -11   1  10    6.96    0.49
  11  -1 -10    6.23    0.54
 -10   2  10    0.01    0.17
  10  -2 -10    0.09    0.20
  -9   3  10    8.60    0.58
   9  -3 -10    8.78    0.60
  -8   4  10    1.36    0.26
   8  -4 -10    0.66    0.24
  -7   5  10   21.51    1.03
   7  -5 -10   25.15    1.14
  -6   6  10   25.90    1.18
   6  -6 -10   29.00    1.25
  -5   7  10    4.56    0.48
  -5   7  10    4.35    0.36
   5  -7 -10    5.45    0.44
  -4   8  10    0.17    0.15
  -4   8  10    0.16    0.19
  -3   9  10    6.98    0.54
  -3   9  10    6.11    0.44
  -2  10  10    1.37    0.31
  -2  10  10    1.03    0.26
  -1  11  10   12.66    0.73
  -1  11  10   11.91    0.76
   0  12  10    1.79    0.34
   0  12  10    1.77    0.35
   1  13  10    0.45    0.28
   2  14  10   -0.08    0.25
   3  15  10    0.21    0.31
   4  16  10   -0.06    0.31
  18   8 -10    0.91    0.42
  17   7 -10    0.51    0.38
  16   6 -10    0.73    0.36
  15   5 -10    2.96    0.51
 -14  -4  10    8.86    0.56
  14   4 -10   10.63    0.79
 -13  -3  10   -0.10    0.16
  13   3 -10   -0.02    0.25
 -12  -2  10    5.84    0.44
  12   2 -10    5.77    0.62
 -11  -1  10    5.63    0.44
  11   1 -10    6.25    0.57
 -10   0  10    9.63    0.58
  10   0 -10    9.34    0.67
  -9   1  10   27.42    1.15
   9  -1 -10   27.56    1.31
  -8   2  10    3.96    0.39
   8  -2 -10    3.35    0.47
  -7   3  10    2.62    0.33
   7  -3 -10    3.39    0.44
  -6   4  10    9.67    0.59
   6  -4 -10    9.03    0.64
  -5   5  10   11.16    0.64
   5  -5 -10   11.66    0.71
  -4   6  10   14.17    0.63
  -4   6  10   14.45    0.76
   4  -6 -10   13.13    0.77
  -3   7  10    9.70    0.51
  -3   7  10    9.93    0.61
   3  -7 -10    8.19    0.61
  -2   8  10    1.33    0.24
  -2   8  10    0.77    0.25
   2  -8 -10    1.09    0.28
  -1   9  10    0.28    0.21
  -1   9  10    0.02    0.17
   0  10  10    5.15    0.51
   0  10  10    3.93    0.44
   1  11  10   -0.05    0.19
   1  11  10    0.28    0.24
   2  12  10    2.20    0.40
   3  13  10    1.07    0.34
   4  14  10    0.58    0.33
   5  15  10    3.05    0.55
  18  10 -10    0.05    0.34
  17   9 -10    2.16    0.57
  16   8 -10   -0.09    0.27
  15   7 -10    0.47    0.32
  14   6 -10    3.77    0.57
 -13  -5  10    2.97    0.32
  13   5 -10    2.79    0.51
 -12  -4  10   30.26    1.18
  12   4 -10   28.15    1.45
 -11  -3  10    0.22    0.18
  11   3 -10    0.22    0.21
 -10  -2  10    0.35    0.18
  10   2 -10    0.15    0.23
  -9  -1  10   27.83    1.14
   9   1 -10   26.43    1.35
  -8   0  10   37.14    1.40
   8   0 -10   33.50    1.61
  -7   1  10    1.30    0.25
   7  -1 -10    1.21    0.32
  -6   2  10   10.48    0.59
   6  -2 -10    9.08    0.67
  -5   3  10    2.33    0.32
   5  -3 -10    2.76    0.39
  -4   4  10   -0.06    0.14
   4  -4 -10   -0.09    0.15
  -3   5  10   12.25    0.70
  -3   5  10   13.27    0.59
   3  -5 -10   13.72    0.79
  -2   6  10   -0.06    0.17
  -2   6  10    0.14    0.14
   2  -6 -10    0.31    0.22
  -1   7  10    2.51    0.35
  -1   7  10    2.83    0.31
   1  -7 -10    2.77    0.41
   0   8  10    0.48    0.21
   0   8  10    0.05    0.17
   0  -8 -10    0.45    0.24
   1   9  10    0.05    0.18
   1   9  10   -0.04    0.20
  -1  -9 -10    0.19    0.24
   2  10  10   11.46    0.73
   3  11  10    0.06    0.24
   4  12  10    3.23    0.48
   5  13  10    0.18    0.29
   6  14  10    2.81    0.52
  17  11 -10    4.10    0.71
  16  10 -10    0.11    0.33
  15   9 -10    8.72    0.94
  14   8 -10    0.07    0.26
  13   7 -10    1.39    0.41
 -12  -6  10    3.53    0.35
  12   6 -10    3.16    0.52
 -11  -5  10   17.58    0.79
  11   5 -10   16.47    1.04
 -10  -4  10    3.10    0.33
  10   4 -10    2.63    0.47
  -9  -3  10    8.26    0.51
   9   3 -10    6.62    0.71
  -8  -2  10    3.28    0.36
   8   2 -10    2.44    0.45
  -7  -1  10    1.52    0.28
   7   1 -10    1.68    0.39
  -6   0  10    5.16    0.42
   6   0 -10    4.56    0.55
  -5   1  10    0.32    0.20
   5  -1 -10    0.27    0.19
  -4   2  10    2.38    0.31
   4  -2 -10    2.31    0.37
  -3   3  10    9.60    0.60
   3  -3 -10   10.30    0.68
  -2   4  10    2.85    0.27
  -2   4  10    2.45    0.33
   2  -4 -10    3.48    0.43
  -1   5  10   12.82    0.63
  -1   5  10   13.43    0.73
   1  -5 -10   13.45    0.81
   0   6  10    0.29    0.20
   0   6  10    0.12    0.16
   0  -6 -10    0.14    0.23
   1   7  10    3.39    0.39
   1   7  10    3.78    0.44
  -1  -7 -10    3.97    0.53
   2   8  10    1.39    0.31
   2   8  10    1.01    0.26
  -2  -8 -10    0.54    0.32
   3   9  10    6.67    0.56
  -3  -9 -10    5.45    0.69
   4  10  10    0.40    0.26
  16  12 -10    1.14    0.47
  15  11 -10    2.17    0.55
  14  10 -10   18.66    1.25
  13   9 -10    1.67    0.46
  12   8 -10    1.17    0.36
 -11  -7  10    0.01    0.17
  11   7 -10    0.15    0.23
 -10  -6  10    0.94    0.24
  10   6 -10    0.77    0.34
  -9  -5  10    6.53    0.46
   9   5 -10    6.67    0.73
  -8  -4  10    0.63    0.22
   8   4 -10    0.79    0.32
  -7  -3  10    2.46    0.32
   7   3 -10    2.84    0.49
  -6  -2  10    9.77    0.61
   6   2 -10    9.60    0.73
  -5  -1  10    0.54    0.20
   5   1 -10    0.18    0.21
  -4   0  10   46.82    1.77
   4   0 -10   48.12    1.96
  -3   1  10   11.64    0.68
   3  -1 -10   12.35    0.75
  -2   2  10    1.09    0.27
   2  -2 -10    1.16    0.30
  -1   3  10    0.18    0.17
   1  -3 -10    0.07    0.18
   0   4  10   16.68    0.87
   0  -4 -10   19.56    1.01
   1   5  10   -0.13    0.14
  -1  -5 -10   -0.10    0.21
   2   6  10    3.82    0.44
  -2  -6 -10    3.64    0.52
   3   7  10    4.97    0.51
  -3  -7 -10    4.21    0.59
  -4  -8 -10   -0.31    0.28
  -5  -9 -10    0.87    0.42
  -6 -10 -10    0.06    0.39
  16  14 -10    0.70    0.39
  15  13 -10    2.54    0.57
  14  12 -10    0.56    0.40
  13  11 -10    2.10    0.50
  12  10 -10    6.46    0.77
  11   9 -10    1.43    0.43
  10   8 -10    0.22    0.25
  -9  -7  10   10.38    0.59
   9   7 -10   11.42    0.84
  -8  -6  10    5.65    0.45
   8   6 -10    6.37    0.73
  -7  -5  10   22.83    1.03
   7   5 -10   24.25    1.30
  -6  -4  10   10.29    0.63
   6   4 -10   10.54    0.78
  -5  -3  10    2.84    0.35
   5   3 -10    3.54    0.48
  -4  -2  10    2.12    0.34
   4   2 -10    3.41    0.46
  -3  -1  10   12.25    0.70
   3   1 -10   13.25    0.79
  -2   0  10    0.83    0.27
   2   0 -10    0.88    0.26
  -1   1  10   15.16    0.81
   1  -1 -10   15.16    0.87
   0   2  10   17.20    0.86
   0  -2 -10   16.62    0.95
   1   3  10    7.87    0.59
  -1  -3 -10    8.20    0.66
  -2  -4 -10   10.01    0.73
  -3  -5 -10    0.45    0.26
  -4  -6 -10   -0.14    0.27
  -5  -7 -10    0.77    0.38
  -6  -8 -10    4.61    0.69
  -7  -9 -10    1.02    0.44
  -8 -10 -10    0.08    0.40
  15  15 -10    0.39    0.37
  14  14 -10    1.17    0.46
  13  13 -10    0.92    0.42
  12  12 -10    1.72    0.48
  11  11 -10    4.98    0.69
  10  10 -10    4.73    0.66
   9   9 -10   23.91    1.34
   8   8 -10    0.24    0.28
   7   7 -10   -0.32    0.27
   6   6 -10   26.96    1.39
   5   5 -10   13.46    0.88
  -4  -4  10    0.13    0.17
   4   4 -10   -0.14    0.15
  -3  -3  10   11.05    0.67
   3   3 -10   10.06    0.71
  -2  -2  10    1.18    0.28
   2   2 -10    1.28    0.30
  -1  -1  10   15.30    0.79
   1   1 -10   14.71    0.86
   0   0 -10    4.51    0.51
  -1  -1 -10    0.51    0.24
  -2  -2 -10    0.81    0.31
  -3  -3 -10    7.33    0.74
  -4  -4 -10    2.25    0.47
  -5  -5 -10    6.70    0.75
  -6  -6 -10   -0.09    0.26
  -7  -7 -10    3.49    0.64
  -8  -8 -10    0.14    0.36
  14  16 -10    4.02    0.65
  13  15 -10    0.00    0.34
  12  14 -10    7.18    0.83
  11  13 -10    0.30    0.32
  10  12 -10    1.05    0.40
   9  11 -10    5.58    0.69
   8  10 -10   11.06    0.85
   7   9 -10    2.87    0.53
   6   8 -10   13.09    0.94
   5   7 -10    4.19    0.56
   4   6 -10   16.15    0.96
   3   5 -10   14.71    0.89
   2   4 -10    3.10    0.43
   1   3 -10    0.11    0.21
   0   2 -10   16.21    0.92
  -1   1 -10    0.57    0.25
  -2   0 -10    1.10    0.33
  -3  -1 -10    0.24    0.28
  -4  -2 -10    9.45    0.79
  -5  -3 -10    1.78    0.44
  -6  -4 -10   -0.16    0.27
  -7  -5 -10    0.38    0.38
  -8  -6 -10    4.20    0.68
  13  17 -10    0.07    0.34
  12  16 -10    2.80    0.57
  11  15 -10    5.76    0.74
  10  14 -10    0.53    0.33
   9  13 -10    0.11    0.26
   8  12 -10   -0.10    0.22
   7  11 -10    0.56    0.31
   6  10 -10    0.60    0.35
   5   9 -10   -0.06    0.23
   4   8 -10    0.05    0.24
   3   7 -10   10.54    0.76
   2   6 -10    0.06    0.19
   1   5 -10   13.47    0.85
   0   4 -10   18.79    1.04
  -1   3 -10    6.78    0.62
  -2   2 -10    0.61    0.27
  -3   1 -10   -0.22    0.23
  -4   0 -10    0.22    0.25
  -5  -1 -10    2.63    0.51
  -6  -2 -10    0.39    0.32
  -7  -3 -10   -0.09    0.33
  -8  -4 -10    0.17    0.32
  -9  -5 -10    0.01    0.35
  12  18 -10    0.53    0.38
  11  17 -10    0.08    0.30
  10  16 -10    1.80    0.46
   9  15 -10    2.97    0.55
   8  14 -10   -0.37    0.19
   7  13 -10    0.26    0.29
   6  12 -10   10.74    0.85
   5  11 -10    0.11    0.33
   4  10 -10   19.20    1.15
   3   9 -10    7.61    0.66
   2   8 -10    0.82    0.31
   1   7 -10    3.86    0.50
   0   6 -10    0.15    0.24
  -1   5 -10    0.05    0.21
  -2   4 -10    8.92    0.69
  -3   3 -10    6.61    0.62
  -4   2 -10   10.24    0.79
  -5   1 -10    2.32    0.45
  -6   0 -10    0.40    0.32
  -7  -1 -10    1.98    0.47
  -8  -2 -10    0.96    0.45
  -9  -3 -10    0.24    0.39
  10  18 -10    0.29    0.33
   9  17 -10    0.51    0.32
   8  16 -10    0.43    0.34
   7  15 -10    5.23    0.67
   6  14 -10   18.34    1.16
   5  13 -10    0.49    0.33
   4  12 -10    0.26    0.33
   3  11 -10    2.77    0.48
   2  10 -10    1.88    0.41
   1   9 -10   -0.06    0.24
   0   8 -10    0.31    0.26
  -1   7 -10    3.22    0.49
  -2   6 -10    3.64    0.52
  -3   5 -10    0.37    0.27
  -4   4 -10    2.41    0.48
  -5   3 -10    1.73    0.42
  -6   2 -10    0.58    0.36
  -7   1 -10    2.18    0.49
  -8   0 -10   10.25    0.95
  -9  -1 -10   -0.16    0.37
   9  19 -10    5.30    0.71
   8  18 -10   -0.14    0.29
   7  17 -10    0.07    0.30
   6  16 -10    1.38    0.43
   5  15 -10    1.80    0.47
   4  14 -10   -0.28    0.27
   3  13 -10    0.77    0.37
   2  12 -10    5.25    0.64
   1  11 -10   12.67    0.89
   0  10 -10    4.29    0.58
  -1   9 -10    0.08    0.22
  -2   8 -10    1.17    0.37
  -3   7 -10    4.74    0.61
  -4   6 -10    0.89    0.34
  -5   5 -10    6.42    0.72
  -6   4 -10   -0.16    0.26
  -7   3 -10    0.71    0.34
  -8   2 -10    1.24    0.46
  -9   1 -10   -0.06    0.38
   7  19 -10    0.31    0.34
   6  18 -10   -0.07    0.28
   5  17 -10    0.25    0.32
   4  16 -10    2.16    0.51
   3  15 -10    0.85    0.39
   2  14 -10    1.35    0.41
   1  13 -10    0.07    0.25
   0  12 -10    1.74    0.43
  -1  11 -10   -0.13    0.23
  -2  10 -10   11.22    0.89
  -3   9 -10    6.14    0.73
  -4   8 -10   -0.27    0.29
  -5   7 -10    0.35    0.31
  -6   6 -10   -0.28    0.31
  -7   5 -10    0.23    0.36
  -8   4 -10    0.01    0.32
  -9   3 -10    0.14    0.42
   5  19 -10    0.30    0.34
   4  18 -10   -0.01    0.32
   3  17 -10    2.48    0.56
   2  16 -10   -0.12    0.32
   1  15 -10    4.81    0.68
   0  14 -10    2.56    0.53
  -1  13 -10    0.78    0.37
  -2  12 -10    1.68    0.44
  -3  11 -10   -0.04    0.28
  -4  10 -10    0.30    0.29
  -5   9 -10    1.35    0.43
  -6   8 -10    4.55    0.68
  -7   7 -10    3.82    0.62
  -8   6 -10    3.59    0.64
   2  18 -10    0.51    0.36
   1  17 -10    0.80    0.41
   0  16 -10    0.89    0.41
  -1  15 -10    0.10    0.33
  -2  14 -10   -0.29    0.26
  -3  13 -10    1.46    0.42
  -4  12 -10    3.18    0.59
  -5  11 -10    3.01    0.56
  -6  10 -10    0.09    0.36
  -7   9 -10    1.02    0.43
  -8   8 -10    0.13    0.39
  -1  17 -10    4.01    0.68
  -2  16 -10    4.12    0.67
  -3  15 -10    0.57    0.37
  -4  14 -10    0.73    0.40
  -5  13 -10   -0.14    0.32
  -6  12 -10    0.94    0.43
  -7  11 -10    1.24    0.48
  -4  16 -10    0.95    0.40
  -5  15 -10    3.44    0.67
 -19  13  11    0.36    0.42
 -18  14  11    5.03    0.84
 -17  15  11    5.28    0.83
 -16  16  11   -0.42    0.34
 -15  17  11   -0.11    0.29
 -14  18  11    0.32    0.43
 -21   9  11    2.49    0.56
 -20  10  11   11.96    1.03
 -19  11  11    0.66    0.42
 -18  12  11    0.47    0.43
 -17  13  11    2.04    0.56
 -16  14  11    0.62    0.42
 -15  15  11    1.37    0.51
 -14  16  11    1.02    0.49
 -13  17  11    1.05    0.48
 -12  18  11    1.66    0.56
 -11  19  11   -0.39    0.27
 -10  20  11    2.67    0.58
 -21   7  11    0.26    0.33
 -20   8  11    3.16    0.57
 -19   9  11    4.31    0.64
 -18  10  11    0.57    0.40
 -17  11  11    0.68    0.35
 -16  12  11    1.35    0.44
 -15  13  11    1.60    0.50
 -14  14  11    0.39    0.39
 -13  15  11    6.33    0.82
 -12  16  11    1.31    0.43
 -11  17  11   -0.01    0.29
 -10  18  11    3.83    0.69
  -9  19  11    8.19    0.91
  -8  20  11   -0.18    0.34
 -20   6  11   -0.01    0.29
 -19   7  11   -0.21    0.25
 -18   8  11    0.62    0.36
 -17   9  11    1.75    0.44
 -16  10  11    5.73    0.75
 -15  11  11    4.58    0.68
 -14  12  11    0.48    0.33
 -13  13  11    2.62    0.57
 -12  14  11   22.64    1.37
 -11  15  11    1.88    0.48
 -10  16  11    0.62    0.40
  -9  17  11   -0.04    0.32
  -8  18  11    0.53    0.37
  -7  19  11    0.81    0.42
  -7  19  11    1.07    0.43
  -6  20  11    0.12    0.36
 -19   5  11    1.36    0.38
 -18   6  11   12.46    0.89
 -17   7  11    0.30    0.30
 -16   8  11    1.24    0.36
 -15   9  11   34.26    1.65
 -14  10  11   13.45    0.99
 -13  11  11    0.32    0.32
 -12  12  11   -0.13    0.25
 -11  13  11    2.59    0.54
 -10  14  11    1.24    0.39
  -9  15  11    1.22    0.43
  -8  16  11    0.10    0.28
  -7  17  11   -0.12    0.27
  -7  17  11    0.24    0.32
  -6  18  11    0.39    0.33
  -6  18  11    0.36    0.34
  -5  19  11    3.29    0.59
  -4  20  11    3.17    0.60
 -19   3  11    0.38    0.27
 -18   4  11   21.31    1.15
 -17   5  11   28.91    1.38
 -16   6  11    1.04    0.32
 -15   7  11    0.06    0.22
 -14   8  11    6.32    0.68
 -13   9  11    0.07    0.24
 -12  10  11    3.83    0.55
 -11  11  11    0.38    0.31
 -10  12  11   -0.10    0.23
  -9  13  11    1.29    0.37
  -8  14  11    6.36    0.70
  -7  15  11   13.62    0.94
  -7  15  11   13.79    0.98
  -6  16  11    0.98    0.37
  -6  16  11    1.20    0.36
  -5  17  11    0.43    0.32
  -5  17  11   -0.03    0.28
  -4  18  11    4.36    0.63
  -3  19  11    2.84    0.55
  21   1 -11    3.58    0.60
  20   0 -11   18.40    1.17
  19  -1 -11    3.55    0.55
 -18   2  11    0.03    0.22
  18  -2 -11   -0.08    0.24
 -17   3  11    4.23    0.51
 -16   4  11    0.50    0.26
 -15   5  11    3.64    0.48
 -14   6  11    1.04    0.30
 -13   7  11    1.46    0.37
 -12   8  11    2.06    0.40
 -11   9  11    3.20    0.49
 -10  10  11   33.69    1.55
  -9  11  11   12.06    0.83
  -8  12  11    0.44    0.27
  -7  13  11   19.68    1.12
  -6  14  11   15.24    0.96
  -6  14  11   17.62    1.06
  -5  15  11    0.19    0.28
  -5  15  11   -0.27    0.22
  -4  16  11    3.14    0.51
  -4  16  11    2.40    0.48
  -3  17  11   -0.18    0.26
  -2  18  11    0.03    0.32
  -1  19  11    1.19    0.46
  21   3 -11   -0.19    0.30
  20   2 -11    2.11    0.49
  19   1 -11    3.30    0.56
  18   0 -11    0.43    0.31
 -17   1  11    1.68    0.36
  17  -1 -11    1.60    0.37
 -16   2  11    0.67    0.29
  16  -2 -11    0.96    0.30
 -15   3  11    0.89    0.28
  15  -3 -11    1.01    0.28
 -14   4  11   -0.06    0.21
 -13   5  11   26.90    1.24
 -12   6  11   25.81    1.21
 -11   7  11    1.16    0.32
 -10   8  11   15.53    0.90
  -9   9  11   55.38    2.17
  -8  10  11   14.31    0.90
  -7  11  11    7.75    0.67
  -6  12  11    0.93    0.34
  -5  13  11   -0.23    0.20
  -5  13  11   -0.02    0.25
  -4  14  11    1.33    0.35
  -4  14  11    1.10    0.34
  -3  15  11   -0.11    0.23
  -3  15  11   -0.02    0.24
  -2  16  11    1.80    0.42
  -1  17  11    1.06    0.40
   0  18  11    0.05    0.31
  20   4 -11    1.48    0.47
  19   3 -11    0.50    0.35
  18   2 -11    0.81    0.33
  17   1 -11    1.04    0.35
 -16   0  11   10.40    0.69
  16   0 -11   10.69    0.78
 -15   1  11   41.37    1.66
  15  -1 -11   40.80    1.79
 -14   2  11    1.78    0.34
  14  -2 -11    1.69    0.34
 -13   3  11   11.25    0.70
  13  -3 -11    8.53    0.63
 -12   4  11   59.21    2.21
  12  -4 -11   57.86    2.25
 -11   5  11   20.98    1.05
 -10   6  11    0.87    0.25
  -9   7  11    0.14    0.22
  -8   8  11   -0.10    0.18
  -7   9  11    1.66    0.34
  -6  10  11    0.48    0.27
  -5  11  11    6.03    0.61
  -4  12  11    0.18    0.20
  -4  12  11    0.06    0.23
  -3  13  11    0.34    0.25
  -3  13  11    0.03    0.24
  -2  14  11   11.38    0.78
  -2  14  11   10.49    0.80
  -1  15  11   16.07    1.00
   0  16  11    1.19    0.39
   1  17  11   -0.21    0.30
  20   6 -11    0.31    0.38
  19   5 -11    1.66    0.51
  18   4 -11   19.61    1.23
  17   3 -11    4.09    0.62
  16   2 -11    0.79    0.29
 -15  -1  11   39.23    1.56
  15   1 -11   38.90    1.78
 -14   0  11   54.35    2.04
  14   0 -11   54.35    2.25
 -13   1  11   -0.15    0.18
  13  -1 -11    0.10    0.21
 -12   2  11    0.19    0.21
  12  -2 -11    0.09    0.18
 -11   3  11    4.67    0.50
  11  -3 -11    5.26    0.49
 -10   4  11    0.23    0.22
  10  -4 -11    0.21    0.20
  -9   5  11    2.42    0.35
   9  -5 -11    1.93    0.34
  -8   6  11   14.37    0.83
  -7   7  11    0.73    0.25
  -6   8  11    0.25    0.20
  -5   9  11   23.36    1.11
  -4  10  11   62.51    2.34
  -3  11  11    0.98    0.30
  -3  11  11    1.02    0.27
  -2  12  11    0.05    0.22
  -2  12  11    0.43    0.26
  -1  13  11    3.81    0.52
  -1  13  11    4.50    0.53
   0  14  11    5.99    0.64
   1  15  11    3.46    0.55
   2  16  11    0.08    0.31
  19   7 -11    0.30    0.35
  18   6 -11   11.80    0.98
  17   5 -11   31.08    1.67
  16   4 -11    0.25    0.26
 -15  -3  11    0.87    0.25
  15   3 -11    0.97    0.34
 -14  -2  11    1.69    0.30
  14   2 -11    1.76    0.41
 -13  -1  11   -0.14    0.16
  13   1 -11   -0.01    0.21
 -12   0  11   13.01    0.73
  12   0 -11   13.40    0.86
 -11   1  11    2.25    0.34
  11  -1 -11    2.41    0.40
 -10   2  11    2.79    0.38
  10  -2 -11    4.11    0.49
  -9   3  11    0.04    0.18
   9  -3 -11    0.11    0.21
  -8   4  11   12.18    0.71
   8  -4 -11   14.36    0.88
  -7   5  11  117.39    4.07
   7  -5 -11  127.82    4.43
  -6   6  11   24.92    1.16
   6  -6 -11   28.44    1.28
  -5   7  11    0.04    0.20
  -4   8  11   15.06    0.84
  -3   9  11   21.70    1.08
  -2  10  11    2.28    0.38
  -2  10  11    2.05    0.34
  -1  11  11    1.90    0.33
  -1  11  11    2.76    0.42
   0  12  11    0.03    0.24
   0  12  11   -0.33    0.20
   1  13  11    0.17    0.27
   2  14  11    1.71    0.41
   3  15  11    2.45    0.50
  18   8 -11    1.13    0.44
  17   7 -11    1.22    0.41
  16   6 -11    0.86    0.41
  15   5 -11    3.54    0.56
 -14  -4  11   -0.14    0.15
  14   4 -11    0.15    0.28
 -13  -3  11    9.57    0.60
  13   3 -11    8.04    0.71
 -12  -2  11   -0.04    0.17
  12   2 -11    0.30    0.25
 -11  -1  11    1.98    0.32
  11   1 -11    2.09    0.40
 -10   0  11  116.06    3.85
  10   0 -11  115.70    4.28
  -9   1  11   70.72    2.49
   9  -1 -11   69.64    2.80
  -8   2  11    4.46    0.45
   8  -2 -11    4.92    0.60
  -7   3  11   11.05    0.64
   7  -3 -11    9.21    0.72
  -6   4  11   73.41    2.58
   6  -4 -11   72.42    2.82
  -5   5  11    1.81    0.33
   5  -5 -11    1.53    0.32
  -4   6  11    2.49    0.37
   4  -6 -11    1.51    0.33
  -3   7  11    0.13    0.21
   3  -7 -11    0.17    0.19
  -2   8  11    0.48    0.26
  -1   9  11    5.69    0.54
  -1   9  11    5.59    0.46
   0  10  11    4.50    0.47
   0  10  11    4.35    0.50
   1  11  11    6.46    0.57
   2  12  11    0.28    0.27
   3  13  11    0.07    0.28
   4  14  11    9.35    0.82
  18  10 -11    0.41    0.40
  17   9 -11    0.97    0.41
  16   8 -11    0.72    0.43
  15   7 -11    0.38    0.33
  14   6 -11    1.03    0.35
 -13  -5  11   27.14    1.11
  13   5 -11   24.49    1.39
 -12  -4  11   56.32    1.98
  12   4 -11   52.29    2.34
 -11  -3  11    4.83    0.45
  11   3 -11    4.08    0.57
 -10  -2  11    3.88    0.41
  10   2 -11    4.29    0.59
  -9  -1  11   69.11    2.33
   9   1 -11   59.48    2.63
  -8   0  11   15.27    0.80
   8   0 -11   14.07    0.96
  -7   1  11    1.33    0.28
   7  -1 -11    0.59    0.28
  -6   2  11    1.49    0.28
   6  -2 -11    0.99    0.29
  -5   3  11    1.71    0.32
   5  -3 -11    2.10    0.38
  -4   4  11    6.24    0.52
   4  -4 -11    6.56    0.56
  -3   5  11    0.05    0.19
   3  -5 -11    0.19    0.22
  -2   6  11   11.75    0.71
   2  -6 -11   10.03    0.73
  -1   7  11    1.45    0.32
   1  -7 -11    0.91    0.30
   0   8  11    0.20    0.23
   0   8  11    0.23    0.21
   0  -8 -11    0.39    0.27
   1   9  11   22.93    1.13
   1   9  11   23.56    1.10
   2  10  11   15.61    0.89
   3  11  11    0.15    0.24
   4  12  11    0.25    0.29
  17  11 -11    0.54    0.41
  16  10 -11    3.84    0.68
  15   9 -11   31.52    1.72
  14   8 -11    4.90    0.70
  13   7 -11    1.70    0.45
 -12  -6  11   25.22    1.09
  12   6 -11   26.19    1.42
 -11  -5  11   20.48    0.94
  11   5 -11   21.60    1.26
 -10  -4  11    0.23    0.20
  10   4 -11    0.34    0.28
  -9  -3  11    0.24    0.21
   9   3 -11    0.23    0.26
  -8  -2  11    4.91    0.48
   8   2 -11    5.17    0.67
  -7  -1  11    1.19    0.28
   7   1 -11    1.30    0.36
  -6   0  11    4.59    0.45
   6   0 -11    5.53    0.64
  -5   1  11   27.63    1.20
   5  -1 -11   28.83    1.38
  -4   2  11   13.94    0.77
   4  -2 -11   12.41    0.82
  -3   3  11   -0.02    0.16
   3  -3 -11    0.05    0.20
  -2   4  11   54.64    2.05
   2  -4 -11   54.62    2.24
  -1   5  11   54.46    2.01
   1  -5 -11   51.23    2.18
   0   6  11    4.18    0.48
   0  -6 -11    4.14    0.54
   1   7  11    1.42    0.33
  -1  -7 -11    1.27    0.38
   2   8  11    7.68    0.64
  -2  -8 -11    7.83    0.80
  16  12 -11    1.12    0.49
  15  11 -11    5.81    0.83
  14  10 -11   13.64    1.05
  13   9 -11   -0.15    0.23
  12   8 -11    2.23    0.51
 -11  -7  11    0.40    0.24
  11   7 -11    0.70    0.34
 -10  -6  11    0.31    0.21
  10   6 -11    0.85    0.36
  -9  -5  11    1.80    0.31
   9   5 -11    2.04    0.47
  -8  -4  11   13.23    0.75
   8   4 -11   14.03    0.99
  -7  -3  11   10.30    0.67
   7   3 -11   10.46    0.85
  -6  -2  11    1.37    0.30
   6   2 -11    1.26    0.38
  -5  -1  11   27.70    1.22
   5   1 -11   29.44    1.42
  -4   0  11  131.54    4.39
   4   0 -11  135.07    4.81
  -3   1  11   23.95    1.12
   3  -1 -11   24.55    1.22
  -2   2  11    1.12    0.28
   2  -2 -11    0.67    0.29
  -1   3  11   14.38    0.80
   1  -3 -11   14.20    0.87
   0   4  11    5.15    0.52
   0  -4 -11    5.59    0.62
   1   5  11    3.38    0.44
  -1  -5 -11    3.06    0.50
   2   6  11    2.27    0.39
  -2  -6 -11    3.19    0.54
  -3  -7 -11    0.76    0.38
  -4  -8 -11    2.44    0.54
  -5  -9 -11    0.16    0.40
  15  13 -11    1.43    0.49
  14  12 -11   -0.09    0.33
  13  11 -11    0.33    0.35
  12  10 -11    2.46    0.51
  11   9 -11    3.43    0.62
  10   8 -11   17.17    1.12
   9   7 -11    0.21    0.30
  -8  -6  11   13.48    0.76
   8   6 -11   16.09    1.09
  -7  -5  11  127.03    4.19
   7   5 -11  126.40    4.75
  -6  -4  11   85.05    2.90
   6   4 -11   80.23    3.24
  -5  -3  11    3.27    0.42
   5   3 -11    2.50    0.47
  -4  -2  11   13.38    0.77
   4   2 -11   13.61    0.88
  -3  -1  11   23.92    1.14
   3   1 -11   26.51    1.28
  -2   0  11   -0.11    0.21
   2   0 -11    0.01    0.22
  -1   1  11    9.44    0.66
   1  -1 -11    9.75    0.70
   0   2  11    4.57    0.51
   0  -2 -11    5.06    0.58
  -1  -3 -11    2.68    0.46
  -2  -4 -11    1.14    0.36
  -3  -5 -11   11.00    0.88
  -4  -6 -11   23.68    1.39
  -5  -7 -11    0.03    0.34
  -6  -8 -11    1.59    0.51
  -7  -9 -11    6.81    0.91
  14  14 -11    0.20    0.37
  13  13 -11    2.81    0.58
  12  12 -11    0.63    0.37
  11  11 -11    0.67    0.36
  10  10 -11   35.40    1.81
   9   9 -11   56.62    2.49
   8   8 -11    0.18    0.31
   7   7 -11    0.66    0.34
   6   6 -11   27.05    1.45
   5   5 -11    2.32    0.43
   4   4 -11    6.98    0.63
   3   3 -11   -0.15    0.20
   2   2 -11    0.58    0.25
   1   1 -11    9.52    0.70
   0   0 -11    1.43    0.33
  -1  -1 -11   34.88    1.63
  -2  -2 -11    1.08    0.34
  -3  -3 -11   -0.35    0.24
  -4  -4 -11   17.50    1.15
  -5  -5 -11   14.28    1.08
  -6  -6 -11    3.22    0.63
  -7  -7 -11   -0.39    0.32
  13  15 -11    5.98    0.81
  12  14 -11   23.03    1.42
  11  13 -11    2.08    0.48
  10  12 -11   -0.09    0.26
   9  11 -11   11.74    0.96
   8  10 -11   13.05    0.98
   7   9 -11    1.17    0.39
   6   8 -11    0.33    0.29
   5   7 -11   -0.25    0.22
   4   6 -11    1.99    0.43
   3   5 -11    0.47    0.29
   2   4 -11   55.02    2.28
   1   3 -11   13.51    0.89
   0   2 -11    4.41    0.56
  -1   1 -11   34.16    1.59
  -2   0 -11   55.00    2.33
  -3  -1 -11   -0.06    0.28
  -4  -2 -11    0.29    0.27
  -5  -3 -11    1.09    0.44
  -6  -4 -11    0.38    0.37
  -7  -5 -11    2.00    0.56
  12  16 -11    0.57    0.34
  11  15 -11    1.99    0.52
  10  14 -11    0.99    0.37
   9  13 -11    0.94    0.38
   8  12 -11    0.60    0.37
   7  11 -11    6.80    0.79
   6  10 -11   -0.18    0.27
   5   9 -11   25.54    1.39
   4   8 -11   15.90    1.03
   3   7 -11    0.09    0.22
   2   6 -11   10.65    0.78
   1   5 -11   54.12    2.26
   0   4 -11    4.06    0.56
  -1   3 -11    2.74    0.45
  -2   2 -11    0.54    0.31
  -3   1 -11    0.29    0.30
  -4   0 -11    6.80    0.75
  -5  -1 -11    0.14    0.31
  -6  -2 -11    0.37    0.38
  -7  -3 -11    0.34    0.41
  -8  -4 -11   -0.05    0.32
  11  17 -11   -0.17    0.28
  10  16 -11    1.23    0.44
   9  15 -11    0.82    0.40
   8  14 -11    7.25    0.83
   7  13 -11   18.19    1.18
   6  12 -11    1.16    0.43
   5  11 -11    4.73    0.71
   4  10 -11   64.84    2.73
   3   9 -11   24.25    1.34
   2   8 -11    0.47    0.27
   1   7 -11    1.38    0.34
   0   6 -11    4.47    0.59
  -1   5 -11    4.32    0.58
  -2   4 -11    0.54    0.32
  -3   3 -11    0.04    0.28
  -4   2 -11    0.11    0.27
  -5   1 -11   -0.08    0.31
  -6   0 -11   15.86    1.09
  -7  -1 -11    8.91    0.96
  -8  -2 -11    0.01    0.41
  10  18 -11    3.90    0.65
   9  17 -11    0.28    0.31
   8  16 -11    0.06    0.27
   7  15 -11   13.75    1.04
   6  14 -11   15.41    1.13
   5  13 -11    0.07    0.34
   4  12 -11    0.41    0.28
   3  11 -11    1.28    0.40
   2  10 -11    2.41    0.48
   1   9 -11    7.09    0.75
   0   8 -11    0.40    0.27
  -1   7 -11    1.89    0.41
  -2   6 -11    1.78    0.43
  -3   5 -11   10.25    0.82
  -4   4 -11   15.04    1.05
  -5   3 -11    1.65    0.47
  -6   2 -11    0.46    0.38
  -7   1 -11   11.41    0.96
  -8   0 -11    1.00    0.50
   8  18 -11    0.60    0.34
   7  17 -11    0.00    0.32
   6  16 -11    0.62    0.38
   5  15 -11    0.33    0.34
   4  14 -11    0.37    0.38
   3  13 -11    0.00    0.26
   2  12 -11   -0.30    0.28
   1  11 -11    2.83    0.52
   0  10 -11    4.11    0.59
  -1   9 -11   25.70    1.42
  -2   8 -11    9.46    0.81
  -3   7 -11    0.73    0.38
  -4   6 -11   20.28    1.23
  -5   5 -11   12.84    0.97
  -6   4 -11    0.07    0.35
  -7   3 -11   -0.17    0.33
   7  19 -11    0.74    0.43
   6  18 -11   -0.01    0.34
   5  17 -11    0.27    0.36
   4  16 -11    2.51    0.57
   3  15 -11   -0.24    0.31
   2  14 -11   12.20    1.01
   1  13 -11    3.95    0.62
   0  12 -11   -0.20    0.31
  -1  11 -11    5.09    0.68
  -2  10 -11   17.84    1.17
  -3   9 -11    0.39    0.32
  -4   8 -11    2.81    0.58
  -5   7 -11   -0.04    0.26
  -6   6 -11    1.84    0.46
  -7   5 -11    2.52    0.57
   5  19 -11    3.85    0.67
   4  18 -11    5.56    0.79
   3  17 -11    0.24    0.38
   2  16 -11    2.42    0.55
   1  15 -11   16.28    1.17
   0  14 -11    4.85    0.71
  -1  13 -11    0.53    0.36
  -2  12 -11    0.32    0.35
  -3  11 -11    0.15    0.32
  -4  10 -11    2.45    0.56
  -5   9 -11    0.44    0.37
  -6   8 -11    1.73    0.51
   3  19 -11    3.24    0.63
   2  18 -11    0.67    0.42
   1  17 -11    1.53    0.50
   0  16 -11    1.09    0.47
  -2  14 -11    2.18    0.51
  -3  13 -11    0.25    0.38
  -4  12 -11    0.28    0.37
  -5  11 -11    0.26    0.37
  -1  17 -11    0.48    0.44
  -2  16 -11    0.00    0.38
  -3  15 -11    2.28    0.57
 -20  10  12    1.47    0.49
 -19  11  12    0.35    0.38
 -18  12  12   -0.11    0.30
 -17  13  12    0.93    0.42
 -16  14  12   -0.29    0.37
 -15  15  12    0.35    0.42
 -14  16  12    0.31    0.44
 -13  17  12    1.40    0.54
 -12  18  12    0.34    0.43
 -21   7  12    0.03    0.33
 -20   8  12    0.20    0.37
 -19   9  12    0.13    0.33
 -18  10  12   -0.02    0.35
 -17  11  12    1.55    0.46
 -16  12  12    0.85    0.39
 -15  13  12    2.27    0.56
 -14  14  12    1.52    0.48
 -13  15  12    0.50    0.37
 -12  16  12    0.12    0.37
 -11  17  12   -0.14    0.33
 -10  18  12    4.15    0.68
  -9  19  12    0.61    0.42
 -20   6  12    0.33    0.32
 -19   7  12    0.45    0.33
 -18   8  12    2.37    0.51
 -17   9  12    0.16    0.27
 -16  10  12    1.86    0.48
 -15  11  12    0.94    0.41
 -14  12  12    0.43    0.37
 -13  13  12    5.34    0.74
 -12  14  12    2.94    0.62
 -11  15  12   -0.01    0.31
 -10  16  12   -0.03    0.31
  -9  17  12   -0.41    0.27
  -8  18  12    0.39    0.39
  -7  19  12    0.20    0.34
 -20   4  12    0.87    0.33
 -19   5  12    0.67    0.33
 -18   6  12    0.53    0.35
 -17   7  12    0.08    0.29
 -16   8  12    1.88    0.45
 -15   9  12    8.83    0.87
 -14  10  12    1.96    0.51
 -13  11  12    0.81    0.40
 -12  12  12    0.15    0.29
 -11  13  12    0.45    0.37
 -10  14  12    1.08    0.41
  -9  15  12    0.05    0.31
  -8  16  12    0.25    0.33
  -7  17  12    1.88    0.49
  -6  18  12    0.98    0.36
 -19   3  12    0.15    0.26
 -18   4  12    5.43    0.62
 -17   5  12    4.11    0.56
 -16   6  12    0.56    0.30
 -15   7  12   -0.50    0.24
 -14   8  12    0.08    0.30
 -13   9  12    1.37    0.38
 -12  10  12    0.73    0.31
 -11  11  12    0.03    0.23
 -10  12  12    2.49    0.52
  -9  13  12   -0.16    0.27
  -8  14  12    4.67    0.65
  -7  15  12    7.23    0.80
  -6  16  12    0.25    0.32
  -5  17  12    0.85    0.39
  21   1 -12    0.54    0.38
  20   0 -12    4.84    0.66
 -18   2  12    0.68    0.30
 -17   3  12    0.34    0.27
 -16   4  12    1.83    0.42
 -15   5  12    2.32    0.40
 -14   6  12    0.11    0.21
 -13   7  12    0.97    0.32
 -12   8  12    1.72    0.39
 -11   9  12    4.37    0.56
 -10  10  12   16.51    1.02
  -9  11  12    0.09    0.28
  -8  12  12    1.38    0.40
  -7  13  12    5.13    0.66
  -6  14  12    2.02    0.46
  -5  15  12    0.89    0.35
  -4  16  12   -0.35    0.26
  21   3 -12    1.57    0.48
  20   2 -12   -0.31    0.27
  19   1 -12   -0.11    0.24
  18   0 -12    3.01    0.51
 -17   1  12    0.91    0.33
  17  -1 -12    0.76    0.32
 -16   2  12    0.69    0.29
  16  -2 -12    1.07    0.30
 -15   3  12    1.47    0.32
 -14   4  12    0.22    0.23
 -13   5  12   12.56    0.82
 -12   6  12    3.18    0.47
 -11   7  12    0.21    0.21
 -10   8  12    3.79    0.52
  -9   9  12    8.40    0.73
  -8  10  12    1.04    0.35
  -7  11  12    0.24    0.24
  -6  12  12    0.00    0.22
  -5  13  12    1.47    0.37
  -4  14  12    0.88    0.35
  -3  15  12    2.77    0.50
  20   4 -12    0.45    0.40
  19   3 -12    0.15    0.30
  18   2 -12    0.80    0.37
  17   1 -12    1.20    0.37
 -16   0  12    8.50    0.63
  16   0 -12    8.19    0.72
 -15   1  12    4.60    0.52
  15  -1 -12    5.44    0.61
 -14   2  12    0.10    0.22
  14  -2 -12   -0.01    0.20
 -13   3  12    1.13    0.31
  13  -3 -12    1.24    0.31
 -12   4  12   10.17    0.71
 -11   5  12   -0.01    0.19
 -10   6  12    0.81    0.29
  -9   7  12   -0.11    0.19
  -8   8  12    1.70    0.39
  -7   9  12    3.66    0.50
  -6  10  12    1.49    0.34
  -5  11  12    0.78    0.32
  -4  12  12    0.59    0.30
  -3  13  12    0.59    0.30
  -2  14  12   16.64    1.07
  19   5 -12    0.83    0.38
  18   4 -12    5.92    0.77
  17   3 -12    0.39    0.29
 -16  -2  12    0.73    0.26
  16   2 -12    0.93    0.32
 -15  -1  12    4.57    0.50
  15   1 -12    5.13    0.63
 -14   0  12    0.32    0.26
  14   0 -12    0.34    0.27
 -13   1  12    3.18    0.41
  13  -1 -12    3.70    0.50
 -12   2  12    1.99    0.36
  12  -2 -12    2.09    0.39
 -11   3  12    0.01    0.21
  11  -3 -12    0.05    0.20
 -10   4  12    7.65    0.60
  10  -4 -12    8.33    0.63
  -9   5  12   -0.18    0.20
  -8   6  12    1.35    0.31
  -7   7  12    0.06    0.21
  -6   8  12   -0.22    0.20
  -5   9  12   23.21    1.16
  -4  10  12   11.63    0.79
  -3  11  12    0.58    0.28
  -2  12  12    0.46    0.30
  19   7 -12    0.69    0.43
  18   6 -12    0.41    0.39
  17   5 -12    4.21    0.69
  16   4 -12    1.00    0.39
 -15  -3  12    1.58    0.31
  15   3 -12    1.82    0.44
 -14  -2  12    0.07    0.22
  14   2 -12   -0.15    0.21
 -13  -1  12    3.19    0.42
  13   1 -12    4.79    0.60
 -12   0  12    1.36    0.30
  12   0 -12    1.59    0.37
 -11   1  12    1.94    0.33
  11  -1 -12    1.99    0.41
 -10   2  12    0.48    0.22
  10  -2 -12    0.54    0.27
  -9   3  12    0.59    0.23
   9  -3 -12    0.84    0.32
  -8   4  12   17.98    0.94
   8  -4 -12   19.76    1.10
  -7   5  12   26.26    1.21
   7  -5 -12   28.18    1.36
  -6   6  12    1.64    0.32
  -5   7  12    0.36    0.24
  -4   8  12    7.16    0.65
  -3   9  12    0.26    0.26
  -2  10  12    1.31    0.35
  -1  11  12   -0.07    0.23
  18   8 -12    1.37    0.47
  17   7 -12    0.64    0.36
  16   6 -12    0.60    0.38
  15   5 -12    1.72    0.48
 -14  -4  12   -0.11    0.18
  14   4 -12    0.23    0.25
 -13  -3  12    0.29    0.23
  13   3 -12    0.86    0.35
 -12  -2  12    2.35    0.36
  12   2 -12    3.03    0.53
 -11  -1  12    1.81    0.32
  11   1 -12    1.82    0.41
 -10   0  12   26.74    1.20
  10   0 -12   26.09    1.40
  -9   1  12    9.92    0.67
   9  -1 -12    9.37    0.79
  -8   2  12    2.43    0.36
   8  -2 -12    2.23    0.44
  -7   3  12    5.94    0.56
   7  -3 -12    5.34    0.64
  -6   4  12    0.47    0.26
   6  -4 -12    0.81    0.30
  -5   5  12    0.62    0.24
   5  -5 -12    0.72    0.27
  -4   6  12    0.83    0.26
   4  -6 -12    0.73    0.28
  -3   7  12   -0.07    0.21
  -2   8  12    7.02    0.61
  -1   9  12   -0.03    0.23
   0  10  12   11.83    0.81
  17   9 -12    0.08    0.32
  16   8 -12    2.42    0.56
  15   7 -12    0.15    0.28
  14   6 -12    0.05    0.29
 -13  -5  12   12.57    0.72
  13   5 -12   11.94    0.93
 -12  -4  12    8.77    0.60
  12   4 -12    8.49    0.89
 -11  -3  12    0.37    0.22
  11   3 -12    0.07    0.21
 -10  -2  12    0.42    0.23
  10   2 -12    0.13    0.29
  -9  -1  12    8.36    0.61
   9   1 -12    7.92    0.74
  -8   0  12    0.88    0.25
   8   0 -12    0.56    0.32
  -7   1  12    2.56    0.36
   7  -1 -12    2.49    0.46
  -6   2  12    0.00    0.19
   6  -2 -12    0.03    0.23
  -5   3  12    2.00    0.36
   5  -3 -12    1.66    0.38
  -4   4  12    0.41    0.21
   4  -4 -12    0.64    0.28
  -3   5  12    7.77    0.60
   3  -5 -12    5.51    0.64
  -2   6  12   13.00    0.80
   2  -6 -12   10.68    0.81
  -1   7  12    1.46    0.31
   1  -7 -12    0.88    0.31
   0   8  12    2.85    0.45
   1   9  12   18.65    1.04
  17  11 -12    0.75    0.42
  16  10 -12    2.43    0.58
  15   9 -12    8.61    0.96
  14   8 -12    0.79    0.42
  13   7 -12    1.22    0.42
 -12  -6  12    1.87    0.33
  12   6 -12    3.09    0.58
 -11  -5  12   -0.05    0.19
  11   5 -12    0.11    0.27
 -10  -4  12    7.89    0.57
  10   4 -12    8.03    0.87
  -9  -3  12    0.58    0.26
   9   3 -12    0.85    0.36
  -8  -2  12    1.28    0.33
   8   2 -12    1.42    0.41
  -7  -1  12    3.77    0.46
   7   1 -12    3.18    0.55
  -6   0  12    1.13    0.31
   6   0 -12    1.45    0.40
  -5   1  12   22.00    1.08
   5  -1 -12   22.24    1.21
  -4   2  12   -0.09    0.20
   4  -2 -12    0.06    0.19
  -3   3  12    0.44    0.25
   3  -3 -12    0.03    0.21
  -2   4  12   18.54    0.97
   2  -4 -12   19.38    1.11
  -1   5  12   13.88    0.82
   1  -5 -12   13.62    0.91
   0   6  12    2.96    0.44
   0  -6 -12    2.18    0.46
  -1  -7 -12    0.36    0.30
   2   8  12   -0.47    0.23
  -2  -8 -12    0.02    0.30
  16  12 -12    1.47    0.48
  15  11 -12    0.83    0.43
  14  10 -12    2.39    0.57
  13   9 -12    2.79    0.59
  12   8 -12    2.35    0.50
 -11  -7  12    0.21    0.21
  11   7 -12    0.82    0.36
 -10  -6  12    0.48    0.26
  10   6 -12    1.41    0.42
  -9  -5  12    0.40    0.22
   9   5 -12    0.09    0.24
  -8  -4  12   18.64    0.98
   8   4 -12   21.68    1.30
  -7  -3  12    6.05    0.57
   7   3 -12    5.86    0.74
  -6  -2  12   -0.23    0.22
   6   2 -12   -0.27    0.23
  -5  -1  12   23.00    1.12
   5   1 -12   23.39    1.27
  -4   0  12   37.94    1.58
   4   0 -12   37.28    1.72
  -3   1  12    0.21    0.21
   3  -1 -12   -0.17    0.21
  -2   2  12    0.53    0.28
   2  -2 -12    0.24    0.24
  -1   3  12    0.62    0.30
   1  -3 -12    1.30    0.35
   0   4  12   -0.22    0.23
   0  -4 -12    0.23    0.27
   1   5  12    5.84    0.59
  -1  -5 -12    5.23    0.67
  -2  -6 -12    0.63    0.38
  -3  -7 -12   -0.29    0.29
  -4  -8 -12    0.32    0.39
  15  13 -12    2.45    0.60
  14  12 -12    0.44    0.34
  13  11 -12    0.99    0.38
  12  10 -12    1.09    0.40
  11   9 -12    4.34    0.68
  10   8 -12    3.71    0.62
   9   7 -12    0.25    0.28
  -8  -6  12    1.88    0.35
   8   6 -12    1.93    0.51
  -7  -5  12   28.05    1.26
   7   5 -12   27.33    1.50
  -6  -4  12    0.70    0.30
   6   4 -12    0.98    0.34
  -5  -3  12    2.60    0.42
   5   3 -12    2.67    0.47
  -4  -2  12   -0.06    0.24
   4   2 -12    0.20    0.25
  -3  -1  12   -0.31    0.21
   3   1 -12    0.35    0.27
  -2   0  12   11.83    0.75
   2   0 -12   11.33    0.83
  -1   1  12    0.18    0.25
   1  -1 -12   -0.41    0.21
   0  -2 -12    0.53    0.30
  -1  -3 -12    1.43    0.38
  -2  -4 -12   -0.08    0.28
  -3  -5 -12   23.81    1.41
  -4  -6 -12    4.23    0.68
  -5  -7 -12   -0.21    0.33
  -6  -8 -12    1.98    0.60
  14  14 -12    0.81    0.40
  12  12 -12    0.02    0.32
  11  11 -12    0.30    0.31
  10  10 -12   13.62    1.03
   9   9 -12    7.61    0.86
   8   8 -12    1.53    0.46
   7   7 -12    0.48    0.31
   6   6 -12    2.19    0.48
   5   5 -12    0.63    0.30
   4   4 -12    0.50    0.30
   3   3 -12    0.35    0.28
   2   2 -12    0.25    0.27
   1   1 -12   -0.13    0.22
   0   0 -12   43.83    1.96
  -1  -1 -12   16.47    1.05
  -2  -2 -12    0.20    0.31
  -3  -3 -12    0.78    0.39
  -4  -4 -12   20.80    1.31
  -5  -5 -12    0.72    0.42
  -6  -6 -12   -0.16    0.34
  13  15 -12    0.84    0.43
  12  14 -12    3.57    0.65
  11  13 -12    0.50    0.34
  10  12 -12    1.63    0.48
   9  11 -12   -0.06    0.28
   8  10 -12    1.28    0.44
   7   9 -12    3.20    0.59
   6   8 -12   -0.31    0.31
   5   7 -12   -0.11    0.23
   4   6 -12    1.01    0.39
   3   5 -12    7.15    0.76
   2   4 -12   20.25    1.15
   1   3 -12    0.85    0.33
   0   2 -12    0.10    0.26
  -1   1 -12   17.48    1.10
  -2   0 -12    8.20    0.82
  -3  -1 -12    2.58    0.50
  -4  -2 -12    1.42    0.43
  -5  -3 -12    0.11    0.29
  -6  -4 -12    2.85    0.62
  12  16 -12    0.01    0.33
  11  15 -12    0.39    0.31
  10  14 -12    0.93    0.43
   9  13 -12   -0.10    0.31
   8  12 -12    2.05    0.52
   7  11 -12    0.15    0.32
   6  10 -12    1.69    0.47
   5   9 -12   23.83    1.37
   4   8 -12    7.75    0.82
   3   7 -12   -0.38    0.24
   2   6 -12   12.91    0.90
   1   5 -12   12.00    0.86
   0   4 -12    0.13    0.28
  -1   3 -12    2.23    0.46
  -2   2 -12    0.57    0.32
  -3   1 -12    2.09    0.47
  -4   0 -12   -0.29    0.27
  -5  -1 -12    1.43    0.48
  -6  -2 -12    1.86    0.49
  10  16 -12   -0.16    0.24
   9  15 -12   -0.10    0.31
   8  14 -12    4.32    0.67
   6  12 -12   -0.18    0.31
   5  11 -12    0.87    0.41
   4  10 -12   11.24    0.90
   3   9 -12    0.21    0.31
   2   8 -12    6.75    0.75
   1   7 -12    1.64    0.42
   0   6 -12    2.08    0.45
  -1   5 -12    5.06    0.66
  -2   4 -12    0.15    0.32
  -3   3 -12    1.10    0.37
  -4   2 -12    2.00    0.49
  -5   1 -12    1.53    0.49
  -6   0 -12    9.10    0.96
   9  17 -12    0.00    0.33
   8  16 -12    0.20    0.30
   7  15 -12    7.29    0.86
   6  14 -12    1.78    0.53
   5  13 -12    1.42    0.48
   4  12 -12    1.18    0.44
   3  11 -12    0.64    0.37
   2  10 -12    1.20    0.43
   1   9 -12   -0.13    0.29
   0   8 -12    2.37    0.50
  -1   7 -12    0.18    0.32
  -2   6 -12    0.94    0.39
  -3   5 -12   22.27    1.32
  -4   4 -12   19.45    1.22
  -5   3 -12   -0.04    0.34
  -6   2 -12    1.59    0.46
   7  17 -12    1.70    0.50
   6  16 -12    0.04    0.33
   5  15 -12    1.09    0.45
   4  14 -12    0.51    0.42
   3  13 -12    0.04    0.30
   2  12 -12    0.81    0.40
   1  11 -12   -0.08    0.29
   0  10 -12   11.88    0.95
  -1   9 -12   18.34    1.21
  -2   8 -12    0.15    0.32
  -3   7 -12    0.31    0.36
  -4   6 -12    4.00    0.63
  -5   5 -12    0.34    0.37
  -6   4 -12    2.23    0.54
   5  17 -12    0.73    0.43
   4  16 -12   -0.40    0.32
   3  15 -12    3.17    0.66
   2  14 -12   17.20    1.25
   1  13 -12    3.28    0.61
   0  12 -12    0.02    0.27
  -1  11 -12    2.24    0.53
  -2  10 -12    2.13    0.52
  -3   9 -12    1.93    0.49
  -4   8 -12    0.30    0.33
  -5   7 -12    0.07    0.30
   3  17 -12   -0.31    0.35
   2  16 -12    0.36    0.41
   1  15 -12    0.97    0.47
   0  14 -12    0.28    0.39
  -1  13 -12    3.49    0.63
  -2  12 -12    2.24    0.56
  -3  11 -12    3.18    0.62
  -4  10 -12    0.45    0.42
 -19  11  13    0.78    0.42
 -18  12  13   -0.20    0.35
 -17  13  13    0.09    0.38
 -16  14  13    0.30    0.42
 -15  15  13    0.27    0.42
 -14  16  13    0.37    0.45
 -13  17  13    1.33    0.46
 -21   7  13   -0.14    0.29
 -20   8  13   -0.65    0.27
 -19   9  13    0.04    0.35
 -18  10  13    0.25    0.35
 -17  11  13    1.46    0.49
 -16  12  13    4.33    0.70
 -15  13  13    0.34    0.40
 -14  14  13    0.28    0.40
 -13  15  13   -0.06    0.34
 -12  16  13   -0.15    0.28
 -11  17  13    0.54    0.39
 -10  18  13   -0.03    0.38
 -20   6  13    0.77    0.36
 -19   7  13    1.72    0.44
 -18   8  13    1.30    0.39
 -17   9  13    1.25    0.41
 -16  10  13    0.34    0.36
 -15  11  13    1.30    0.44
 -14  12  13   -0.11    0.31
 -13  13  13    0.13    0.34
 -12  14  13    0.10    0.31
 -11  15  13    0.81    0.43
 -10  16  13    0.18    0.33
  -9  17  13    1.47    0.49
  -8  18  13   -0.10    0.33
 -20   4  13    0.76    0.34
 -19   5  13    1.80    0.43
 -18   6  13    1.20    0.38
 -17   7  13    0.28    0.31
 -16   8  13    0.02    0.28
 -15   9  13    1.18    0.43
 -14  10  13    0.10    0.29
 -13  11  13    0.06    0.29
 -12  12  13    2.46    0.52
 -11  13  13    0.47    0.36
 -10  14  13    0.15    0.31
  -9  15  13   -0.19    0.31
  -8  16  13    2.46    0.55
  -7  17  13    0.16    0.33
  -6  18  13    0.00    0.33
 -19   3  13    0.53    0.33
 -18   4  13   -0.30    0.22
 -17   5  13    0.32    0.30
 -16   6  13    0.28    0.25
 -15   7  13    1.69    0.44
 -14   8  13    0.95    0.38
 -13   9  13   -0.03    0.24
 -12  10  13    0.14    0.28
 -11  11  13    4.68    0.64
  -9  13  13    0.30    0.33
  -8  14  13    1.38    0.44
  -7  15  13    0.10    0.31
  -6  16  13   -0.07    0.33
  -5  17  13    0.40    0.37
  21   1 -13    0.01    0.31
 -18   2  13    2.37    0.46
 -17   3  13    0.95    0.36
 -16   4  13    0.22    0.23
 -15   5  13    0.44    0.28
 -14   6  13    3.47    0.53
 -13   7  13    5.74    0.64
 -12   8  13    2.09    0.45
 -11   9  13   -0.07    0.21
 -10  10  13    0.20    0.27
  -9  11  13    0.33    0.32
  -8  12  13    0.86    0.33
  -7  13  13   -0.06    0.24
  -6  14  13    0.16    0.29
  -5  15  13    1.25    0.41
  20   2 -13    0.14    0.31
  19   1 -13   -0.10    0.24
  18   0 -13    1.00    0.36
 -17   1  13    3.28    0.48
  17  -1 -13    3.19    0.51
 -16   2  13    3.88    0.53
 -15   3  13    3.85    0.51
 -14   4  13    2.34    0.42
 -13   5  13    0.64    0.30
 -12   6  13    0.87    0.33
 -11   7  13    2.46    0.43
 -10   8  13    0.70    0.33
  -9   9  13    0.36    0.27
  -8  10  13    1.11    0.37
  -7  11  13    0.57    0.30
  -6  12  13    2.86    0.51
  -5  13  13    2.11    0.46
  -4  14  13    0.21    0.32
  20   4 -13    1.84    0.52
  19   3 -13    0.77    0.39
  18   2 -13    1.83    0.46
 -17  -1  13    3.49    0.47
  17   1 -13    3.97    0.60
 -16   0  13    2.46    0.41
  16   0 -13    2.68    0.49
 -15   1  13    1.03    0.30
  15  -1 -13    1.02    0.34
 -14   2  13    4.83    0.54
  14  -2 -13    4.26    0.54
 -13   3  13    3.57    0.48
  13  -3 -13    3.41    0.52
 -12   4  13    0.48    0.26
 -11   5  13    0.46    0.24
 -10   6  13    1.95    0.40
  -9   7  13    6.13    0.64
  -8   8  13    5.64    0.62
  -7   9  13    0.22    0.26
  -6  10  13    0.53    0.29
  -5  11  13    2.72    0.49
  -4  12  13    2.37    0.46
  -3  13  13    1.06    0.36
  19   5 -13    0.84    0.43
  18   4 -13   -0.26    0.28
  17   3 -13    2.44    0.53
 -16  -2  13    2.94    0.43
  16   2 -13    3.33    0.58
 -15  -1  13    1.07    0.30
  15   1 -13    1.02    0.37
 -14   0  13    0.21    0.24
  14   0 -13    0.33    0.28
 -13   1  13    0.43    0.24
  13  -1 -13    0.57    0.29
 -12   2  13    5.00    0.55
  12  -2 -13    5.05    0.60
 -11   3  13    4.53    0.51
  11  -3 -13    6.03    0.63
 -10   4  13    0.28    0.23
  10  -4 -13    0.48    0.26
  -9   5  13    0.52    0.26
  -8   6  13    5.51    0.57
  -7   7  13    8.60    0.65
  -6   8  13    0.54    0.30
  -5   9  13    0.05    0.24
  -4  10  13    0.14    0.26
  -3  11  13    0.00    0.25
  -2  12  13   -0.37    0.24
  19   7 -13    1.49    0.50
  18   6 -13    1.41    0.46
  17   5 -13    0.38    0.32
  16   4 -13    0.17    0.32
 -15  -3  13    3.32    0.43
  15   3 -13    3.39    0.59
 -14  -2  13    4.64    0.50
  14   2 -13    5.38    0.68
 -13  -1  13    0.52    0.26
  13   1 -13    0.23    0.27
 -12   0  13    1.55    0.34
  12   0 -13    1.89    0.42
 -11   1  13    2.89    0.43
  11  -1 -13    2.80    0.49
 -10   2  13   12.11    0.78
  10  -2 -13   12.38    0.89
  -9   3  13    4.48    0.52
   9  -3 -13    4.96    0.65
  -8   4  13    1.53    0.34
  -7   5  13    0.29    0.23
   7  -5 -13   -0.16    0.21
  -6   6  13    1.43    0.34
  -5   7  13    1.26    0.34
  -4   8  13    2.08    0.40
  -3   9  13    0.31    0.24
  -2  10  13   -0.20    0.24
  -1  11  13   -0.02    0.29
  18   8 -13    0.45    0.46
  17   7 -13    0.06    0.35
  16   6 -13    0.23    0.34
  15   5 -13    0.23    0.34
 -14  -4  13    1.44    0.33
  14   4 -13    1.90    0.49
 -13  -3  13    3.59    0.44
  13   3 -13    3.54    0.60
 -12  -2  13    4.31    0.50
  12   2 -13    5.13    0.69
 -11  -1  13    2.70    0.40
  11   1 -13    2.84    0.52
 -10   0  13   -0.14    0.20
  10   0 -13    0.14    0.26
  -9   1  13    0.44    0.23
   9  -1 -13    0.95    0.36
  -8   2  13    2.00    0.36
   8  -2 -13    1.77    0.44
  -7   3  13    5.45    0.55
   7  -3 -13    4.63    0.63
  -6   4  13    0.30    0.22
   6  -4 -13    0.24    0.23
  -5   5  13   -0.16    0.20
   5  -5 -13   -0.06    0.19
  -4   6  13    1.21    0.33
  -3   7  13    7.07    0.67
  -2   8  13    1.62    0.38
  -1   9  13    0.28    0.29
   0  10  13    0.97    0.37
  17   9 -13    1.13    0.50
  16   8 -13    0.51    0.37
  15   7 -13    1.39    0.47
  14   6 -13    2.83    0.58
 -13  -5  13    0.64    0.25
  13   5 -13    0.17    0.31
 -12  -4  13    0.09    0.22
  12   4 -13    0.29    0.32
 -11  -3  13    5.26    0.52
  11   3 -13    5.14    0.71
 -10  -2  13   11.87    0.75
  10   2 -13   11.00    0.93
   9   1 -13    0.89    0.38
  -8   0  13    0.09    0.21
   8   0 -13   -0.22    0.22
  -7   1  13    0.79    0.26
   7  -1 -13    0.46    0.30
  -6   2  13    9.76    0.67
   6  -2 -13    9.29    0.78
  -5   3  13    4.30    0.50
   5  -3 -13    3.50    0.54
  -4   4  13    0.81    0.28
   4  -4 -13    0.27    0.27
  -3   5  13   -0.12    0.23
   3  -5 -13    0.14    0.23
  -2   6  13    1.32    0.36
   2  -6 -13    1.95    0.42
  -1   7  13    0.79    0.32
   0   8  13    0.08    0.26
   1   9  13    0.05    0.28
  16  10 -13    0.61    0.40
  15   9 -13    0.73    0.39
  14   8 -13    1.99    0.54
  13   7 -13    6.75    0.87
 -12  -6  13    0.95    0.28
  12   6 -13    0.64    0.37
 -11  -5  13    0.87    0.29
  11   5 -13    0.56    0.33
 -10  -4  13    0.22    0.25
  10   4 -13    0.10    0.29
  -9  -3  13    4.88    0.52
   9   3 -13    3.75    0.64
  -8  -2  13    1.91    0.37
   8   2 -13    2.23    0.51
  -7  -1  13    0.62    0.29
   7   1 -13    0.90    0.34
  -6   0  13   -0.21    0.17
   6   0 -13    0.28    0.27
  -5   1  13    0.33    0.24
   5  -1 -13    0.40    0.29
  -4   2  13    2.58    0.42
   4  -2 -13    2.33    0.46
  -3   3  13    3.02    0.44
   3  -3 -13    3.09    0.51
  -2   4  13    0.53    0.29
   2  -4 -13    0.41    0.27
  -1   5  13    0.15    0.27
   1  -5 -13    0.46    0.32
   0   6  13   -0.10    0.26
   0  -6 -13   -0.05    0.26
   1   7  13    0.17    0.29
  -1  -7 -13    0.36    0.32
  15  11 -13    1.43    0.51
  14  10 -13    0.63    0.41
  13   9 -13   -0.19    0.31
  12   8 -13    2.03    0.53
 -11  -7  13    1.01    0.29
  11   7 -13    2.26    0.49
 -10  -6  13    1.47    0.33
  10   6 -13    1.22    0.44
  -9  -5  13    1.19    0.30
   9   5 -13    1.45    0.48
  -8  -4  13    1.91    0.38
   8   4 -13    1.03    0.42
  -7  -3  13    5.08    0.55
   7   3 -13    5.41    0.73
  -6  -2  13   12.15    0.77
   6   2 -13   11.61    0.92
  -5  -1  13    0.87    0.29
   5   1 -13    1.24    0.39
  -4   0  13    0.34    0.25
   4   0 -13    0.33    0.25
  -3   1  13    0.62    0.30
   3  -1 -13    1.70    0.39
  -2   2  13    8.34    0.66
   2  -2 -13    9.26    0.78
  -1   3  13    0.89    0.33
   1  -3 -13    1.55    0.40
   0   4  13    2.57    0.43
   0  -4 -13    1.36    0.42
  -1  -5 -13   -0.09    0.27
  -2  -6 -13    0.22    0.32
  -3  -7 -13    1.13    0.44
  14  12 -13   -0.07    0.26
  13  11 -13    0.31    0.35
  12  10 -13    0.15    0.35
  11   9 -13    0.08    0.27
  10   8 -13    0.48    0.35
   9   7 -13    7.75    0.91
   8   6 -13    6.96    0.85
  -7  -5  13   -0.04    0.20
   7   5 -13   -0.49    0.23
  -6  -4  13    0.59    0.29
   6   4 -13    0.54    0.33
  -5  -3  13    4.20    0.50
   5   3 -13    3.99    0.60
  -4  -2  13    3.13    0.45
   4   2 -13    2.05    0.46
  -3  -1  13    1.24    0.33
   3   1 -13    1.11    0.39
   2   0 -13    0.09    0.23
   1  -1 -13    1.11    0.38
   0  -2 -13    1.04    0.38
  -1  -3 -13    4.26    0.63
  -2  -4 -13    1.02    0.40
  -3  -5 -13    0.83    0.41
  -4  -6 -13    0.45    0.38
  -5  -7 -13   -0.01    0.42
  13  13 -13   -0.30    0.24
  12  12 -13    3.06    0.61
  11  11 -13    4.90    0.75
  10  10 -13    0.39    0.36
   9   9 -13    0.24    0.31
   7   7 -13    9.01    0.84
   6   6 -13    1.16    0.40
   5   5 -13    0.01    0.28
   4   4 -13    1.31    0.37
   3   3 -13    4.63    0.63
   2   2 -13    8.84    0.75
   1   1 -13    0.86    0.32
   0   0 -13   -0.04    0.22
  -1  -1 -13    1.12    0.39
  -2  -2 -13    2.06    0.47
  -3  -3 -13    0.36    0.31
  -4  -4 -13    0.21    0.35
  -5  -5 -13    0.21    0.38
  12  14 -13    0.71    0.38
  11  13 -13    0.20    0.32
  10  12 -13    2.56    0.57
   9  11 -13   -0.33    0.24
   8  10 -13    0.82    0.45
   7   9 -13    0.03    0.33
   6   8 -13    0.68    0.35
   5   7 -13    1.14    0.37
   4   6 -13    0.80    0.31
   3   5 -13   -0.08    0.25
   2   4 -13    0.73    0.30
   1   3 -13    0.49    0.30
   0   2 -13    0.74    0.36
  -1   1 -13    0.83    0.37
  -2   0 -13    0.17    0.31
  -3  -1 -13    1.04    0.42
  -4  -2 -13    0.43    0.34
  -5  -3 -13    1.41    0.50
  11  15 -13    0.90    0.42
  10  14 -13    0.01    0.31
   9  13 -13    0.71    0.39
   8  12 -13    1.08    0.44
   7  11 -13    0.51    0.34
   6  10 -13    0.64    0.38
   5   9 -13    0.11    0.28
   4   8 -13    2.63    0.55
   3   7 -13    8.46    0.79
   2   6 -13    1.47    0.43
   1   5 -13    0.04    0.25
   0   4 -13    1.39    0.43
  -1   3 -13    4.09    0.63
  -2   2 -13    2.56    0.50
  -3   1 -13    0.71    0.38
  -4   0 -13    0.40    0.40
  -5  -1 -13    0.30    0.39
   9  15 -13    0.70    0.36
   8  14 -13    0.94    0.43
   7  13 -13    0.15    0.29
   6  12 -13    2.45    0.58
   5  11 -13    1.49    0.45
   4  10 -13    0.27    0.34
   3   9 -13   -0.08    0.31
   2   8 -13    2.15    0.50
   1   7 -13    1.04    0.39
   0   6 -13   -0.01    0.30
  -1   5 -13   -0.11    0.24
  -2   4 -13    0.58    0.39
  -3   3 -13    0.02    0.33
  -4   2 -13   -0.31    0.32
  -5   1 -13    0.57    0.43
   8  16 -13    4.04    0.66
   7  15 -13   -0.01    0.31
   6  14 -13    0.15    0.32
   5  13 -13    1.35    0.49
   4  12 -13    3.12    0.60
   3  11 -13    0.80    0.38
   2  10 -13    0.09    0.31
   1   9 -13    0.57    0.38
   0   8 -13    0.46    0.37
  -1   7 -13    0.30    0.29
  -2   6 -13   -0.05    0.30
  -3   5 -13    1.08    0.39
  -4   4 -13    0.16    0.35
   6  16 -13    0.16    0.34
   5  15 -13    1.32    0.50
   4  14 -13    0.69    0.43
   3  13 -13    1.32    0.48
   2  12 -13    0.29    0.36
   1  11 -13    0.32    0.35
   0  10 -13    1.10    0.44
  -1   9 -13    0.15    0.28
  -2   8 -13    1.06    0.44
  -3   7 -13    1.42    0.45
   3  15 -13   -0.10    0.28
   2  14 -13   -0.25    0.26
   0  12 -13    3.86    0.66
  -1  11 -13    1.85    0.52
  -2  10 -13    0.36    0.37
 -17  13  14    0.54    0.45
 -16  14  14    1.34    0.49
 -20   8  14    1.03    0.43
 -19   9  14    5.02    0.74
 -18  10  14    0.70    0.41
 -17  11  14    2.07    0.56
 -16  12  14    0.31    0.36
 -15  13  14    0.47    0.39
 -14  14  14    1.23    0.47
 -13  15  14   -0.25    0.35
 -12  16  14    0.64    0.44
 -21   5  14    0.96    0.37
 -20   6  14    0.30    0.31
 -19   7  14   -0.10    0.28
 -18   8  14    0.02    0.31
 -17   9  14    0.76    0.34
 -16  10  14    0.52    0.38
 -15  11  14    1.12    0.45
 -14  12  14    0.05    0.35
 -13  13  14    0.11    0.32
 -12  14  14    4.18    0.70
 -11  15  14    4.28    0.70
 -10  16  14    0.45    0.40
  -9  17  14    0.03    0.34
 -20   4  14   -0.16    0.26
 -19   5  14    0.73    0.37
 -18   6  14    0.53    0.33
 -17   7  14   -0.12    0.29
 -16   8  14    0.26    0.31
 -15   9  14    2.88    0.55
 -14  10  14   11.53    0.96
 -13  11  14    0.44    0.39
 -12  12  14   -0.31    0.29
 -11  13  14    0.98    0.43
 -10  14  14    1.34    0.47
  -9  15  14    1.10    0.43
  -8  16  14    0.37    0.39
  -7  17  14   -0.06    0.30
 -19   3  14    0.11    0.30
 -18   4  14    1.77    0.43
 -17   5  14   14.50    1.00
 -16   6  14    4.99    0.64
 -15   7  14    0.07    0.31
 -14   8  14    1.52    0.43
 -13   9  14    2.95    0.55
 -12  10  14    0.94    0.40
 -11  11  14    1.00    0.41
 -10  12  14    0.50    0.36
  -9  13  14    0.22    0.33
  -8  14  14    0.46    0.35
  -7  15  14    1.15    0.43
  -6  16  14    1.06    0.44
 -18   2  14   -0.03    0.28
 -17   3  14    1.29    0.37
 -16   4  14    5.65    0.64
 -15   5  14   -0.23    0.26
 -14   6  14    1.35    0.41
 -13   7  14   -0.25    0.27
 -12   8  14    0.08    0.26
 -11   9  14    2.17    0.48
 -10  10  14    0.70    0.36
  -9  11  14    1.58    0.45
  -8  12  14    0.38    0.33
  -7  13  14   -0.31    0.26
  -6  14  14    4.25    0.64
  -5  15  14    2.28    0.54
  20   2 -14    0.18    0.33
  19   1 -14    4.70    0.67
 -18   0  14    0.69    0.33
  18   0 -14    0.59    0.31
 -17   1  14    0.51    0.30
 -16   2  14    0.55    0.31
 -15   3  14   -0.20    0.23
 -14   4  14    0.82    0.30
 -13   5  14   -0.06    0.26
 -12   6  14    2.46    0.44
 -11   7  14    0.20    0.29
 -10   8  14    0.36    0.31
  -9   9  14    9.48    0.79
  -8  10  14    5.32    0.65
  -7  11  14    0.05    0.29
  -6  12  14    1.48    0.40
  -5  13  14    1.01    0.41
  -4  14  14   -0.07    0.30
  19   3 -14    0.02    0.33
  18   2 -14   -0.25    0.28
 -17  -1  14    1.32    0.35
  17   1 -14    1.01    0.39
 -16   0  14    0.20    0.25
  16   0 -14    0.29    0.29
 -15   1  14    1.71    0.39
  15  -1 -14    2.66    0.50
 -14   2  14    0.87    0.34
  14  -2 -14    0.74    0.36
 -13   3  14    0.14    0.27
 -12   4  14    6.33    0.64
 -11   5  14   14.06    0.88
 -10   6  14    0.00    0.22
  -9   7  14    2.74    0.46
  -8   8  14    0.54    0.28
  -7   9  14   -0.13    0.22
  -6  10  14    1.77    0.44
  -5  11  14    0.52    0.33
  -4  12  14   -0.09    0.27
  -3  13  14    0.97    0.36
  19   5 -14    0.82    0.40
  18   4 -14    1.35    0.49
  17   3 -14    1.66    0.50
 -16  -2  14    0.21    0.26
  16   2 -14    0.65    0.36
 -15  -1  14    2.57    0.44
  15   1 -14    2.73    0.54
 -14   0  14   18.39    1.03
  14   0 -14   17.71    1.14
 -13   1  14    3.39    0.50
  13  -1 -14    4.55    0.62
 -12   2  14    0.69    0.31
  12  -2 -14    1.53    0.40
 -11   3  14    1.17    0.32
  11  -3 -14    1.77    0.41
 -10   4  14    0.54    0.29
  -9   5  14    3.61    0.51
  -8   6  14    6.77    0.67
  -7   7  14   -0.12    0.26
  -6   8  14    2.28    0.45
  -5   9  14    0.36    0.28
  -4  10  14    2.52    0.47
  -3  11  14    3.80    0.56
  -2  12  14    1.34    0.43
  18   6 -14    0.60    0.37
  17   5 -14   12.94    1.09
  16   4 -14    6.44    0.83
 -15  -3  14   -0.11    0.24
  15   3 -14    0.04    0.29
 -14  -2  14    0.01    0.25
  14   2 -14    0.99    0.40
 -13  -1  14    3.56    0.49
  13   1 -14    4.29    0.65
 -12   0  14    0.76    0.31
  12   0 -14    0.42    0.32
 -11   1  14    3.77    0.50
  11  -1 -14    4.47    0.65
 -10   2  14   -0.19    0.19
  10  -2 -14    0.08    0.26
  -9   3  14    0.72    0.29
   9  -3 -14    1.58    0.43
  -8   4  14    2.05    0.39
   8  -4 -14    1.87    0.44
  -7   5  14    1.06    0.31
  -6   6  14    4.45    0.56
  -5   7  14   -0.13    0.25
  -4   8  14   -0.08    0.25
  -3   9  14    3.28    0.52
  -2  10  14    2.27    0.47
  -1  11  14    2.38    0.49
  17   7 -14    0.15    0.37
  16   6 -14    3.48    0.68
  15   5 -14    0.09    0.33
 -14  -4  14    1.18    0.32
  14   4 -14    1.17    0.44
 -13  -3  14    0.28    0.27
  13   3 -14    0.29    0.30
 -12  -2  14    0.72    0.30
  12   2 -14    0.89    0.42
 -11  -1  14    3.50    0.48
  11   1 -14    3.41    0.60
 -10   0  14    0.14    0.25
  10   0 -14    0.12    0.30
  -9   1  14    9.26    0.71
   9  -1 -14    8.20    0.92
  -8   2  14   -0.39    0.21
   8  -2 -14    0.27    0.27
  -7   3  14   -0.07    0.23
   7  -3 -14   -0.22    0.21
  -6   4  14    6.84    0.66
   6  -4 -14    6.62    0.75
  -5   5  14    4.23    0.52
   5  -5 -14    3.43    0.55
  -4   6  14    2.46    0.43
  -3   7  14    0.53    0.31
  -2   8  14    0.02    0.27
  -1   9  14   -0.10    0.28
  17   9 -14    0.64    0.44
  16   8 -14    0.06    0.34
  15   7 -14   -0.05    0.29
  14   6 -14    1.63    0.53
 -13  -5  14    0.16    0.25
  13   5 -14   -0.72    0.25
 -12  -4  14    7.29    0.62
  12   4 -14    6.67    0.84
 -11  -3  14    0.61    0.30
  11   3 -14    1.77    0.51
 -10  -2  14    0.01    0.26
  10   2 -14   -0.24    0.24
  -9  -1  14   10.92    0.76
   9   1 -14    7.01    0.91
  -8   0  14   13.71    0.85
   8   0 -14   13.37    1.01
  -7   1  14   -0.08    0.25
   7  -1 -14    0.15    0.30
  -6   2  14    1.42    0.37
   6  -2 -14    2.05    0.46
  -5   3  14    0.16    0.26
   5  -3 -14   -0.04    0.25
  -4   4  14    0.23    0.25
   4  -4 -14    0.39    0.31
  -3   5  14    2.22    0.42
   3  -5 -14    1.60    0.42
  -2   6  14   -0.04    0.26
  -1   7  14    0.16    0.29
   0   8  14   -0.21    0.28
  16  10 -14    0.01    0.40
  15   9 -14    2.48    0.64
  14   8 -14    0.89    0.41
 -13  -7  14   -0.05    0.21
  13   7 -14   -0.57    0.30
 -12  -6  14    1.89    0.39
  12   6 -14    2.68    0.62
 -11  -5  14   14.70    0.89
  11   5 -14   15.18    1.17
 -10  -4  14    0.55    0.30
  10   4 -14    0.98    0.44
  -9  -3  14    1.21    0.36
   9   3 -14    1.31    0.49
  -8  -2  14    0.15    0.27
   8   2 -14    0.06    0.30
  -7  -1  14   -0.48    0.25
   7   1 -14    0.25    0.27
  -6   0  14    4.57    0.56
   6   0 -14    3.74    0.63
  -5   1  14    0.29    0.25
   5  -1 -14    0.72    0.35
  -4   2  14    0.97    0.36
   4  -2 -14    1.16    0.38
  -3   3  14    1.69    0.38
   3  -3 -14    1.50    0.43
  -2   4  14    0.37    0.31
   2  -4 -14    0.43    0.31
  -1   5  14    7.18    0.71
   1  -5 -14    6.94    0.82
   0   6  14    1.72    0.42
   0  -6 -14    1.57    0.47
  15  11 -14    1.08    0.54
  14  10 -14   11.54    1.05
  13   9 -14    3.46    0.70
  12   8 -14    0.42    0.40
  11   7 -14    0.23    0.39
 -10  -6  14   -0.07    0.27
  10   6 -14    0.18    0.39
  -9  -5  14    4.27    0.51
   9   5 -14    3.89    0.69
  -8  -4  14    1.65    0.40
   8   4 -14    2.10    0.54
  -7  -3  14   -0.02    0.23
   7   3 -14   -0.07    0.28
  -6  -2  14    1.33    0.39
   6   2 -14    1.90    0.47
  -5  -1  14    0.62    0.28
   5   1 -14    0.28    0.29
  -4   0  14   10.59    0.80
   4   0 -14    9.75    0.85
  -3   1  14    4.15    0.54
   3  -1 -14    3.84    0.61
  -2   2  14   -0.27    0.28
   2  -2 -14    0.09    0.29
   1  -3 -14    0.97    0.37
   0  -4 -14    3.27    0.61
  -1  -5 -14    0.77    0.38
  -2  -6 -14    1.95    0.54
  14  12 -14   -0.20    0.29
  13  11 -14    0.51    0.44
  11   9 -14    2.16    0.57
  10   8 -14   -0.07    0.36
   9   7 -14    1.97    0.57
   8   6 -14    5.85    0.81
   7   5 -14    1.88    0.50
   6   4 -14    6.38    0.79
   5   3 -14   -0.01    0.29
   4   2 -14    1.05    0.40
   3   1 -14    3.58    0.60
   2   0 -14    0.15    0.26
   1  -1 -14    2.42    0.50
   0  -2 -14    2.28    0.52
  -1  -3 -14    0.15    0.32
  -2  -4 -14    0.86    0.41
  -3  -5 -14    0.85    0.45
  12  12 -14    0.22    0.38
  11  11 -14    1.53    0.50
  10  10 -14    0.16    0.37
   9   9 -14    9.31    1.02
   8   8 -14    0.58    0.40
   7   7 -14   -0.49    0.31
   6   6 -14    3.94    0.67
   5   5 -14    4.30    0.67
   4   4 -14    0.14    0.31
   3   3 -14    1.72    0.45
   2   2 -14   -0.10    0.29
   1   1 -14    2.18    0.50
   0   0 -14    2.05    0.47
  -1  -1 -14    0.03    0.30
  -2  -2 -14   -0.03    0.30
  -3  -3 -14    1.20    0.47
  11  13 -14    0.35    0.42
  10  12 -14   -0.32    0.31
   9  11 -14    0.48    0.43
   8  10 -14    6.54    0.88
   7   9 -14    0.04    0.28
   6   8 -14    2.30    0.53
   5   7 -14   -0.01    0.28
   4   6 -14    2.89    0.56
   3   5 -14    2.24    0.48
   2   4 -14    0.22    0.28
   1   3 -14    0.51    0.34
   0   2 -14    3.61    0.60
  -1   1 -14    0.63    0.32
  -2   0 -14    1.07    0.42
  -3  -1 -14    1.54    0.48
  10  14 -14    0.97    0.44
   9  13 -14    0.58    0.40
   8  12 -14    0.33    0.42
   7  11 -14    0.40    0.42
   6  10 -14    1.52    0.50
   5   9 -14    0.07    0.34
   4   8 -14   -0.28    0.28
   3   7 -14    1.56    0.46
   2   6 -14    0.33    0.34
   1   5 -14    8.04    0.88
   0   4 -14    4.38    0.68
  -1   3 -14    0.25    0.33
  -2   2 -14    0.11    0.33
  -3   1 -14    1.52    0.48
   8  14 -14    0.14    0.38
   7  13 -14    0.06    0.38
   6  12 -14    1.40    0.49
   5  11 -14    0.75    0.44
   4  10 -14    1.76    0.54
   3   9 -14    3.73    0.62
   2   8 -14    0.27    0.29
   1   7 -14    0.42    0.35
   0   6 -14    2.13    0.49
  -1   5 -14    0.45    0.37
  -2   4 -14    0.09    0.35
  -3   3 -14    0.98    0.40
   6  14 -14    5.73    0.87
   5  13 -14    0.26    0.42
   4  12 -14    0.47    0.35
   3  11 -14    3.57    0.66
   2  10 -14    2.00    0.52
   1   9 -14   -0.02    0.35
   0   8 -14    0.17    0.29
  -1   7 -14    0.82    0.37
  -2   6 -14    0.81    0.41
   2  12 -14    1.54    0.48
   1  11 -14    3.17    0.63
 -19   9  15    4.52    0.70
 -18  10  15    0.04    0.34
 -17  11  15   -0.22    0.28
 -16  12  15    0.68    0.41
 -15  13  15   -0.07    0.37
 -14  14  15    0.21    0.39
 -20   6  15    0.25    0.33
 -19   7  15   -0.45    0.28
 -18   8  15    0.22    0.34
 -17   9  15    0.11    0.34
 -16  10  15    0.91    0.44
 -15  11  15    1.64    0.53
 -14  12  15    0.03    0.36
 -13  13  15    0.49    0.42
 -12  14  15    8.89    1.03
 -11  15  15    1.45    0.53
 -20   4  15    0.26    0.34
 -19   5  15    0.12    0.32
 -18   6  15    1.05    0.40
 -17   7  15    1.21    0.44
 -16   8  15    0.95    0.42
 -15   9  15   14.80    1.11
 -14  10  15   11.89    1.03
 -13  11  15    0.02    0.35
 -12  12  15    0.39    0.39
 -11  13  15    2.31    0.56
 -10  14  15   -0.35    0.31
  -9  15  15    0.25    0.37
 -19   3  15    0.14    0.31
 -18   4  15    5.77    0.68
 -17   5  15   14.39    1.02
 -16   6  15    4.22    0.61
 -15   7  15    1.24    0.43
 -14   8  15    3.69    0.61
 -13   9  15    0.42    0.40
 -12  10  15    0.14    0.29
 -11  11  15   -0.21    0.25
 -10  12  15    0.11    0.35
  -9  13  15    0.81    0.42
  -8  14  15    0.37    0.39
  -7  15  15    3.02    0.60
 -18   2  15    0.71    0.35
 -17   3  15    3.69    0.58
 -16   4  15    4.05    0.60
 -15   5  15   -0.07    0.29
 -14   6  15   -0.09    0.26
 -13   7  15    0.65    0.36
 -12   8  15    0.09    0.34
 -11   9  15   -0.26    0.23
 -10  10  15    4.94    0.65
  -9  11  15    3.81    0.60
  -8  12  15    0.02    0.28
  -7  13  15    1.90    0.46
  -6  14  15    4.64    0.69
  -5  15  15   -0.29    0.32
  20   2 -15    0.86    0.41
 -18   0  15   -0.03    0.28
 -17   1  15   -0.11    0.25
 -16   2  15    0.82    0.36
 -15   3  15   -0.03    0.24
 -14   4  15   -0.15    0.20
 -13   5  15    5.32    0.65
 -12   6  15   12.30    0.87
 -11   7  15    0.44    0.30
 -10   8  15    2.70    0.50
  -9   9  15   16.52    1.08
  -8  10  15    3.61    0.59
  -7  11  15   -0.09    0.27
  -6  12  15    0.04    0.33
  -5  13  15    0.35    0.37
  -4  14  15   -0.34    0.30
  19   3 -15    0.21    0.37
  18   2 -15    0.87    0.40
 -17  -1  15    0.28    0.28
  17   1 -15   -0.09    0.27
 -16   0  15    3.21    0.51
  16   0 -15    2.20    0.50
 -15   1  15   13.06    0.91
 -14   2  15    2.36    0.44
 -13   3  15    2.56    0.45
 -12   4  15   22.53    1.22
 -11   5  15   13.10    0.90
 -10   6  15    0.04    0.26
  -9   7  15    0.67    0.33
  -8   8  15    0.91    0.35
  -7   9  15    0.14    0.26
  -6  10  15    0.47    0.34
  -5  11  15    2.18    0.51
  -4  12  15   -0.31    0.30
  -3  13  15   -0.04    0.35
  18   4 -15    6.03    0.86
  17   3 -15    3.36    0.64
 -16  -2  15    0.60    0.32
  16   2 -15    1.03    0.42
 -15  -1  15   12.60    0.88
  15   1 -15   14.18    1.05
 -14   0  15   27.58    1.33
  14   0 -15   24.71    1.46
 -13   1  15    1.43    0.39
  13  -1 -15    2.51    0.51
 -12   2  15    0.62    0.32
  12  -2 -15    0.06    0.31
 -11   3  15    6.00    0.67
 -10   4  15   -0.02    0.25
  -9   5  15    1.06    0.34
  -8   6  15    1.06    0.34
  -7   7  15    0.52    0.36
  -6   8  15   -0.21    0.26
  -5   9  15    2.88    0.51
  -4  10  15   16.86    1.09
  -3  11  15    0.25    0.36
  18   6 -15    1.51    0.56
  17   5 -15   12.11    1.06
  16   4 -15    4.69    0.76
 -15  -3  15    0.13    0.26
  15   3 -15    0.22    0.30
 -14  -2  15    2.57    0.46
  14   2 -15    2.71    0.58
 -13  -1  15    1.77    0.43
  13   1 -15    2.21    0.51
 -12   0  15    0.46    0.28
  12   0 -15   -0.14    0.29
 -11   1  15    0.25    0.26
  11  -1 -15   -0.13    0.30
 -10   2  15    2.71    0.46
  10  -2 -15    3.70    0.65
  -9   3  15    0.17    0.29
   9  -3 -15    0.33    0.32
  -8   4  15    1.16    0.37
  -7   5  15   25.85    1.32
  -5   7  15    0.77    0.32
  -4   8  15    3.32    0.55
  -3   9  15    9.30    0.79
  -2  10  15   -0.23    0.35
  17   7 -15    0.43    0.41
  16   6 -15    4.30    0.75
  15   5 -15   -0.05    0.32
 -14  -4  15   -0.19    0.24
  14   4 -15   -0.16    0.32
 -13  -3  15    1.62    0.41
  13   3 -15    1.44    0.50
 -12  -2  15    0.55    0.33
  12   2 -15   -0.06    0.29
 -11  -1  15    0.33    0.26
  11   1 -15    0.48    0.36
 -10   0  15   21.95    1.13
  10   0 -15   18.37    1.33
  -9   1  15   23.20    1.17
   9  -1 -15   19.48    1.36
  -8   2  15    2.75    0.48
   8  -2 -15    2.97    0.59
  -7   3  15    5.55    0.65
   7  -3 -15    6.69    0.82
  -6   4  15   18.68    1.09
   6  -4 -15   16.24    1.18
  -5   5  15    3.65    0.53
  -4   6  15    0.31    0.27
  -3   7  15    0.68    0.37
  -2   8  15    0.71    0.38
  -1   9  15    0.65    0.40
  16   8 -15    0.72    0.41
  15   7 -15    1.35    0.49
 -14  -6  15    0.07    0.25
  14   6 -15   -0.34    0.24
 -13  -5  15    6.22    0.63
  13   5 -15    5.52    0.82
 -12  -4  15   22.39    1.16
  12   4 -15   18.91    1.35
 -11  -3  15    6.38    0.65
  11   3 -15    5.77    0.85
 -10  -2  15    3.59    0.52
  10   2 -15    2.57    0.65
  -9  -1  15   26.54    1.30
   9   1 -15   21.52    1.49
  -8   0  15    9.68    0.79
   8   0 -15    8.79    0.99
  -7   1  15    0.00    0.27
   7  -1 -15    0.03    0.31
  -6   2  15    0.05    0.26
   6  -2 -15   -0.31    0.25
  -5   3  15    0.46    0.33
   5  -3 -15    0.68    0.37
  -4   4  15   -0.23    0.30
   4  -4 -15    0.65    0.32
  -3   5  15    1.17    0.39
  -2   6  15    3.00    0.54
  -1   7  15    1.15    0.43
   0   8  15   -0.06    0.29
  15   9 -15   10.48    1.18
  14   8 -15    5.48    0.84
 -13  -7  15    1.12    0.33
  13   7 -15    0.89    0.43
 -12  -6  15   11.56    0.82
  12   6 -15   12.51    1.13
 -11  -5  15   14.68    0.95
  11   5 -15   15.93    1.25
 -10  -4  15    0.35    0.33
  10   4 -15    0.70    0.43
  -9  -3  15    0.16    0.27
   9   3 -15    0.00    0.34
  -8  -2  15    3.14    0.50
   8   2 -15    3.76    0.69
  -7  -1  15   -0.04    0.27
   7   1 -15   -0.11    0.29
  -6   0  15    0.19    0.30
   6   0 -15    0.13    0.33
  -5   1  15    6.89    0.71
   5  -1 -15    5.56    0.76
  -4   2  15    4.52    0.62
   4  -2 -15    4.40    0.68
  -3   3  15    0.13    0.27
   3  -3 -15    0.33    0.32
  -2   4  15    9.11    0.75
   2  -4 -15    7.55    0.89
  -1   5  15   16.34    1.04
   1  -5 -15   14.08    1.12
  14  10 -15   13.26    1.19
  13   9 -15    0.30    0.36
  12   8 -15    0.71    0.44
  11   7 -15    0.18    0.36
  10   6 -15   -0.34    0.35
  -9  -5  15    1.82    0.43
   9   5 -15    1.85    0.58
  -8  -4  15    0.71    0.39
   8   4 -15    1.66    0.55
  -7  -3  15    6.48    0.70
   7   3 -15    5.40    0.79
  -6  -2  15    0.42    0.34
   6   2 -15   -0.35    0.31
  -5  -1  15    5.29    0.63
   5   1 -15    5.95    0.78
  -4   0  15   25.88    1.36
   4   0 -15   26.00    1.52
   3  -1 -15   11.39    0.97
   2  -2 -15   -0.17    0.27
   1  -3 -15    4.35    0.68
   0  -4 -15    4.13    0.69
  -1  -5 -15    0.24    0.35
  13  11 -15    0.51    0.42
  12  10 -15    0.70    0.46
  11   9 -15    0.55    0.39
  10   8 -15    4.30    0.77
   9   7 -15    1.10    0.51
   8   6 -15    1.47    0.56
   7   5 -15   23.23    1.47
   6   4 -15   19.16    1.33
   5   3 -15    1.19    0.47
   3   1 -15   10.08    0.88
   2   0 -15    1.79    0.47
   1  -1 -15    0.15    0.28
   0  -2 -15    0.30    0.36
  -1  -3 -15    0.61    0.39
  -2  -4 -15    0.11    0.34
  11  11 -15    0.22    0.39
  10  10 -15    5.15    0.80
   9   9 -15   15.85    1.28
   8   8 -15    1.33    0.55
   7   7 -15    0.40    0.41
   6   6 -15    9.75    1.05
   5   5 -15    2.38    0.53
   4   4 -15    0.00    0.26
   3   3 -15   -0.20    0.30
   2   2 -15    0.32    0.33
   1   1 -15    0.34    0.31
   0   0 -15    0.56    0.36
  -1  -1 -15    5.44    0.76
  10  12 -15   -0.26    0.35
   9  11 -15    4.17    0.76
   8  10 -15    4.34    0.76
   7   9 -15    0.05    0.35
   6   8 -15    0.30    0.32
   5   7 -15   -0.06    0.32
   4   6 -15    0.33    0.35
   3   5 -15    1.06    0.41
   2   4 -15    8.64    0.94
   1   3 -15    3.42    0.60
   0   2 -15    0.77    0.42
  -1   1 -15    6.40    0.84
   8  12 -15   -0.10    0.33
   7  11 -15    0.27    0.40
   6  10 -15    0.16    0.34
   5   9 -15    2.72    0.63
   4   8 -15    3.96    0.70
   3   7 -15    0.67    0.41
   2   6 -15    3.42    0.66
   1   5 -15   16.34    1.21
   0   4 -15    4.80    0.72
  -1   3 -15    0.10    0.36
   5  11 -15    1.02    0.48
   4  10 -15   16.23    1.23
   3   9 -15    8.85    1.01
   2   8 -15    0.83    0.43
   1   7 -15    1.07    0.46
 -19   7  16    0.06    0.35
 -18   8  16    1.20    0.49
 -17   9  16    0.27    0.36
 -16  10  16    0.06    0.37
 -15  11  16   -0.19    0.27
 -14  12  16   -0.10    0.36
 -13  13  16    0.75    0.38
 -20   4  16    0.33    0.34
 -19   5  16    0.31    0.37
 -18   6  16   -0.05    0.30
 -17   7  16    0.35    0.36
 -16   8  16    0.23    0.37
 -15   9  16    1.59    0.50
 -14  10  16    0.01    0.38
 -13  11  16    0.56    0.39
 -12  12  16   -0.03    0.38
 -11  13  16    0.13    0.38
 -10  14  16   -0.32    0.36
 -19   3  16    0.62    0.35
 -18   4  16   -0.31    0.27
 -17   5  16    0.71    0.38
 -16   6  16   -0.02    0.33
 -15   7  16    0.10    0.35
 -14   8  16   -0.25    0.33
 -13   9  16   -0.03    0.38
 -12  10  16    0.78    0.29
 -11  11  16    0.47    0.35
 -10  12  16    0.86    0.46
  -9  13  16    0.29    0.32
 -19   1  16   -0.11    0.30
 -18   2  16    0.07    0.33
 -17   3  16    0.15    0.32
 -16   4  16   -0.28    0.24
 -15   5  16    0.85    0.37
 -14   6  16    0.02    0.28
 -13   7  16    1.52    0.46
 -12   8  16    1.36    0.45
 -11   9  16    0.06    0.27
 -10  10  16    1.39    0.42
  -9  11  16   -0.31    0.30
  -8  12  16   -0.32    0.30
  -7  13  16    1.68    0.48
 -18   0  16    0.33    0.33
 -17   1  16    0.94    0.39
 -16   2  16    0.33    0.34
 -15   3  16    1.40    0.42
 -14   4  16    0.43    0.35
 -13   5  16    0.24    0.32
 -12   6  16   -0.13    0.27
 -11   7  16    0.08    0.31
 -10   8  16    0.59    0.38
  -9   9  16    2.09    0.49
  -8  10  16    0.04    0.34
  -7  11  16   -0.24    0.24
  -6  12  16    0.01    0.33
  -5  13  16    0.70    0.43
  18   2 -16    0.20    0.37
 -17  -1  16    1.40    0.43
  17   1 -16    1.02    0.43
 -16   0  16    0.09    0.28
 -15   1  16    0.12    0.32
 -14   2  16    0.55    0.30
 -13   3  16    0.52    0.34
 -12   4  16    2.39    0.46
 -11   5  16   -0.45    0.27
 -10   6  16   -0.08    0.28
  -9   7  16    0.42    0.34
  -8   8  16    0.23    0.29
  -7   9  16    0.73    0.40
  -6  10  16    0.56    0.36
  -5  11  16   -0.11    0.32
  -4  12  16   -0.42    0.33
  18   4 -16    0.62    0.39
  17   3 -16   -0.02    0.35
 -16  -2  16    0.35    0.31
  16   2 -16    0.99    0.44
 -15  -1  16    0.10    0.31
  15   1 -16   -0.30    0.28
 -14   0  16    1.39    0.38
  14   0 -16    0.47    0.35
 -13   1  16    0.55    0.35
  13  -1 -16    0.99    0.46
 -12   2  16    1.43    0.42
 -11   3  16    0.25    0.33
 -10   4  16    1.73    0.44
  -9   5  16   -0.05    0.29
  -8   6  16   -0.09    0.27
  -7   7  16    0.46    0.36
  -6   8  16    0.48    0.36
  -5   9  16    3.14    0.59
  -4  10  16    1.11    0.43
  -3  11  16   -0.43    0.31
  17   5 -16    0.83    0.45
  16   4 -16   -0.13    0.34
 -15  -3  16    1.01    0.37
  15   3 -16    1.39    0.51
 -14  -2  16    0.22    0.33
  14   2 -16    0.63    0.40
 -13  -1  16    0.71    0.33
  13   1 -16    0.72    0.41
 -12   0  16    0.63    0.35
  12   0 -16    1.48    0.45
 -11   1  16    0.02    0.31
  11  -1 -16    0.73    0.39
 -10   2  16    0.18    0.31
  10  -2 -16    0.92    0.41
  -9   3  16    1.18    0.40
  -8   4  16    0.95    0.39
  -7   5  16    3.94    0.58
  -6   6  16    0.09    0.28
  -5   7  16    0.01    0.27
  -4   8  16    1.56    0.47
  -3   9  16    0.07    0.33
  -2  10  16    0.06    0.37
  16   6 -16   -0.23    0.33
 -15  -5  16    0.46    0.31
  15   5 -16    0.62    0.39
 -14  -4  16    0.70    0.36
  14   4 -16    0.36    0.40
 -13  -3  16   -0.14    0.29
  13   3 -16    0.02    0.35
 -12  -2  16    1.41    0.42
  12   2 -16    1.12    0.45
 -11  -1  16   -0.17    0.24
  11   1 -16    0.34    0.31
 -10   0  16    1.96    0.46
  10   0 -16    1.22    0.45
  -9   1  16    0.50    0.34
   9  -1 -16    0.67    0.39
  -8   2  16    0.43    0.30
   8  -2 -16    0.75    0.40
  -7   3  16    0.03    0.27
   7  -3 -16    0.00    0.30
  -6   4  16    0.62    0.33
  -5   5  16    0.17    0.33
  -4   6  16   -0.22    0.33
  -3   7  16   -0.04    0.33
  -1   9  16   -0.25    0.30
  15   7 -16   -0.05    0.37
 -14  -6  16    0.02    0.28
  14   6 -16    1.14    0.49
 -13  -5  16    0.23    0.32
  13   5 -16    1.21    0.50
 -12  -4  16    1.98    0.44
  12   4 -16    2.51    0.61
 -11  -3  16   -0.30    0.28
  11   3 -16   -0.23    0.36
 -10  -2  16    0.11    0.31
  10   2 -16    0.27    0.36
  -9  -1  16    0.55    0.31
   9   1 -16    0.63    0.43
  -8   0  16   -0.20    0.24
   8   0 -16   -0.07    0.30
  -7   1  16    1.34    0.43
   7  -1 -16    0.59    0.39
  -6   2  16   -0.34    0.24
   6  -2 -16    0.16    0.31
  -5   3  16    0.13    0.28
   5  -3 -16    0.02    0.29
  -4   4  16    0.21    0.33
  -3   5  16    0.65    0.40
  -2   6  16    1.09    0.44
  14   8 -16    0.46    0.45
  13   7 -16    2.33    0.62
 -12  -6  16   -0.40    0.26
  12   6 -16    0.08    0.33
 -11  -5  16   -0.44    0.28
  11   5 -16   -0.29    0.33
 -10  -4  16    2.47    0.48
  -9  -3  16    1.30    0.40
   9   3 -16    1.22    0.51
  -8  -2  16    0.95    0.37
   8   2 -16    0.46    0.39
  -7  -1  16    0.78    0.35
   7   1 -16    1.11    0.44
  -6   0  16   -0.10    0.26
   6   0 -16   -0.35    0.30
  -5   1  16    1.69    0.44
   5  -1 -16    2.14    0.53
  -4   2  16   -0.19    0.25
   4  -2 -16   -0.20    0.30
  -3   3  16    0.07    0.35
   3  -3 -16   -0.38    0.28
   2  -4 -16    2.07    0.54
  13   9 -16    0.12    0.42
  12   8 -16    1.88    0.58
  11   7 -16    0.55    0.40
  10   6 -16    0.80    0.48
   9   5 -16    0.40    0.44
   8   4 -16    0.93    0.51
   7   3 -16    0.42    0.40
   6   2 -16    0.88    0.42
   5   1 -16    2.14    0.53
   4   0 -16    6.14    0.81
   3  -1 -16    0.33    0.36
   2  -2 -16   -0.03    0.32
   1  -3 -16    0.80    0.41
   0  -4 -16    0.50    0.38
  11   9 -16   -0.27    0.29
  10   8 -16    0.48    0.47
   9   7 -16    0.29    0.40
   8   6 -16   -0.17    0.35
   7   5 -16    2.79    0.59
   6   4 -16    0.40    0.38
   5   3 -16    0.12    0.34
   4   2 -16    0.23    0.32
   3   1 -16    0.42    0.38
   2   0 -16    0.41    0.38
   1  -1 -16    0.14    0.30
   0  -2 -16    0.30    0.38
   9   9 -16    1.86    0.57
   8   8 -16    0.02    0.35
   7   7 -16    0.99    0.50
   6   6 -16    0.10    0.31
   5   5 -16    0.15    0.39
   4   4 -16   -0.11    0.27
   3   3 -16    0.09    0.30
   2   2 -16    0.02    0.32
   1   1 -16    0.04    0.33
   7   9 -16    0.53    0.40
   6   8 -16    0.42    0.38
   5   7 -16   -0.20    0.34
   4   6 -16   -0.12    0.30
   3   5 -16    0.82    0.41
   2   4 -16    2.21    0.57
 -18   6  17    0.72    0.37
 -17   7  17    0.00    0.30
 -16   8  17   -0.20    0.33
 -15   9  17    0.38    0.39
 -14  10  17   -0.03    0.30
 -13  11  17    0.35    0.40
 -19   3  17    0.50    0.37
 -18   4  17    0.05    0.32
 -17   5  17   -0.34    0.31
 -16   6  17   -0.33    0.27
 -15   7  17    0.56    0.41
 -14   8  17    0.28    0.37
 -13   9  17   -0.10    0.33
 -12  10  17    0.17    0.36
 -11  11  17    1.46    0.53
 -19   1  17   -0.05    0.31
 -18   2  17    0.14    0.33
 -17   3  17    1.16    0.48
 -16   4  17   -0.07    0.33
 -15   5  17   -0.03    0.33
 -14   6  17    1.68    0.49
 -13   7  17    1.52    0.48
 -12   8  17    0.18    0.32
 -11   9  17    1.27    0.51
 -10  10  17    0.57    0.41
  -9  11  17   -0.10    0.35
 -18   0  17   -0.56    0.28
 -17   1  17    1.41    0.42
 -16   2  17    0.80    0.39
 -15   3  17    0.85    0.39
 -14   4  17    1.36    0.44
 -13   5  17    1.52    0.45
 -12   6  17    0.23    0.30
 -11   7  17    0.21    0.33
 -10   8  17   -0.01    0.30
  -9   9  17    0.28    0.35
  -8  10  17   -0.05    0.33
  -7  11  17   -0.41    0.32
 -17  -1  17    0.92    0.41
 -16   0  17    0.66    0.37
 -15   1  17   -0.19    0.32
 -14   2  17    0.22    0.35
 -13   3  17    0.77    0.40
 -12   4  17    0.29    0.36
 -11   5  17    0.18    0.31
 -10   6  17    0.04    0.28
  -9   7  17    0.23    0.30
  -8   8  17    2.09    0.49
  -7   9  17   -0.47    0.30
  -6  10  17   -0.40    0.31
  17   3 -17    0.08    0.37
 -16  -2  17    1.40    0.43
  16   2 -17    0.92    0.48
 -15  -1  17    0.01    0.29
  15   1 -17    0.68    0.41
 -14   0  17   -0.22    0.30
 -13   1  17    0.28    0.27
 -12   2  17    1.24    0.43
 -11   3  17    0.89    0.40
 -10   4  17    0.18    0.28
  -9   5  17    0.83    0.40
  -8   6  17    1.44    0.48
  -7   7  17    3.30    0.60
  -6   8  17    0.14    0.35
  -5   9  17    0.30    0.37
 -16  -4  17    0.87    0.43
  16   4 -17    0.28    0.38
 -15  -3  17    0.67    0.36
  15   3 -17    0.70    0.46
 -14  -2  17    0.73    0.35
  14   2 -17   -0.03    0.34
 -13  -1  17    0.20    0.30
  13   1 -17    0.14    0.34
 -12   0  17    1.55    0.44
  12   0 -17    1.14    0.43
 -11   1  17    1.62    0.43
 -10   2  17    1.87    0.47
  -9   3  17    0.55    0.34
  -8   4  17    0.94    0.41
  -7   5  17    0.74    0.41
  -6   6  17    0.60    0.38
  -5   7  17   -0.17    0.33
  -4   8  17    0.61    0.40
 -15  -5  17    0.01    0.30
  15   5 -17   -0.06    0.35
 -14  -4  17    1.15    0.41
  14   4 -17    0.92    0.46
 -13  -3  17    1.55    0.42
  13   3 -17    0.45    0.35
 -12  -2  17    1.19    0.39
  12   2 -17    1.24    0.49
 -11  -1  17    2.00    0.49
  11   1 -17    3.93    0.74
 -10   0  17    1.67    0.45
  10   0 -17    1.17    0.49
  -9   1  17    1.29    0.43
   9  -1 -17    0.97    0.42
  -8   2  17    1.46    0.43
  -7   3  17    2.51    0.54
  -6   4  17    0.46    0.37
  -5   5  17   -0.29    0.24
  -4   6  17   -0.26    0.26
  -3   7  17    1.08    0.45
 -14  -6  17    1.42    0.41
  14   6 -17    1.73    0.61
 -13  -5  17    1.63    0.45
  13   5 -17    2.19    0.62
 -12  -4  17    0.55    0.36
  12   4 -17    0.73    0.45
 -11  -3  17    2.17    0.49
  11   3 -17    1.32    0.49
 -10  -2  17    2.45    0.49
  10   2 -17    2.84    0.68
  -9  -1  17    1.02    0.41
   9   1 -17    0.78    0.43
  -8   0  17   -0.34    0.31
   8   0 -17   -0.26    0.30
  -7   1  17   -0.09    0.31
   7  -1 -17    0.12    0.35
  -6   2  17    1.99    0.46
   6  -2 -17    1.98    0.56
  -5   3  17    1.08    0.39
  -4   4  17    0.14    0.37
  -3   5  17    0.03    0.36
  12   6 -17   -0.15    0.40
  11   5 -17    0.13    0.40
 -10  -4  17   -0.17    0.30
  10   4 -17    0.01    0.37
  -9  -3  17    1.55    0.46
   9   3 -17    0.70    0.43
  -8  -2  17    0.70    0.40
   8   2 -17    1.38    0.52
  -7  -1  17   -0.70    0.30
   7   1 -17    0.37    0.34
  -6   0  17   -0.06    0.32
   6   0 -17    0.31    0.35
  -5   1  17    0.88    0.41
   5  -1 -17    0.88    0.43
   4  -2 -17    0.80    0.42
   3  -3 -17    0.84    0.43
  11   7 -17    0.64    0.48
  10   6 -17    0.67    0.45
   9   5 -17    0.41    0.41
   8   4 -17    0.83    0.49
   7   3 -17    3.62    0.75
   6   2 -17    1.03    0.45
   5   1 -17    0.74    0.40
   4   0 -17    0.51    0.39
   3  -1 -17    0.70    0.43
   9   7 -17    1.57    0.54
   8   6 -17    2.12    0.63
   7   5 -17    0.70    0.44
   6   4 -17    0.39    0.43
   5   3 -17    0.72    0.46
   4   2 -17    1.17    0.45
   3   1 -17    0.54    0.42
 -16   6  18    1.69    0.48
 -15   7  18    0.12    0.33
 -14   8  18   -0.13    0.35
 -17   3  18    1.08    0.44
 -16   4  18    3.65    0.61
 -15   5  18    0.40    0.39
 -14   6  18    0.04    0.35
 -13   7  18   -0.07    0.27
 -12   8  18   -0.35    0.32
 -11   9  18   -0.25    0.26
 -17   1  18   -0.18    0.30
 -16   2  18   -0.05    0.34
 -15   3  18    0.21    0.32
 -14   4  18   -0.21    0.32
 -13   5  18    0.17    0.35
 -12   6  18    0.56    0.42
 -11   7  18    0.62    0.40
 -10   8  18   -0.34    0.32
  -9   9  18    1.34    0.49
 -17  -1  18   -0.23    0.31
 -16   0  18   -0.58    0.28
 -15   1  18    1.49    0.46
 -14   2  18    0.99    0.42
 -13   3  18    0.39    0.32
 -12   4  18    1.39    0.43
 -11   5  18    4.61    0.68
 -10   6  18    0.87    0.38
  -9   7  18   -0.36    0.24
  -8   8  18    0.47    0.42
 -16  -2  18    0.04    0.33
 -15  -1  18    0.92    0.43
 -14   0  18    5.64    0.72
 -13   1  18    3.53    0.61
 -12   2  18    0.38    0.33
 -11   3  18    0.46    0.37
 -10   4  18    1.27    0.43
  -9   5  18    0.03    0.35
  -8   6  18    0.07    0.36
  -7   7  18   -0.44    0.32
 -16  -4  18    3.74    0.59
 -15  -3  18    0.43    0.36
 -14  -2  18    0.27    0.39
  14   2 -18    1.15    0.50
 -13  -1  18    2.66    0.55
  13   1 -18    2.80    0.67
 -12   0  18    0.41    0.37
 -11   1  18   -0.03    0.33
 -10   2  18   -0.49    0.32
  -9   3  18   -0.15    0.33
  -8   4  18    0.00    0.37
  -7   5  18    0.22    0.38
  -6   6  18    1.90    0.52
 -15  -5  18    0.11    0.36
 -14  -4  18   -0.26    0.30
 -13  -3  18   -0.03    0.34
  13   3 -18    0.30    0.44
 -12  -2  18    0.38    0.39
  12   2 -18    0.06    0.40
 -11  -1  18   -0.03    0.35
  11   1 -18   -0.02    0.37
 -10   0  18    0.24    0.32
  10   0 -18    0.29    0.39
  -9   1  18    3.10    0.59
  -8   2  18    0.60    0.36
  -7   3  18   -0.03    0.36
  -6   4  18    2.58    0.56
  -5   5  18    3.27    0.61
 -13  -5  18    0.22    0.36
 -12  -4  18    2.03    0.49
  12   4 -18    2.15    0.65
 -11  -3  18    0.99    0.44
  11   3 -18    0.86    0.54
 -10  -2  18    0.13    0.37
  10   2 -18    0.19    0.45
  -9  -1  18    2.35    0.52
   9   1 -18    1.70    0.58
  -8   0  18    6.00    0.77
   8   0 -18    5.40    0.90
  -7   1  18    0.56    0.41
   7  -1 -18    0.65    0.46
  -6   2  18    0.32    0.37
  -5   3  18   -0.01    0.36
   9   3 -18   -0.09    0.38
   8   2 -18    0.78    0.51
   7   1 -18    1.12    0.55
   6   0 -18    0.38    0.38
 -14   2  19    0.87    0.47
 -13   3  19    0.38    0.35
 -12   4  19    2.56    0.58
 -11   5  19    2.41    0.59
 -14   0  19    4.20    0.68
 -13   1  19    1.98    0.53
 -12   2  19    0.48    0.40
 -11   3  19    1.34    0.48
 -10   4  19    0.10    0.38
 -14  -2  19    0.55    0.40
 -13  -1  19    0.38    0.42
 -12   0  19    0.43    0.41
 -11   1  19    0.49    0.41
 -10   2  19    0.51    0.44
  -9   3  19    0.37    0.40
 -13  -3  19   -0.36    0.35
 -12  -2  19    0.12    0.42
 -11  -1  19    0.15    0.37
 -10   0  19    2.16    0.57
  -9   1  19    2.43    0.54
  -8   2  19    1.11    0.43
 -10  -2  19    0.35    0.41
  -9  -1  19    2.78    0.59
  -8   0  19    2.15    0.56
   0   0   0    0.00    0.00
;
_shelx_hkl_checksum              12878
_shelx_fab_file
;
    2    0    0     78.49      0.00
    4    0    0     31.60      0.00
    6    0    0      4.12      0.00
    8    0    0     -7.42      0.00
   10    0    0    -10.37      0.00
   12    0    0     -9.52      0.00
   14    0    0     -6.46      0.00
   16    0    0     -2.94      0.00
   18    0    0      0.22      0.00
    1    1    0     95.91      0.00
    3    1    0     50.55      0.00
    5    1    0     15.33      0.00
    7    1    0     -3.01      0.00
    9    1    0     -9.11      0.00
   11    1    0    -10.40      0.00
   13    1    0     -8.14      0.00
   15    1    0     -5.00      0.00
   17    1    0     -1.49      0.00
    0    2    0     90.67      0.00
    2    2    0     64.91      0.00
    4    2    0     27.58      0.00
    6    2    0      4.64      0.00
    8    2    0     -6.30      0.00
   10    2    0     -9.91      0.00
   12    2    0     -9.60      0.00
   14    2    0     -6.90      0.00
   16    2    0     -3.84      0.00
   18    2    0     -0.84      0.00
    1    3    0     68.22      0.00
    3    3    0     37.76      0.00
    5    3    0     13.59      0.00
    7    3    0     -1.72      0.00
    9    3    0     -8.10      0.00
   11    3    0    -10.13      0.00
   13    3    0     -8.22      0.00
   15    3    0     -5.68      0.00
   17    3    0     -2.94      0.00
    0    4    0     60.01      0.00
    2    4    0     44.26      0.00
    4    4    0     21.55      0.00
    6    4    0      4.42      0.00
    8    4    0     -5.48      0.00
   10    4    0     -9.29      0.00
   12    4    0     -9.08      0.00
   14    4    0     -6.56      0.00
   16    4    0     -4.40      0.00
   18    4    0     -2.16      0.00
    1    5    0     45.40      0.00
    3    5    0     27.43      0.00
    5    5    0     10.90      0.00
    7    5    0     -1.92      0.00
    9    5    0     -7.31      0.00
   11    5    0     -9.15      0.00
   13    5    0     -7.16      0.00
   15    5    0     -5.01      0.00
   17    5    0     -3.15      0.00
   19    5    0     -1.36      0.00
    0    6    0     39.81      0.00
    2    6    0     30.40      0.00
    4    6    0     15.84      0.00
    6    6    0      2.57      0.00
    8    6    0     -4.71      0.00
   10    6    0     -7.79      0.00
   12    6    0     -7.83      0.00
   14    6    0     -5.53      0.00
   16    6    0     -3.62      0.00
   18    6    0     -1.80      0.00
    1    7    0     29.37      0.00
    3    7    0     18.27      0.00
    5    7    0      6.78      0.00
    7    7    0     -1.86      0.00
    9    7    0     -5.36      0.00
   11    7    0     -7.70      0.00
   13    7    0     -6.45      0.00
   15    7    0     -4.28      0.00
   17    7    0     -2.05      0.00
   19    7    0     -0.45      0.00
    0    8    0     24.61      0.00
    2    8    0     18.85      0.00
    4    8    0      9.57      0.00
    6    8    0      1.04      0.00
    8    8    0     -3.08      0.00
   10    8    0     -6.22      0.00
   12    8    0     -7.17      0.00
   14    8    0     -5.29      0.00
   16    8    0     -2.82      0.00
   18    8    0     -0.43      0.00
    1    9    0     18.34      0.00
    3    9    0     11.33      0.00
    5    9    0      3.86      0.00
    7    9    0     -1.37      0.00
    9    9    0     -4.25      0.00
   11    9    0     -6.85      0.00
   13    9    0     -6.03      0.00
   15    9    0     -4.04      0.00
   17    9    0     -1.32      0.00
    0   10    0     16.44      0.00
    2   10    0     12.68      0.00
    4   10    0      6.35      0.00
    6   10    0      0.46      0.00
    8   10    0     -2.76      0.00
   10   10    0     -5.57      0.00
   12   10    0     -5.98      0.00
   14   10    0     -4.80      0.00
   16   10    0     -2.86      0.00
   18   10    0     -0.39      0.00
    1   11    0     12.87      0.00
    3   11    0      8.04      0.00
    5   11    0      2.57      0.00
    7   11    0     -1.53      0.00
    9   11    0     -4.09      0.00
   11   11    0     -5.27      0.00
   13   11    0     -4.61      0.00
   15   11    0     -3.97      0.00
   17   11    0     -1.96      0.00
    0   12    0     11.09      0.00
    2   12    0      8.57      0.00
    4   12    0      4.11      0.00
    6   12    0     -0.15      0.00
    8   12    0     -2.81      0.00
   10   12    0     -4.37      0.00
   12   12    0     -4.00      0.00
   14   12    0     -4.04      0.00
   16   12    0     -3.07      0.00
    1   13    0      8.16      0.00
    3   13    0      4.76      0.00
    5   13    0      1.07      0.00
    7   13    0     -1.64      0.00
    9   13    0     -3.45      0.00
   11   13    0     -3.65      0.00
   13   13    0     -3.60      0.00
   15   13    0     -3.43      0.00
    0   14    0      7.35      0.00
    2   14    0      5.30      0.00
    4   14    0      1.84      0.00
    6   14    0     -0.65      0.00
    8   14    0     -2.41      0.00
   10   14    0     -3.46      0.00
   12   14    0     -3.32      0.00
   14   14    0     -3.51      0.00
   16   14    0     -1.79      0.00
    1   15    0      6.06      0.00
    3   15    0      2.65      0.00
    5   15    0     -0.05      0.00
    7   15    0     -1.35      0.00
    9   15    0     -2.89      0.00
   11   15    0     -3.24      0.00
   13   15    0     -3.47      0.00
   15   15    0     -2.31      0.00
    0   16    0      6.09      0.00
    2   16    0      3.76      0.00
    4   16    0      0.32      0.00
    6   16    0     -0.75      0.00
    8   16    0     -1.87      0.00
   10   16    0     -3.08      0.00
   12   16    0     -3.14      0.00
   14   16    0     -2.91      0.00
    1   17    0      4.50      0.00
    3   17    0      0.91      0.00
    5   17    0     -0.78      0.00
    7   17    0     -0.94      0.00
    9   17    0     -2.64      0.00
   11   17    0     -2.87      0.00
   13   17    0     -2.74      0.00
    0   18    0      4.07      0.00
    2   18    0      1.81      0.00
    4   18    0     -0.87      0.00
    6   18    0     -0.56      0.00
    8   18    0     -1.71      0.00
   10   18    0     -3.03      0.00
   12   18    0     -2.17      0.00
    1   19    0      2.52      0.00
    3   19    0     -0.35      0.00
    5   19    0     -0.65      0.00
    7   19    0     -0.36      0.00
    9   19    0     -2.75      0.00
   11   19    0     -2.28      0.00
    0   20    0      2.46      0.00
    2   20    0      0.69      0.00
    4   20    0     -0.74      0.00
    6   20    0      0.68      0.00
    8   20    0     -0.95      0.00
   10   20    0     -2.58      0.00
    1   21    0      1.53      0.00
    3   21    0     -0.40      0.00
    5   21    0      0.64      0.00
    7   21    0      1.52      0.00
    9   21    0     -1.37      0.00
    0   22    0      1.64      0.00
    2   22    0      0.35      0.00
    4   22    0     -0.07      0.00
    6   22    0      2.44      0.00
    8   22    0      1.28      0.00
    1   23    0      1.04      0.00
    3   23    0     -0.32      0.00
    5   23    0      1.32      0.00
    7   23    0      3.02      0.00
    0   24    0      1.13      0.00
    2   24    0      0.17      0.00
    4   24    0     -0.11      0.00
  -18    0    1     -0.37      0.00
  -16    0    1      0.65      0.00
  -14    0    1      6.06      0.00
  -12    0    1     11.59      0.00
  -10    0    1     15.39      0.00
   -8    0    1     17.12      0.00
   -6    0    1     17.16      0.00
   -4    0    1     17.08      0.00
   -2    0    1     16.50      0.00
    0    0    1      8.92      0.00
    2    0    1    -15.00      0.00
    4    0    1    -21.01      0.00
    6    0    1    -13.49      0.00
    8    0    1     -4.80      0.00
   10    0    1      3.91      0.00
   12    0    1      8.27      0.00
   14    0    1      8.76      0.00
   16    0    1      5.97      0.00
  -19    1    1     -0.40      0.00
  -17    1    1     -0.57      0.00
  -15    1    1      2.53      0.00
  -13    1    1      8.87      0.00
  -11    1    1     13.28      0.00
   -9    1    1     16.77      0.00
   -7    1    1     16.85      0.00
   -5    1    1     16.67      0.00
   -3    1    1     14.21      0.00
   -1    1    1     11.79      0.00
    1    1    1     -5.45      0.00
    3    1    1    -22.03      0.00
    5    1    1    -17.16      0.00
    7    1    1     -9.24      0.00
    9    1    1      0.15      0.00
   11    1    1      6.51      0.00
   13    1    1      8.71      0.00
   15    1    1      7.26      0.00
   17    1    1      3.65      0.00
  -18    2    1     -1.15      0.00
  -16    2    1     -0.31      0.00
  -14    2    1      4.90      0.00
  -12    2    1     10.47      0.00
  -10    2    1     14.86      0.00
   -8    2    1     16.97      0.00
   -6    2    1     15.84      0.00
   -4    2    1     12.16      0.00
   -2    2    1      6.45      0.00
    0    2    1     -1.97      0.00
    2    2    1    -19.97      0.00
    4    2    1    -21.01      0.00
    6    2    1    -12.62      0.00
    8    2    1     -4.22      0.00
   10    2    1      3.96      0.00
   12    2    1      7.63      0.00
   14    2    1      7.45      0.00
   16    2    1      4.61      0.00
  -19    3    1     -1.19      0.00
  -17    3    1     -1.56      0.00
  -15    3    1      1.15      0.00
  -13    3    1      6.94      0.00
  -11    3    1     11.54      0.00
   -9    3    1     15.74      0.00
   -7    3    1     15.44      0.00
   -5    3    1     12.44      0.00
   -3    3    1      3.86      0.00
   -1    3    1     -3.96      0.00
    1    3    1    -16.51      0.00
    3    3    1    -23.76      0.00
    5    3    1    -16.00      0.00
    7    3    1     -8.53      0.00
    9    3    1      0.45      0.00
   11    3    1      6.12      0.00
   13    3    1      7.30      0.00
   15    3    1      5.03      0.00
   17    3    1      2.04      0.00
  -20    4    1     -0.98      0.00
  -18    4    1     -1.38      0.00
  -16    4    1     -0.83      0.00
  -14    4    1      3.33      0.00
  -12    4    1      8.08      0.00
  -10    4    1     12.52      0.00
   -8    4    1     14.55      0.00
   -6    4    1     12.43      0.00
   -4    4    1      6.41      0.00
   -2    4    1     -4.04      0.00
    0    4    1    -12.86      0.00
    2    4    1    -22.74      0.00
    4    4    1    -19.45      0.00
    6    4    1    -12.22      0.00
    8    4    1     -4.13      0.00
   10    4    1      3.96      0.00
   12    4    1      7.03      0.00
   14    4    1      5.72      0.00
   16    4    1      2.47      0.00
  -19    5    1     -0.55      0.00
  -17    5    1     -0.82      0.00
  -15    5    1      0.69      0.00
  -13    5    1      4.99      0.00
  -11    5    1      8.95      0.00
   -9    5    1     12.66      0.00
   -7    5    1     11.45      0.00
   -5    5    1      8.37      0.00
   -3    5    1     -0.06      0.00
   -1    5    1     -8.99      0.00
    1    5    1    -17.86      0.00
    3    5    1    -21.00      0.00
    5    5    1    -15.15      0.00
    7    5    1     -8.68      0.00
    9    5    1      0.70      0.00
   11    5    1      6.13      0.00
   13    5    1      6.61      0.00
   15    5    1      3.38      0.00
   17    5    1      0.72      0.00
  -18    6    1      0.34      0.00
  -16    6    1     -0.16      0.00
  -14    6    1      2.12      0.00
  -12    6    1      6.04      0.00
  -10    6    1     10.15      0.00
   -8    6    1     11.00      0.00
   -6    6    1      7.75      0.00
   -4    6    1      3.40      0.00
   -2    6    1     -5.05      0.00
    0    6    1    -12.36      0.00
    2    6    1    -19.23      0.00
    4    6    1    -17.32      0.00
    6    6    1    -11.97      0.00
    8    6    1     -3.27      0.00
   10    6    1      4.32      0.00
   12    6    1      6.71      0.00
   14    6    1      4.78      0.00
   16    6    1      1.33      0.00
   18    6    1      0.33      0.00
  -19    7    1      1.45      0.00
  -17    7    1      0.70      0.00
  -15    7    1      0.19      0.00
  -13    7    1      3.31      0.00
  -11    7    1      7.42      0.00
   -9    7    1     10.68      0.00
   -7    7    1      7.82      0.00
   -5    7    1      4.05      0.00
   -3    7    1     -1.83      0.00
   -1    7    1     -8.63      0.00
    1    7    1    -15.38      0.00
    3    7    1    -18.15      0.00
    5    7    1    -14.07      0.00
    7    7    1     -6.97      0.00
    9    7    1      1.71      0.00
   11    7    1      5.56      0.00
   13    7    1      5.72      0.00
   15    7    1      2.56      0.00
   17    7    1      0.53      0.00
  -18    8    1      1.98      0.00
  -16    8    1      0.06      0.00
  -14    8    1      0.88      0.00
  -12    8    1      4.75      0.00
  -10    8    1      8.90      0.00
   -8    8    1      9.15      0.00
   -6    8    1      4.55      0.00
   -4    8    1      0.38      0.00
   -2    8    1     -5.85      0.00
    0    8    1    -11.47      0.00
    2    8    1    -16.70      0.00
    4    8    1    -15.34      0.00
    6    8    1     -9.71      0.00
    8    8    1     -1.45      0.00
   10    8    1      3.59      0.00
   12    8    1      5.35      0.00
   14    8    1      3.97      0.00
   16    8    1      1.13      0.00
   18    8    1      0.78      0.00
  -19    9    1      2.12      0.00
  -17    9    1      0.96      0.00
  -15    9    1     -0.34      0.00
  -13    9    1      2.53      0.00
  -11    9    1      6.26      0.00
   -9    9    1      8.90      0.00
   -7    9    1      6.23      0.00
   -5    9    1      2.22      0.00
   -3    9    1     -2.61      0.00
   -1    9    1     -7.99      0.00
    1    9    1    -13.13      0.00
    3    9    1    -15.06      0.00
    5    9    1    -11.23      0.00
    7    9    1     -4.57      0.00
    9    9    1      1.28      0.00
   11    9    1      3.84      0.00
   13    9    1      4.79      0.00
   15    9    1      2.20      0.00
   17    9    1      0.54      0.00
  -18   10    1      1.22      0.00
  -16   10    1     -0.46      0.00
  -14   10    1      0.87      0.00
  -12   10    1      4.44      0.00
  -10   10    1      6.81      0.00
   -8   10    1      7.00      0.00
   -6   10    1      3.91      0.00
   -4   10    1      0.61      0.00
   -2   10    1     -4.46      0.00
    0   10    1     -9.09      0.00
    2   10    1    -12.80      0.00
    4   10    1    -11.44      0.00
    6   10    1     -6.73      0.00
    8   10    1     -1.10      0.00
   10   10    1      2.00      0.00
   12   10    1      4.50      0.00
   14   10    1      3.57      0.00
   16   10    1      0.61      0.00
  -17   11    1     -0.45      0.00
  -15   11    1     -0.40      0.00
  -13   11    1      3.16      0.00
  -11   11    1      5.34      0.00
   -9   11    1      5.91      0.00
   -7   11    1      4.72      0.00
   -5   11    1      2.62      0.00
   -3   11    1     -1.12      0.00
   -1   11    1     -5.88      0.00
    1   11    1     -9.82      0.00
    3   11    1    -10.63      0.00
    5   11    1     -7.55      0.00
    7   11    1     -3.08      0.00
    9   11    1      0.38      0.00
   11   11    1      3.24      0.00
   13   11    1      4.57      0.00
   15   11    1      1.50      0.00
   17   11    1     -0.44      0.00
  -16   12    1     -1.12      0.00
  -14   12    1      1.36      0.00
  -12   12    1      4.71      0.00
  -10   12    1      4.81      0.00
   -8   12    1      4.34      0.00
   -6   12    1      3.27      0.00
   -4   12    1      1.23      0.00
   -2   12    1     -3.21      0.00
    0   12    1     -7.40      0.00
    2   12    1     -9.50      0.00
    4   12    1     -7.67      0.00
    6   12    1     -4.28      0.00
    8   12    1     -0.95      0.00
   10   12    1      1.57      0.00
   12   12    1      4.34      0.00
   14   12    1      2.86      0.00
   16   12    1     -0.16      0.00
  -17   13    1     -1.01      0.00
  -15   13    1     -0.28      0.00
  -13   13    1      3.23      0.00
  -11   13    1      4.54      0.00
   -9   13    1      3.58      0.00
   -7   13    1      3.10      0.00
   -5   13    1      2.28      0.00
   -3   13    1     -0.59      0.00
   -1   13    1     -4.99      0.00
    1   13    1     -8.14      0.00
    3   13    1     -7.71      0.00
    5   13    1     -4.91      0.00
    7   13    1     -2.01      0.00
    9   13    1      0.08      0.00
   11   13    1      2.73      0.00
   13   13    1      3.47      0.00
   15   13    1      0.94      0.00
  -16   14    1     -0.64      0.00
  -14   14    1      1.11      0.00
  -12   14    1      3.81      0.00
  -10   14    1      3.24      0.00
   -8   14    1      2.51      0.00
   -6   14    1      2.35      0.00
   -4   14    1      1.31      0.00
   -2   14    1     -1.91      0.00
    0   14    1     -5.80      0.00
    2   14    1     -7.27      0.00
    4   14    1     -5.35      0.00
    6   14    1     -2.78      0.00
    8   14    1     -0.89      0.00
   10   14    1      0.74      0.00
   12   14    1      2.60      0.00
   14   14    1      1.56      0.00
  -15   15    1     -0.01      0.00
  -13   15    1      2.10      0.00
  -11   15    1      2.98      0.00
   -9   15    1      1.81      0.00
   -7   15    1      1.78      0.00
   -5   15    1      1.77      0.00
   -3   15    1      0.64      0.00
   -1   15    1     -2.51      0.00
    1   15    1     -5.67      0.00
    3   15    1     -5.50      0.00
    5   15    1     -3.34      0.00
    7   15    1     -1.39      0.00
    9   15    1     -0.47      0.00
   11   15    1      0.97      0.00
   13   15    1      1.16      0.00
   15   15    1      0.58      0.00
  -14   16    1      0.65      0.00
  -12   16    1      2.24      0.00
  -10   16    1      1.33      0.00
   -8   16    1      0.77      0.00
   -6   16    1      1.18      0.00
   -4   16    1      1.25      0.00
   -2   16    1      0.10      0.00
    0   16    1     -3.19      0.00
    2   16    1     -5.05      0.00
    4   16    1     -3.81      0.00
    6   16    1     -1.79      0.00
    8   16    1     -0.74      0.00
   10   16    1     -0.22      0.00
   12   16    1      0.43      0.00
   14   16    1     -0.02      0.00
  -15   17    1      0.15      0.00
  -13   17    1      1.31      0.00
  -11   17    1      1.17      0.00
   -9   17    1     -0.32      0.00
   -7   17    1      0.22      0.00
   -5   17    1      0.54      0.00
   -3   17    1      0.65      0.00
   -1   17    1     -1.10      0.00
    1   17    1     -4.04      0.00
    3   17    1     -4.16      0.00
    5   17    1     -2.39      0.00
    7   17    1     -0.85      0.00
    9   17    1     -0.69      0.00
   11   17    1     -0.08      0.00
   13   17    1     -0.34      0.00
  -14   18    1      0.79      0.00
  -12   18    1      1.27      0.00
  -10   18    1     -0.75      0.00
   -8   18    1     -0.96      0.00
   -6   18    1     -0.02      0.00
   -4   18    1     -0.11      0.00
   -2   18    1     -0.39      0.00
    0   18    1     -2.80      0.00
    2   18    1     -4.22      0.00
    4   18    1     -3.04      0.00
    6   18    1     -1.35      0.00
    8   18    1     -0.92      0.00
   10   18    1     -0.66      0.00
   12   18    1     -0.05      0.00
  -13   19    1      1.47      0.00
  -11   19    1      0.01      0.00
   -9   19    1     -1.80      0.00
   -7   19    1     -0.31      0.00
   -5   19    1     -0.36      0.00
   -3   19    1     -0.79      0.00
   -1   19    1     -1.86      0.00
    1   19    1     -3.82      0.00
    3   19    1     -3.45      0.00
    5   19    1     -1.97      0.00
    7   19    1     -1.17      0.00
    9   19    1     -1.35      0.00
   11   19    1     -0.15      0.00
  -12   20    1      1.35      0.00
  -10   20    1     -1.23      0.00
   -8   20    1     -0.71      0.00
   -6   20    1      0.39      0.00
   -4   20    1     -1.02      0.00
   -2   20    1     -1.59      0.00
    0   20    1     -3.07      0.00
    2   20    1     -3.53      0.00
    4   20    1     -2.32      0.00
    6   20    1     -1.27      0.00
    8   20    1     -1.50      0.00
   10   20    1     -0.94      0.00
  -11   21    1      0.55      0.00
   -9   21    1     -0.67      0.00
   -7   21    1      1.16      0.00
   -5   21    1     -0.12      0.00
   -3   21    1     -1.71      0.00
   -1   21    1     -2.35      0.00
    1   21    1     -3.30      0.00
    3   21    1     -2.50      0.00
    5   21    1     -1.26      0.00
    7   21    1     -0.90      0.00
    9   21    1     -1.32      0.00
   -8   22    1      1.24      0.00
   -6   22    1      1.39      0.00
   -4   22    1     -1.32      0.00
   -2   22    1     -1.96      0.00
    0   22    1     -2.68      0.00
    2   22    1     -2.60      0.00
    4   22    1     -1.37      0.00
    6   22    1     -0.32      0.00
    8   22    1     -0.63      0.00
   -7   23    1      2.12      0.00
   -5   23    1     -0.11      0.00
   -3   23    1     -1.72      0.00
   -1   23    1     -1.80      0.00
    1   23    1     -2.35      0.00
    3   23    1     -1.59      0.00
    5   23    1     -0.39      0.00
    7   23    1      0.18      0.00
   -4   24    1     -1.25      0.00
   -2   24    1     -1.14      0.00
    0   24    1     -1.57      0.00
    2   24    1     -1.64      0.00
    4   24    1     -0.81      0.00
  -18    0    2      1.81      0.00
  -16    0    2      0.27      0.00
  -14    0    2     -1.06      0.00
  -12    0    2     -5.01      0.00
  -10    0    2     -9.11      0.00
   -8    0    2    -13.84      0.00
   -6    0    2    -15.12      0.00
   -4    0    2     -2.71      0.00
   -2    0    2     23.22      0.00
    0    0    2     49.88      0.00
    2    0    2     48.22      0.00
    4    0    2     35.29      0.00
    6    0    2     21.54      0.00
    8    0    2     10.86      0.00
   10    0    2      3.71      0.00
   12    0    2     -1.78      0.00
   14    0    2     -3.26      0.00
   16    0    2     -2.03      0.00
  -19    1    2      2.16      0.00
  -17    1    2      0.70      0.00
  -15    1    2     -0.45      0.00
  -13    1    2     -2.70      0.00
  -11    1    2     -7.27      0.00
   -9    1    2    -10.76      0.00
   -7    1    2    -15.71      0.00
   -5    1    2    -11.11      0.00
   -3    1    2      6.34      0.00
   -1    1    2     35.67      0.00
    1    1    2     49.75      0.00
    3    1    2     40.68      0.00
    5    1    2     28.42      0.00
    7    1    2     15.45      0.00
    9    1    2      7.27      0.00
   11    1    2      0.50      0.00
   13    1    2     -3.17      0.00
   15    1    2     -3.09      0.00
   17    1    2     -1.43      0.00
  -18    2    2      0.67      0.00
  -16    2    2     -0.35      0.00
  -14    2    2     -1.34      0.00
  -12    2    2     -5.09      0.00
  -10    2    2     -8.45      0.00
   -8    2    2    -12.56      0.00
   -6    2    2    -15.20      0.00
   -4    2    2     -6.86      0.00
   -2    2    2     13.80      0.00
    0    2    2     38.89      0.00
    2    2    2     41.66      0.00
    4    2    2     33.32      0.00
    6    2    2     21.17      0.00
    8    2    2     10.87      0.00
   10    2    2      3.78      0.00
   12    2    2     -2.00      0.00
   14    2    2     -4.09      0.00
   16    2    2     -2.90      0.00
  -19    3    2      0.41      0.00
  -17    3    2     -0.33      0.00
  -15    3    2     -0.75      0.00
  -13    3    2     -2.93      0.00
  -11    3    2     -7.12      0.00
   -9    3    2     -9.31      0.00
   -7    3    2    -14.13      0.00
   -5    3    2    -13.01      0.00
   -3    3    2     -2.74      0.00
   -1    3    2     19.72      0.00
    1    3    2     35.52      0.00
    3    3    2     34.00      0.00
    5    3    2     25.96      0.00
    7    3    2     14.47      0.00
    9    3    2      7.17      0.00
   11    3    2      0.74      0.00
   13    3    2     -3.67      0.00
   15    3    2     -4.53      0.00
   17    3    2     -2.44      0.00
  -20    4    2      0.16      0.00
  -18    4    2     -0.13      0.00
  -16    4    2     -0.31      0.00
  -14    4    2     -1.23      0.00
  -12    4    2     -5.33      0.00
  -10    4    2     -8.10      0.00
   -8    4    2    -10.96      0.00
   -6    4    2    -14.12      0.00
   -4    4    2     -9.67      0.00
   -2    4    2      3.42      0.00
    0    4    2     23.56      0.00
    2    4    2     30.45      0.00
    4    4    2     27.44      0.00
    6    4    2     17.86      0.00
    8    4    2      9.69      0.00
   10    4    2      4.17      0.00
   12    4    2     -1.30      0.00
   14    4    2     -4.78      0.00
   16    4    2     -4.38      0.00
   18    4    2     -1.70      0.00
  -19    5    2      0.39      0.00
  -17    5    2      0.30      0.00
  -15    5    2     -0.22      0.00
  -13    5    2     -2.89      0.00
  -11    5    2     -7.21      0.00
   -9    5    2     -8.67      0.00
   -7    5    2    -12.64      0.00
   -5    5    2    -11.91      0.00
   -3    5    2     -4.82      0.00
   -1    5    2     10.70      0.00
    1    5    2     23.73      0.00
    3    5    2     25.19      0.00
    5    5    2     19.99      0.00
    7    5    2     11.65      0.00
    9    5    2      6.91      0.00
   11    5    2      1.94      0.00
   13    5    2     -2.90      0.00
   15    5    2     -5.44      0.00
   17    5    2     -3.63      0.00
  -20    6    2      0.90      0.00
  -18    6    2      1.31      0.00
  -16    6    2      0.43      0.00
  -14    6    2     -1.15      0.00
  -12    6    2     -5.09      0.00
  -10    6    2     -7.43      0.00
   -8    6    2     -9.71      0.00
   -6    6    2    -12.67      0.00
   -4    6    2     -8.51      0.00
   -2    6    2      0.98      0.00
    0    6    2     14.85      0.00
    2    6    2     20.39      0.00
    4    6    2     19.43      0.00
    6    6    2     13.51      0.00
    8    6    2      8.66      0.00
   10    6    2      4.65      0.00
   12    6    2     -0.08      0.00
   14    6    2     -4.56      0.00
   16    6    2     -5.23      0.00
   18    6    2     -2.32      0.00
  -19    7    2      2.43      0.00
  -17    7    2      1.51      0.00
  -15    7    2     -0.47      0.00
  -13    7    2     -2.84      0.00
  -11    7    2     -6.03      0.00
   -9    7    2     -6.90      0.00
   -7    7    2    -10.83      0.00
   -5    7    2    -10.82      0.00
   -3    7    2     -4.93      0.00
   -1    7    2      5.71      0.00
    1    7    2     14.24      0.00
    3    7    2     16.07      0.00
    5    7    2     14.28      0.00
    7    7    2      9.98      0.00
    9    7    2      6.39      0.00
   11    7    2      2.07      0.00
   13    7    2     -2.31      0.00
   15    7    2     -5.54      0.00
   17    7    2     -3.80      0.00
  -18    8    2      2.96      0.00
  -16    8    2      0.32      0.00
  -14    8    2     -1.65      0.00
  -12    8    2     -4.13      0.00
  -10    8    2     -5.45      0.00
   -8    8    2     -7.16      0.00
   -6    8    2    -10.65      0.00
   -4    8    2     -7.94      0.00
   -2    8    2     -1.06      0.00
    0    8    2      7.94      0.00
    2    8    2     11.72      0.00
    4    8    2     12.83      0.00
    6    8    2     10.79      0.00
    8    8    2      7.42      0.00
   10    8    2      3.22      0.00
   12    8    2     -0.27      0.00
   14    8    2     -4.27      0.00
   16    8    2     -4.95      0.00
  -19    9    2      3.48      0.00
  -17    9    2      1.67      0.00
  -15    9    2     -0.96      0.00
  -13    9    2     -2.31      0.00
  -11    9    2     -4.49      0.00
   -9    9    2     -4.92      0.00
   -7    9    2     -7.85      0.00
   -5    9    2     -8.56      0.00
   -3    9    2     -4.36      0.00
   -1    9    2      2.86      0.00
    1    9    2      8.21      0.00
    3    9    2     10.12      0.00
    5    9    2     10.50      0.00
    7    9    2      7.99      0.00
    9    9    2      3.99      0.00
   11    9    2      0.76      0.00
   13    9    2     -2.16      0.00
   15    9    2     -5.19      0.00
   17    9    2     -3.16      0.00
  -18   10    2      2.48      0.00
  -16   10    2     -0.09      0.00
  -14   10    2     -1.10      0.00
  -12   10    2     -2.69      0.00
  -10   10    2     -4.43      0.00
   -8   10    2     -5.35      0.00
   -6   10    2     -7.42      0.00
   -4   10    2     -5.42      0.00
   -2   10    2     -0.46      0.00
    0   10    2      5.46      0.00
    2   10    2      7.90      0.00
    4   10    2      9.19      0.00
    6   10    2      8.13      0.00
    8   10    2      4.82      0.00
   10   10    2      1.34      0.00
   12   10    2     -0.33      0.00
   14   10    2     -4.02      0.00
   16   10    2     -4.77      0.00
  -17   11    2      0.57      0.00
  -15   11    2     -0.58      0.00
  -13   11    2     -0.72      0.00
  -11   11    2     -3.21      0.00
   -9   11    2     -4.55      0.00
   -7   11    2     -5.88      0.00
   -5   11    2     -5.78      0.00
   -3   11    2     -2.60      0.00
   -1   11    2      2.44      0.00
    1   11    2      6.07      0.00
    3   11    2      7.54      0.00
    5   11    2      7.77      0.00
    7   11    2      5.57      0.00
    9   11    2      2.21      0.00
   11   11    2      0.68      0.00
   13   11    2     -1.84      0.00
   15   11    2     -5.28      0.00
  -18   12    2      0.71      0.00
  -16   12    2     -0.37      0.00
  -14   12    2      0.05      0.00
  -12   12    2     -0.96      0.00
  -10   12    2     -3.67      0.00
   -8   12    2     -4.80      0.00
   -6   12    2     -5.65      0.00
   -4   12    2     -4.14      0.00
   -2   12    2     -0.74      0.00
    0   12    2      3.41      0.00
    2   12    2      5.65      0.00
    4   12    2      6.79      0.00
    6   12    2      5.86      0.00
    8   12    2      3.25      0.00
   10   12    2      1.10      0.00
   12   12    2      0.00      0.00
   14   12    2     -4.03      0.00
   16   12    2     -4.56      0.00
  -17   13    2     -0.06      0.00
  -15   13    2     -0.01      0.00
  -13   13    2      0.36      0.00
  -11   13    2     -1.75      0.00
   -9   13    2     -3.77      0.00
   -7   13    2     -4.80      0.00
   -5   13    2     -4.79      0.00
   -3   13    2     -2.91      0.00
   -1   13    2      0.30      0.00
    1   13    2      3.26      0.00
    3   13    2      5.17      0.00
    5   13    2      5.48      0.00
    7   13    2      3.94      0.00
    9   13    2      1.45      0.00
   11   13    2      0.42      0.00
   13   13    2     -2.08      0.00
   15   13    2     -4.56      0.00
  -16   14    2      0.21      0.00
  -14   14    2      0.48      0.00
  -12   14    2     -0.18      0.00
  -10   14    2     -2.34      0.00
   -8   14    2     -3.60      0.00
   -6   14    2     -4.32      0.00
   -4   14    2     -3.62      0.00
   -2   14    2     -1.71      0.00
    0   14    2      0.85      0.00
    2   14    2      3.17      0.00
    4   14    2      4.53      0.00
    6   14    2      4.06      0.00
    8   14    2      2.11      0.00
   10   14    2      0.03      0.00
   12   14    2     -1.17      0.00
   14   14    2     -3.66      0.00
  -15   15    2      0.73      0.00
  -13   15    2      0.31      0.00
  -11   15    2     -1.06      0.00
   -9   15    2     -2.57      0.00
   -7   15    2     -3.30      0.00
   -5   15    2     -3.42      0.00
   -3   15    2     -2.36      0.00
   -1   15    2     -0.77      0.00
    1   15    2      1.23      0.00
    3   15    2      3.26      0.00
    5   15    2      3.78      0.00
    7   15    2      2.95      0.00
    9   15    2      0.39      0.00
   11   15    2     -1.35      0.00
   13   15    2     -2.96      0.00
  -16   16    2      1.05      0.00
  -14   16    2      0.70      0.00
  -12   16    2     -0.43      0.00
  -10   16    2     -1.95      0.00
   -8   16    2     -2.63      0.00
   -6   16    2     -2.85      0.00
   -4   16    2     -2.55      0.00
   -2   16    2     -1.64      0.00
    0   16    2     -0.38      0.00
    2   16    2      1.78      0.00
    4   16    2      3.26      0.00
    6   16    2      3.43      0.00
    8   16    2      1.90      0.00
   10   16    2     -1.02      0.00
   12   16    2     -2.64      0.00
  -15   17    2      1.30      0.00
  -13   17    2      0.06      0.00
  -11   17    2     -1.58      0.00
   -9   17    2     -2.63      0.00
   -7   17    2     -2.36      0.00
   -5   17    2     -2.46      0.00
   -3   17    2     -2.30      0.00
   -1   17    2     -1.64      0.00
    1   17    2      0.14      0.00
    3   17    2      2.46      0.00
    5   17    2      3.23      0.00
    7   17    2      3.17      0.00
    9   17    2      0.57      0.00
   11   17    2     -1.95      0.00
   13   17    2     -3.03      0.00
  -14   18    2      0.86      0.00
  -12   18    2     -1.02      0.00
  -10   18    2     -2.74      0.00
   -8   18    2     -2.39      0.00
   -6   18    2     -1.78      0.00
   -4   18    2     -2.50      0.00
   -2   18    2     -2.55      0.00
    0   18    2     -1.33      0.00
    2   18    2      1.37      0.00
    4   18    2      2.70      0.00
    6   18    2      3.02      0.00
    8   18    2      2.15      0.00
   10   18    2     -0.62      0.00
   12   18    2     -2.08      0.00
  -13   19    2     -0.01      0.00
  -11   19    2     -2.17      0.00
   -9   19    2     -2.75      0.00
   -7   19    2     -1.08      0.00
   -5   19    2     -1.62      0.00
   -3   19    2     -2.86      0.00
   -1   19    2     -2.31      0.00
    1   19    2      0.17      0.00
    3   19    2      2.28      0.00
    5   19    2      2.10      0.00
    7   19    2      2.22      0.00
    9   19    2      0.68      0.00
   11   19    2     -0.90      0.00
  -12   20    2     -0.83      0.00
  -10   20    2     -2.43      0.00
   -8   20    2     -1.03      0.00
   -6   20    2     -0.09      0.00
   -4   20    2     -2.21      0.00
   -2   20    2     -2.75      0.00
    0   20    2     -0.88      0.00
    2   20    2      1.85      0.00
    4   20    2      1.76      0.00
    6   20    2      1.16      0.00
    8   20    2      1.14      0.00
   10   20    2     -0.03      0.00
  -11   21    2     -1.13      0.00
   -9   21    2     -1.12      0.00
   -7   21    2      0.89      0.00
   -5   21    2     -0.62      0.00
   -3   21    2     -2.65      0.00
   -1   21    2     -1.64      0.00
    1   21    2      1.03      0.00
    3   21    2      2.07      0.00
    5   21    2      0.55      0.00
    7   21    2      0.74      0.00
    9   21    2      0.56      0.00
  -10   22    2     -0.66      0.00
   -8   22    2      0.84      0.00
   -6   22    2      1.05      0.00
   -4   22    2     -1.76      0.00
   -2   22    2     -2.00      0.00
    0   22    2      0.01      0.00
    2   22    2      2.01      0.00
    4   22    2      0.98      0.00
    6   22    2      0.15      0.00
    8   22    2      0.83      0.00
   -7   23    2      1.69      0.00
   -5   23    2     -0.19      0.00
   -3   23    2     -1.75      0.00
   -1   23    2     -0.63      0.00
    1   23    2      1.21      0.00
    3   23    2      1.57      0.00
    5   23    2      0.06      0.00
   -6   24    2      1.05      0.00
   -4   24    2     -0.88      0.00
   -2   24    2     -0.71      0.00
    0   24    2      0.32      0.00
    2   24    2      1.35      0.00
  -20    0    3     -0.62      0.00
  -18    0    3     -1.96      0.00
  -16    0    3     -2.99      0.00
  -14    0    3     -1.41      0.00
  -12    0    3      3.61      0.00
  -10    0    3     10.63      0.00
   -8    0    3     19.00      0.00
   -6    0    3     27.97      0.00
   -4    0    3     31.74      0.00
   -2    0    3     25.87      0.00
    0    0    3     18.00      0.00
    2    0    3     -0.24      0.00
    4    0    3    -12.19      0.00
    6    0    3    -16.07      0.00
    8    0    3    -15.27      0.00
   10    0    3     -9.70      0.00
   12    0    3     -2.13      0.00
   14    0    3      3.99      0.00
   16    0    3      5.43      0.00
  -19    1    3     -1.64      0.00
  -17    1    3     -2.69      0.00
  -15    1    3     -2.97      0.00
  -13    1    3      0.80      0.00
  -11    1    3      6.69      0.00
   -9    1    3     14.89      0.00
   -7    1    3     22.75      0.00
   -5    1    3     30.15      0.00
   -3    1    3     27.25      0.00
   -1    1    3     21.20      0.00
    1    1    3      8.77      0.00
    3    1    3     -7.77      0.00
    5    1    3    -14.19      0.00
    7    1    3    -16.15      0.00
    9    1    3    -12.61      0.00
   11    1    3     -6.04      0.00
   13    1    3      1.03      0.00
   15    1    3      5.04      0.00
  -20    2    3     -1.41      0.00
  -18    2    3     -2.70      0.00
  -16    2    3     -3.44      0.00
  -14    2    3     -1.83      0.00
  -12    2    3      3.18      0.00
  -10    2    3     10.54      0.00
   -8    2    3     18.13      0.00
   -6    2    3     24.58      0.00
   -4    2    3     26.18      0.00
   -2    2    3     19.77      0.00
    0    2    3     13.54      0.00
    2    2    3     -1.21      0.00
    4    2    3    -11.29      0.00
    6    2    3    -15.11      0.00
    8    2    3    -14.24      0.00
   10    2    3     -9.07      0.00
   12    2    3     -2.70      0.00
   14    2    3      2.59      0.00
   16    2    3      4.49      0.00
  -21    3    3     -1.03      0.00
  -19    3    3     -2.64      0.00
  -17    3    3     -3.25      0.00
  -15    3    3     -3.31      0.00
  -13    3    3     -0.03      0.00
  -11    3    3      5.84      0.00
   -9    3    3     13.88      0.00
   -7    3    3     19.07      0.00
   -5    3    3     22.97      0.00
   -3    3    3     18.87      0.00
   -1    3    3     13.60      0.00
    1    3    3      4.95      0.00
    3    3    3     -7.53      0.00
    5    3    3    -13.24      0.00
    7    3    3    -14.82      0.00
    9    3    3    -10.79      0.00
   11    3    3     -5.41      0.00
   13    3    3     -0.45      0.00
   15    3    3      2.91      0.00
  -20    4    3     -1.95      0.00
  -18    4    3     -2.82      0.00
  -16    4    3     -3.28      0.00
  -14    4    3     -2.28      0.00
  -12    4    3      1.68      0.00
  -10    4    3      8.74      0.00
   -8    4    3     14.82      0.00
   -6    4    3     18.10      0.00
   -4    4    3     18.78      0.00
   -2    4    3     13.42      0.00
    0    4    3      8.72      0.00
    2    4    3     -2.59      0.00
    4    4    3    -11.19      0.00
    6    4    3    -14.64      0.00
    8    4    3    -12.10      0.00
   10    4    3     -6.67      0.00
   12    4    3     -2.38      0.00
   14    4    3      0.61      0.00
   16    4    3      2.46      0.00
  -19    5    3     -1.89      0.00
  -17    5    3     -2.51      0.00
  -15    5    3     -3.11      0.00
  -13    5    3     -1.11      0.00
  -11    5    3      3.71      0.00
   -9    5    3     10.72      0.00
   -7    5    3     13.46      0.00
   -5    5    3     16.11      0.00
   -3    5    3     14.29      0.00
   -1    5    3     10.29      0.00
    1    5    3      2.62      0.00
    3    5    3     -8.30      0.00
    5    5    3    -13.59      0.00
    7    5    3    -13.24      0.00
    9    5    3     -7.60      0.00
   11    5    3     -3.10      0.00
   13    5    3     -0.71      0.00
   15    5    3      0.90      0.00
   17    5    3      1.48      0.00
  -20    6    3     -0.44      0.00
  -18    6    3     -1.35      0.00
  -16    6    3     -2.84      0.00
  -14    6    3     -2.72      0.00
  -12    6    3      0.29      0.00
  -10    6    3      6.39      0.00
   -8    6    3     10.57      0.00
   -6    6    3     11.44      0.00
   -4    6    3     13.18      0.00
   -2    6    3     10.49      0.00
    0    6    3      5.94      0.00
    2    6    3     -4.32      0.00
    4    6    3    -11.65      0.00
    6    6    3    -13.32      0.00
    8    6    3     -8.96      0.00
   10    6    3     -3.76      0.00
   12    6    3     -1.10      0.00
   14    6    3     -0.15      0.00
   16    6    3      0.89      0.00
  -19    7    3      0.25      0.00
  -17    7    3     -1.77      0.00
  -15    7    3     -3.42      0.00
  -13    7    3     -1.72      0.00
  -11    7    3      2.62      0.00
   -9    7    3      8.43      0.00
   -7    7    3      8.81      0.00
   -5    7    3      9.65      0.00
   -3    7    3      9.50      0.00
   -1    7    3      6.56      0.00
    1    7    3     -0.51      0.00
    3    7    3     -9.04      0.00
    5    7    3    -12.07      0.00
    7    7    3    -10.12      0.00
    9    7    3     -5.12      0.00
   11    7    3     -1.82      0.00
   13    7    3     -0.40      0.00
   15    7    3      0.35      0.00
   17    7    3      0.84      0.00
  -20    8    3      1.48      0.00
  -18    8    3     -0.10      0.00
  -16    8    3     -2.95      0.00
  -14    8    3     -2.93      0.00
  -12    8    3      0.04      0.00
  -10    8    3      5.38      0.00
   -8    8    3      8.51      0.00
   -6    8    3      7.33      0.00
   -4    8    3      7.93      0.00
   -2    8    3      6.11      0.00
    0    8    3      1.93      0.00
    2    8    3     -5.92      0.00
    4    8    3    -10.26      0.00
    6    8    3    -10.27      0.00
    8    8    3     -6.80      0.00
   10    8    3     -3.34      0.00
   12    8    3     -0.84      0.00
   14    8    3      0.14      0.00
   16    8    3      1.10      0.00
  -19    9    3      1.24      0.00
  -17    9    3     -1.51      0.00
  -15    9    3     -3.11      0.00
  -13    9    3     -1.28      0.00
  -11    9    3      2.05      0.00
   -9    9    3      7.01      0.00
   -7    9    3      7.45      0.00
   -5    9    3      7.01      0.00
   -3    9    3      6.29      0.00
   -1    9    3      3.39      0.00
    1    9    3     -2.48      0.00
    3    9    3     -8.16      0.00
    5    9    3     -9.52      0.00
    7    9    3     -7.98      0.00
    9    9    3     -4.98      0.00
   11    9    3     -2.02      0.00
   13    9    3     -0.01      0.00
   15    9    3      0.90      0.00
  -18   10    3     -0.20      0.00
  -16   10    3     -2.33      0.00
  -14   10    3     -1.62      0.00
  -12   10    3      0.27      0.00
  -10   10    3      3.59      0.00
   -8   10    3      6.98      0.00
   -6   10    3      6.91      0.00
   -4   10    3      6.86      0.00
   -2   10    3      4.69      0.00
    0   10    3      0.62      0.00
    2   10    3     -5.35      0.00
    4   10    3     -8.22      0.00
    6   10    3     -8.19      0.00
    8   10    3     -6.01      0.00
   10   10    3     -3.26      0.00
   12   10    3     -0.40      0.00
   14   10    3      0.44      0.00
   16   10    3      1.32      0.00
  -19   11    3      0.25      0.00
  -17   11    3     -1.46      0.00
  -15   11    3     -1.52      0.00
  -13   11    3      0.05      0.00
  -11   11    3      1.10      0.00
   -9   11    3      4.30      0.00
   -7   11    3      6.26      0.00
   -5   11    3      6.73      0.00
   -3   11    3      5.65      0.00
   -1   11    3      2.56      0.00
    1   11    3     -2.30      0.00
    3   11    3     -6.41      0.00
    5   11    3     -7.53      0.00
    7   11    3     -6.35      0.00
    9   11    3     -3.91      0.00
   11   11    3     -0.96      0.00
   13   11    3      0.29      0.00
   15   11    3      0.54      0.00
  -18   12    3     -0.88      0.00
  -16   12    3     -1.38      0.00
  -14   12    3     -0.11      0.00
  -12   12    3      0.67      0.00
  -10   12    3      1.65      0.00
   -8   12    3      4.32      0.00
   -6   12    3      5.64      0.00
   -4   12    3      5.73      0.00
   -2   12    3      3.44      0.00
    0   12    3     -0.11      0.00
    2   12    3     -4.30      0.00
    4   12    3     -6.35      0.00
    6   12    3     -6.26      0.00
    8   12    3     -4.22      0.00
   10   12    3     -1.65      0.00
   12   12    3      0.34      0.00
   14   12    3     -0.01      0.00
  -17   13    3     -1.00      0.00
  -15   13    3     -0.50      0.00
  -13   13    3      0.54      0.00
  -11   13    3      0.77      0.00
   -9   13    3      2.18      0.00
   -7   13    3      4.07      0.00
   -5   13    3      5.05      0.00
   -3   13    3      3.98      0.00
   -1   13    3      1.17      0.00
    1   13    3     -2.31      0.00
    3   13    3     -4.91      0.00
    5   13    3     -5.78      0.00
    7   13    3     -4.60      0.00
    9   13    3     -2.51      0.00
   11   13    3     -0.25      0.00
   13   13    3      0.02      0.00
  -16   14    3     -0.34      0.00
  -14   14    3     -0.06      0.00
  -12   14    3      0.52      0.00
  -10   14    3      1.04      0.00
   -8   14    3      2.45      0.00
   -6   14    3      3.97      0.00
   -4   14    3      4.37      0.00
   -2   14    3      2.42      0.00
    0   14    3     -0.51      0.00
    2   14    3     -3.26      0.00
    4   14    3     -4.76      0.00
    6   14    3     -4.73      0.00
    8   14    3     -3.25      0.00
   10   14    3     -1.62      0.00
   12   14    3     -0.29      0.00
   14   14    3     -0.35      0.00
  -17   15    3      0.31      0.00
  -15   15    3     -0.02      0.00
  -13   15    3     -0.18      0.00
  -11   15    3      0.51      0.00
   -9   15    3      1.17      0.00
   -7   15    3      2.56      0.00
   -5   15    3      4.06      0.00
   -3   15    3      3.58      0.00
   -1   15    3      1.22      0.00
    1   15    3     -1.44      0.00
    3   15    3     -3.23      0.00
    5   15    3     -4.03      0.00
    7   15    3     -3.24      0.00
    9   15    3     -2.53      0.00
   11   15    3     -1.41      0.00
   13   15    3     -0.93      0.00
  -16   16    3      0.72      0.00
  -14   16    3     -0.46      0.00
  -12   16    3     -0.26      0.00
  -10   16    3      0.34      0.00
   -8   16    3      0.99      0.00
   -6   16    3      2.82      0.00
   -4   16    3      3.76      0.00
   -2   16    3      2.45      0.00
    0   16    3      0.20      0.00
    2   16    3     -1.55      0.00
    4   16    3     -2.59      0.00
    6   16    3     -2.41      0.00
    8   16    3     -1.92      0.00
   10   16    3     -2.14      0.00
   12   16    3     -1.59      0.00
  -15   17    3      0.21      0.00
  -13   17    3     -0.97      0.00
  -11   17    3     -0.32      0.00
   -9   17    3     -0.18      0.00
   -7   17    3      1.17      0.00
   -5   17    3      2.91      0.00
   -3   17    3      2.64      0.00
   -1   17    3      1.17      0.00
    1   17    3     -0.19      0.00
    3   17    3     -1.05      0.00
    5   17    3     -1.40      0.00
    7   17    3     -0.57      0.00
    9   17    3     -1.31      0.00
   11   17    3     -1.82      0.00
  -14   18    3     -0.81      0.00
  -12   18    3     -0.94      0.00
  -10   18    3     -0.64      0.00
   -8   18    3     -0.17      0.00
   -6   18    3      1.81      0.00
   -4   18    3      2.18      0.00
   -2   18    3      1.31      0.00
    0   18    3      0.60      0.00
    2   18    3      0.11      0.00
    4   18    3     -0.65      0.00
    6   18    3     -0.08      0.00
    8   18    3      0.25      0.00
   10   18    3     -1.11      0.00
  -13   19    3     -1.12      0.00
  -11   19    3     -0.57      0.00
   -9   19    3     -0.70      0.00
   -7   19    3      0.84      0.00
   -5   19    3      1.83      0.00
   -3   19    3      0.99      0.00
   -1   19    3      0.80      0.00
    1   19    3      0.84      0.00
    3   19    3      0.00      0.00
    5   19    3     -0.66      0.00
    7   19    3      0.63      0.00
    9   19    3      0.11      0.00
  -12   20    3     -0.31      0.00
  -10   20    3     -0.23      0.00
   -8   20    3      0.10      0.00
   -6   20    3      1.58      0.00
   -4   20    3      0.78      0.00
   -2   20    3      0.43      0.00
    0   20    3      1.11      0.00
    2   20    3      0.68      0.00
    4   20    3     -1.08      0.00
    6   20    3     -0.56      0.00
    8   20    3      0.73      0.00
  -11   21    3      0.70      0.00
   -9   21    3      0.10      0.00
   -7   21    3      0.99      0.00
   -5   21    3      0.80      0.00
   -3   21    3     -0.20      0.00
   -1   21    3      0.78      0.00
    1   21    3      1.15      0.00
    3   21    3     -0.58      0.00
    5   21    3     -1.81      0.00
    7   21    3      0.13      0.00
  -10   22    3      0.89      0.00
   -8   22    3      0.41      0.00
   -6   22    3      0.76      0.00
   -4   22    3     -0.52      0.00
   -2   22    3      0.00      0.00
    0   22    3      1.15      0.00
    2   22    3      0.30      0.00
    4   22    3     -1.77      0.00
    6   22    3     -1.04      0.00
   -7   23    3      0.44      0.00
   -5   23    3     -0.27      0.00
   -3   23    3     -0.64      0.00
   -1   23    3      0.78      0.00
    1   23    3      0.84      0.00
    3   23    3     -0.76      0.00
    5   23    3     -1.59      0.00
   -6   24    3      0.11      0.00
   -4   24    3     -0.67      0.00
   -2   24    3      0.28      0.00
    0   24    3      0.94      0.00
    2   24    3      0.13      0.00
  -20    0    4      2.70      0.00
  -18    0    4      4.00      0.00
  -16    0    4      3.17      0.00
  -14    0    4      3.03      0.00
  -12    0    4      3.52      0.00
  -10    0    4      1.96      0.00
   -8    0    4     -2.80      0.00
   -6    0    4    -14.67      0.00
   -4    0    4    -25.21      0.00
   -2    0    4    -23.78      0.00
    0    0    4     -7.87      0.00
    2    0    4      2.94      0.00
    4    0    4     10.20      0.00
    6    0    4     11.52      0.00
    8    0    4     10.24      0.00
   10    0    4      9.58      0.00
   12    0    4      6.76      0.00
   14    0    4      2.14      0.00
  -19    1    4      3.05      0.00
  -17    1    4      3.78      0.00
  -15    1    4      2.65      0.00
  -13    1    4      3.74      0.00
  -11    1    4      2.85      0.00
   -9    1    4      0.64      0.00
   -7    1    4     -8.53      0.00
   -5    1    4    -20.88      0.00
   -3    1    4    -27.29      0.00
   -1    1    4    -16.81      0.00
    1    1    4     -1.81      0.00
    3    1    4      6.94      0.00
    5    1    4     12.00      0.00
    7    1    4     10.81      0.00
    9    1    4      9.96      0.00
   11    1    4      8.20      0.00
   13    1    4      4.07      0.00
   15    1    4      0.37      0.00
  -20    2    4      1.50      0.00
  -18    2    4      3.11      0.00
  -16    2    4      3.09      0.00
  -14    2    4      3.27      0.00
  -12    2    4      3.75      0.00
  -10    2    4      2.24      0.00
   -8    2    4     -3.05      0.00
   -6    2    4    -15.44      0.00
   -4    2    4    -25.88      0.00
   -2    2    4    -24.87      0.00
    0    2    4     -9.42      0.00
    2    2    4      2.41      0.00
    4    2    4     10.56      0.00
    6    2    4     11.96      0.00
    8    2    4     10.30      0.00
   10    2    4      8.83      0.00
   12    2    4      5.55      0.00
   14    2    4      1.20      0.00
  -21    3    4      0.23      0.00
  -19    3    4      1.34      0.00
  -17    3    4      3.31      0.00
  -15    3    4      3.15      0.00
  -13    3    4      4.00      0.00
  -11    3    4      2.94      0.00
   -9    3    4      0.40      0.00
   -7    3    4     -9.37      0.00
   -5    3    4    -21.05      0.00
   -3    3    4    -26.87      0.00
   -1    3    4    -18.04      0.00
    1    3    4     -3.76      0.00
    3    3    4      6.16      0.00
    5    3    4     11.84      0.00
    7    3    4     10.95      0.00
    9    3    4      9.55      0.00
   11    3    4      6.88      0.00
   13    3    4      2.57      0.00
   15    3    4     -0.60      0.00
  -20    4    4     -0.17      0.00
  -18    4    4      2.28      0.00
  -16    4    4      3.65      0.00
  -14    4    4      3.80      0.00
  -12    4    4      3.42      0.00
  -10    4    4      1.53      0.00
   -8    4    4     -4.18      0.00
   -6    4    4    -15.46      0.00
   -4    4    4    -23.19      0.00
   -2    4    4    -22.59      0.00
    0    4    4    -10.68      0.00
    2    4    4      0.00      0.00
    4    4    4      8.57      0.00
    6    4    4     11.00      0.00
    8    4    4     10.27      0.00
   10    4    4      8.45      0.00
   12    4    4      4.74      0.00
   14    4    4      0.20      0.00
  -21    5    4     -0.64      0.00
  -19    5    4      0.70      0.00
  -17    5    4      3.55      0.00
  -15    5    4      3.82      0.00
  -13    5    4      3.73      0.00
  -11    5    4      1.91      0.00
   -9    5    4     -1.09      0.00
   -7    5    4    -10.29      0.00
   -5    5    4    -18.63      0.00
   -3    5    4    -21.73      0.00
   -1    5    4    -16.03      0.00
    1    5    4     -5.99      0.00
    3    5    4      2.89      0.00
    5    5    4      9.31      0.00
    7    5    4     10.38      0.00
    9    5    4      9.81      0.00
   11    5    4      7.11      0.00
   13    5    4      2.58      0.00
   15    5    4     -1.36      0.00
  -20    6    4     -0.06      0.00
  -18    6    4      2.43      0.00
  -16    6    4      3.82      0.00
  -14    6    4      3.61      0.00
  -12    6    4      2.62      0.00
  -10    6    4      0.42      0.00
   -8    6    4     -5.45      0.00
   -6    6    4    -14.98      0.00
   -4    6    4    -19.07      0.00
   -2    6    4    -18.27      0.00
    0    6    4    -10.87      0.00
    2    6    4     -2.82      0.00
    4    6    4      5.68      0.00
    6    6    4      9.64      0.00
    8    6    4     10.26      0.00
   10    6    4      8.67      0.00
   12    6    4      5.43      0.00
   14    6    4      0.54      0.00
   16    6    4     -2.19      0.00
  -19    7    4      1.42      0.00
  -17    7    4      3.37      0.00
  -15    7    4      3.22      0.00
  -13    7    4      2.98      0.00
  -11    7    4      1.42      0.00
   -9    7    4     -1.48      0.00
   -7    7    4    -10.22      0.00
   -5    7    4    -16.73      0.00
   -3    7    4    -17.91      0.00
   -1    7    4    -14.18      0.00
    1    7    4     -7.15      0.00
    3    7    4      1.07      0.00
    5    7    4      7.87      0.00
    7    7    4      9.75      0.00
    9    7    4      9.04      0.00
   11    7    4      6.97      0.00
   13    7    4      3.51      0.00
   15    7    4     -0.84      0.00
  -20    8    4      1.08      0.00
  -18    8    4      2.75      0.00
  -16    8    4      3.08      0.00
  -14    8    4      2.69      0.00
  -12    8    4      2.01      0.00
  -10    8    4      0.54      0.00
   -8    8    4     -4.43      0.00
   -6    8    4    -12.98      0.00
   -4    8    4    -16.00      0.00
   -2    8    4    -15.09      0.00
    0    8    4     -9.84      0.00
    2    8    4     -3.01      0.00
    4    8    4      4.82      0.00
    6    8    4      8.49      0.00
    8    8    4      8.56      0.00
   10    8    4      6.95      0.00
   12    8    4      5.45      0.00
   14    8    4      1.74      0.00
   16    8    4     -1.33      0.00
  -19    9    4      2.13      0.00
  -17    9    4      3.16      0.00
  -15    9    4      2.63      0.00
  -13    9    4      2.18      0.00
  -11    9    4      0.89      0.00
   -9    9    4     -0.73      0.00
   -7    9    4     -7.34      0.00
   -5    9    4    -12.78      0.00
   -3    9    4    -13.51      0.00
   -1    9    4    -10.70      0.00
    1    9    4     -5.45      0.00
    3    9    4      1.17      0.00
    5    9    4      6.39      0.00
    7    9    4      7.62      0.00
    9    9    4      6.59      0.00
   11    9    4      5.68      0.00
   13    9    4      3.98      0.00
   15    9    4      0.35      0.00
  -20   10    4      1.21      0.00
  -18   10    4      2.75      0.00
  -16   10    4      3.00      0.00
  -14   10    4      2.43      0.00
  -12   10    4      1.10      0.00
  -10   10    4     -0.13      0.00
   -8   10    4     -2.78      0.00
   -6   10    4     -8.65      0.00
   -4   10    4    -10.85      0.00
   -2   10    4     -9.93      0.00
    0   10    4     -6.29      0.00
    2   10    4     -1.67      0.00
    4   10    4      3.61      0.00
    6   10    4      6.23      0.00
    8   10    4      6.53      0.00
   10   10    4      5.53      0.00
   12   10    4      4.97      0.00
   14   10    4      2.00      0.00
  -19   11    4      1.64      0.00
  -17   11    4      2.83      0.00
  -15   11    4      2.78      0.00
  -13   11    4      1.81      0.00
  -11   11    4     -0.18      0.00
   -9   11    4     -1.18      0.00
   -7   11    4     -4.91      0.00
   -5   11    4     -8.46      0.00
   -3   11    4     -8.67      0.00
   -1   11    4     -6.45      0.00
    1   11    4     -3.17      0.00
    3   11    4      0.89      0.00
    5   11    4      4.35      0.00
    7   11    4      6.16      0.00
    9   11    4      6.00      0.00
   11   11    4      5.24      0.00
   13   11    4      3.24      0.00
   15   11    4      0.07      0.00
  -18   12    4      1.79      0.00
  -16   12    4      2.55      0.00
  -14   12    4      2.29      0.00
  -12   12    4      0.69      0.00
  -10   12    4     -0.85      0.00
   -8   12    4     -2.52      0.00
   -6   12    4     -6.30      0.00
   -4   12    4     -7.71      0.00
   -2   12    4     -6.60      0.00
    0   12    4     -4.02      0.00
    2   12    4     -1.18      0.00
    4   12    4      2.22      0.00
    6   12    4      4.82      0.00
    8   12    4      6.23      0.00
   10   12    4      5.44      0.00
   12   12    4      4.02      0.00
   14   12    4      0.87      0.00
  -17   13    4      1.69      0.00
  -15   13    4      2.02      0.00
  -13   13    4      1.44      0.00
  -11   13    4      0.01      0.00
   -9   13    4     -1.13      0.00
   -7   13    4     -3.94      0.00
   -5   13    4     -6.55      0.00
   -3   13    4     -6.50      0.00
   -1   13    4     -4.67      0.00
    1   13    4     -2.54      0.00
    3   13    4      0.20      0.00
    5   13    4      2.88      0.00
    7   13    4      5.14      0.00
    9   13    4      5.22      0.00
   11   13    4      4.02      0.00
   13   13    4      1.76      0.00
  -18   14    4      0.90      0.00
  -16   14    4      1.44      0.00
  -14   14    4      1.32      0.00
  -12   14    4      0.81      0.00
  -10   14    4     -0.04      0.00
   -8   14    4     -1.74      0.00
   -6   14    4     -4.58      0.00
   -4   14    4     -5.65      0.00
   -2   14    4     -4.76      0.00
    0   14    4     -3.26      0.00
    2   14    4     -1.40      0.00
    4   14    4      1.14      0.00
    6   14    4      3.30      0.00
    8   14    4      4.25      0.00
   10   14    4      3.10      0.00
   12   14    4      1.92      0.00
  -17   15    4      0.96      0.00
  -15   15    4      1.04      0.00
  -13   15    4      0.77      0.00
  -11   15    4      0.64      0.00
   -9   15    4     -0.32      0.00
   -7   15    4     -2.42      0.00
   -5   15    4     -4.12      0.00
   -3   15    4     -4.17      0.00
   -1   15    4     -3.31      0.00
    1   15    4     -2.32      0.00
    3   15    4     -0.12      0.00
    5   15    4      2.03      0.00
    7   15    4      3.25      0.00
    9   15    4      2.12      0.00
   11   15    4      0.96      0.00
   13   15    4      0.16      0.00
  -16   16    4      0.95      0.00
  -14   16    4      0.50      0.00
  -12   16    4      0.57      0.00
  -10   16    4      0.30      0.00
   -8   16    4     -1.02      0.00
   -6   16    4     -2.48      0.00
   -4   16    4     -3.28      0.00
   -2   16    4     -3.04      0.00
    0   16    4     -2.54      0.00
    2   16    4     -1.01      0.00
    4   16    4      1.52      0.00
    6   16    4      3.03      0.00
    8   16    4      2.21      0.00
   10   16    4      0.01      0.00
   12   16    4     -0.46      0.00
  -15   17    4      0.54      0.00
  -13   17    4      0.12      0.00
  -11   17    4      0.39      0.00
   -9   17    4     -0.42      0.00
   -7   17    4     -1.27      0.00
   -5   17    4     -2.20      0.00
   -3   17    4     -2.79      0.00
   -1   17    4     -2.41      0.00
    1   17    4     -1.53      0.00
    3   17    4      1.00      0.00
    5   17    4      3.20      0.00
    7   17    4      3.27      0.00
    9   17    4      0.48      0.00
   11   17    4     -1.06      0.00
  -14   18    4     -0.07      0.00
  -12   18    4      0.16      0.00
  -10   18    4     -0.04      0.00
   -8   18    4     -0.66      0.00
   -6   18    4     -0.94      0.00
   -4   18    4     -2.22      0.00
   -2   18    4     -2.32      0.00
    0   18    4     -1.54      0.00
    2   18    4      0.19      0.00
    4   18    4      2.74      0.00
    6   18    4      3.89      0.00
    8   18    4      2.07      0.00
   10   18    4     -0.75      0.00
  -13   19    4     -0.10      0.00
  -11   19    4      0.37      0.00
   -9   19    4     -0.33      0.00
   -7   19    4     -0.11      0.00
   -5   19    4     -1.02      0.00
   -3   19    4     -2.21      0.00
   -1   19    4     -1.33      0.00
    1   19    4     -0.32      0.00
    3   19    4      1.51      0.00
    5   19    4      3.15      0.00
    7   19    4      3.04      0.00
    9   19    4      0.45      0.00
  -12   20    4      0.63      0.00
  -10   20    4      0.25      0.00
   -8   20    4     -0.14      0.00
   -6   20    4      0.04      0.00
   -4   20    4     -1.74      0.00
   -2   20    4     -1.48      0.00
    0   20    4     -0.33      0.00
    2   20    4      0.35      0.00
    4   20    4      1.56      0.00
    6   20    4      2.48      0.00
    8   20    4      1.55      0.00
  -11   21    4      1.06      0.00
   -9   21    4     -0.26      0.00
   -7   21    4     -0.01      0.00
   -5   21    4     -1.02      0.00
   -3   21    4     -1.97      0.00
   -1   21    4     -0.47      0.00
    1   21    4     -0.15      0.00
    3   21    4      0.17      0.00
    5   21    4      1.13      0.00
    7   21    4      1.72      0.00
  -10   22    4      0.35      0.00
   -8   22    4     -0.68      0.00
   -6   22    4     -0.60      0.00
   -4   22    4     -2.08      0.00
   -2   22    4     -1.13      0.00
    0   22    4     -0.19      0.00
    2   22    4     -0.53      0.00
    4   22    4      0.06      0.00
    6   22    4      1.14      0.00
   -7   23    4     -0.68      0.00
   -5   23    4     -1.41      0.00
   -3   23    4     -1.72      0.00
   -1   23    4     -0.28      0.00
    1   23    4     -0.60      0.00
    3   23    4     -0.46      0.00
   -4   24    4     -1.40      0.00
   -2   24    4     -0.52      0.00
    0   24    4     -0.33      0.00
  -20    0    5      2.31      0.00
  -18    0    5     -0.27      0.00
  -16    0    5     -3.94      0.00
  -14    0    5     -4.84      0.00
  -12    0    5     -4.04      0.00
  -10    0    5     -2.53      0.00
   -8    0    5      2.38      0.00
   -6    0    5      7.14      0.00
   -4    0    5     14.41      0.00
   -2    0    5     19.43      0.00
    0    0    5     22.42      0.00
    2    0    5     17.31      0.00
    4    0    5      8.15      0.00
    6    0    5     -2.34      0.00
    8    0    5     -7.55      0.00
   10    0    5     -7.80      0.00
   12    0    5     -5.19      0.00
   14    0    5     -2.14      0.00
  -21    1    5      2.77      0.00
  -19    1    5      0.96      0.00
  -17    1    5     -2.07      0.00
  -15    1    5     -5.08      0.00
  -13    1    5     -4.12      0.00
  -11    1    5     -3.81      0.00
   -9    1    5      0.01      0.00
   -7    1    5      4.17      0.00
   -5    1    5     10.41      0.00
   -3    1    5     16.60      0.00
   -1    1    5     21.23      0.00
    1    1    5     20.76      0.00
    3    1    5     13.22      0.00
    5    1    5      2.98      0.00
    7    1    5     -5.70      0.00
    9    1    5     -8.18      0.00
   11    1    5     -7.05      0.00
   13    1    5     -3.95      0.00
  -22    2    5      2.03      0.00
  -20    2    5      1.63      0.00
  -18    2    5     -0.54      0.00
  -16    2    5     -3.94      0.00
  -14    2    5     -4.80      0.00
  -12    2    5     -3.80      0.00
  -10    2    5     -2.26      0.00
   -8    2    5      1.92      0.00
   -6    2    5      5.91      0.00
   -4    2    5     12.84      0.00
   -2    2    5     17.88      0.00
    0    2    5     21.43      0.00
    2    2    5     17.32      0.00
    4    2    5      8.65      0.00
    6    2    5     -1.80      0.00
    8    2    5     -7.44      0.00
   10    2    5     -8.43      0.00
   12    2    5     -6.25      0.00
   14    2    5     -3.09      0.00
  -21    3    5      1.57      0.00
  -19    3    5      0.33      0.00
  -17    3    5     -1.96      0.00
  -15    3    5     -4.90      0.00
  -13    3    5     -4.05      0.00
  -11    3    5     -3.53      0.00
   -9    3    5     -0.36      0.00
   -7    3    5      2.63      0.00
   -5    3    5      8.35      0.00
   -3    3    5     14.35      0.00
   -1    3    5     18.88      0.00
    1    3    5     19.12      0.00
    3    3    5     12.55      0.00
    5    3    5      3.00      0.00
    7    3    5     -5.18      0.00
    9    3    5     -8.14      0.00
   11    3    5     -7.83      0.00
   13    3    5     -5.30      0.00
  -20    4    5      0.69      0.00
  -18    4    5     -0.44      0.00
  -16    4    5     -3.46      0.00
  -14    4    5     -4.73      0.00
  -12    4    5     -3.92      0.00
  -10    4    5     -2.70      0.00
   -8    4    5      0.35      0.00
   -6    4    5      3.85      0.00
   -4    4    5     10.81      0.00
   -2    4    5     15.28      0.00
    0    4    5     18.05      0.00
    2    4    5     14.22      0.00
    4    4    5      6.51      0.00
    6    4    5     -2.07      0.00
    8    4    5     -6.42      0.00
   10    4    5     -7.59      0.00
   12    4    5     -6.33      0.00
   14    4    5     -4.30      0.00
  -21    5    5      0.64      0.00
  -19    5    5      0.25      0.00
  -17    5    5     -1.51      0.00
  -15    5    5     -4.63      0.00
  -13    5    5     -4.25      0.00
  -11    5    5     -3.94      0.00
   -9    5    5     -1.76      0.00
   -7    5    5      0.37      0.00
   -5    5    5      6.09      0.00
   -3    5    5     11.82      0.00
   -1    5    5     14.96      0.00
    1    5    5     14.29      0.00
    3    5    5      8.29      0.00
    5    5    5      0.88      0.00
    7    5    5     -4.35      0.00
    9    5    5     -6.03      0.00
   11    5    5     -5.93      0.00
   13    5    5     -4.90      0.00
   15    5    5     -3.39      0.00
  -20    6    5      0.54      0.00
  -18    6    5     -0.25      0.00
  -16    6    5     -3.39      0.00
  -14    6    5     -4.78      0.00
  -12    6    5     -3.94      0.00
  -10    6    5     -3.18      0.00
   -8    6    5     -1.43      0.00
   -6    6    5      1.24      0.00
   -4    6    5      7.61      0.00
   -2    6    5     11.17      0.00
    0    6    5     12.87      0.00
    2    6    5      9.34      0.00
    4    6    5      3.28      0.00
    6    6    5     -2.29      0.00
    8    6    5     -4.46      0.00
   10    6    5     -5.06      0.00
   12    6    5     -4.18      0.00
   14    6    5     -3.97      0.00
  -21    7    5      0.63      0.00
  -19    7    5      0.43      0.00
  -17    7    5     -1.72      0.00
  -15    7    5     -4.79      0.00
  -13    7    5     -4.03      0.00
  -11    7    5     -3.40      0.00
   -9    7    5     -1.96      0.00
   -7    7    5     -1.08      0.00
   -5    7    5      3.07      0.00
   -3    7    5      7.56      0.00
   -1    7    5     10.10      0.00
    1    7    5      9.83      0.00
    3    7    5      5.26      0.00
    5    7    5     -0.11      0.00
    7    7    5     -3.35      0.00
    9    7    5     -4.50      0.00
   11    7    5     -3.90      0.00
   13    7    5     -2.99      0.00
   15    7    5     -2.83      0.00
  -20    8    5      0.81      0.00
  -18    8    5     -0.18      0.00
  -16    8    5     -3.49      0.00
  -14    8    5     -4.49      0.00
  -12    8    5     -3.26      0.00
  -10    8    5     -2.30      0.00
   -8    8    5     -0.89      0.00
   -6    8    5      0.56      0.00
   -4    8    5      4.82      0.00
   -2    8    5      7.37      0.00
    0    8    5      9.14      0.00
    2    8    5      6.75      0.00
    4    8    5      1.94      0.00
    6    8    5     -2.24      0.00
    8    8    5     -4.10      0.00
   10    8    5     -4.52      0.00
   12    8    5     -2.48      0.00
   14    8    5     -1.97      0.00
  -19    9    5      0.80      0.00
  -17    9    5     -1.27      0.00
  -15    9    5     -3.97      0.00
  -13    9    5     -3.43      0.00
  -11    9    5     -2.89      0.00
   -9    9    5     -0.96      0.00
   -7    9    5      0.45      0.00
   -5    9    5      3.29      0.00
   -3    9    5      6.00      0.00
   -1    9    5      7.70      0.00
    1    9    5      7.45      0.00
    3    9    5      3.49      0.00
    5    9    5     -0.96      0.00
    7    9    5     -3.40      0.00
    9    9    5     -4.72      0.00
   11    9    5     -3.40      0.00
   13    9    5     -1.18      0.00
  -20   10    5      0.70      0.00
  -18   10    5      0.44      0.00
  -16   10    5     -2.04      0.00
  -14   10    5     -3.18      0.00
  -12   10    5     -3.17      0.00
  -10   10    5     -2.39      0.00
   -8   10    5      0.21      0.00
   -6   10    5      2.41      0.00
   -4   10    5      5.40      0.00
   -2   10    5      6.63      0.00
    0   10    5      7.22      0.00
    2   10    5      4.54      0.00
    4   10    5      0.29      0.00
    6   10    5     -2.44      0.00
    8   10    5     -3.60      0.00
   10   10    5     -4.13      0.00
   12   10    5     -1.61      0.00
   14   10    5     -0.45      0.00
  -19   11    5      0.75      0.00
  -17   11    5     -0.20      0.00
  -15   11    5     -2.00      0.00
  -13   11    5     -2.67      0.00
  -11   11    5     -3.43      0.00
   -9   11    5     -1.47      0.00
   -7   11    5      1.14      0.00
   -5   11    5      4.04      0.00
   -3   11    5      5.87      0.00
   -1   11    5      6.38      0.00
    1   11    5      5.13      0.00
    3   11    5      1.45      0.00
    5   11    5     -1.49      0.00
    7   11    5     -2.09      0.00
    9   11    5     -3.15      0.00
   11   11    5     -2.45      0.00
   13   11    5     -0.57      0.00
  -18   12    5      0.38      0.00
  -16   12    5     -0.74      0.00
  -14   12    5     -1.77      0.00
  -12   12    5     -2.98      0.00
  -10   12    5     -3.02      0.00
   -8   12    5     -0.64      0.00
   -6   12    5      1.79      0.00
   -4   12    5      4.46      0.00
   -2   12    5      5.33      0.00
    0   12    5      5.09      0.00
    2   12    5      2.53      0.00
    4   12    5     -0.55      0.00
    6   12    5     -1.43      0.00
    8   12    5     -1.50      0.00
   10   12    5     -2.44      0.00
   12   12    5     -1.01      0.00
  -19   13    5      0.17      0.00
  -17   13    5     -0.19      0.00
  -15   13    5     -1.00      0.00
  -13   13    5     -2.02      0.00
  -11   13    5     -3.12      0.00
   -9   13    5     -2.03      0.00
   -7   13    5     -0.22      0.00
   -5   13    5      2.31      0.00
   -3   13    5      4.24      0.00
   -1   13    5      4.59      0.00
    1   13    5      3.27      0.00
    3   13    5      0.54      0.00
    5   13    5     -1.39      0.00
    7   13    5     -1.11      0.00
    9   13    5     -1.87      0.00
   11   13    5     -1.58      0.00
   13   13    5     -0.36      0.00
  -18   14    5     -0.04      0.00
  -16   14    5     -0.44      0.00
  -14   14    5     -1.35      0.00
  -12   14    5     -2.53      0.00
  -10   14    5     -2.56      0.00
   -8   14    5     -1.39      0.00
   -6   14    5      0.32      0.00
   -4   14    5      2.96      0.00
   -2   14    5      4.12      0.00
    0   14    5      3.61      0.00
    2   14    5      1.62      0.00
    4   14    5     -0.85      0.00
    6   14    5     -1.80      0.00
    8   14    5     -1.88      0.00
   10   14    5     -2.31      0.00
   12   14    5     -0.71      0.00
  -17   15    5      0.01      0.00
  -15   15    5     -0.60      0.00
  -13   15    5     -2.08      0.00
  -11   15    5     -2.70      0.00
   -9   15    5     -2.05      0.00
   -7   15    5     -1.04      0.00
   -5   15    5      1.37      0.00
   -3   15    5      3.59      0.00
   -1   15    5      3.78      0.00
    1   15    5      2.41      0.00
    3   15    5      0.43      0.00
    5   15    5     -1.71      0.00
    7   15    5     -2.32      0.00
    9   15    5     -2.93      0.00
   11   15    5     -1.77      0.00
  -16   16    5      0.25      0.00
  -14   16    5     -1.33      0.00
  -12   16    5     -2.78      0.00
  -10   16    5     -2.53      0.00
   -8   16    5     -1.87      0.00
   -6   16    5     -0.24      0.00
   -4   16    5      2.47      0.00
   -2   16    5      3.72      0.00
    0   16    5      2.95      0.00
    2   16    5      1.64      0.00
    4   16    5     -0.15      0.00
    6   16    5     -1.90      0.00
    8   16    5     -2.84      0.00
   10   16    5     -2.83      0.00
  -15   17    5     -0.20      0.00
  -13   17    5     -2.42      0.00
  -11   17    5     -2.79      0.00
   -9   17    5     -2.23      0.00
   -7   17    5     -1.32      0.00
   -5   17    5      0.97      0.00
   -3   17    5      3.10      0.00
   -1   17    5      3.34      0.00
    1   17    5      2.34      0.00
    3   17    5      1.56      0.00
    5   17    5     -0.23      0.00
    7   17    5     -1.79      0.00
    9   17    5     -2.79      0.00
  -14   18    5     -1.42      0.00
  -12   18    5     -2.66      0.00
  -10   18    5     -2.09      0.00
   -8   18    5     -1.56      0.00
   -6   18    5     -0.07      0.00
   -4   18    5      2.04      0.00
   -2   18    5      3.41      0.00
    0   18    5      2.89      0.00
    2   18    5      2.25      0.00
    4   18    5      1.44      0.00
    6   18    5     -0.32      0.00
    8   18    5     -1.72      0.00
  -13   19    5     -2.06      0.00
  -11   19    5     -1.71      0.00
   -9   19    5     -1.22      0.00
   -7   19    5     -0.46      0.00
   -5   19    5      1.10      0.00
   -3   19    5      2.83      0.00
   -1   19    5      3.43      0.00
    1   19    5      2.33      0.00
    3   19    5      1.88      0.00
    5   19    5      0.73      0.00
    7   19    5     -0.59      0.00
    9   19    5     -1.29      0.00
  -12   20    5     -1.34      0.00
  -10   20    5     -0.75      0.00
   -8   20    5     -0.68      0.00
   -6   20    5      0.33      0.00
   -4   20    5      1.66      0.00
   -2   20    5      3.27      0.00
    0   20    5      2.61      0.00
    2   20    5      1.35      0.00
    4   20    5      0.90      0.00
    6   20    5     -0.02      0.00
  -11   21    5     -0.40      0.00
   -9   21    5     -0.83      0.00
   -7   21    5     -0.63      0.00
   -5   21    5      0.27      0.00
   -3   21    5      1.91      0.00
   -1   21    5      2.76      0.00
    1   21    5      0.96      0.00
    3   21    5      0.34      0.00
    5   21    5      0.16      0.00
  -10   22    5     -0.63      0.00
   -8   22    5     -1.46      0.00
   -6   22    5     -0.95      0.00
   -4   22    5      0.02      0.00
   -2   22    5      1.97      0.00
    0   22    5      1.21      0.00
    2   22    5     -0.28      0.00
    4   22    5      0.08      0.00
   -7   23    5     -1.61      0.00
   -5   23    5     -1.17      0.00
   -3   23    5      0.40      0.00
   -1   23    5      1.48      0.00
    1   23    5     -0.17      0.00
   -4   24    5     -0.79      0.00
   -2   24    5      1.03      0.00
  -20    0    6      1.01      0.00
  -18    0    6      0.38      0.00
  -16    0    6      1.85      0.00
  -14    0    6      3.10      0.00
  -12    0    6      4.29      0.00
  -10    0    6      5.44      0.00
   -8    0    6      5.44      0.00
   -6    0    6     -2.53      0.00
   -4    0    6    -11.55      0.00
   -2    0    6    -18.17      0.00
    0    0    6    -16.62      0.00
    2    0    6    -11.78      0.00
    4    0    6     -6.43      0.00
    6    0    6     -1.78      0.00
    8    0    6      4.13      0.00
   10    0    6      7.11      0.00
   12    0    6      6.27      0.00
  -21    1    6      2.07      0.00
  -19    1    6     -0.01      0.00
  -17    1    6      1.22      0.00
  -15    1    6      2.28      0.00
  -13    1    6      4.09      0.00
  -11    1    6      4.60      0.00
   -9    1    6      6.37      0.00
   -7    1    6      2.03      0.00
   -5    1    6     -6.95      0.00
   -3    1    6    -15.41      0.00
   -1    1    6    -17.94      0.00
    1    1    6    -13.89      0.00
    3    1    6     -8.47      0.00
    5    1    6     -3.76      0.00
    7    1    6      1.20      0.00
    9    1    6      5.70      0.00
   11    1    6      6.61      0.00
   13    1    6      3.95      0.00
  -22    2    6      1.90      0.00
  -20    2    6      0.61      0.00
  -18    2    6      0.13      0.00
  -16    2    6      1.80      0.00
  -14    2    6      3.36      0.00
  -12    2    6      4.68      0.00
  -10    2    6      5.52      0.00
   -8    2    6      5.25      0.00
   -6    2    6     -2.25      0.00
   -4    2    6    -10.70      0.00
   -2    2    6    -17.08      0.00
    0    2    6    -15.41      0.00
    2    2    6    -10.29      0.00
    4    2    6     -4.83      0.00
    6    2    6     -0.98      0.00
    8    2    6      3.28      0.00
   10    2    6      5.25      0.00
   12    2    6      4.66      0.00
  -21    3    6      1.34      0.00
  -19    3    6     -0.45      0.00
  -17    3    6      1.08      0.00
  -15    3    6      2.52      0.00
  -13    3    6      4.57      0.00
  -11    3    6      4.76      0.00
   -9    3    6      5.82      0.00
   -7    3    6      1.95      0.00
   -5    3    6     -5.64      0.00
   -3    3    6    -13.44      0.00
   -1    3    6    -16.24      0.00
    1    3    6    -12.49      0.00
    3    3    6     -6.81      0.00
    5    3    6     -2.13      0.00
    7    3    6      1.26      0.00
    9    3    6      3.72      0.00
   11    3    6      4.21      0.00
   13    3    6      2.32      0.00
  -22    4    6      1.14      0.00
  -20    4    6     -0.06      0.00
  -18    4    6     -0.03      0.00
  -16    4    6      1.91      0.00
  -14    4    6      3.71      0.00
  -12    4    6      4.73      0.00
  -10    4    6      4.63      0.00
   -8    4    6      4.16      0.00
   -6    4    6     -1.51      0.00
   -4    4    6     -8.34      0.00
   -2    4    6    -14.87      0.00
    0    4    6    -14.54      0.00
    2    4    6    -10.10      0.00
    4    4    6     -4.10      0.00
    6    4    6     -0.09      0.00
    8    4    6      2.78      0.00
   10    4    6      3.81      0.00
   12    4    6      3.33      0.00
  -21    5    6      0.52      0.00
  -19    5    6     -0.77      0.00
  -17    5    6      0.97      0.00
  -15    5    6      2.65      0.00
  -13    5    6      4.63      0.00
  -11    5    6      3.97      0.00
   -9    5    6      4.00      0.00
   -7    5    6      1.11      0.00
   -5    5    6     -4.26      0.00
   -3    5    6    -11.13      0.00
   -1    5    6    -14.97      0.00
    1    5    6    -12.92      0.00
    3    5    6     -7.47      0.00
    5    5    6     -1.71      0.00
    7    5    6      1.91      0.00
    9    5    6      3.80      0.00
   11    5    6      4.34      0.00
   13    5    6      2.01      0.00
   15    5    6     -0.91      0.00
  -20    6    6     -0.55      0.00
  -18    6    6     -0.35      0.00
  -16    6    6      1.57      0.00
  -14    6    6      3.69      0.00
  -12    6    6      4.46      0.00
  -10    6    6      3.31      0.00
   -8    6    6      2.36      0.00
   -6    6    6     -1.86      0.00
   -4    6    6     -7.09      0.00
   -2    6    6    -13.05      0.00
    0    6    6    -13.73      0.00
    2    6    6    -10.35      0.00
    4    6    6     -4.11      0.00
    6    6    6      0.60      0.00
    8    6    6      3.33      0.00
   10    6    6      4.67      0.00
   12    6    6      4.39      0.00
   14    6    6      0.34      0.00
  -21    7    6      0.15      0.00
  -19    7    6     -0.91      0.00
  -17    7    6      0.44      0.00
  -15    7    6      2.24      0.00
  -13    7    6      4.51      0.00
  -11    7    6      3.65      0.00
   -9    7    6      2.91      0.00
   -7    7    6      0.18      0.00
   -5    7    6     -4.09      0.00
   -3    7    6     -9.50      0.00
   -1    7    6    -12.53      0.00
    1    7    6    -11.11      0.00
    3    7    6     -6.55      0.00
    5    7    6     -1.17      0.00
    7    7    6      1.98      0.00
    9    7    6      3.77      0.00
   11    7    6      5.40      0.00
   13    7    6      3.29      0.00
  -20    8    6     -0.34      0.00
  -18    8    6     -0.14      0.00
  -16    8    6      1.20      0.00
  -14    8    6      3.29      0.00
  -12    8    6      4.18      0.00
  -10    8    6      3.13      0.00
   -8    8    6      2.21      0.00
   -6    8    6     -1.40      0.00
   -4    8    6     -5.56      0.00
   -2    8    6     -9.79      0.00
    0    8    6    -10.08      0.00
    2    8    6     -7.88      0.00
    4    8    6     -3.27      0.00
    6    8    6      0.22      0.00
    8    8    6      2.09      0.00
   10    8    6      4.17      0.00
   12    8    6      5.48      0.00
   14    8    6      1.86      0.00
  -19    9    6      0.24      0.00
  -17    9    6      1.12      0.00
  -15    9    6      2.11      0.00
  -13    9    6      3.68      0.00
  -11    9    6      3.05      0.00
   -9    9    6      3.00      0.00
   -7    9    6      1.24      0.00
   -5    9    6     -2.10      0.00
   -3    9    6     -6.06      0.00
   -1    9    6     -8.13      0.00
    1    9    6     -7.76      0.00
    3    9    6     -5.30      0.00
    5    9    6     -1.63      0.00
    7    9    6      0.61      0.00
    9    9    6      2.20      0.00
   11    9    6      5.09      0.00
   13    9    6      4.46      0.00
  -20   10    6      0.73      0.00
  -18   10    6      1.59      0.00
  -16   10    6      2.06      0.00
  -14   10    6      2.72      0.00
  -12   10    6      2.71      0.00
  -10   10    6      2.30      0.00
   -8   10    6      2.55      0.00
   -6   10    6      0.27      0.00
   -4   10    6     -2.66      0.00
   -2   10    6     -5.70      0.00
    0   10    6     -6.63      0.00
    2   10    6     -6.40      0.00
    4   10    6     -3.56      0.00
    6   10    6     -0.48      0.00
    8   10    6      1.27      0.00
   10   10    6      3.32      0.00
   12   10    6      5.34      0.00
  -19   11    6      1.77      0.00
  -17   11    6      2.45      0.00
  -15   11    6      2.36      0.00
  -13   11    6      2.38      0.00
  -11   11    6      1.56      0.00
   -9   11    6      2.11      0.00
   -7   11    6      1.27      0.00
   -5   11    6     -0.88      0.00
   -3   11    6     -3.42      0.00
   -1   11    6     -5.16      0.00
    1   11    6     -6.06      0.00
    3   11    6     -5.05      0.00
    5   11    6     -1.69      0.00
    7   11    6      1.18      0.00
    9   11    6      2.41      0.00
   11   11    6      4.48      0.00
   13   11    6      3.92      0.00
  -18   12    6      2.32      0.00
  -16   12    6      2.34      0.00
  -14   12    6      2.09      0.00
  -12   12    6      1.53      0.00
  -10   12    6      1.39      0.00
   -8   12    6      1.41      0.00
   -6   12    6     -0.45      0.00
   -4   12    6     -2.11      0.00
   -2   12    6     -3.81      0.00
    0   12    6     -4.83      0.00
    2   12    6     -5.35      0.00
    4   12    6     -3.10      0.00
    6   12    6      0.50      0.00
    8   12    6      2.46      0.00
   10   12    6      3.30      0.00
   12   12    6      4.18      0.00
  -19   13    6      1.77      0.00
  -17   13    6      1.99      0.00
  -15   13    6      1.76      0.00
  -13   13    6      1.48      0.00
  -11   13    6      1.26      0.00
   -9   13    6      1.48      0.00
   -7   13    6     -0.08      0.00
   -5   13    6     -1.64      0.00
   -3   13    6     -2.69      0.00
   -1   13    6     -3.56      0.00
    1   13    6     -4.49      0.00
    3   13    6     -4.01      0.00
    5   13    6     -1.19      0.00
    7   13    6      1.81      0.00
    9   13    6      2.50      0.00
   11   13    6      3.37      0.00
  -18   14    6      1.52      0.00
  -16   14    6      1.44      0.00
  -14   14    6      1.05      0.00
  -12   14    6      0.94      0.00
  -10   14    6      1.44      0.00
   -8   14    6      0.64      0.00
   -6   14    6     -1.19      0.00
   -4   14    6     -1.77      0.00
   -2   14    6     -2.46      0.00
    0   14    6     -3.29      0.00
    2   14    6     -3.95      0.00
    4   14    6     -2.76      0.00
    6   14    6     -0.08      0.00
    8   14    6      1.53      0.00
   10   14    6      1.89      0.00
  -17   15    6      1.26      0.00
  -15   15    6      0.88      0.00
  -13   15    6      0.14      0.00
  -11   15    6      0.67      0.00
   -9   15    6      0.97      0.00
   -7   15    6     -0.58      0.00
   -5   15    6     -1.12      0.00
   -3   15    6     -1.40      0.00
   -1   15    6     -2.27      0.00
    1   15    6     -3.28      0.00
    3   15    6     -3.27      0.00
    5   15    6     -1.84      0.00
    7   15    6      0.13      0.00
    9   15    6      0.50      0.00
   11   15    6      1.33      0.00
  -16   16    6      1.13      0.00
  -14   16    6     -0.16      0.00
  -12   16    6     -0.62      0.00
  -10   16    6      0.41      0.00
   -8   16    6     -0.19      0.00
   -6   16    6     -0.86      0.00
   -4   16    6     -0.57      0.00
   -2   16    6     -1.35      0.00
    0   16    6     -2.51      0.00
    2   16    6     -2.96      0.00
    4   16    6     -2.32      0.00
    6   16    6     -0.97      0.00
    8   16    6     -0.25      0.00
   10   16    6     -0.13      0.00
  -15   17    6      0.37      0.00
  -13   17    6     -1.33      0.00
  -11   17    6     -0.58      0.00
   -9   17    6     -0.06      0.00
   -7   17    6     -0.76      0.00
   -5   17    6     -0.21      0.00
   -3   17    6     -0.39      0.00
   -1   17    6     -1.63      0.00
    1   17    6     -2.44      0.00
    3   17    6     -1.97      0.00
    5   17    6     -1.18      0.00
    7   17    6     -0.42      0.00
    9   17    6     -0.70      0.00
  -14   18    6     -0.92      0.00
  -12   18    6     -1.31      0.00
  -10   18    6      0.05      0.00
   -8   18    6     -0.36      0.00
   -6   18    6     -0.13      0.00
   -4   18    6      0.41      0.00
   -2   18    6     -0.52      0.00
    0   18    6     -1.74      0.00
    2   18    6     -1.72      0.00
    4   18    6     -0.93      0.00
    6   18    6     -0.44      0.00
    8   18    6     -0.50      0.00
  -13   19    6     -1.37      0.00
  -11   19    6     -0.01      0.00
   -9   19    6      0.36      0.00
   -7   19    6     -0.07      0.00
   -5   19    6      0.76      0.00
   -3   19    6      0.53      0.00
   -1   19    6     -0.73      0.00
    1   19    6     -1.65      0.00
    3   19    6     -1.02      0.00
    5   19    6     -0.53      0.00
    7   19    6     -0.39      0.00
  -12   20    6     -0.35      0.00
  -10   20    6      0.82      0.00
   -8   20    6     -0.01      0.00
   -6   20    6      0.38      0.00
   -4   20    6      0.87      0.00
   -2   20    6      0.14      0.00
    0   20    6     -1.34      0.00
    2   20    6     -1.62      0.00
    4   20    6     -0.78      0.00
    6   20    6     -0.55      0.00
  -11   21    6      0.62      0.00
   -9   21    6      0.04      0.00
   -7   21    6     -0.58      0.00
   -5   21    6      0.23      0.00
   -3   21    6      0.25      0.00
   -1   21    6     -0.84      0.00
    1   21    6     -2.20      0.00
    3   21    6     -1.43      0.00
    5   21    6     -0.61      0.00
  -10   22    6      0.12      0.00
   -8   22    6     -1.31      0.00
   -6   22    6     -0.93      0.00
   -4   22    6     -0.36      0.00
   -2   22    6     -0.58      0.00
    0   22    6     -2.12      0.00
    2   22    6     -2.37      0.00
   -7   23    6     -1.65      0.00
   -5   23    6     -0.98      0.00
   -3   23    6     -0.64      0.00
   -1   23    6     -1.33      0.00
    1   23    6     -2.71      0.00
  -20    0    7      0.83      0.00
  -18    0    7      0.68      0.00
  -16    0    7      0.45      0.00
  -14    0    7     -2.45      0.00
  -12    0    7     -5.14      0.00
  -10    0    7     -7.97      0.00
   -8    0    7     -7.23      0.00
   -6    0    7     -6.83      0.00
   -4    0    7     -2.36      0.00
   -2    0    7      3.59      0.00
    0    0    7      8.99      0.00
    2    0    7     10.81      0.00
    4    0    7      9.85      0.00
    6    0    7      7.30      0.00
    8    0    7      4.41      0.00
   10    0    7     -1.22      0.00
   12    0    7     -2.93      0.00
  -21    1    7      2.15      0.00
  -19    1    7      0.15      0.00
  -17    1    7      1.22      0.00
  -15    1    7     -1.20      0.00
  -13    1    7     -3.45      0.00
  -11    1    7     -6.96      0.00
   -9    1    7     -7.50      0.00
   -7    1    7     -7.15      0.00
   -5    1    7     -5.01      0.00
   -3    1    7      0.56      0.00
   -1    1    7      6.76      0.00
    1    1    7     10.71      0.00
    3    1    7     11.02      0.00
    5    1    7      8.58      0.00
    7    1    7      5.89      0.00
    9    1    7      1.10      0.00
   11    1    7     -3.15      0.00
  -22    2    7      2.32      0.00
  -20    2    7      0.87      0.00
  -18    2    7      0.80      0.00
  -16    2    7      0.38      0.00
  -14    2    7     -2.45      0.00
  -12    2    7     -4.90      0.00
  -10    2    7     -7.56      0.00
   -8    2    7     -6.78      0.00
   -6    2    7     -6.43      0.00
   -4    2    7     -2.36      0.00
   -2    2    7      3.61      0.00
    0    2    7      9.70      0.00
    2    2    7     11.81      0.00
    4    2    7     10.30      0.00
    6    2    7      6.72      0.00
    8    2    7      2.97      0.00
   10    2    7     -2.61      0.00
   12    2    7     -3.82      0.00
  -21    3    7      1.87      0.00
  -19    3    7      0.45      0.00
  -17    3    7      1.33      0.00
  -15    3    7     -1.26      0.00
  -13    3    7     -3.38      0.00
  -11    3    7     -6.61      0.00
   -9    3    7     -6.96      0.00
   -7    3    7     -6.35      0.00
   -5    3    7     -4.58      0.00
   -3    3    7      0.12      0.00
   -1    3    7      6.53      0.00
    1    3    7     11.11      0.00
    3    3    7     11.23      0.00
    5    3    7      7.96      0.00
    7    3    7      4.30      0.00
    9    3    7     -0.65      0.00
   11    3    7     -4.33      0.00
  -22    4    7      1.51      0.00
  -20    4    7      0.85      0.00
  -18    4    7      1.14      0.00
  -16    4    7      0.43      0.00
  -14    4    7     -2.50      0.00
  -12    4    7     -4.95      0.00
  -10    4    7     -7.40      0.00
   -8    4    7     -6.18      0.00
   -6    4    7     -5.51      0.00
   -4    4    7     -2.64      0.00
   -2    4    7      2.14      0.00
    0    4    7      8.19      0.00
    2    4    7     10.37      0.00
    4    4    7      8.82      0.00
    6    4    7      5.37      0.00
    8    4    7      2.03      0.00
   10    4    7     -2.70      0.00
   12    4    7     -4.06      0.00
  -21    5    7      1.08      0.00
  -19    5    7      0.47      0.00
  -17    5    7      1.34      0.00
  -15    5    7     -1.21      0.00
  -13    5    7     -3.41      0.00
  -11    5    7     -6.69      0.00
   -9    5    7     -6.87      0.00
   -7    5    7     -5.65      0.00
   -5    5    7     -4.30      0.00
   -3    5    7     -1.40      0.00
   -1    5    7      3.92      0.00
    1    5    7      8.22      0.00
    3    5    7      8.50      0.00
    5    5    7      6.20      0.00
    7    5    7      3.93      0.00
    9    5    7      0.54      0.00
   11    5    7     -2.77      0.00
   13    5    7     -3.62      0.00
  -20    6    7      0.12      0.00
  -18    6    7      0.72      0.00
  -16    6    7      0.25      0.00
  -14    6    7     -2.14      0.00
  -12    6    7     -4.62      0.00
  -10    6    7     -7.17      0.00
   -8    6    7     -5.84      0.00
   -6    6    7     -4.98      0.00
   -4    6    7     -3.27      0.00
   -2    6    7      0.15      0.00
    0    6    7      5.59      0.00
    2    6    7      7.67      0.00
    4    6    7      6.75      0.00
    6    6    7      4.72      0.00
    8    6    7      3.10      0.00
   10    6    7     -0.20      0.00
   12    6    7     -2.47      0.00
  -21    7    7      0.04      0.00
  -19    7    7     -0.27      0.00
  -17    7    7      0.64      0.00
  -15    7    7     -0.94      0.00
  -13    7    7     -2.51      0.00
  -11    7    7     -5.74      0.00
   -9    7    7     -6.10      0.00
   -7    7    7     -4.82      0.00
   -5    7    7     -3.78      0.00
   -3    7    7     -1.79      0.00
   -1    7    7      2.90      0.00
    1    7    7      6.84      0.00
    3    7    7      7.09      0.00
    5    7    7      5.25      0.00
    7    7    7      3.81      0.00
    9    7    7      1.86      0.00
   11    7    7     -0.64      0.00
   13    7    7     -2.58      0.00
  -20    8    7     -0.43      0.00
  -18    8    7      0.17      0.00
  -16    8    7      0.05      0.00
  -14    8    7     -1.26      0.00
  -12    8    7     -3.40      0.00
  -10    8    7     -5.79      0.00
   -8    8    7     -4.46      0.00
   -6    8    7     -3.37      0.00
   -4    8    7     -1.94      0.00
   -2    8    7      0.87      0.00
    0    8    7      5.46      0.00
    2    8    7      7.01      0.00
    4    8    7      5.87      0.00
    6    8    7      3.76      0.00
    8    8    7      2.47      0.00
   10    8    7      0.48      0.00
   12    8    7     -1.06      0.00
  -21    9    7     -0.14      0.00
  -19    9    7      0.06      0.00
  -17    9    7      0.60      0.00
  -15    9    7     -0.43      0.00
  -13    9    7     -1.67      0.00
  -11    9    7     -4.66      0.00
   -9    9    7     -4.66      0.00
   -7    9    7     -2.87      0.00
   -5    9    7     -1.42      0.00
   -3    9    7      0.19      0.00
   -1    9    7      3.49      0.00
    1    9    7      6.06      0.00
    3    9    7      5.94      0.00
    5    9    7      4.11      0.00
    7    9    7      2.50      0.00
    9    9    7      0.90      0.00
   11    9    7     -0.34      0.00
   13    9    7     -1.20      0.00
  -20   10    7      0.45      0.00
  -18   10    7      0.90      0.00
  -16   10    7      0.38      0.00
  -14   10    7     -0.73      0.00
  -12   10    7     -3.01      0.00
  -10   10    7     -5.02      0.00
   -8   10    7     -3.28      0.00
   -6   10    7     -1.49      0.00
   -4   10    7      0.16      0.00
   -2   10    7      1.86      0.00
    0   10    7      4.35      0.00
    2   10    7      5.09      0.00
    4   10    7      4.51      0.00
    6   10    7      3.00      0.00
    8   10    7      1.57      0.00
   10   10    7     -0.16      0.00
  -19   11    7      1.12      0.00
  -17   11    7      0.82      0.00
  -15   11    7     -0.16      0.00
  -13   11    7     -1.42      0.00
  -11   11    7     -4.26      0.00
   -9   11    7     -4.23      0.00
   -7   11    7     -2.45      0.00
   -5   11    7     -0.62      0.00
   -3   11    7      0.84      0.00
   -1   11    7      2.63      0.00
    1   11    7      3.90      0.00
    3   11    7      4.25      0.00
    5   11    7      3.75      0.00
    7   11    7      2.70      0.00
    9   11    7      0.64      0.00
   11   11    7     -0.56      0.00
  -18   12    7      0.77      0.00
  -16   12    7     -0.07      0.00
  -14   12    7     -0.56      0.00
  -12   12    7     -2.40      0.00
  -10   12    7     -4.18      0.00
   -8   12    7     -3.35      0.00
   -6   12    7     -2.11      0.00
   -4   12    7     -0.27      0.00
   -2   12    7      1.31      0.00
    0   12    7      2.95      0.00
    2   12    7      3.63      0.00
    4   12    7      3.89      0.00
    6   12    7      3.44      0.00
    8   12    7      1.96      0.00
   10   12    7     -0.24      0.00
  -19   13    7      0.63      0.00
  -17   13    7     -0.42      0.00
  -15   13    7     -0.70      0.00
  -13   13    7     -1.04      0.00
  -11   13    7     -2.85      0.00
   -9   13    7     -3.27      0.00
   -7   13    7     -2.94      0.00
   -5   13    7     -1.60      0.00
   -3   13    7      0.25      0.00
   -1   13    7      2.15      0.00
    1   13    7      3.19      0.00
    3   13    7      3.38      0.00
    5   13    7      3.13      0.00
    7   13    7      2.48      0.00
    9   13    7      0.39      0.00
   11   13    7     -0.54      0.00
  -18   14    7     -0.50      0.00
  -16   14    7     -1.23      0.00
  -14   14    7     -1.07      0.00
  -12   14    7     -1.83      0.00
  -10   14    7     -2.61      0.00
   -8   14    7     -2.68      0.00
   -6   14    7     -2.36      0.00
   -4   14    7     -0.66      0.00
   -2   14    7      1.22      0.00
    0   14    7      2.78      0.00
    2   14    7      2.81      0.00
    4   14    7      2.19      0.00
    6   14    7      1.70      0.00
    8   14    7      0.64      0.00
   10   14    7     -0.75      0.00
  -17   15    7     -1.20      0.00
  -15   15    7     -1.53      0.00
  -13   15    7     -2.00      0.00
  -11   15    7     -2.53      0.00
   -9   15    7     -2.32      0.00
   -7   15    7     -2.32      0.00
   -5   15    7     -1.24      0.00
   -3   15    7      0.35      0.00
   -1   15    7      2.00      0.00
    1   15    7      2.41      0.00
    3   15    7      1.44      0.00
    5   15    7      0.50      0.00
    7   15    7      0.19      0.00
    9   15    7     -0.94      0.00
  -16   16    7     -1.30      0.00
  -14   16    7     -2.32      0.00
  -12   16    7     -3.16      0.00
  -10   16    7     -2.64      0.00
   -8   16    7     -2.16      0.00
   -6   16    7     -1.47      0.00
   -4   16    7     -0.14      0.00
   -2   16    7      1.08      0.00
    0   16    7      1.96      0.00
    2   16    7      1.17      0.00
    4   16    7     -0.14      0.00
    6   16    7     -0.49      0.00
    8   16    7     -0.86      0.00
  -15   17    7     -1.73      0.00
  -13   17    7     -3.42      0.00
  -11   17    7     -3.18      0.00
   -9   17    7     -2.13      0.00
   -7   17    7     -1.51      0.00
   -5   17    7     -0.23      0.00
   -3   17    7      0.63      0.00
   -1   17    7      1.50      0.00
    1   17    7      1.27      0.00
    3   17    7     -0.10      0.00
    5   17    7     -0.88      0.00
    7   17    7     -0.68      0.00
  -14   18    7     -2.56      0.00
  -12   18    7     -3.20      0.00
  -10   18    7     -1.86      0.00
   -8   18    7     -1.22      0.00
   -6   18    7     -0.14      0.00
   -4   18    7      0.84      0.00
   -2   18    7      1.36      0.00
    0   18    7      1.60      0.00
    2   18    7      0.38      0.00
    4   18    7     -0.84      0.00
    6   18    7     -0.76      0.00
  -13   19    7     -2.50      0.00
  -11   19    7     -1.36      0.00
   -9   19    7     -0.50      0.00
   -7   19    7     -0.07      0.00
   -5   19    7      1.15      0.00
   -3   19    7      1.54      0.00
   -1   19    7      1.92      0.00
    1   19    7      1.10      0.00
    3   19    7     -0.40      0.00
    5   19    7     -0.92      0.00
  -12   20    7     -1.03      0.00
  -10   20    7      0.22      0.00
   -8   20    7     -0.02      0.00
   -6   20    7      0.85      0.00
   -4   20    7      1.55      0.00
   -2   20    7      1.83      0.00
    0   20    7      1.63      0.00
    2   20    7      0.25      0.00
    4   20    7     -0.65      0.00
  -11   21    7      0.35      0.00
   -9   21    7      0.11      0.00
   -7   21    7     -0.08      0.00
   -5   21    7      0.89      0.00
   -3   21    7      1.12      0.00
   -1   21    7      1.40      0.00
    1   21    7      0.64      0.00
    3   21    7     -0.09      0.00
  -10   22    7      0.28      0.00
   -8   22    7     -0.79      0.00
   -6   22    7     -0.25      0.00
   -4   22    7      0.13      0.00
   -2   22    7      0.42      0.00
    0   22    7      0.43      0.00
    2   22    7      0.09      0.00
   -5   23    7     -0.56      0.00
   -3   23    7     -0.52      0.00
  -20    0    8     -0.66      0.00
  -18    0    8     -1.19      0.00
  -16    0    8     -0.61      0.00
  -14    0    8     -0.95      0.00
  -12    0    8      0.48      0.00
  -10    0    8      2.91      0.00
   -8    0    8      8.13      0.00
   -6    0    8      8.35      0.00
   -4    0    8      5.96      0.00
   -2    0    8     -0.39      0.00
    0    0    8     -6.68      0.00
    2    0    8     -7.46      0.00
    4    0    8     -5.10      0.00
    6    0    8     -3.24      0.00
    8    0    8     -0.73      0.00
   10    0    8     -0.29      0.00
  -21    1    8      1.04      0.00
  -19    1    8     -1.55      0.00
  -17    1    8     -0.52      0.00
  -15    1    8     -1.27      0.00
  -13    1    8     -0.13      0.00
  -11    1    8      1.15      0.00
   -9    1    8      5.76      0.00
   -7    1    8      8.69      0.00
   -5    1    8      7.41      0.00
   -3    1    8      3.34      0.00
   -1    1    8     -3.53      0.00
    1    1    8     -7.29      0.00
    3    1    8     -5.82      0.00
    5    1    8     -4.24      0.00
    7    1    8     -2.02      0.00
    9    1    8     -0.99      0.00
   11    1    8      0.24      0.00
  -20    2    8     -0.26      0.00
  -18    2    8     -1.15      0.00
  -16    2    8     -1.01      0.00
  -14    2    8     -1.26      0.00
  -12    2    8      0.51      0.00
  -10    2    8      2.90      0.00
   -8    2    8      7.72      0.00
   -6    2    8      7.91      0.00
   -4    2    8      5.82      0.00
   -2    2    8      0.39      0.00
    0    2    8     -4.97      0.00
    2    2    8     -6.00      0.00
    4    2    8     -4.46      0.00
    6    2    8     -3.49      0.00
    8    2    8     -1.99      0.00
   10    2    8     -1.80      0.00
  -21    3    8      1.55      0.00
  -19    3    8     -1.06      0.00
  -17    3    8     -0.85      0.00
  -15    3    8     -2.02      0.00
  -13    3    8     -0.57      0.00
  -11    3    8      1.05      0.00
   -9    3    8      5.20      0.00
   -7    3    8      7.81      0.00
   -5    3    8      6.69      0.00
   -3    3    8      3.26      0.00
   -1    3    8     -2.11      0.00
    1    3    8     -5.43      0.00
    3    3    8     -4.89      0.00
    5    3    8     -4.05      0.00
    7    3    8     -2.86      0.00
    9    3    8     -2.77      0.00
   11    3    8     -1.41      0.00
  -20    4    8      0.22      0.00
  -18    4    8     -1.02      0.00
  -16    4    8     -1.71      0.00
  -14    4    8     -2.19      0.00
  -12    4    8     -0.10      0.00
  -10    4    8      2.28      0.00
   -8    4    8      6.57      0.00
   -6    4    8      6.78      0.00
   -4    4    8      4.71      0.00
   -2    4    8      0.10      0.00
    0    4    8     -4.24      0.00
    2    4    8     -5.77      0.00
    4    4    8     -4.58      0.00
    6    4    8     -3.36      0.00
    8    4    8     -2.38      0.00
   10    4    8     -2.62      0.00
  -21    5    8      1.25      0.00
  -19    5    8     -1.03      0.00
  -17    5    8     -1.20      0.00
  -15    5    8     -2.78      0.00
  -13    5    8     -1.47      0.00
  -11    5    8      0.36      0.00
   -9    5    8      4.10      0.00
   -7    5    8      6.38      0.00
   -5    5    8      5.24      0.00
   -3    5    8      1.84      0.00
   -1    5    8     -2.63      0.00
    1    5    8     -5.77      0.00
    3    5    8     -5.63      0.00
    5    5    8     -3.90      0.00
    7    5    8     -1.95      0.00
    9    5    8     -1.93      0.00
   11    5    8     -1.28      0.00
   13    5    8     -0.10      0.00
  -20    6    8     -0.67      0.00
  -18    6    8     -1.50      0.00
  -16    6    8     -2.05      0.00
  -14    6    8     -2.58      0.00
  -12    6    8     -0.57      0.00
  -10    6    8      1.71      0.00
   -8    6    8      5.25      0.00
   -6    6    8      5.31      0.00
   -4    6    8      3.32      0.00
   -2    6    8     -0.60      0.00
    0    6    8     -4.10      0.00
    2    6    8     -5.89      0.00
    4    6    8     -4.62      0.00
    6    6    8     -2.50      0.00
    8    6    8     -1.03      0.00
   10    6    8     -1.27      0.00
   12    6    8     -0.20      0.00
  -21    7    8     -0.30      0.00
  -19    7    8     -2.07      0.00
  -17    7    8     -1.53      0.00
  -15    7    8     -2.48      0.00
  -13    7    8     -1.32      0.00
  -11    7    8      0.43      0.00
   -9    7    8      3.58      0.00
   -7    7    8      5.19      0.00
   -5    7    8      4.31      0.00
   -3    7    8      1.68      0.00
   -1    7    8     -1.62      0.00
    1    7    8     -4.36      0.00
    3    7    8     -4.86      0.00
    5    7    8     -3.54      0.00
    7    7    8     -1.63      0.00
    9    7    8     -1.11      0.00
   11    7    8     -0.38      0.00
  -20    8    8     -1.89      0.00
  -18    8    8     -1.83      0.00
  -16    8    8     -1.53      0.00
  -14    8    8     -1.81      0.00
  -12    8    8     -0.27      0.00
  -10    8    8      1.88      0.00
   -8    8    8      4.68      0.00
   -6    8    8      4.75      0.00
   -4    8    8      3.62      0.00
   -2    8    8      0.74      0.00
    0    8    8     -2.08      0.00
    2    8    8     -4.16      0.00
    4    8    8     -4.15      0.00
    6    8    8     -3.24      0.00
    8    8    8     -1.92      0.00
   10    8    8     -1.10      0.00
   12    8    8      0.39      0.00
  -21    9    8     -1.09      0.00
  -19    9    8     -1.90      0.00
  -17    9    8     -0.86      0.00
  -15    9    8     -1.39      0.00
  -13    9    8     -0.94      0.00
  -11    9    8      0.39      0.00
   -9    9    8      3.30      0.00
   -7    9    8      4.64      0.00
   -5    9    8      4.50      0.00
   -3    9    8      2.73      0.00
   -1    9    8     -0.29      0.00
    1    9    8     -3.01      0.00
    3    9    8     -4.17      0.00
    5    9    8     -4.29      0.00
    7    9    8     -3.37      0.00
    9    9    8     -2.24      0.00
   11    9    8     -0.22      0.00
  -20   10    8     -1.18      0.00
  -18   10    8     -0.71      0.00
  -16   10    8     -0.41      0.00
  -14   10    8     -1.04      0.00
  -12   10    8     -0.59      0.00
  -10   10    8      1.31      0.00
   -8   10    8      3.72      0.00
   -6   10    8      4.08      0.00
   -4   10    8      3.85      0.00
   -2   10    8      1.14      0.00
    0   10    8     -1.93      0.00
    2   10    8     -3.88      0.00
    4   10    8     -4.33      0.00
    6   10    8     -4.23      0.00
    8   10    8     -3.09      0.00
   10   10    8     -1.47      0.00
  -19   11    8     -0.53      0.00
  -17   11    8      0.02      0.00
  -15   11    8     -0.39      0.00
  -13   11    8     -0.62      0.00
  -11   11    8     -0.03      0.00
   -9   11    8      2.25      0.00
   -7   11    8      2.99      0.00
   -5   11    8      3.41      0.00
   -3   11    8      2.37      0.00
   -1   11    8     -0.68      0.00
    1   11    8     -3.12      0.00
    3   11    8     -3.87      0.00
    5   11    8     -4.05      0.00
    7   11    8     -3.28      0.00
    9   11    8     -2.16      0.00
   11   11    8     -0.08      0.00
  -20   12    8     -0.20      0.00
  -18   12    8     -0.26      0.00
  -16   12    8     -0.02      0.00
  -14   12    8     -0.01      0.00
  -12   12    8      0.04      0.00
  -10   12    8      1.25      0.00
   -8   12    8      2.26      0.00
   -6   12    8      2.08      0.00
   -4   12    8      2.67      0.00
   -2   12    8      0.87      0.00
    0   12    8     -1.68      0.00
    2   12    8     -3.05      0.00
    4   12    8     -3.37      0.00
    6   12    8     -3.10      0.00
    8   12    8     -2.07      0.00
   10   12    8     -0.92      0.00
  -19   13    8     -0.46      0.00
  -17   13    8     -0.50      0.00
  -15   13    8      0.17      0.00
  -13   13    8      0.67      0.00
  -11   13    8      1.15      0.00
   -9   13    8      2.24      0.00
   -7   13    8      1.50      0.00
   -5   13    8      1.90      0.00
   -3   13    8      2.02      0.00
   -1   13    8      0.08      0.00
    1   13    8     -1.79      0.00
    3   13    8     -2.68      0.00
    5   13    8     -2.94      0.00
    7   13    8     -2.01      0.00
    9   13    8     -1.24      0.00
  -18   14    8     -0.93      0.00
  -16   14    8     -0.44      0.00
  -14   14    8      0.61      0.00
  -12   14    8      1.08      0.00
  -10   14    8      2.13      0.00
   -8   14    8      1.99      0.00
   -6   14    8      1.20      0.00
   -4   14    8      2.19      0.00
   -2   14    8      1.41      0.00
    0   14    8     -0.47      0.00
    2   14    8     -2.05      0.00
    4   14    8     -2.87      0.00
    6   14    8     -2.36      0.00
    8   14    8     -1.33      0.00
  -17   15    8     -0.95      0.00
  -15   15    8     -0.12      0.00
  -13   15    8      0.35      0.00
  -11   15    8      1.12      0.00
   -9   15    8      2.13      0.00
   -7   15    8      1.22      0.00
   -5   15    8      1.67      0.00
   -3   15    8      1.95      0.00
   -1   15    8      0.38      0.00
    1   15    8     -1.54      0.00
    3   15    8     -2.85      0.00
    5   15    8     -2.80      0.00
    7   15    8     -1.49      0.00
  -16   16    8     -0.62      0.00
  -14   16    8     -0.50      0.00
  -12   16    8     -0.42      0.00
  -10   16    8      1.02      0.00
   -8   16    8      1.26      0.00
   -6   16    8      1.09      0.00
   -4   16    8      1.88      0.00
   -2   16    8      0.82      0.00
    0   16    8     -1.16      0.00
    2   16    8     -2.86      0.00
    4   16    8     -3.15      0.00
    6   16    8     -1.74      0.00
    8   16    8     -0.86      0.00
  -15   17    8     -0.69      0.00
  -13   17    8     -1.33      0.00
  -11   17    8     -0.49      0.00
   -9   17    8      0.76      0.00
   -7   17    8      0.63      0.00
   -5   17    8      1.47      0.00
   -3   17    8      1.22      0.00
   -1   17    8     -0.59      0.00
    1   17    8     -2.59      0.00
    3   17    8     -3.44      0.00
    5   17    8     -2.23      0.00
    7   17    8     -0.58      0.00
  -14   18    8     -1.12      0.00
  -12   18    8     -1.18      0.00
  -10   18    8      0.23      0.00
   -8   18    8      0.38      0.00
   -6   18    8      0.89      0.00
   -4   18    8      1.56      0.00
   -2   18    8      0.34      0.00
    0   18    8     -1.60      0.00
    2   18    8     -3.27      0.00
    4   18    8     -2.89      0.00
    6   18    8     -0.93      0.00
  -13   19    8     -0.93      0.00
  -11   19    8      0.09      0.00
   -9   19    8      0.50      0.00
   -7   19    8      0.29      0.00
   -5   19    8      1.39      0.00
   -3   19    8      1.20      0.00
   -1   19    8     -0.15      0.00
    1   19    8     -2.10      0.00
    3   19    8     -3.05      0.00
    5   19    8     -1.80      0.00
  -12   20    8      0.07      0.00
  -10   20    8      0.76      0.00
   -8   20    8     -0.08      0.00
   -6   20    8      0.49      0.00
   -4   20    8      1.26      0.00
   -2   20    8      0.77      0.00
    0   20    8     -0.42      0.00
    2   20    8     -2.10      0.00
    4   20    8     -2.17      0.00
  -11   21    8      0.63      0.00
   -9   21    8     -0.16      0.00
   -7   21    8     -0.73      0.00
   -5   21    8      0.33      0.00
   -3   21    8      0.52      0.00
   -1   21    8      0.43      0.00
    1   21    8     -0.62      0.00
   -8   22    8     -1.49      0.00
   -6   22    8     -0.98      0.00
   -4   22    8     -0.41      0.00
   -2   22    8     -0.06      0.00
  -22    0    9      1.89      0.00
  -20    0    9      0.76      0.00
  -18    0    9      1.62      0.00
  -16    0    9      3.60      0.00
  -14    0    9      1.82      0.00
  -12    0    9     -0.73      0.00
  -10    0    9     -3.81      0.00
   -8    0    9     -4.09      0.00
   -6    0    9     -6.64      0.00
   -4    0    9     -8.31      0.00
   -2    0    9     -8.25      0.00
    0    0    9     -5.02      0.00
    2    0    9      0.68      0.00
    4    0    9      4.83      0.00
    6    0    9      5.89      0.00
    8    0    9      4.82      0.00
   10    0    9      0.09      0.00
  -21    1    9      1.93      0.00
  -19    1    9      0.44      0.00
  -17    1    9      3.11      0.00
  -15    1    9      2.60      0.00
  -13    1    9      0.83      0.00
  -11    1    9     -2.62      0.00
   -9    1    9     -3.92      0.00
   -7    1    9     -5.20      0.00
   -5    1    9     -7.62      0.00
   -3    1    9     -8.29      0.00
   -1    1    9     -6.54      0.00
    1    1    9     -1.91      0.00
    3    1    9      3.37      0.00
    5    1    9      5.30      0.00
    7    1    9      5.60      0.00
    9    1    9      2.03      0.00
  -20    2    9      1.11      0.00
  -18    2    9      1.52      0.00
  -16    2    9      2.91      0.00
  -14    2    9      1.32      0.00
  -12    2    9     -0.69      0.00
  -10    2    9     -3.73      0.00
   -8    2    9     -4.25      0.00
   -6    2    9     -6.53      0.00
   -4    2    9     -7.76      0.00
   -2    2    9     -6.96      0.00
    0    2    9     -3.41      0.00
    2    2    9      1.34      0.00
    4    2    9      4.50      0.00
    6    2    9      4.99      0.00
    8    2    9      3.56      0.00
   10    2    9     -0.67      0.00
  -21    3    9      2.32      0.00
  -19    3    9      0.81      0.00
  -17    3    9      2.35      0.00
  -15    3    9      1.28      0.00
  -13    3    9      0.28      0.00
  -11    3    9     -2.46      0.00
   -9    3    9     -3.99      0.00
   -7    3    9     -5.20      0.00
   -5    3    9     -7.13      0.00
   -3    3    9     -7.24      0.00
   -1    3    9     -4.64      0.00
    1    3    9     -0.71      0.00
    3    3    9      2.94      0.00
    5    3    9      4.28      0.00
    7    3    9      4.20      0.00
    9    3    9      0.82      0.00
  -20    4    9      1.48      0.00
  -18    4    9      1.36      0.00
  -16    4    9      1.44      0.00
  -14    4    9     -0.08      0.00
  -12    4    9     -0.93      0.00
  -10    4    9     -3.49      0.00
   -8    4    9     -4.16      0.00
   -6    4    9     -6.05      0.00
   -4    4    9     -7.22      0.00
   -2    4    9     -6.12      0.00
    0    4    9     -2.63      0.00
    2    4    9      0.60      0.00
    4    4    9      3.24      0.00
    6    4    9      4.26      0.00
    8    4    9      3.02      0.00
   10    4    9     -0.56      0.00
   12    4    9     -0.42      0.00
  -19    5    9      0.73      0.00
  -17    5    9      1.47      0.00
  -15    5    9     -0.23      0.00
  -13    5    9     -0.49      0.00
  -11    5    9     -2.07      0.00
   -9    5    9     -3.53      0.00
   -7    5    9     -4.67      0.00
   -5    5    9     -6.43      0.00
   -3    5    9     -6.92      0.00
   -1    5    9     -4.38      0.00
    1    5    9     -1.33      0.00
    3    5    9      1.52      0.00
    5    5    9      3.85      0.00
    7    5    9      4.62      0.00
    9    5    9      1.77      0.00
   11    5    9     -0.28      0.00
  -20    6    9      0.36      0.00
  -18    6    9      0.75      0.00
  -16    6    9      0.54      0.00
  -14    6    9     -0.71      0.00
  -12    6    9     -0.56      0.00
  -10    6    9     -2.51      0.00
   -8    6    9     -3.53      0.00
   -6    6    9     -5.15      0.00
   -4    6    9     -6.33      0.00
   -2    6    9     -5.48      0.00
    0    6    9     -2.28      0.00
    2    6    9      0.14      0.00
    4    6    9      2.97      0.00
    6    6    9      4.89      0.00
    8    6    9      4.14      0.00
   10    6    9      0.99      0.00
  -19    7    9     -0.39      0.00
  -17    7    9      1.01      0.00
  -15    7    9     -0.22      0.00
  -13    7    9      0.02      0.00
  -11    7    9     -0.87      0.00
   -9    7    9     -2.57      0.00
   -7    7    9     -3.94      0.00
   -5    7    9     -5.04      0.00
   -3    7    9     -5.35      0.00
   -1    7    9     -2.93      0.00
    1    7    9     -0.22      0.00
    3    7    9      2.09      0.00
    5    7    9      4.28      0.00
    7    7    9      4.93      0.00
    9    7    9      2.64      0.00
   11    7    9      0.71      0.00
  -20    8    9     -1.11      0.00
  -18    8    9      0.39      0.00
  -16    8    9      0.93      0.00
  -14    8    9      0.08      0.00
  -12    8    9      0.32      0.00
  -10    8    9     -1.48      0.00
   -8    8    9     -3.00      0.00
   -6    8    9     -4.04      0.00
   -4    8    9     -4.33      0.00
   -2    8    9     -3.58      0.00
    0    8    9     -0.68      0.00
    2    8    9      1.47      0.00
    4    8    9      3.50      0.00
    6    8    9      4.41      0.00
    8    8    9      3.48      0.00
   10    8    9      1.32      0.00
  -21    9    9     -1.11      0.00
  -19    9    9     -0.39      0.00
  -17    9    9      1.50      0.00
  -15    9    9      0.66      0.00
  -13    9    9      0.46      0.00
  -11    9    9     -0.59      0.00
   -9    9    9     -2.37      0.00
   -7    9    9     -3.58      0.00
   -5    9    9     -3.52      0.00
   -3    9    9     -3.65      0.00
   -1    9    9     -2.09      0.00
    1    9    9      0.50      0.00
    3    9    9      2.61      0.00
    5    9    9      3.73      0.00
    7    9    9      3.48      0.00
    9    9    9      1.77      0.00
  -18   10    9      1.16      0.00
  -16   10    9      1.56      0.00
  -14   10    9      0.47      0.00
  -12   10    9     -0.14      0.00
  -10   10    9     -1.92      0.00
   -8   10    9     -3.36      0.00
   -6   10    9     -3.58      0.00
   -4   10    9     -3.17      0.00
   -2   10    9     -3.36      0.00
    0   10    9     -1.19      0.00
    2   10    9      1.38      0.00
    4   10    9      3.18      0.00
    6   10    9      3.37      0.00
    8   10    9      2.33      0.00
   10   10    9      0.87      0.00
  -19   11    9      0.78      0.00
  -17   11    9      1.73      0.00
  -15   11    9      1.00      0.00
  -13   11    9      0.28      0.00
  -11   11    9     -1.23      0.00
   -9   11    9     -2.94      0.00
   -7   11    9     -3.95      0.00
   -5   11    9     -3.12      0.00
   -3   11    9     -3.36      0.00
   -1   11    9     -2.73      0.00
    1   11    9      0.03      0.00
    3   11    9      2.46      0.00
    5   11    9      3.34      0.00
    7   11    9      2.98      0.00
    9   11    9      1.38      0.00
  -20   12    9      0.82      0.00
  -18   12    9      1.12      0.00
  -16   12    9      1.26      0.00
  -14   12    9      0.89      0.00
  -12   12    9     -0.01      0.00
  -10   12    9     -1.84      0.00
   -8   12    9     -3.52      0.00
   -6   12    9     -3.62      0.00
   -4   12    9     -2.75      0.00
   -2   12    9     -3.06      0.00
    0   12    9     -0.94      0.00
    2   12    9      1.77      0.00
    4   12    9      3.07      0.00
    6   12    9      3.21      0.00
    8   12    9      2.27      0.00
  -19   13    9      0.65      0.00
  -17   13    9      0.66      0.00
  -15   13    9      1.03      0.00
  -13   13    9      1.08      0.00
  -11   13    9     -0.25      0.00
   -9   13    9     -2.02      0.00
   -7   13    9     -3.45      0.00
   -5   13    9     -2.58      0.00
   -3   13    9     -2.42      0.00
   -1   13    9     -1.46      0.00
    1   13    9      1.27      0.00
    3   13    9      2.64      0.00
    5   13    9      2.76      0.00
    7   13    9      2.63      0.00
  -18   14    9     -0.01      0.00
  -16   14    9      0.31      0.00
  -14   14    9      1.10      0.00
  -12   14    9      0.74      0.00
  -10   14    9     -0.47      0.00
   -8   14    9     -2.13      0.00
   -6   14    9     -2.51      0.00
   -4   14    9     -1.75      0.00
   -2   14    9     -1.70      0.00
    0   14    9      0.54      0.00
    2   14    9      2.20      0.00
    4   14    9      2.04      0.00
    6   14    9      2.08      0.00
  -17   15    9     -0.47      0.00
  -15   15    9      0.15      0.00
  -13   15    9      0.43      0.00
  -11   15    9     -0.09      0.00
   -9   15    9     -0.86      0.00
   -7   15    9     -1.94      0.00
   -5   15    9     -1.41      0.00
   -3   15    9     -1.61      0.00
   -1   15    9     -0.70      0.00
    1   15    9      1.36      0.00
    3   15    9      1.40      0.00
    5   15    9      1.17      0.00
    7   15    9      1.38      0.00
  -16   16    9     -0.70      0.00
  -14   16    9     -0.55      0.00
  -12   16    9     -0.84      0.00
  -10   16    9     -0.78      0.00
   -8   16    9     -1.30      0.00
   -6   16    9     -1.27      0.00
   -4   16    9     -1.13      0.00
   -2   16    9     -1.66      0.00
    0   16    9     -0.08      0.00
    2   16    9      0.66      0.00
    4   16    9      0.33      0.00
    6   16    9      0.95      0.00
  -15   17    9     -1.07      0.00
  -13   17    9     -1.55      0.00
  -11   17    9     -1.44      0.00
   -9   17    9     -1.16      0.00
   -7   17    9     -1.31      0.00
   -5   17    9     -0.66      0.00
   -3   17    9     -1.42      0.00
   -1   17    9     -1.25      0.00
    1   17    9     -0.24      0.00
    3   17    9     -0.47      0.00
    5   17    9      0.15      0.00
  -14   18    9     -1.42      0.00
  -12   18    9     -1.69      0.00
  -10   18    9     -1.18      0.00
   -8   18    9     -1.36      0.00
   -6   18    9     -0.70      0.00
   -4   18    9     -0.40      0.00
   -2   18    9     -1.11      0.00
    0   18    9     -0.60      0.00
    2   18    9     -0.94      0.00
    4   18    9     -0.93      0.00
  -13   19    9     -1.20      0.00
  -11   19    9     -0.88      0.00
   -9   19    9     -1.02      0.00
   -7   19    9     -1.12      0.00
   -5   19    9      0.11      0.00
   -3   19    9     -0.01      0.00
   -1   19    9      0.00      0.00
    1   19    9     -0.43      0.00
    3   19    9     -1.50      0.00
  -12   20    9     -0.46      0.00
  -10   20    9     -0.39      0.00
   -8   20    9     -1.24      0.00
   -6   20    9     -0.39      0.00
   -4   20    9      0.63      0.00
   -2   20    9      0.83      0.00
    0   20    9      0.87      0.00
    2   20    9     -0.72      0.00
   -9   21    9     -0.81      0.00
   -7   21    9     -1.13      0.00
   -5   21    9      0.18      0.00
   -3   21    9      0.83      0.00
   -1   21    9      1.59      0.00
   -6   22    9     -0.64      0.00
   -4   22    9      0.08      0.00
  -22    0   10      2.43      0.00
  -20    0   10      0.13      0.00
  -18    0   10     -0.68      0.00
  -16    0   10     -0.70      0.00
  -14    0   10     -2.73      0.00
  -12    0   10     -2.52      0.00
  -10    0   10     -2.35      0.00
   -8    0   10      0.89      0.00
   -6    0   10      3.68      0.00
   -4    0   10      5.38      0.00
   -2    0   10      4.03      0.00
    0    0   10      1.37      0.00
    2    0   10      0.69      0.00
    4    0   10     -0.17      0.00
    6    0   10     -2.27      0.00
    8    0   10     -1.25      0.00
  -21    1   10      2.02      0.00
  -19    1   10     -0.93      0.00
  -17    1   10     -0.24      0.00
  -15    1   10     -2.18      0.00
  -13    1   10     -2.58      0.00
  -11    1   10     -2.74      0.00
   -9    1   10     -1.06      0.00
   -7    1   10      2.27      0.00
   -5    1   10      4.82      0.00
   -3    1   10      5.27      0.00
   -1    1   10      2.96      0.00
    1    1   10      0.83      0.00
    3    1   10      0.65      0.00
    5    1   10     -1.60      0.00
    7    1   10     -2.02      0.00
    9    1   10     -1.23      0.00
  -20    2   10      0.69      0.00
  -18    2   10     -0.83      0.00
  -16    2   10     -1.38      0.00
  -14    2   10     -3.04      0.00
  -12    2   10     -2.45      0.00
  -10    2   10     -2.56      0.00
   -8    2   10      0.35      0.00
   -6    2   10      3.42      0.00
   -4    2   10      5.62      0.00
   -2    2   10      4.80      0.00
    0    2   10      2.07      0.00
    2    2   10      0.63      0.00
    4    2   10     -0.38      0.00
    6    2   10     -2.41      0.00
    8    2   10     -1.78      0.00
  -21    3   10      3.04      0.00
  -19    3   10     -0.44      0.00
  -17    3   10     -1.15      0.00
  -15    3   10     -3.26      0.00
  -13    3   10     -2.74      0.00
  -11    3   10     -2.58      0.00
   -9    3   10     -1.49      0.00
   -7    3   10      1.68      0.00
   -5    3   10      4.64      0.00
   -3    3   10      5.58      0.00
   -1    3   10      3.65      0.00
    1    3   10      0.70      0.00
    3    3   10     -0.09      0.00
    5    3   10     -1.65      0.00
    7    3   10     -2.19      0.00
    9    3   10     -1.91      0.00
  -20    4   10      1.59      0.00
  -18    4   10     -1.12      0.00
  -16    4   10     -2.86      0.00
  -14    4   10     -3.85      0.00
  -12    4   10     -2.09      0.00
  -10    4   10     -2.10      0.00
   -8    4   10      0.16      0.00
   -6    4   10      3.05      0.00
   -4    4   10      5.12      0.00
   -2    4   10      4.44      0.00
    0    4   10      1.48      0.00
    2    4   10     -0.74      0.00
    4    4   10     -0.89      0.00
    6    4   10     -1.84      0.00
    8    4   10     -1.77      0.00
  -19    5   10     -0.34      0.00
  -17    5   10     -2.17      0.00
  -15    5   10     -4.37      0.00
  -13    5   10     -2.61      0.00
  -11    5   10     -1.36      0.00
   -9    5   10     -0.58      0.00
   -7    5   10      1.74      0.00
   -5    5   10      4.03      0.00
   -3    5   10      4.48      0.00
   -1    5   10      2.61      0.00
    1    5   10     -0.63      0.00
    3    5   10     -1.07      0.00
    5    5   10     -1.03      0.00
    7    5   10     -1.38      0.00
    9    5   10     -1.69      0.00
  -20    6   10      0.86      0.00
  -18    6   10     -1.67      0.00
  -16    6   10     -3.48      0.00
  -14    6   10     -3.70      0.00
  -12    6   10     -0.76      0.00
  -10    6   10     -0.23      0.00
   -8    6   10      1.02      0.00
   -6    6   10      2.85      0.00
   -4    6   10      4.19      0.00
   -2    6   10      3.49      0.00
    0    6   10      0.96      0.00
    2    6   10     -1.08      0.00
    4    6   10     -0.49      0.00
    6    6   10     -1.05      0.00
    8    6   10     -1.51      0.00
  -21    7   10      1.25      0.00
  -19    7   10     -1.29      0.00
  -17    7   10     -2.21      0.00
  -15    7   10     -3.66      0.00
  -13    7   10     -1.38      0.00
  -11    7   10      0.53      0.00
   -9    7   10      0.95      0.00
   -7    7   10      1.93      0.00
   -5    7   10      3.49      0.00
   -3    7   10      3.86      0.00
   -1    7   10      2.70      0.00
    1    7   10      0.25      0.00
    3    7   10     -0.18      0.00
    5    7   10     -0.64      0.00
    7    7   10     -1.89      0.00
  -20    8   10     -0.79      0.00
  -18    8   10     -1.59      0.00
  -16    8   10     -2.25      0.00
  -14    8   10     -2.30      0.00
  -12    8   10      0.37      0.00
  -10    8   10      1.09      0.00
   -8    8   10      1.49      0.00
   -6    8   10      2.43      0.00
   -4    8   10      3.62      0.00
   -2    8   10      3.29      0.00
    0    8   10      1.89      0.00
    2    8   10      0.43      0.00
    4    8   10     -0.04      0.00
    6    8   10     -2.21      0.00
    8    8   10     -3.03      0.00
  -21    9   10     -0.29      0.00
  -19    9   10     -1.27      0.00
  -17    9   10     -0.88      0.00
  -15    9   10     -2.00      0.00
  -13    9   10     -0.84      0.00
  -11    9   10      0.66      0.00
   -9    9   10      1.19      0.00
   -7    9   10      1.58      0.00
   -5    9   10      2.81      0.00
   -3    9   10      3.02      0.00
   -1    9   10      2.31      0.00
    1    9   10      1.12      0.00
    3    9   10      0.50      0.00
    5    9   10     -1.61      0.00
    7    9   10     -3.87      0.00
  -20   10   10     -0.60      0.00
  -18   10   10     -0.33      0.00
  -16   10   10     -0.67      0.00
  -14   10   10     -1.57      0.00
  -12   10   10     -0.44      0.00
  -10   10   10      0.42      0.00
   -8   10   10      1.05      0.00
   -6   10   10      1.80      0.00
   -4   10   10      2.63      0.00
   -2   10   10      1.90      0.00
    0   10   10      1.32      0.00
    2   10   10      0.81      0.00
    4   10   10     -0.42      0.00
    6   10   10     -3.44      0.00
    8   10   10     -4.07      0.00
  -19   11   10     -0.10      0.00
  -17   11   10      0.31      0.00
  -15   11   10     -0.88      0.00
  -13   11   10     -1.07      0.00
  -11   11   10     -0.50      0.00
   -9   11   10      0.42      0.00
   -7   11   10      1.00      0.00
   -5   11   10      2.11      0.00
   -3   11   10      1.88      0.00
   -1   11   10      1.28      0.00
    1   11   10      1.17      0.00
    3   11   10      0.59      0.00
    5   11   10     -1.88      0.00
    7   11   10     -3.84      0.00
  -18   12   10      0.40      0.00
  -16   12   10      0.23      0.00
  -14   12   10     -0.48      0.00
  -12   12   10     -0.55      0.00
  -10   12   10     -0.18      0.00
   -8   12   10      0.52      0.00
   -6   12   10      1.34      0.00
   -4   12   10      2.16      0.00
   -2   12   10      1.59      0.00
    0   12   10      1.79      0.00
    2   12   10      1.49      0.00
    4   12   10     -0.24      0.00
    6   12   10     -2.64      0.00
  -19   13   10      0.20      0.00
  -17   13   10      0.54      0.00
  -15   13   10      0.48      0.00
  -13   13   10      0.39      0.00
  -11   13   10     -0.04      0.00
   -9   13   10      0.29      0.00
   -7   13   10      0.72      0.00
   -5   13   10      1.94      0.00
   -3   13   10      2.08      0.00
   -1   13   10      2.27      0.00
    1   13   10      2.51      0.00
    3   13   10      1.05      0.00
    5   13   10     -1.26      0.00
  -18   14   10      0.24      0.00
  -16   14   10      0.69      0.00
  -14   14   10      1.17      0.00
  -12   14   10      0.77      0.00
  -10   14   10      0.26      0.00
   -8   14   10      0.47      0.00
   -6   14   10      1.30      0.00
   -4   14   10      2.19      0.00
   -2   14   10      2.15      0.00
    0   14   10      2.93      0.00
    2   14   10      2.07      0.00
    4   14   10     -0.14      0.00
    6   14   10     -1.43      0.00
  -17   15   10      0.31      0.00
  -15   15   10      0.93      0.00
  -13   15   10      1.23      0.00
  -11   15   10      0.36      0.00
   -9   15   10      0.20      0.00
   -7   15   10      0.68      0.00
   -5   15   10      1.83      0.00
   -3   15   10      1.70      0.00
   -1   15   10      2.07      0.00
    1   15   10      2.34      0.00
    3   15   10      0.66      0.00
    5   15   10     -0.69      0.00
  -16   16   10      0.26      0.00
  -14   16   10      0.82      0.00
  -12   16   10      0.40      0.00
  -10   16   10     -0.28      0.00
   -8   16   10     -0.02      0.00
   -6   16   10      1.14      0.00
   -4   16   10      1.51      0.00
   -2   16   10      0.76      0.00
    0   16   10      1.32      0.00
    2   16   10      0.77      0.00
    4   16   10     -0.24      0.00
  -15   17   10      0.15      0.00
  -13   17   10      0.28      0.00
  -11   17   10     -0.50      0.00
   -9   17   10     -0.81      0.00
   -7   17   10      0.06      0.00
   -5   17   10      1.40      0.00
   -3   17   10      0.46      0.00
   -1   17   10     -0.13      0.00
    1   17   10      0.00      0.00
    3   17   10     -0.46      0.00
  -14   18   10      0.15      0.00
  -12   18   10     -0.19      0.00
  -10   18   10     -1.04      0.00
   -8   18   10     -1.09      0.00
   -6   18   10      0.63      0.00
   -4   18   10      1.15      0.00
   -2   18   10     -0.37      0.00
    0   18   10     -0.81      0.00
    2   18   10     -1.14      0.00
  -13   19   10      0.24      0.00
  -11   19   10     -0.46      0.00
   -9   19   10     -1.46      0.00
   -7   19   10     -0.73      0.00
   -5   19   10      1.33      0.00
   -3   19   10      0.76      0.00
   -1   19   10     -0.55      0.00
    1   19   10     -1.30      0.00
  -10   20   10     -0.84      0.00
   -8   20   10     -1.56      0.00
   -6   20   10      0.32      0.00
   -4   20   10      1.65      0.00
   -2   20   10      0.63      0.00
    0   20   10     -0.44      0.00
   -9   21   10     -1.25      0.00
   -7   21   10     -0.90      0.00
   -5   21   10      1.18      0.00
   -3   21   10      1.38      0.00
  -20    0   11     -0.70      0.00
  -18    0   11      0.41      0.00
  -16    0   11      2.57      0.00
  -14    0   11      2.38      0.00
  -12    0   11      1.72      0.00
  -10    0   11      0.34      0.00
   -8    0   11      0.95      0.00
   -6    0   11     -1.27      0.00
   -4    0   11     -4.47      0.00
   -2    0   11     -5.96      0.00
    0    0   11     -5.57      0.00
    2    0   11     -3.77      0.00
    4    0   11     -1.12      0.00
    6    0   11      1.85      0.00
    8    0   11      4.52      0.00
  -21    1   11      0.12      0.00
  -19    1   11     -0.84      0.00
  -17    1   11      1.78      0.00
  -15    1   11      2.29      0.00
  -13    1   11      2.24      0.00
  -11    1   11      0.57      0.00
   -9    1   11      0.53      0.00
   -7    1   11      0.17      0.00
   -5    1   11     -2.76      0.00
   -3    1   11     -5.25      0.00
   -1    1   11     -5.59      0.00
    1    1   11     -4.80      0.00
    3    1   11     -2.29      0.00
    5    1   11      0.13      0.00
    7    1   11      3.71      0.00
  -20    2   11     -0.60      0.00
  -18    2   11      0.01      0.00
  -16    2   11      1.90      0.00
  -14    2   11      1.88      0.00
  -12    2   11      1.29      0.00
  -10    2   11     -0.30      0.00
   -8    2   11      0.43      0.00
   -6    2   11     -1.02      0.00
   -4    2   11     -3.62      0.00
   -2    2   11     -5.01      0.00
    0    2   11     -4.93      0.00
    2    2   11     -3.62      0.00
    4    2   11     -0.97      0.00
    6    2   11      1.89      0.00
    8    2   11      4.08      0.00
  -21    3   11      0.53      0.00
  -19    3   11     -1.08      0.00
  -17    3   11      0.68      0.00
  -15    3   11      1.15      0.00
  -13    3   11      1.57      0.00
  -11    3   11     -0.03      0.00
   -9    3   11     -0.30      0.00
   -7    3   11     -0.02      0.00
   -5    3   11     -1.88      0.00
   -3    3   11     -4.02      0.00
   -1    3   11     -4.64      0.00
    1    3   11     -4.58      0.00
    3    3   11     -2.28      0.00
    5    3   11      0.49      0.00
    7    3   11      3.43      0.00
  -20    4   11     -0.58      0.00
  -18    4   11     -0.93      0.00
  -16    4   11      0.37      0.00
  -14    4   11      0.90      0.00
  -12    4   11      1.07      0.00
  -10    4   11     -0.50      0.00
   -8    4   11      0.06      0.00
   -6    4   11     -0.63      0.00
   -4    4   11     -2.69      0.00
   -2    4   11     -4.28      0.00
    0    4   11     -4.77      0.00
    2    4   11     -3.88      0.00
    4    4   11     -0.67      0.00
    6    4   11      2.18      0.00
    8    4   11      3.47      0.00
  -19    5   11     -1.82      0.00
  -17    5   11     -0.66      0.00
  -15    5   11      0.07      0.00
  -13    5   11      1.47      0.00
  -11    5   11      0.64      0.00
   -9    5   11     -0.07      0.00
   -7    5   11     -0.14      0.00
   -5    5   11     -1.47      0.00
   -3    5   11     -3.47      0.00
   -1    5   11     -4.36      0.00
    1    5   11     -4.60      0.00
    3    5   11     -2.12      0.00
    5    5   11      1.01      0.00
    7    5   11      3.12      0.00
  -20    6   11     -1.73      0.00
  -18    6   11     -1.94      0.00
  -16    6   11     -0.31      0.00
  -14    6   11      0.94      0.00
  -12    6   11      1.98      0.00
  -10    6   11      0.52      0.00
   -8    6   11     -0.15      0.00
   -6    6   11     -1.06      0.00
   -4    6   11     -2.36      0.00
   -2    6   11     -3.57      0.00
    0    6   11     -3.96      0.00
    2    6   11     -3.11      0.00
    4    6   11     -0.07      0.00
    6    6   11      1.94      0.00
  -21    7   11     -1.42      0.00
  -19    7   11     -2.88      0.00
  -17    7   11     -0.77      0.00
  -15    7   11      0.59      0.00
  -13    7   11      2.21      0.00
  -11    7   11      1.69      0.00
   -9    7   11      0.05      0.00
   -7    7   11     -1.34      0.00
   -5    7   11     -2.00      0.00
   -3    7   11     -2.72      0.00
   -1    7   11     -2.96      0.00
    1    7   11     -2.92      0.00
    3    7   11     -1.00      0.00
    5    7   11      0.75      0.00
    7    7   11      1.65      0.00
  -20    8   11     -2.90      0.00
  -18    8   11     -1.70      0.00
  -16    8   11      0.74      0.00
  -14    8   11      1.68      0.00
  -12    8   11      2.25      0.00
  -10    8   11      0.68      0.00
   -8    8   11     -1.29      0.00
   -6    8   11     -2.56      0.00
   -4    8   11     -2.43      0.00
   -2    8   11     -2.57      0.00
    0    8   11     -2.38      0.00
    2    8   11     -1.58      0.00
    4    8   11     -0.02      0.00
    6    8   11      0.25      0.00
  -21    9   11     -2.09      0.00
  -19    9   11     -2.32      0.00
  -17    9   11      0.53      0.00
  -15    9   11      1.48      0.00
  -13    9   11      1.72      0.00
  -11    9   11      1.02      0.00
   -9    9   11     -0.57      0.00
   -7    9   11     -2.70      0.00
   -5    9   11     -2.85      0.00
   -3    9   11     -2.63      0.00
   -1    9   11     -2.52      0.00
    1    9   11     -2.02      0.00
    3    9   11     -0.70      0.00
    5    9   11     -0.49      0.00
    7    9   11     -0.29      0.00
  -20   10   11     -1.80      0.00
  -18   10   11     -0.21      0.00
  -16   10   11      1.59      0.00
  -14   10   11      1.10      0.00
  -12   10   11      0.60      0.00
  -10   10   11     -0.09      0.00
   -8   10   11     -1.64      0.00
   -6   10   11     -3.05      0.00
   -4   10   11     -2.65      0.00
   -2   10   11     -2.89      0.00
    0   10   11     -2.55      0.00
    2   10   11     -1.51      0.00
    4   10   11     -0.71      0.00
  -19   11   11     -0.57      0.00
  -17   11   11      1.28      0.00
  -15   11   11      1.21      0.00
  -13   11   11      0.20      0.00
  -11   11   11     -0.34      0.00
   -9   11   11     -0.45      0.00
   -7   11   11     -2.10      0.00
   -5   11   11     -2.43      0.00
   -3   11   11     -2.54      0.00
   -1   11   11     -2.74      0.00
    1   11   11     -2.04      0.00
    3   11   11     -1.04      0.00
    5   11   11     -1.00      0.00
  -18   12   11      0.58      0.00
  -16   12   11      1.44      0.00
  -14   12   11      0.64      0.00
  -12   12   11     -0.40      0.00
  -10   12   11     -0.21      0.00
   -8   12   11     -0.51      0.00
   -6   12   11     -1.75      0.00
   -4   12   11     -1.71      0.00
   -2   12   11     -2.17      0.00
    0   12   11     -1.80      0.00
    2   12   11     -1.21      0.00
    4   12   11     -0.97      0.00
  -19   13   11      0.23      0.00
  -17   13   11      1.06      0.00
  -15   13   11      1.33      0.00
  -13   13   11      0.47      0.00
  -11   13   11     -0.28      0.00
   -9   13   11      0.43      0.00
   -7   13   11     -0.43      0.00
   -5   13   11     -0.97      0.00
   -3   13   11     -1.27      0.00
   -1   13   11     -1.16      0.00
    1   13   11     -0.70      0.00
    3   13   11     -0.93      0.00
  -18   14   11      0.42      0.00
  -16   14   11      1.19      0.00
  -14   14   11      1.46      0.00
  -12   14   11      0.34      0.00
  -10   14   11      0.43      0.00
   -8   14   11      0.92      0.00
   -6   14   11     -0.01      0.00
   -4   14   11     -0.54      0.00
   -2   14   11     -0.86      0.00
    0   14   11     -0.10      0.00
    2   14   11     -0.40      0.00
    4   14   11     -1.10      0.00
  -17   15   11      0.39      0.00
  -15   15   11      1.33      0.00
  -13   15   11      1.23      0.00
  -11   15   11      0.30      0.00
   -9   15   11      1.30      0.00
   -7   15   11      1.27      0.00
   -5   15   11      0.30      0.00
   -3   15   11     -0.82      0.00
   -1   15   11     -0.44      0.00
    1   15   11      0.19      0.00
    3   15   11     -0.74      0.00
  -16   16   11      0.32      0.00
  -14   16   11      1.29      0.00
  -12   16   11      0.56      0.00
  -10   16   11      0.67      0.00
   -8   16   11      1.88      0.00
   -6   16   11      1.41      0.00
   -4   16   11     -0.22      0.00
   -2   16   11     -1.32      0.00
    0   16   11     -0.22      0.00
    2   16   11     -0.20      0.00
  -15   17   11      0.47      0.00
  -13   17   11      0.86      0.00
  -11   17   11      0.11      0.00
   -9   17   11      1.16      0.00
   -7   17   11      1.90      0.00
   -5   17   11      0.92      0.00
   -3   17   11     -1.28      0.00
   -1   17   11     -1.41      0.00
    1   17   11     -0.33      0.00
  -14   18   11      0.71      0.00
  -12   18   11      0.24      0.00
  -10   18   11      0.05      0.00
   -8   18   11      1.13      0.00
   -6   18   11      1.48      0.00
   -4   18   11     -0.03      0.00
   -2   18   11     -1.77      0.00
    0   18   11     -1.05      0.00
  -11   19   11     -0.28      0.00
   -9   19   11     -0.10      0.00
   -7   19   11      0.78      0.00
   -5   19   11      1.00      0.00
   -3   19   11     -0.63      0.00
   -1   19   11     -1.25      0.00
  -10   20   11     -0.61      0.00
   -8   20   11     -0.31      0.00
   -6   20   11      0.74      0.00
   -4   20   11      0.71      0.00
  -20    0   12      0.90      0.00
  -18    0   12      0.14      0.00
  -16    0   12     -0.19      0.00
  -14    0   12     -1.41      0.00
  -12    0   12     -1.15      0.00
  -10    0   12     -1.90      0.00
   -8    0   12     -3.57      0.00
   -6    0   12     -4.09      0.00
   -4    0   12     -1.36      0.00
   -2    0   12      0.38      0.00
    0    0   12     -0.03      0.00
    2    0   12     -0.24      0.00
    4    0   12      0.78      0.00
    6    0   12      0.74      0.00
  -21    1   12      1.50      0.00
  -19    1   12      0.26      0.00
  -17    1   12      0.24      0.00
  -15    1   12     -1.13      0.00
  -13    1   12     -1.37      0.00
  -11    1   12     -1.60      0.00
   -9    1   12     -2.73      0.00
   -7    1   12     -4.27      0.00
   -5    1   12     -2.68      0.00
   -3    1   12     -0.14      0.00
   -1    1   12      0.47      0.00
    1    1   12     -0.45      0.00
    3    1   12      0.51      0.00
    5    1   12      0.91      0.00
  -20    2   12      1.18      0.00
  -18    2   12      0.22      0.00
  -16    2   12     -0.48      0.00
  -14    2   12     -1.81      0.00
  -12    2   12     -1.62      0.00
  -10    2   12     -2.45      0.00
   -8    2   12     -3.69      0.00
   -6    2   12     -3.56      0.00
   -4    2   12     -0.86      0.00
   -2    2   12      0.51      0.00
    0    2   12     -0.08      0.00
    2    2   12     -0.21      0.00
    4    2   12      1.37      0.00
    6    2   12      1.53      0.00
  -21    3   12      1.93      0.00
  -19    3   12      0.61      0.00
  -17    3   12      0.01      0.00
  -15    3   12     -1.71      0.00
  -13    3   12     -1.84      0.00
  -11    3   12     -2.10      0.00
   -9    3   12     -3.06      0.00
   -7    3   12     -3.67      0.00
   -5    3   12     -1.69      0.00
   -3    3   12      0.16      0.00
   -1    3   12      0.19      0.00
    1    3   12     -0.80      0.00
    3    3   12      0.83      0.00
    5    3   12      2.19      0.00
  -20    4   12      1.50      0.00
  -18    4   12      0.21      0.00
  -16    4   12     -0.98      0.00
  -14    4   12     -2.09      0.00
  -12    4   12     -1.47      0.00
  -10    4   12     -2.24      0.00
   -8    4   12     -3.10      0.00
   -6    4   12     -2.34      0.00
   -4    4   12     -0.22      0.00
   -2    4   12      0.11      0.00
    0    4   12     -0.79      0.00
    2    4   12     -0.53      0.00
    4    4   12      2.17      0.00
    6    4   12      2.74      0.00
  -19    5   12      0.39      0.00
  -17    5   12     -0.26      0.00
  -15    5   12     -1.78      0.00
  -13    5   12     -1.25      0.00
  -11    5   12     -1.07      0.00
   -9    5   12     -2.16      0.00
   -7    5   12     -2.59      0.00
   -5    5   12     -0.68      0.00
   -3    5   12      0.17      0.00
   -1    5   12     -0.39      0.00
    1    5   12     -1.20      0.00
    3    5   12      0.98      0.00
    5    5   12      2.94      0.00
  -20    6   12      0.42      0.00
  -18    6   12     -0.17      0.00
  -16    6   12     -0.72      0.00
  -14    6   12     -1.35      0.00
  -12    6   12     -0.26      0.00
  -10    6   12     -1.04      0.00
   -8    6   12     -2.39      0.00
   -6    6   12     -1.58      0.00
   -4    6   12      0.37      0.00
   -2    6   12      0.17      0.00
    0    6   12     -0.62      0.00
    2    6   12     -0.16      0.00
    4    6   12      2.38      0.00
    6    6   12      2.54      0.00
  -21    7   12     -0.04      0.00
  -19    7   12     -0.62      0.00
  -17    7   12      0.22      0.00
  -15    7   12     -0.76      0.00
  -13    7   12     -0.39      0.00
  -11    7   12     -0.16      0.00
   -9    7   12     -1.69      0.00
   -7    7   12     -2.56      0.00
   -5    7   12     -0.25      0.00
   -3    7   12      0.75      0.00
   -1    7   12      0.23      0.00
    1    7   12     -0.17      0.00
    3    7   12      1.45      0.00
    5    7   12      2.29      0.00
  -20    8   12     -1.07      0.00
  -18    8   12      0.14      0.00
  -16    8   12      0.63      0.00
  -14    8   12     -0.66      0.00
  -12    8   12     -0.18      0.00
  -10    8   12     -0.77      0.00
   -8    8   12     -2.54      0.00
   -6    8   12     -1.71      0.00
   -4    8   12      0.77      0.00
   -2    8   12      0.61      0.00
    0    8   12      0.23      0.00
    2    8   12      0.81      0.00
    4    8   12      1.98      0.00
    6    8   12      1.04      0.00
  -19    9   12     -0.54      0.00
  -17    9   12      1.52      0.00
  -15    9   12      0.06      0.00
  -13    9   12     -0.96      0.00
  -11    9   12     -0.47      0.00
   -9    9   12     -1.31      0.00
   -7    9   12     -2.40      0.00
   -5    9   12     -0.07      0.00
   -3    9   12      0.78      0.00
   -1    9   12      0.11      0.00
    1    9   12      0.40      0.00
    3    9   12      1.59      0.00
  -20   10   12     -0.82      0.00
  -18   10   12      1.16      0.00
  -16   10   12      1.39      0.00
  -14   10   12     -1.23      0.00
  -12   10   12     -1.21      0.00
  -10   10   12     -0.27      0.00
   -8   10   12     -1.31      0.00
   -6   10   12     -0.96      0.00
   -4   10   12      0.91      0.00
   -2   10   12     -0.01      0.00
    0   10   12     -0.16      0.00
    2   10   12      0.99      0.00
    4   10   12      1.54      0.00
  -19   11   12      0.34      0.00
  -17   11   12      2.00      0.00
  -15   11   12     -0.20      0.00
  -13   11   12     -2.01      0.00
  -11   11   12     -0.61      0.00
   -9   11   12      0.22      0.00
   -7   11   12     -0.80      0.00
   -5   11   12      0.61      0.00
   -3   11   12      0.56      0.00
   -1   11   12     -0.48      0.00
    1   11   12      0.37      0.00
    3   11   12      1.52      0.00
  -18   12   12      1.50      0.00
  -16   12   12      1.29      0.00
  -14   12   12     -1.46      0.00
  -12   12   12     -1.53      0.00
  -10   12   12      0.44      0.00
   -8   12   12      0.18      0.00
   -6   12   12     -0.03      0.00
   -4   12   12      1.05      0.00
   -2   12   12     -0.09      0.00
    0   12   12      0.05      0.00
    2   12   12      1.15      0.00
  -17   13   12      1.91      0.00
  -15   13   12      0.27      0.00
  -13   13   12     -1.39      0.00
  -11   13   12     -0.35      0.00
   -9   13   12      0.78      0.00
   -7   13   12     -0.23      0.00
   -5   13   12      0.53      0.00
   -3   13   12      0.44      0.00
   -1   13   12     -0.01      0.00
    1   13   12      0.90      0.00
  -16   14   12      1.61      0.00
  -14   14   12     -0.03      0.00
  -12   14   12     -0.55      0.00
  -10   14   12      0.61      0.00
   -8   14   12      0.34      0.00
   -6   14   12     -0.22      0.00
   -4   14   12      0.34      0.00
   -2   14   12     -0.21      0.00
    0   14   12      0.57      0.00
  -15   15   12      1.21      0.00
  -13   15   12      0.26      0.00
  -11   15   12      0.43      0.00
   -9   15   12      1.06      0.00
   -7   15   12      0.10      0.00
   -5   15   12     -0.03      0.00
   -3   15   12     -0.56      0.00
   -1   15   12     -0.35      0.00
  -14   16   12      1.08      0.00
  -12   16   12      0.73      0.00
  -10   16   12      1.31      0.00
   -8   16   12      1.18      0.00
   -6   16   12      0.28      0.00
   -4   16   12     -0.51      0.00
   -2   16   12     -1.43      0.00
  -13   17   12      1.12      0.00
  -11   17   12      1.21      0.00
   -9   17   12      1.72      0.00
   -7   17   12      1.07      0.00
   -5   17   12      0.17      0.00
   -3   17   12     -1.54      0.00
  -12   18   12      1.06      0.00
  -10   18   12      1.37      0.00
   -8   18   12      1.37      0.00
   -6   18   12      0.81      0.00
   -9   19   12      0.99      0.00
   -7   19   12      0.84      0.00
  -18    0   13     -0.23      0.00
  -16    0   13      0.52      0.00
  -14    0   13      1.49      0.00
  -12    0   13      2.29      0.00
  -10    0   13      1.51      0.00
   -8    0   13      0.83      0.00
   -6    0   13      1.25      0.00
   -4    0   13      1.19      0.00
   -2    0   13     -0.44      0.00
    0    0   13     -1.59      0.00
    2    0   13     -2.12      0.00
    4    0   13     -1.00      0.00
  -21    1   13      2.20      0.00
  -19    1   13      0.15      0.00
  -17    1   13      0.04      0.00
  -15    1   13      0.69      0.00
  -13    1   13      1.90      0.00
  -11    1   13      1.74      0.00
   -9    1   13      1.06      0.00
   -7    1   13      0.94      0.00
   -5    1   13      1.66      0.00
   -3    1   13      0.29      0.00
   -1    1   13     -0.98      0.00
    1    1   13     -2.06      0.00
    3    1   13     -1.19      0.00
    5    1   13     -0.53      0.00
  -20    2   13      1.41      0.00
  -18    2   13     -0.27      0.00
  -16    2   13      0.03      0.00
  -14    2   13      0.81      0.00
  -12    2   13      1.58      0.00
  -10    2   13      1.03      0.00
   -8    2   13      0.99      0.00
   -6    2   13      1.70      0.00
   -4    2   13      1.26      0.00
   -2    2   13     -0.64      0.00
    0    2   13     -1.57      0.00
    2    2   13     -1.47      0.00
    4    2   13      0.32      0.00
  -19    3   13      0.32      0.00
  -17    3   13     -0.35      0.00
  -15    3   13     -0.12      0.00
  -13    3   13      1.11      0.00
  -11    3   13      1.06      0.00
   -9    3   13      1.05      0.00
   -7    3   13      1.70      0.00
   -5    3   13      2.08      0.00
   -3    3   13     -0.07      0.00
   -1    3   13     -1.41      0.00
    1    3   13     -1.77      0.00
    3    3   13      0.33      0.00
    5    3   13      1.57      0.00
  -20    4   13      1.42      0.00
  -18    4   13     -0.37      0.00
  -16    4   13     -0.46      0.00
  -14    4   13      0.46      0.00
  -12    4   13      1.43      0.00
  -10    4   13      1.12      0.00
   -8    4   13      1.72      0.00
   -6    4   13      2.44      0.00
   -4    4   13      1.05      0.00
   -2    4   13     -1.39      0.00
    0    4   13     -1.93      0.00
    2    4   13     -0.74      0.00
    4    4   13      2.18      0.00
  -19    5   13     -0.05      0.00
  -17    5   13     -0.50      0.00
  -15    5   13      0.03      0.00
  -13    5   13      1.58      0.00
  -11    5   13      1.52      0.00
   -9    5   13      1.51      0.00
   -7    5   13      2.21      0.00
   -5    5   13      2.07      0.00
   -3    5   13     -0.66      0.00
   -1    5   13     -1.97      0.00
    1    5   13     -1.71      0.00
    3    5   13      1.21      0.00
    5    5   13      2.69      0.00
  -20    6   13      0.22      0.00
  -18    6   13     -0.65      0.00
  -16    6   13      0.06      0.00
  -14    6   13      1.24      0.00
  -12    6   13      1.98      0.00
  -10    6   13      1.22      0.00
   -8    6   13      1.41      0.00
   -6    6   13      1.97      0.00
   -4    6   13      0.62      0.00
   -2    6   13     -1.67      0.00
    0    6   13     -1.91      0.00
    2    6   13     -0.42      0.00
    4    6   13      2.48      0.00
  -21    7   13      0.07      0.00
  -19    7   13     -0.89      0.00
  -17    7   13      0.17      0.00
  -15    7   13      1.05      0.00
  -13    7   13      1.96      0.00
  -11    7   13      1.23      0.00
   -9    7   13      0.53      0.00
   -7    7   13      0.80      0.00
   -5    7   13      1.13      0.00
   -3    7   13     -0.84      0.00
   -1    7   13     -1.83      0.00
    1    7   13     -1.40      0.00
    3    7   13      1.14      0.00
    5    7   13      2.08      0.00
  -20    8   13     -0.91      0.00
  -18    8   13     -0.06      0.00
  -16    8   13      1.37      0.00
  -14    8   13      1.66      0.00
  -12    8   13      1.48      0.00
  -10    8   13      0.33      0.00
   -8    8   13     -0.14      0.00
   -6    8   13      0.43      0.00
   -4    8   13      0.05      0.00
   -2    8   13     -1.70      0.00
    0    8   13     -1.78      0.00
    2    8   13     -0.42      0.00
  -19    9   13     -0.40      0.00
  -17    9   13      1.55      0.00
  -15    9   13      1.68      0.00
  -13    9   13      1.49      0.00
  -11    9   13      0.90      0.00
   -9    9   13      0.17      0.00
   -7    9   13     -0.14      0.00
   -5    9   13      0.44      0.00
   -3    9   13     -1.02      0.00
   -1    9   13     -2.04      0.00
    1    9   13     -1.47      0.00
  -18   10   13      1.11      0.00
  -16   10   13      1.92      0.00
  -14   10   13      1.22      0.00
  -12   10   13      1.35      0.00
  -10   10   13      1.27      0.00
   -8   10   13      0.58      0.00
   -6   10   13      0.56      0.00
   -4   10   13      0.22      0.00
   -2   10   13     -1.69      0.00
    0   10   13     -1.88      0.00
    2   10   13     -0.64      0.00
  -19   11   13      0.58      0.00
  -17   11   13      1.78      0.00
  -15   11   13      1.05      0.00
  -13   11   13      1.06      0.00
  -11   11   13      1.86      0.00
   -9   11   13      1.85      0.00
   -7   11   13      1.02      0.00
   -5   11   13      1.22      0.00
   -3   11   13     -0.28      0.00
   -1   11   13     -1.53      0.00
    1   11   13     -1.15      0.00
  -18   12   13      1.23      0.00
  -16   12   13      1.07      0.00
  -14   12   13      0.43      0.00
  -12   12   13      1.46      0.00
  -10   12   13      2.24      0.00
   -8   12   13      1.62      0.00
   -6   12   13      1.38      0.00
   -4   12   13      1.21      0.00
   -2   12   13     -0.41      0.00
    0   12   13     -0.70      0.00
  -17   13   13      1.04      0.00
  -15   13   13      0.17      0.00
  -13   13   13      0.68      0.00
  -11   13   13      1.70      0.00
   -9   13   13      1.74      0.00
   -7   13   13      1.12      0.00
   -5   13   13      1.61      0.00
   -3   13   13      0.82      0.00
  -16   14   13      0.27      0.00
  -14   14   13      0.14      0.00
  -12   14   13      1.16      0.00
  -10   14   13      1.53      0.00
   -8   14   13      1.15      0.00
   -6   14   13      1.30      0.00
   -4   14   13      1.44      0.00
   -2   14   13      0.66      0.00
  -15   15   13     -0.16      0.00
  -13   15   13      0.85      0.00
  -11   15   13      1.58      0.00
   -9   15   13      1.64      0.00
   -7   15   13      1.51      0.00
   -5   15   13      1.70      0.00
   -3   15   13      0.89      0.00
  -14   16   13      0.34      0.00
  -12   16   13      1.73      0.00
  -10   16   13      2.21      0.00
   -8   16   13      2.33      0.00
   -6   16   13      2.23      0.00
  -13   17   13      1.34      0.00
  -11   17   13      2.37      0.00
   -9   17   13      2.78      0.00
   -7   17   13      2.76      0.00
   -5   17   13      1.99      0.00
  -10   18   13      2.38      0.00
   -8   18   13      2.55      0.00
   -6   18   13      2.19      0.00
  -18    0   14     -0.52      0.00
  -16    0   14      0.10      0.00
  -14    0   14      0.42      0.00
  -12    0   14     -0.66      0.00
  -10    0   14     -2.27      0.00
   -8    0   14     -2.82      0.00
   -6    0   14     -1.66      0.00
   -4    0   14     -0.51      0.00
   -2    0   14     -0.19      0.00
    0    0   14      1.02      0.00
    2    0   14      0.78      0.00
  -19    1   14     -0.28      0.00
  -17    1   14     -0.25      0.00
  -15    1   14      0.14      0.00
  -13    1   14     -0.02      0.00
  -11    1   14     -1.69      0.00
   -9    1   14     -2.60      0.00
   -7    1   14     -2.50      0.00
   -5    1   14     -0.87      0.00
   -3    1   14     -0.69      0.00
   -1    1   14      0.54      0.00
    1    1   14      1.10      0.00
    3    1   14      0.95      0.00
  -20    2   14      0.77      0.00
  -18    2   14     -0.30      0.00
  -16    2   14     -0.24      0.00
  -14    2   14     -0.09      0.00
  -12    2   14     -1.00      0.00
  -10    2   14     -2.24      0.00
   -8    2   14     -2.56      0.00
   -6    2   14     -1.75      0.00
   -4    2   14     -1.02      0.00
   -2    2   14     -0.57      0.00
    0    2   14      1.15      0.00
    2    2   14      1.56      0.00
  -19    3   14      0.47      0.00
  -17    3   14     -0.16      0.00
  -15    3   14     -0.26      0.00
  -13    3   14     -0.32      0.00
  -11    3   14     -1.59      0.00
   -9    3   14     -2.01      0.00
   -7    3   14     -2.16      0.00
   -5    3   14     -1.48      0.00
   -3    3   14     -1.59      0.00
   -1    3   14      0.16      0.00
    1    3   14      1.65      0.00
    3    3   14      2.42      0.00
  -20    4   14      1.43      0.00
  -18    4   14      0.37      0.00
  -16    4   14      0.04      0.00
  -14    4   14      0.17      0.00
  -12    4   14     -0.51      0.00
  -10    4   14     -1.34      0.00
   -8    4   14     -1.64      0.00
   -6    4   14     -1.88      0.00
   -4    4   14     -2.03      0.00
   -2    4   14     -1.41      0.00
    0    4   14      1.01      0.00
    2    4   14      2.34      0.00
  -21    5   14      1.44      0.00
  -19    5   14      0.81      0.00
  -17    5   14      0.56      0.00
  -15    5   14      0.58      0.00
  -13    5   14      0.45      0.00
  -11    5   14     -0.75      0.00
   -9    5   14     -0.99      0.00
   -7    5   14     -1.77      0.00
   -5    5   14     -2.13      0.00
   -3    5   14     -2.41      0.00
   -1    5   14     -0.36      0.00
    1    5   14      1.67      0.00
    3    5   14      2.84      0.00
  -20    6   14      0.67      0.00
  -18    6   14      0.64      0.00
  -16    6   14      1.07      0.00
  -14    6   14      0.89      0.00
  -12    6   14     -0.34      0.00
  -10    6   14     -1.10      0.00
   -8    6   14     -1.40      0.00
   -6    6   14     -2.23      0.00
   -4    6   14     -2.57      0.00
   -2    6   14     -1.83      0.00
    0    6   14      0.68      0.00
    2    6   14      2.20      0.00
  -19    7   14      0.13      0.00
  -17    7   14      1.33      0.00
  -15    7   14      1.31      0.00
  -13    7   14     -0.05      0.00
  -11    7   14     -1.65      0.00
   -9    7   14     -1.51      0.00
   -7    7   14     -2.18      0.00
   -5    7   14     -2.50      0.00
   -3    7   14     -2.62      0.00
   -1    7   14     -0.79      0.00
    1    7   14      1.29      0.00
  -20    8   14     -0.44      0.00
  -18    8   14      0.92      0.00
  -16    8   14      1.98      0.00
  -14    8   14      0.53      0.00
  -12    8   14     -1.69      0.00
  -10    8   14     -2.01      0.00
   -8    8   14     -1.74      0.00
   -6    8   14     -2.30      0.00
   -4    8   14     -2.49      0.00
   -2    8   14     -2.20      0.00
    0    8   14     -0.04      0.00
  -19    9   14      0.12      0.00
  -17    9   14      2.19      0.00
  -15    9   14      1.62      0.00
  -13    9   14     -0.76      0.00
  -11    9   14     -2.03      0.00
   -9    9   14     -1.07      0.00
   -7    9   14     -1.39      0.00
   -5    9   14     -1.70      0.00
   -3    9   14     -2.42      0.00
   -1    9   14     -1.58      0.00
  -18   10   14      1.40      0.00
  -16   10   14      2.45      0.00
  -14   10   14      0.67      0.00
  -12   10   14     -1.13      0.00
  -10   10   14     -0.57      0.00
   -8   10   14      0.08      0.00
   -6   10   14     -0.49      0.00
   -4   10   14     -1.20      0.00
   -2   10   14     -2.15      0.00
  -17   11   14      2.13      0.00
  -15   11   14      1.72      0.00
  -13   11   14      0.12      0.00
  -11   11   14     -0.35      0.00
   -9   11   14      0.79      0.00
   -7   11   14      0.61      0.00
   -5   11   14      0.26      0.00
   -3   11   14     -1.14      0.00
   -1   11   14     -1.42      0.00
  -16   12   14      1.82      0.00
  -14   12   14      0.95      0.00
  -12   12   14     -0.12      0.00
  -10   12   14      0.11      0.00
   -8   12   14      0.66      0.00
   -6   12   14      0.69      0.00
   -4   12   14      0.27      0.00
   -2   12   14     -1.07      0.00
  -17   13   14      1.15      0.00
  -15   13   14      1.11      0.00
  -13   13   14      0.28      0.00
  -11   13   14     -0.77      0.00
   -9   13   14     -0.51      0.00
   -7   13   14     -0.04      0.00
   -5   13   14      0.54      0.00
   -3   13   14     -0.32      0.00
  -16   14   14      0.82      0.00
  -14   14   14      0.60      0.00
  -12   14   14     -0.54      0.00
  -10   14   14     -1.53      0.00
   -8   14   14     -1.02      0.00
   -6   14   14     -0.12      0.00
   -4   14   14     -0.01      0.00
  -13   15   14      0.40      0.00
  -11   15   14     -1.02      0.00
   -9   15   14     -1.23      0.00
   -7   15   14     -0.39      0.00
   -5   15   14      0.04      0.00
  -12   16   14      0.47      0.00
  -10   16   14     -0.42      0.00
   -8   16   14      0.13      0.00
   -6   16   14      0.48      0.00
   -9   17   14      0.73      0.00
   -7   17   14      1.14      0.00
  -18    0   15     -0.35      0.00
  -16    0   15      0.79      0.00
  -14    0   15      1.49      0.00
  -12    0   15      0.06      0.00
  -10    0   15      0.34      0.00
   -8    0   15      1.15      0.00
   -6    0   15      0.93      0.00
   -4    0   15     -0.31      0.00
   -2    0   15     -0.81      0.00
    0    0   15      0.87      0.00
  -17    1   15     -0.11      0.00
  -15    1   15      1.06      0.00
  -13    1   15      0.64      0.00
  -11    1   15     -0.31      0.00
   -9    1   15      1.00      0.00
   -7    1   15      1.05      0.00
   -5    1   15      0.60      0.00
   -3    1   15     -0.99      0.00
   -1    1   15      0.33      0.00
    1    1   15      0.74      0.00
  -20    2   15      0.31      0.00
  -18    2   15     -0.54      0.00
  -16    2   15     -0.13      0.00
  -14    2   15      0.48      0.00
  -12    2   15     -0.49      0.00
  -10    2   15      0.27      0.00
   -8    2   15      1.30      0.00
   -6    2   15      1.01      0.00
   -4    2   15     -0.12      0.00
   -2    2   15     -0.47      0.00
    0    2   15      1.22      0.00
  -19    3   15      0.17      0.00
  -17    3   15     -0.75      0.00
  -15    3   15     -0.27      0.00
  -13    3   15     -0.30      0.00
  -11    3   15     -0.46      0.00
   -9    3   15      1.33      0.00
   -7    3   15      1.29      0.00
   -5    3   15      0.77      0.00
   -3    3   15     -0.47      0.00
   -1    3   15      0.81      0.00
    1    3   15      1.27      0.00
  -20    4   15      1.25      0.00
  -18    4   15     -0.23      0.00
  -16    4   15     -0.71      0.00
  -14    4   15     -0.28      0.00
  -12    4   15     -0.60      0.00
  -10    4   15      0.81      0.00
   -8    4   15      1.78      0.00
   -6    4   15      1.10      0.00
   -4    4   15      0.30      0.00
   -2    4   15      0.21      0.00
    0    4   15      1.46      0.00
    2    4   15      0.95      0.00
  -19    5   15      0.68      0.00
  -17    5   15     -0.39      0.00
  -15    5   15     -0.48      0.00
  -13    5   15     -0.58      0.00
  -11    5   15     -0.14      0.00
   -9    5   15      1.83      0.00
   -7    5   15      1.26      0.00
   -5    5   15      0.74      0.00
   -3    5   15      0.20      0.00
   -1    5   15      1.12      0.00
    1    5   15      0.96      0.00
  -20    6   15      1.01      0.00
  -18    6   15      0.17      0.00
  -16    6   15     -0.35      0.00
  -14    6   15     -0.91      0.00
  -12    6   15     -1.28      0.00
  -10    6   15      0.68      0.00
   -8    6   15      1.44      0.00
   -6    6   15      0.40      0.00
   -4    6   15      0.33      0.00
   -2    6   15      0.56      0.00
  -19    7   15      0.40      0.00
  -17    7   15      0.24      0.00
  -15    7   15     -0.91      0.00
  -13    7   15     -2.25      0.00
  -11    7   15     -1.33      0.00
   -9    7   15      1.10      0.00
   -7    7   15      0.15      0.00
   -5    7   15     -0.18      0.00
   -3    7   15      0.02      0.00
   -1    7   15      0.61      0.00
  -18    8   15      0.73      0.00
  -16    8   15      0.15      0.00
  -14    8   15     -2.20      0.00
  -12    8   15     -2.86      0.00
  -10    8   15      0.01      0.00
   -8    8   15      0.73      0.00
   -6    8   15     -0.74      0.00
   -4    8   15     -0.52      0.00
   -2    8   15     -0.24      0.00
    0    8   15      0.01      0.00
  -19    9   15      0.72      0.00
  -17    9   15      1.49      0.00
  -15    9   15     -0.57      0.00
  -13    9   15     -2.76      0.00
  -11    9   15     -1.06      0.00
   -9    9   15      1.67      0.00
   -7    9   15      0.06      0.00
   -5    9   15     -0.78      0.00
   -3    9   15     -0.73      0.00
   -1    9   15     -0.43      0.00
  -18   10   15      1.77      0.00
  -16   10   15      1.61      0.00
  -14   10   15     -1.05      0.00
  -12   10   15     -1.25      0.00
  -10   10   15      1.94      0.00
   -8   10   15      2.05      0.00
   -6   10   15     -0.17      0.00
   -4   10   15     -0.44      0.00
   -2   10   15     -0.62      0.00
  -17   11   15      2.49      0.00
  -15   11   15      1.10      0.00
  -13   11   15     -0.54      0.00
  -11   11   15      1.22      0.00
   -9   11   15      3.19      0.00
   -7   11   15      1.17      0.00
   -5   11   15      0.15      0.00
   -3   11   15     -0.05      0.00
  -16   12   15      2.22      0.00
  -14   12   15      0.45      0.00
  -12   12   15      0.17      0.00
  -10   12   15      2.13      0.00
   -8   12   15      1.87      0.00
   -6   12   15      0.37      0.00
   -4   12   15      0.53      0.00
  -15   13   15      1.12      0.00
  -13   13   15     -0.37      0.00
  -11   13   15     -0.05      0.00
   -9   13   15      0.92      0.00
   -7   13   15      0.06      0.00
   -5   13   15      0.23      0.00
   -3   13   15      0.62      0.00
  -14   14   15     -0.22      0.00
  -12   14   15     -1.30      0.00
  -10   14   15     -0.80      0.00
   -8   14   15     -0.46      0.00
   -6   14   15     -0.49      0.00
   -4   14   15      0.19      0.00
  -11   15   15     -1.55      0.00
   -9   15   15     -0.77      0.00
   -7   15   15     -0.53      0.00
   -5   15   15     -0.27      0.00
  -18    0   16      2.40      0.00
  -16    0   16      2.94      0.00
  -14    0   16      2.17      0.00
  -12    0   16     -0.58      0.00
  -10    0   16     -0.97      0.00
   -8    0   16     -0.96      0.00
   -6    0   16     -0.81      0.00
   -4    0   16     -0.51      0.00
   -2    0   16      0.67      0.00
  -19    1   16      2.09      0.00
  -17    1   16      2.35      0.00
  -15    1   16      2.55      0.00
  -13    1   16      0.68      0.00
  -11    1   16     -1.18      0.00
   -9    1   16     -0.71      0.00
   -7    1   16     -1.06      0.00
   -5    1   16     -0.40      0.00
   -3    1   16     -0.34      0.00
   -1    1   16      2.32      0.00
  -18    2   16      1.63      0.00
  -16    2   16      1.77      0.00
  -14    2   16      1.49      0.00
  -12    2   16     -0.60      0.00
  -10    2   16     -0.79      0.00
   -8    2   16     -0.72      0.00
   -6    2   16     -0.58      0.00
   -4    2   16     -0.26      0.00
   -2    2   16      0.77      0.00
    0    2   16      3.12      0.00
  -19    3   16      1.61      0.00
  -17    3   16      0.96      0.00
  -15    3   16      1.31      0.00
  -13    3   16      0.63      0.00
  -11    3   16     -0.61      0.00
   -9    3   16     -0.18      0.00
   -7    3   16     -0.60      0.00
   -5    3   16      0.05      0.00
   -3    3   16      0.04      0.00
   -1    3   16      2.16      0.00
  -20    4   16      1.85      0.00
  -18    4   16      0.89      0.00
  -16    4   16      0.67      0.00
  -14    4   16      1.34      0.00
  -12    4   16      0.38      0.00
  -10    4   16      0.19      0.00
   -8    4   16     -0.07      0.00
   -6    4   16     -0.07      0.00
   -4    4   16      0.36      0.00
   -2    4   16      0.91      0.00
    0    4   16      2.48      0.00
  -19    5   16      1.11      0.00
  -17    5   16      0.24      0.00
  -15    5   16      0.78      0.00
  -13    5   16      1.18      0.00
  -11    5   16      0.48      0.00
   -9    5   16      0.51      0.00
   -7    5   16     -0.24      0.00
   -5    5   16      0.52      0.00
   -3    5   16      0.55      0.00
  -18    6   16      0.07      0.00
  -16    6   16     -0.36      0.00
  -14    6   16      0.43      0.00
  -12    6   16      0.41      0.00
  -10    6   16      0.48      0.00
   -8    6   16     -0.08      0.00
   -6    6   16     -0.11      0.00
   -4    6   16      0.67      0.00
   -2    6   16      0.71      0.00
  -19    7   16     -0.12      0.00
  -17    7   16     -0.96      0.00
  -15    7   16     -1.28      0.00
  -13    7   16     -0.62      0.00
  -11    7   16     -0.19      0.00
   -9    7   16      0.12      0.00
   -7    7   16     -0.71      0.00
   -5    7   16      0.23      0.00
   -3    7   16      0.29      0.00
  -18    8   16     -0.80      0.00
  -16    8   16     -2.00      0.00
  -14    8   16     -2.10      0.00
  -12    8   16     -1.05      0.00
  -10    8   16      0.12      0.00
   -8    8   16     -0.39      0.00
   -6    8   16     -0.52      0.00
   -4    8   16      0.19      0.00
  -17    9   16     -1.20      0.00
  -15    9   16     -2.46      0.00
  -13    9   16     -1.60      0.00
  -11    9   16      0.18      0.00
   -9    9   16      0.73      0.00
   -7    9   16     -0.37      0.00
   -5    9   16      0.23      0.00
   -3    9   16     -0.26      0.00
   -1    9   16     -0.55      0.00
  -16   10   16     -1.25      0.00
  -14   10   16     -1.46      0.00
  -12   10   16      0.44      0.00
  -10   10   16      1.83      0.00
   -8   10   16      0.88      0.00
   -6   10   16      0.52      0.00
   -4   10   16      0.71      0.00
   -2   10   16     -0.50      0.00
  -15   11   16     -0.64      0.00
  -13   11   16      0.52      0.00
  -11   11   16      2.20      0.00
   -9   11   16      1.98      0.00
   -7   11   16      0.93      0.00
   -5   11   16      1.63      0.00
   -3   11   16      0.69      0.00
  -14   12   16      0.27      0.00
  -12   12   16      1.62      0.00
  -10   12   16      1.85      0.00
   -8   12   16      0.84      0.00
   -6   12   16      1.42      0.00
   -4   12   16      1.94      0.00
  -13   13   16      0.52      0.00
  -11   13   16      0.83      0.00
   -9   13   16      0.06      0.00
   -7   13   16      0.17      0.00
   -5   13   16      1.79      0.00
  -10   14   16     -0.64      0.00
  -18    0   17     -1.46      0.00
  -16    0   17     -1.18      0.00
  -14    0   17     -0.52      0.00
  -12    0   17     -1.55      0.00
  -10    0   17     -0.60      0.00
   -8    0   17     -0.36      0.00
   -6    0   17     -1.03      0.00
   -4    0   17     -1.39      0.00
  -19    1   17     -1.13      0.00
  -17    1   17     -1.75      0.00
  -15    1   17     -0.87      0.00
  -13    1   17     -1.19      0.00
  -11    1   17     -1.60      0.00
   -9    1   17     -0.14      0.00
   -7    1   17     -0.74      0.00
   -5    1   17     -0.84      0.00
   -3    1   17     -1.43      0.00
  -18    2   17     -1.92      0.00
  -16    2   17     -1.80      0.00
  -14    2   17     -1.05      0.00
  -12    2   17     -2.21      0.00
  -10    2   17     -1.12      0.00
   -8    2   17     -0.16      0.00
   -6    2   17     -0.33      0.00
   -4    2   17     -0.61      0.00
  -19    3   17     -1.15      0.00
  -17    3   17     -2.16      0.00
  -15    3   17     -1.22      0.00
  -13    3   17     -1.70      0.00
  -11    3   17     -2.53      0.00
   -9    3   17     -0.42      0.00
   -7    3   17      0.10      0.00
   -5    3   17      0.46      0.00
   -3    3   17     -0.26      0.00
  -18    4   17     -1.48      0.00
  -16    4   17     -1.32      0.00
  -14    4   17     -0.65      0.00
  -12    4   17     -2.60      0.00
  -10    4   17     -1.86      0.00
   -8    4   17      0.15      0.00
   -6    4   17      0.87      0.00
   -4    4   17      0.93      0.00
  -17    5   17     -1.10      0.00
  -15    5   17     -0.19      0.00
  -13    5   17     -1.32      0.00
  -11    5   17     -3.11      0.00
   -9    5   17     -0.84      0.00
   -7    5   17      0.61      0.00
   -5    5   17      1.57      0.00
   -3    5   17      1.05      0.00
  -18    6   17     -0.75      0.00
  -16    6   17     -0.55      0.00
  -14    6   17     -0.45      0.00
  -12    6   17     -3.05      0.00
  -10    6   17     -2.64      0.00
   -8    6   17     -0.18      0.00
   -6    6   17      1.02      0.00
   -4    6   17      1.58      0.00
  -17    7   17     -0.94      0.00
  -15    7   17     -0.77      0.00
  -13    7   17     -2.27      0.00
  -11    7   17     -3.89      0.00
   -9    7   17     -1.50      0.00
   -7    7   17      0.03      0.00
   -5    7   17      1.03      0.00
   -3    7   17      0.98      0.00
  -16    8   17     -1.14      0.00
  -14    8   17     -1.67      0.00
  -12    8   17     -3.56      0.00
  -10    8   17     -2.71      0.00
   -8    8   17     -0.57      0.00
   -6    8   17      0.03      0.00
   -4    8   17      0.47      0.00
  -15    9   17     -0.98      0.00
  -13    9   17     -1.96      0.00
  -11    9   17     -2.61      0.00
   -9    9   17     -0.67      0.00
   -7    9   17     -0.14      0.00
   -5    9   17     -0.10      0.00
  -14   10   17     -0.10      0.00
  -12   10   17     -0.97      0.00
  -10   10   17     -0.34      0.00
   -8   10   17      0.57      0.00
   -6   10   17      0.07      0.00
  -13   11   17      0.92      0.00
  -11   11   17      0.38      0.00
   -9   11   17      1.08      0.00
   -7   11   17      0.85      0.00
  -16    0   18      0.96      0.00
  -14    0   18      0.75      0.00
  -12    0   18     -1.37      0.00
  -10    0   18     -0.72      0.00
   -8    0   18     -0.39      0.00
   -6    0   18     -0.48      0.00
  -17    1   18      0.30      0.00
  -15    1   18      0.90      0.00
  -13    1   18     -0.60      0.00
  -11    1   18     -1.56      0.00
   -9    1   18     -0.06      0.00
   -7    1   18     -0.41      0.00
  -16    2   18      0.20      0.00
  -14    2   18     -0.06      0.00
  -12    2   18     -2.00      0.00
  -10    2   18     -0.66      0.00
   -8    2   18      0.45      0.00
   -6    2   18      0.34      0.00
  -17    3   18     -0.30      0.00
  -15    3   18      0.09      0.00
  -13    3   18     -1.51      0.00
  -11    3   18     -2.00      0.00
   -9    3   18      0.78      0.00
   -7    3   18      1.06      0.00
   -5    3   18      1.00      0.00
  -16    4   18      0.20      0.00
  -14    4   18     -0.43      0.00
  -12    4   18     -2.55      0.00
  -10    4   18     -0.45      0.00
   -8    4   18      1.79      0.00
   -6    4   18      1.62      0.00
  -15    5   18      0.28      0.00
  -13    5   18     -1.78      0.00
  -11    5   18     -2.25      0.00
   -9    5   18      1.30      0.00
   -7    5   18      2.02      0.00
   -5    5   18      1.71      0.00
  -16    6   18      0.13      0.00
  -14    6   18     -1.00      0.00
  -12    6   18     -3.10      0.00
  -10    6   18     -0.71      0.00
   -8    6   18      1.92      0.00
   -6    6   18      1.76      0.00
  -15    7   18     -1.20      0.00
  -13    7   18     -3.03      0.00
  -11    7   18     -2.90      0.00
   -9    7   18      0.71      0.00
   -7    7   18      1.38      0.00
  -14    8   18     -2.81      0.00
  -12    8   18     -3.80      0.00
  -10    8   18     -1.22      0.00
   -8    8   18      0.91      0.00
  -11    9   18     -2.46      0.00
   -9    9   18      0.24      0.00
  -14    0   19     -0.87      0.00
  -12    0   19     -0.51      0.00
  -10    0   19      1.02      0.00
   -8    0   19      0.04      0.00
  -13    1   19     -1.04      0.00
  -11    1   19      0.18      0.00
   -9    1   19      1.06      0.00
  -14    2   19     -1.46      0.00
  -12    2   19     -1.04      0.00
  -10    2   19      1.05      0.00
   -8    2   19      0.61      0.00
  -13    3   19     -1.70      0.00
  -11    3   19     -0.30      0.00
   -9    3   19      1.54      0.00
  -12    4   19     -1.51      0.00
  -10    4   19      0.87      0.00
  -11    5   19     -0.67      0.00
   20    0    0      1.22      0.00
   19    1    0      0.81      0.00
   20    2    0      0.62      0.00
   19    3    0     -0.58      0.00
   17   13    0     -1.60      0.00
   14   18    0     -1.64      0.00
   13   19    0     -1.09      0.00
   12   20    0     -0.81      0.00
   11   21    0     -1.12      0.00
    6   24    0      2.36      0.00
    1   25    0      0.57      0.00
  -20    0    1     -0.21      0.00
   18    0    1      2.09      0.00
   19    1    1      0.82      0.00
  -20    2    1     -0.66      0.00
   18    2    1      1.54      0.00
   19    3    1      0.60      0.00
   18    4    1      0.62      0.00
   19    5    1      0.38      0.00
  -20    6    1      0.08      0.00
  -18   12    1     -0.51      0.00
   16   14    1      0.37      0.00
  -16   16    1     -0.08      0.00
  -10   22    1      0.24      0.00
   -6   24    1      0.98      0.00
   -1   25    1     -0.70      0.00
    1   25    1     -1.34      0.00
  -20    0    2      2.75      0.00
   18    0    2     -0.58      0.00
  -21    1    2      1.90      0.00
  -20    2    2      1.60      0.00
   18    2    2     -0.86      0.00
  -20    8    2      2.57      0.00
  -19   11    2      2.00      0.00
  -17   15    2      0.46      0.00
   14   16    2     -3.23      0.00
   -9   23    2      0.32      0.00
    4   24    2      0.46      0.00
   -1   25    2     -0.09      0.00
   18    0    3      2.39      0.00
  -21    1    3     -0.16      0.00
   17    1    3      4.04      0.00
   18    2    3      2.35      0.00
   17    3    3      3.13      0.00
  -21    5    3     -0.90      0.00
   15   13    3      0.19      0.00
  -18   14    3     -0.29      0.00
   11   19    3     -0.70      0.00
   10   20    3      0.04      0.00
   -9   23    3      0.42      0.00
   16    0    4     -0.28      0.00
  -21    1    4      1.78      0.00
   17    1    4     -0.61      0.00
   16    2    4     -0.53      0.00
   17    3    4     -0.78      0.00
   16    4    4     -1.43      0.00
  -21    7    4      0.13      0.00
  -19   13    4      0.81      0.00
   -9   23    4     -0.69      0.00
   -6   24    4     -0.47      0.00
    2   24    4     -0.69      0.00
  -22    0    5      2.62      0.00
   16    0    5      0.11      0.00
   15    1    5     -0.98      0.00
   16    2    5     -0.15      0.00
   15    3    5     -2.13      0.00
  -22    4    5      0.85      0.00
   16    4    5     -1.35      0.00
   15    9    5     -0.80      0.00
   10   18    5     -1.82      0.00
  -15   19    5     -0.37      0.00
    8   20    5     -0.57      0.00
   -9   23    5     -1.45      0.00
    3   23    5     -0.19      0.00
   -6   24    5     -1.22      0.00
    0   24    5      0.61      0.00
  -22    0    6      2.20      0.00
   14    0    6      2.04      0.00
   15    1    6      0.37      0.00
   14    2    6      1.36      0.00
   15    3    6     -0.05      0.00
   14    4    6      0.32      0.00
  -21    9    6      0.26      0.00
  -20   12    6      1.34      0.00
   12   14    6      2.53      0.00
  -16   18    6      0.75      0.00
  -15   19    6     -0.16      0.00
    4   22    6     -0.78      0.00
  -22    0    7      2.57      0.00
   14    0    7     -1.86      0.00
   13    1    7     -2.66      0.00
   14    2    7     -2.18      0.00
   13    3    7     -3.51      0.00
   14    4    7     -3.03      0.00
  -22    6    7      0.52      0.00
   14    6    7     -3.43      0.00
   12   10    7     -0.63      0.00
  -20   12    7      1.05      0.00
   12   12    7     -0.54      0.00
  -16   18    7     -0.72      0.00
  -15   19    7     -1.13      0.00
   -7   23    7     -1.03      0.00
   -1   23    7     -0.10      0.00
  -22    0    8      1.56      0.00
   12    0    8      1.70      0.00
   13    1    8      1.71      0.00
  -22    2    8      1.81      0.00
   12    2    8      0.76      0.00
   13    3    8      0.82      0.00
  -22    4    8      1.89      0.00
   12    4    8     -0.30      0.00
  -22    6    8      1.04      0.00
    9   15    8     -1.03      0.00
  -16   18    8     -0.38      0.00
    0   22    8      0.16      0.00
   12    0    9     -0.61      0.00
  -23    1    9      0.83      0.00
   11    1    9     -0.97      0.00
  -22    2    9      2.08      0.00
   12    2    9     -0.66      0.00
   11    3    9     -1.23      0.00
  -22    4    9      1.96      0.00
  -21    5    9      1.75      0.00
  -22    6    9      0.64      0.00
  -21    7    9     -0.27      0.00
   11    9    9      0.81      0.00
  -20   10    9     -0.36      0.00
    9   13    9      1.15      0.00
    8   14    9      1.47      0.00
  -11   21    9     -0.02      0.00
   -8   22    9     -1.24      0.00
   10    0   10     -0.89      0.00
  -23    1   10      1.71      0.00
   11    1   10     -0.37      0.00
  -22    2   10      2.96      0.00
   10    2   10     -1.39      0.00
   11    3   10     -0.80      0.00
  -22    4   10      3.65      0.00
   10    4   10     -1.69      0.00
  -21    5   10      3.22      0.00
   11    5   10     -0.94      0.00
  -22    6   10      2.73      0.00
   10    6   10     -1.51      0.00
    9    7   10     -2.03      0.00
   10    8   10     -1.83      0.00
    9    9   10     -3.13      0.00
    9   11   10     -2.85      0.00
  -20   12   10      0.22      0.00
    8   12   10     -2.87      0.00
    7   13   10     -2.24      0.00
  -12   20   10      0.18      0.00
  -22    0   11      0.23      0.00
   10    0   11      1.55      0.00
    9    1   11      3.31      0.00
  -22    2   11      0.54      0.00
   10    2   11      1.30      0.00
    9    3   11      2.66      0.00
  -22    4   11      1.01      0.00
  -21    5   11      0.29      0.00
    9    5   11      2.15      0.00
  -22    6   11      0.24      0.00
    8    6   11      2.58      0.00
    9    7   11      1.39      0.00
    8    8   11      0.88      0.00
    6   10   11     -0.99      0.00
    8   10   11     -0.09      0.00
    7   11   11     -0.57      0.00
    6   12   11     -0.75      0.00
    5   13   11     -0.97      0.00
    5   15   11     -0.86      0.00
    4   16   11     -0.79      0.00
    3   17   11     -0.55      0.00
  -13   19   11      0.56      0.00
   -2   20   11     -0.43      0.00
  -22    0   12      0.94      0.00
    8    0   12      1.37      0.00
    7    1   12      1.31      0.00
  -22    2   12      1.15      0.00
    8    2   12      1.58      0.00
    7    3   12      2.17      0.00
  -22    4   12      1.55      0.00
    8    4   12      1.80      0.00
  -21    5   12      1.75      0.00
    7    5   12      2.45      0.00
  -22    6   12      0.86      0.00
    8    6   12      1.31      0.00
    7    7   12      1.32      0.00
  -21    9   12     -1.13      0.00
    5    9   12      1.17      0.00
    7    9   12      0.02      0.00
    6   10   12      0.22      0.00
    5   11   12      0.95      0.00
    4   12   12      1.40      0.00
    3   13   12      1.29      0.00
    5   13   12      0.96      0.00
  -18   14   12      1.42      0.00
    2   14   12      1.12      0.00
    4   14   12      0.89      0.00
  -17   15   12      1.67      0.00
    1   15   12      0.85      0.00
    3   15   12      0.75      0.00
  -16   16   12      1.40      0.00
    0   16   12     -0.14      0.00
    2   16   12      0.64      0.00
  -15   17   12      1.15      0.00
   -1   17   12     -1.58      0.00
    1   17   12      0.01      0.00
   -4   18   12     -0.49      0.00
   -2   18   12     -2.08      0.00
  -11   19   12      0.81      0.00
   -5   19   12      0.61      0.00
   -3   19   12     -0.99      0.00
  -22    0   13      1.85      0.00
  -20    0   13      1.28      0.00
    6    0   13     -0.72      0.00
    7    1   13      0.12      0.00
  -22    2   13      1.82      0.00
    6    2   13      0.40      0.00
  -21    3   13      2.29      0.00
    7    3   13      1.02      0.00
  -22    4   13      1.84      0.00
    6    4   13      1.86      0.00
  -21    5   13      1.78      0.00
    6    6   13      1.69      0.00
    4    8   13      1.73      0.00
    6    8   13      0.70      0.00
    3    9   13      0.60      0.00
    5    9   13      1.10      0.00
  -20   10   13     -0.27      0.00
    4   10   13      0.97      0.00
    3   11   13      0.21      0.00
    2   12   13     -0.36      0.00
    4   12   13      0.40      0.00
   -1   13   13      0.13      0.00
    1   13   13     -0.03      0.00
    3   13   13     -0.12      0.00
    0   14   13      0.69      0.00
    2   14   13     -0.04      0.00
   -1   15   13      0.85      0.00
    1   15   13      0.68      0.00
   -4   16   13      1.33      0.00
   -2   16   13      0.46      0.00
    0   16   13      1.02      0.00
   -3   17   13      0.40      0.00
   -4   18   13      0.87      0.00
  -22    0   14      1.33      0.00
  -20    0   14      0.34      0.00
    4    0   14      0.16      0.00
  -21    1   14      1.18      0.00
    5    1   14     -0.25      0.00
  -22    2   14      1.27      0.00
    4    2   14      1.36      0.00
  -21    3   14      1.59      0.00
    5    3   14      1.38      0.00
    4    4   14      2.67      0.00
    5    5   14      1.76      0.00
    4    6   14      2.40      0.00
    3    7   14      2.39      0.00
    2    8   14      1.75      0.00
    4    8   14      1.87      0.00
    1    9   14      0.59      0.00
    3    9   14      2.00      0.00
    0   10   14     -0.72      0.00
    2   10   14      1.29      0.00
  -19   11   14      0.30      0.00
    1   11   14      0.26      0.00
  -18   12   14      0.95      0.00
    0   12   14     -0.46      0.00
    2   12   14      0.80      0.00
   -1   13   14     -0.75      0.00
    1   13   14      0.04      0.00
   -2   14   14     -0.87      0.00
    0   14   14     -0.50      0.00
  -15   15   14      0.50      0.00
   -3   15   14     -0.84      0.00
   -1   15   14     -1.00      0.00
   -4   16   14     -0.39      0.00
  -11   17   14      0.72      0.00
   -5   17   14      0.41      0.00
  -20    0   15     -0.14      0.00
    2    0   15     -0.04      0.00
    4    0   15     -0.64      0.00
  -21    1   15     -0.06      0.00
  -19    1   15     -0.33      0.00
    3    1   15     -0.15      0.00
    2    2   15      0.61      0.00
    4    2   15      0.33      0.00
  -21    3   15      0.88      0.00
    3    3   15      0.93      0.00
    3    5   15      0.69      0.00
    0    6   15      1.02      0.00
    2    6   15      0.14      0.00
    1    7   15      0.07      0.00
    2    8   15     -0.56      0.00
    1    9   15     -0.56      0.00
    0   10   15     -0.41      0.00
   -1   11   15     -0.09      0.00
   -2   12   15      0.41      0.00
  -13   15   15     -1.06      0.00
  -10   16   15     -0.67      0.00
   -8   16   15      0.10      0.00
  -20    0   16      2.06      0.00
    0    0   16      3.17      0.00
    2    0   16      1.52      0.00
    1    1   16      2.72      0.00
  -20    2   16      1.93      0.00
    2    2   16      1.84      0.00
    1    3   16      2.60      0.00
   -1    5   16      1.60      0.00
    1    5   16      1.54      0.00
    0    6   16      1.26      0.00
   -1    7   16      0.53      0.00
   -2    8   16     -0.27      0.00
    0    8   16      0.03      0.00
  -12   14   16     -0.05      0.00
   -8   14   16     -0.98      0.00
   -2    0   17     -1.08      0.00
    0    0   17      0.49      0.00
   -1    1   17      0.05      0.00
   -2    2   17     -0.60      0.00
   -1    3   17      0.44      0.00
   -2    4   17      0.39      0.00
   -1    5   17      0.75      0.00
   -2    6   17      0.97      0.00
   -3    9   17     -0.21      0.00
   -4   10   17     -0.31      0.00
  -12   12   17      1.03      0.00
  -10   12   17      0.79      0.00
   -8   12   17      1.11      0.00
  -18    0   18      0.18      0.00
   -4    0   18     -0.28      0.00
   -5    1   18      0.03      0.00
   -3    1   18     -0.48      0.00
  -18    2   18     -0.37      0.00
   -4    2   18      0.13      0.00
   -3    3   18     -0.13      0.00
   -4    4   18      0.88      0.00
  -17    5   18      0.33      0.00
   -5    7   18      1.23      0.00
   -6    8   18      0.60      0.00
  -13    9   18     -3.26      0.00
  -15    1   19     -1.06      0.00
   -7    1   19     -0.53      0.00
  -15    3   19     -1.43      0.00
   -7    3   19      0.24      0.00
  -14    4   19     -1.31      0.00
   -8    4   19      1.19      0.00
  -13    5   19     -1.39      0.00
   -9    5   19      1.44      0.00
    0    0    0      0.00      0.00
# SQUEEZE RESULTS (Version = 220719)
# Note: Data are Listed for all Voids in the P1 Unit Cell
# i.e. Centre of Gravity, Solvent Accessible Volume,
# Recovered number of Electrons in the Void and
# Details about the Squeezed Material
loop_
  _platon_squeeze_void_nr
  _platon_squeeze_void_average_x
  _platon_squeeze_void_average_y
  _platon_squeeze_void_average_z
  _platon_squeeze_void_volume
  _platon_squeeze_void_count_electrons
  _platon_squeeze_void_content
   1  0.000  0.000  0.000       145        28 ' '
   2  0.500  0.500  0.000       145        28 ' '
   3  0.000  0.000  0.500        36        19 ' '
   4  0.500  0.500  0.500        36        19 ' '
_platon_squeeze_void_probe_radius                  1.20
_platon_squeeze_details
)
TITL 2                C 1 2/m 1    R = 0.08
CELL   15.5819   16.9947   13.2208     90.00    119.41     90.00
SPGR C2/m
# Solvent Accessible Volume =       362
# Electrons Found in S.A.V. =        94
# Note: Atoms in Void are Labelled as Cxxx and Qxxx for all Others
C101 0.539 0.502 0.406 !      13.00 eA-3
Q102 1.000 0.500 0.500 !       4.37 eA-3
Q103 0.748 0.500 0.172 !       2.68 eA-3
Q104 0.032 0.469 0.257 !       2.32 eA-3
C105 0.472 0.501 0.031 !       2.29 eA-3
Q106 0.435 0.077 0.249 !       2.07 eA-3
Q107 0.799 0.495 0.266 !       2.03 eA-3
C108 0.998 0.030 0.021 !       2.00 eA-3
Q109 0.394 0.065 0.163 !       1.78 eA-3
Q110 0.265 0.501 0.500 !       1.71 eA-3
C111 0.470 0.494 0.890 !       1.67 eA-3
Q112 0.996 0.488 0.746 !       1.53 eA-3
Q113 0.256 0.486 0.197 !       1.50 eA-3
C114 0.569 0.466 0.964 !       1.41 eA-3
C115 1.000 0.078-0.007 !       1.30 eA-3
Q116 0.872 0.407 0.686 !       1.15 eA-3
Q117 0.303 0.089 0.531 !       1.14 eA-3
Q118 0.769 0.497 0.453 !       1.12 eA-3
Q119 0.474 0.498 0.375 !       1.11 eA-3
Q120 0.827 0.360 0.539 !       1.10 eA-3
Q121 0.096 0.282 0.642 !       1.09 eA-3
Q122 0.858 0.441 0.670 !       1.09 eA-3
Q123 0.074 0.424 0.326 !       1.08 eA-3
Q124 0.512 0.499 0.688 !       1.01 eA-3
Q125 0.043 0.469 0.129 !       1.01 eA-3
Q126 0.378 0.493 0.734 !       1.00 eA-3
Q127 0.248 0.123 0.378 !       0.98 eA-3
C128 0.425 0.510 0.797 !       0.97 eA-3
Q129 0.592 0.157 0.647 !       0.96 eA-3
Q130 0.390 0.502 0.563 !       0.95 eA-3
Q131 0.626 0.201 0.502 !       0.94 eA-3
Q132 0.762 0.121 0.656 !       0.94 eA-3
Q133 0.422 0.173 0.527 !       0.94 eA-3
Q134 0.302 0.096 0.475 !       0.93 eA-3
Q135 0.397 0.504 0.953 !       0.92 eA-3
Q136 0.497 0.220 0.763 !       0.91 eA-3
Q137 0.134 0.502 0.406 !       0.90 eA-3
Q138 0.178 0.408 0.682 !       0.89 eA-3
Q139 0.285 0.095 0.367 !       0.88 eA-3
C140 0.491 0.465 0.121 !       0.88 eA-3
Q141 0.622 0.205 0.436 !       0.86 eA-3
Q142 0.306 0.118 0.229 !       0.85 eA-3
Q143 0.377 0.500 0.656 !       0.85 eA-3
Q144 0.194 0.601 0.761 !       0.84 eA-3
Q145 0.090 0.504 0.110 !       0.84 eA-3
Q146 0.911 0.501 0.953 !       0.83 eA-3
Q147 0.903 0.496 0.719 !       0.82 eA-3
Q148 0.063 0.175 0.795 !       0.81 eA-3
Q149 0.357 0.499 0.453 !       0.81 eA-3
Q150 0.529 0.312 0.477 !       0.80 eA-3
Q151 0.286 0.311 0.089 !       0.80 eA-3
C152 0.965 0.077 0.914 !       0.78 eA-3
Q153 0.282 0.502 0.125 !       0.76 eA-3
Q154 0.402 0.426 0.285 !       0.75 eA-3
Q155 0.206 0.501 0.500 !       0.74 eA-3
Q156 0.951 0.111 0.952 !       0.73 eA-3
Q157 0.892 0.343 0.530 !       0.72 eA-3
Q158 0.795 0.016 0.066 !       0.72 eA-3
Q159 0.402 0.220 0.528 !       0.72 eA-3
Q160 0.997 0.298 0.477 !       0.71 eA-3
Q161 0.341 0.376 0.156 !       0.71 eA-3
Q162 0.224 0.495 0.109 !       0.70 eA-3
Q163 0.183 0.079 0.737 !       0.69 eA-3
Q164 0.116 0.501 0.766 !       0.69 eA-3
Q165 0.737 0.327 0.563 !       0.68 eA-3
Q166 0.373 0.611 0.239 !       0.68 eA-3
Q167 0.873 0.111 0.239 !       0.68 eA-3
Q168 0.656 0.402 0.797 !       0.68 eA-3
Q169 0.453 0.251 0.869 !       0.66 eA-3
Q170 0.576 0.362 0.673 !       0.66 eA-3
Q171 0.107 0.173 0.404 !       0.66 eA-3
Q172 0.937 0.502 0.094 !       0.65 eA-3
Q173 0.404 0.436 0.844 !       0.65 eA-3
Q174 0.787 0.029 0.273 !       0.63 eA-3
Q175 0.009 0.141 0.189 !       0.63 eA-3
Q176 0.845 0.405 0.627 !       0.62 eA-3
Q177 0.013 0.129 0.099 !       0.62 eA-3
Q178 0.250 0.250 0.000 !       0.62 eA-3
Q179 0.237 0.455 0.479 !       0.62 eA-3
Q180 0.500 0.281 0.507 !       0.61 eA-3
Q181 0.621 0.291 0.764 !       0.61 eA-3
Q182 0.953 0.064 0.201 !       0.61 eA-3
Q183 0.734 0.314 0.141 !       0.60 eA-3
Q184 0.950 0.284 0.077 !       0.60 eA-3
Q185 0.793 0.378 0.160 !       0.60 eA-3
Q186 0.950 0.061 0.692 !       0.60 eA-3
Q187 0.155 0.138 0.967 !       0.60 eA-3
Q188 1.007 0.236 0.561 !       0.59 eA-3
Q189 0.670 0.497 0.984 !       0.59 eA-3
Q190 0.625 0.331 0.831 !       0.58 eA-3
Q191 0.516 0.326 0.272 !       0.58 eA-3
Q192 0.421 0.278 0.786 !       0.58 eA-3
Q193 0.061 0.108 0.717 !       0.58 eA-3
Q194 0.311 0.492 0.375 !       0.58 eA-3
Q195 0.284 0.498 0.922 !       0.58 eA-3
Q196 0.092 0.171 0.636 !       0.57 eA-3
Q197 0.312 0.498 0.688 !       0.57 eA-3
Q198 0.953 0.281 0.146 !       0.57 eA-3
Q199 0.404 0.397 0.183 !       0.56 eA-3
)
;
_shelx_fab_checksum              53608
_olex2_submission_special_instructions 'No special instructions were received'
loop_
_space_group_symop_operation_xyz
'x, y, z'
'-x, y, -z'
'x+1/2, y+1/2, z'
'-x+1/2, y+1/2, -z'
'-x, -y, -z'
'x, -y, z'
'-x+1/2, -y+1/2, -z'
'x+1/2, -y+1/2, z'
loop_
_atom_site_label
_atom_site_type_symbol
_atom_site_fract_x
_atom_site_fract_y
_atom_site_fract_z
_atom_site_U_iso_or_equiv
_atom_site_adp_type
_atom_site_occupancy
_atom_site_site_symmetry_order
_atom_site_calc_flag
_atom_site_refinement_flags_posn
_atom_site_refinement_flags_adp
_atom_site_refinement_flags_occupancy
_atom_site_disorder_assembly
_atom_site_disorder_group
Mo1 Mo 0.500000 0.79023(3) 0.500000 0.04037(14) Uani 1 2 d S T P . .
Mo2 Mo 0.68875(3) 0.89590(2) 0.48037(4) 0.04213(12) Uani 1 1 d . . . . .
Mo3 Mo 0.68142(3) 0.89510(2) 0.74538(4) 0.04451(12) Uani 1 1 d . . . . .
Mo4 Mo 0.50672(5) 1.000000 0.23574(6) 0.0591(2) Uani 1 2 d S T P . .
Cu1 Cu 0.750000 0.750000 1.000000 0.0697(3) Uani 1 2 d S . P . .
P1 P 0.500000 1.000000 0.500000 0.0211(3) Uani 1 4 d S T P . .
O4 O 0.5937(3) 0.8131(3) 0.6580(4) 0.0790(14) Uani 1 1 d . . . . .
O6 O 0.7405(5) 1.000000 0.5080(5) 0.079(2) Uani 1 2 d S T P . .
O3 O 0.7772(3) 0.8471(3) 0.4741(4) 0.0724(12) Uani 1 1 d . . . . .
O2 O 0.7646(3) 0.8452(2) 0.8606(3) 0.0644(11) Uani 1 1 d . . . . .
O5 O 0.7331(3) 0.8909(3) 0.6450(3) 0.0677(12) Uani 1 1 d . . . . .
O1 O 0.7450(3) 0.6609(3) 0.9051(4) 0.0769(13) Uani 1 1 d . . . . .
O7 O 0.7295(5) 1.000000 0.7851(8) 0.093(3) Uani 1 2 d S T P . .
O8 O 0.5126(5) 1.000000 0.1149(5) 0.098(3) Uani 1 2 d S T P . .
N1 N 0.6075(3) 0.7461(3) 0.9029(4) 0.0578(12) Uani 1 1 d . . . . .
O9 O 0.6004(3) 0.8143(3) 0.4642(4) 0.0787(14) Uani 1 1 d . . . . .
O10 O 0.6052(4) 0.9242(3) 0.3262(4) 0.0918(17) Uani 1 1 d . . . . .
O11 O 0.500000 0.6930(3) 0.500000 0.083(2) Uani 1 2 d S T P . .
N2 N 0.4438(4) 0.7865(3) 0.8408(5) 0.0717(15) Uani 1 1 d . . . . .
C1 C 0.4756(4) 0.6800(4) 0.7456(6) 0.0688(17) Uani 1 1 d . . . . .
H1 H 0.451623 0.641738 0.687805 0.083 Uiso 1 1 calc R U . . .
O12 O 0.5888(4) 0.9227(3) 0.7940(6) 0.104(2) Uani 1 1 d . . . . .
C2 C 0.5758(4) 0.6891(3) 0.8219(5) 0.0600(15) Uani 1 1 d . . . . .
C3 C 0.4141(4) 0.7306(4) 0.7605(6) 0.0708(19) Uani 1 1 d . . . . .
H3 H 0.346711 0.725450 0.710679 0.085 Uiso 1 1 calc R U . . .
C4 C 0.5420(4) 0.7922(4) 0.9093(5) 0.0673(18) Uani 1 1 d . . . . .
H4 H 0.565619 0.831531 0.965394 0.081 Uiso 1 1 calc R U . . .
C7 C 0.6583(4) 0.6427(4) 0.8282(7) 0.0714(18) Uani 1 1 d . . . . .
N3 N 0.6499(15) 0.5813(17) 0.7823(13) 0.078(6) Uani 0.5 1 d . . P A 1
H3A H 0.591679 0.566691 0.731182 0.094 Uiso 0.5 1 calc R U P A 1
O13 O 0.5667(5) 1.000000 0.6361(6) 0.0264(15) Uani 0.5 2 d S T P . .
O14 O 0.5720(5) 1.000000 0.4519(6) 0.0276(15) Uani 0.5 2 d S T P . .
O15 O 0.5613(4) 1.0735(3) 0.5361(4) 0.0282(11) Uani 0.5 1 d . . P . .
C6 C 0.7363(11) 0.5259(8) 0.8081(16) 0.085(5) Uani 0.5 1 d . . P A 1
H6A H 0.758553 0.541016 0.754055 0.102 Uiso 0.5 1 calc R U P A 1
H6B H 0.788573 0.541010 0.884494 0.102 Uiso 0.5 1 calc R U P A 1
C6A C 0.7083(13) 0.5421(12) 0.7266(19) 0.108(7) Uani 0.5 1 d . . P A 2
H6AA H 0.770802 0.558606 0.791284 0.129 Uiso 0.5 1 calc R U P A 2
H6AB H 0.708352 0.558603 0.656438 0.129 Uiso 0.5 1 calc R U P A 2
N16 N 0.6346(17) 0.5859(15) 0.7331(13) 0.076(5) Uani 0.5 1 d . . P A 2
H16 H 0.574152 0.579475 0.680498 0.091 Uiso 0.5 1 calc R U P A 2
loop_
_atom_site_aniso_label
_atom_site_aniso_U_11
_atom_site_aniso_U_22
_atom_site_aniso_U_33
_atom_site_aniso_U_23
_atom_site_aniso_U_13
_atom_site_aniso_U_12
Mo1 0.0368(3) 0.0224(2) 0.0527(3) 0.000 0.0148(3) 0.000
Mo2 0.0322(2) 0.0418(2) 0.0535(3) -0.00411(17) 0.02191(19) 0.00924(15)
Mo3 0.0343(2) 0.0410(2) 0.0457(2) 0.01834(17) 0.00994(18) 0.00814(16)
Mo4 0.0518(4) 0.0993(6) 0.0367(3) 0.000 0.0297(3) 0.000
Cu1 0.0332(5) 0.0809(7) 0.0632(6) 0.0269(5) -0.0008(4) -0.0140(4)
P1 0.0208(8) 0.0175(7) 0.0236(9) 0.000 0.0100(7) 0.000
O4 0.058(3) 0.117(4) 0.055(2) -0.005(2) 0.022(2) -0.043(3)
O6 0.114(5) 0.037(3) 0.041(3) 0.000 0.002(3) 0.000
O3 0.043(2) 0.075(3) 0.105(3) -0.033(2) 0.041(2) 0.0038(19)
O2 0.044(2) 0.071(3) 0.054(2) 0.0284(19) 0.0049(17) -0.0002(18)
O5 0.052(2) 0.101(3) 0.047(2) -0.010(2) 0.0220(19) -0.036(2)
O1 0.042(2) 0.076(3) 0.088(3) 0.018(2) 0.013(2) -0.012(2)
O7 0.103(5) 0.040(3) 0.200(8) 0.000 0.122(6) 0.000
O8 0.074(4) 0.191(8) 0.035(3) 0.000 0.032(3) 0.000
N1 0.037(2) 0.065(3) 0.054(3) 0.027(2) 0.009(2) -0.011(2)
O9 0.056(3) 0.115(4) 0.059(2) -0.019(2) 0.023(2) -0.040(2)
O10 0.105(4) 0.064(3) 0.044(2) -0.012(2) -0.011(2) 0.002(3)
O11 0.115(6) 0.028(3) 0.120(5) 0.000 0.068(5) 0.000
N2 0.044(3) 0.089(4) 0.066(3) 0.026(3) 0.014(2) -0.010(3)
C1 0.041(3) 0.066(4) 0.073(4) 0.013(3) 0.008(3) -0.018(3)
O12 0.096(4) 0.064(3) 0.210(6) 0.014(3) 0.119(4) -0.001(3)
C2 0.039(3) 0.058(3) 0.064(3) 0.025(3) 0.011(3) -0.009(2)
C3 0.036(3) 0.081(4) 0.067(4) 0.026(3) 0.003(3) -0.018(3)
C4 0.051(3) 0.083(4) 0.053(3) 0.027(3) 0.014(3) -0.017(3)
C7 0.047(3) 0.064(4) 0.088(5) 0.017(4) 0.022(3) -0.014(3)
N3 0.038(7) 0.107(13) 0.063(11) -0.025(12) 0.005(8) -0.024(7)
O13 0.024(4) 0.032(4) 0.020(3) 0.000 0.009(3) 0.000
O14 0.027(4) 0.031(4) 0.023(4) 0.000 0.011(3) 0.000
O15 0.026(2) 0.022(2) 0.031(3) -0.003(2) 0.010(2) -0.004(2)
C6 0.051(8) 0.074(12) 0.117(13) -0.015(8) 0.031(9) 0.000(6)
C6A 0.063(11) 0.138(16) 0.129(16) 0.038(13) 0.053(12) 0.003(10)
N16 0.062(10) 0.071(8) 0.062(11) -0.011(10) 0.006(9) -0.020(7)
loop_
_atom_type_symbol
_atom_type_description
_atom_type_scat_dispersion_real
_atom_type_scat_dispersion_imag
_atom_type_scat_source
C C 0.0033 0.0016 'International Tables Vol C Tables 4.2.6.8 and 6.1.1.4'
H H 0.0000 0.0000 'International Tables Vol C Tables 4.2.6.8 and 6.1.1.4'
Cu Cu 0.3201 1.2651 'International Tables Vol C Tables 4.2.6.8 and 6.1.1.4'
Mo Mo -1.6832 0.6857 'International Tables Vol C Tables 4.2.6.8 and 6.1.1.4'
N N 0.0061 0.0033 'International Tables Vol C Tables 4.2.6.8 and 6.1.1.4'
O O 0.0106 0.0060 'International Tables Vol C Tables 4.2.6.8 and 6.1.1.4'
P P 0.1023 0.0942 'International Tables Vol C Tables 4.2.6.8 and 6.1.1.4'
loop_
_geom_angle_atom_site_label_1
_geom_angle_atom_site_label_2
_geom_angle_atom_site_label_3
_geom_angle
_geom_angle_site_symmetry_1
_geom_angle_site_symmetry_3
_geom_angle_publ_flag
O4 Mo1 O4 156.5(3) 2_656 . ?
O4 Mo1 O15 92.1(2) . 5_676 ?
O4 Mo1 O15 65.22(18) 2_656 5_676 ?
O4 Mo1 O15 92.1(2) 2_656 6_575 ?
O4 Mo1 O15 65.22(19) . 6_575 ?
O9 Mo1 O4 87.9(2) 2_656 . ?
O9 Mo1 O4 87.93(19) . 2_656 ?
O9 Mo1 O4 87.01(17) 2_656 2_656 ?
O9 Mo1 O4 87.01(17) . . ?
O9 Mo1 O9 155.0(3) . 2_656 ?
O9 Mo1 O15 92.2(2) 2_656 6_575 ?
O9 Mo1 O15 63.5(2) 2_656 5_676 ?
O9 Mo1 O15 92.2(2) . 5_676 ?
O9 Mo1 O15 63.5(2) . 6_575 ?
O11 Mo1 O4 101.75(15) . . ?
O11 Mo1 O4 101.75(16) . 2_656 ?
O11 Mo1 O9 102.53(16) . 2_656 ?
O11 Mo1 O9 102.52(16) . . ?
O11 Mo1 O15 160.22(12) . 6_575 ?
O11 Mo1 O15 160.22(12) . 5_676 ?
O15 Mo1 O15 39.6(2) 5_676 6_575 ?
O6 Mo2 O5 86.6(2) . . ?
O6 Mo2 O14 64.4(3) . . ?
O6 Mo2 O15 94.2(3) . 6_575 ?
O3 Mo2 O6 101.0(3) . . ?
O3 Mo2 O5 100.9(2) . . ?
O3 Mo2 O9 101.9(2) . . ?
O3 Mo2 O10 103.1(2) . . ?
O3 Mo2 O14 160.2(2) . . ?
O3 Mo2 O15 158.5(2) . 6_575 ?
O5 Mo2 O14 91.9(2) . . ?
O5 Mo2 O15 64.67(17) . 6_575 ?
O9 Mo2 O6 156.9(3) . . ?
O9 Mo2 O5 86.15(17) . . ?
O9 Mo2 O14 93.9(2) . . ?
O9 Mo2 O15 62.87(19) . 6_575 ?
O10 Mo2 O6 88.5(2) . . ?
O10 Mo2 O5 155.9(2) . . ?
O10 Mo2 O9 89.2(2) . . ?
O10 Mo2 O14 64.9(2) . . ?
O10 Mo2 O15 92.3(2) . 6_575 ?
O14 Mo2 O15 41.30(19) . 6_575 ?
O4 Mo3 O7 157.5(3) . . ?
O4 Mo3 O12 87.0(2) . . ?
O4 Mo3 O13 94.4(2) . . ?
O2 Mo3 O4 100.8(2) . . ?
O2 Mo3 O5 102.5(2) . . ?
O2 Mo3 O7 101.6(3) . . ?
O2 Mo3 O12 101.3(2) . . ?
O2 Mo3 O13 158.4(2) . . ?
O5 Mo3 O4 88.42(17) . . ?
O5 Mo3 O7 89.0(2) . . ?
O5 Mo3 O12 156.2(2) . . ?
O5 Mo3 O13 93.1(2) . . ?
O7 Mo3 O13 63.4(3) . . ?
O12 Mo3 O7 86.4(2) . . ?
O12 Mo3 O13 64.1(2) . . ?
O8 Mo4 O10 101.4(2) . . ?
O8 Mo4 O10 101.4(2) . 6_575 ?
O8 Mo4 O12 102.3(2) . 5_676 ?
O8 Mo4 O12 102.3(2) . 2_656 ?
O8 Mo4 O13 158.9(3) . 5_676 ?
O8 Mo4 O14 156.6(3) . . ?
O10 Mo4 O10 85.0(3) . 6_575 ?
O10 Mo4 O13 94.1(2) . 5_676 ?
O10 Mo4 O13 94.1(2) 6_575 5_676 ?
O10 Mo4 O14 62.41(18) 6_575 . ?
O10 Mo4 O14 62.41(18) . . ?
O12 Mo4 O10 88.2(2) 2_656 . ?
O12 Mo4 O10 156.2(3) 2_656 6_575 ?
O12 Mo4 O10 156.2(3) 5_676 . ?
O12 Mo4 O10 88.3(2) 5_676 6_575 ?
O12 Mo4 O12 88.9(3) 2_656 5_676 ?
O12 Mo4 O13 63.7(2) 5_676 5_676 ?
O12 Mo4 O13 63.7(2) 2_656 5_676 ?
O12 Mo4 O14 94.3(2) 5_676 . ?
O12 Mo4 O14 94.3(2) 2_656 . ?
O13 Mo4 O14 44.4(2) 5_676 . ?
O1 Cu1 O2 89.03(17) 7_667 . ?
O1 Cu1 O2 90.97(17) . . ?
O1 Cu1 O1 180.0 7_667 . ?
O1 Cu1 N1 82.9(2) 7_667 7_667 ?
O1 Cu1 N1 82.9(2) . . ?
O1 Cu1 N1 97.1(2) . 7_667 ?
O1 Cu1 N1 97.1(2) 7_667 . ?
N1 Cu1 O2 88.69(14) 7_667 . ?
N1 Cu1 O2 91.31(14) . . ?
N1 Cu1 N1 180.0 7_667 . ?
O13 P1 O13 180.0(5) 5_676 . ?
O14 P1 O13 105.5(4) 5_676 5_676 ?
O14 P1 O13 74.5(4) . 5_676 ?
O14 P1 O13 105.5(4) . . ?
O14 P1 O13 74.5(4) 5_676 . ?
O14 P1 O14 180.0 5_676 . ?
O15 P1 O13 108.9(2) 6_575 5_676 ?
O15 P1 O13 108.9(2) 5_676 . ?
O15 P1 O13 108.9(2) 2_656 . ?
O15 P1 O13 71.1(2) 6_575 . ?
O15 P1 O13 71.1(2) 2_656 5_676 ?
O15 P1 O13 71.1(2) . . ?
O15 P1 O13 71.1(2) 5_676 5_676 ?
O15 P1 O13 108.9(2) . 5_676 ?
O15 P1 O14 110.4(2) . 5_676 ?
O15 P1 O14 69.6(2) . . ?
O15 P1 O14 69.6(2) 6_575 . ?
O15 P1 O14 69.6(2) 2_656 5_676 ?
O15 P1 O14 110.4(2) 2_656 . ?
O15 P1 O14 110.4(2) 6_575 5_676 ?
O15 P1 O14 69.6(2) 5_676 5_676 ?
O15 P1 O14 110.4(2) 5_676 . ?
O15 P1 O15 180.0 . 5_676 ?
O15 P1 O15 180.0 2_656 6_575 ?
O15 P1 O15 67.4(4) . 2_656 ?
O15 P1 O15 112.6(4) 2_656 5_676 ?
O15 P1 O15 67.4(4) 6_575 5_676 ?
O15 P1 O15 112.6(4) . 6_575 ?
Mo3 O4 Mo1 138.7(3) . . ?
Mo2 O6 Mo2 136.6(4) . 6_575 ?
Mo3 O2 Cu1 132.7(2) . . ?
Mo3 O5 Mo2 139.4(2) . . ?
C7 O1 Cu1 113.4(5) . . ?
Mo3 O7 Mo3 138.7(5) . 6_575 ?
C2 N1 Cu1 113.9(4) . . ?
C4 N1 Cu1 127.2(4) . . ?
C4 N1 C2 119.0(5) . . ?
Mo1 O9 Mo2 141.0(3) . . ?
Mo2 O10 Mo4 140.7(3) . . ?
C3 N2 C4 115.1(6) . . ?
C2 C1 H1 121.9 . . ?
C3 C1 H1 121.9 . . ?
C3 C1 C2 116.1(6) . . ?
Mo4 O12 Mo3 139.1(3) 5_676 . ?
N1 C2 C1 120.1(6) . . ?
N1 C2 C7 111.7(5) . . ?
C1 C2 C7 128.2(6) . . ?
N2 C3 C1 124.7(6) . . ?
N2 C3 H3 117.6 . . ?
C1 C3 H3 117.6 . . ?
N1 C4 N2 125.0(7) . . ?
N1 C4 H4 117.5 . . ?
N2 C4 H4 117.5 . . ?
O1 C7 C2 118.1(7) . . ?
O1 C7 N16 124.3(12) . . ?
C2 C7 N16 117.0(11) . . ?
N3 C7 O1 115.7(12) . . ?
N3 C7 C2 124.7(12) . . ?
C7 N3 H3A 117.9 . . ?
C7 N3 C6 124.2(15) . . ?
C6 N3 H3A 117.9 . . ?
Mo3 O13 Mo3 94.2(2) . 6_575 ?
Mo3 O13 Mo4 92.6(2) 6_575 5_676 ?
Mo3 O13 Mo4 92.6(2) . 5_676 ?
P1 O13 Mo3 123.9(2) . 6_575 ?
P1 O13 Mo3 123.9(2) . . ?
P1 O13 Mo4 121.1(4) . 5_676 ?
Mo2 O14 Mo2 93.4(3) . 6_575 ?
Mo2 O14 Mo4 91.8(2) . . ?
Mo2 O14 Mo4 91.8(2) 6_575 . ?
P1 O14 Mo2 125.3(2) . 6_575 ?
P1 O14 Mo2 125.3(2) . . ?
P1 O14 Mo4 119.9(4) . . ?
Mo1 O15 Mo2 92.09(17) 5_676 6_575 ?
P1 O15 Mo1 126.5(3) . 5_676 ?
P1 O15 Mo2 123.7(3) . 6_575 ?
N3 C6 H6A 105.4 . . ?
N3 C6 H6B 105.4 . . ?
C6 C6 N3 127.8(11) 6_565 . ?
C6 C6 H6A 105.4 6_565 . ?
C6 C6 H6B 105.4 6_565 . ?
H6A C6 H6B 106.0 . . ?
C6A C6A H6AA 106.8 6_565 . ?
C6A C6A H6AB 106.8 6_565 . ?
H6AA C6A H6AB 106.7 . . ?
N16 C6A C6A 122.0(12) . 6_565 ?
N16 C6A H6AA 106.8 . . ?
N16 C6A H6AB 106.8 . . ?
C7 N16 H16 119.1 . . ?
C6A N16 C7 121.8(17) . . ?
C6A N16 H16 119.1 . . ?
loop_
_geom_bond_atom_site_label_1
_geom_bond_atom_site_label_2
_geom_bond_distance
_geom_bond_site_symmetry_2
_geom_bond_publ_flag
Mo1 O4 1.910(4) . ?
Mo1 O4 1.910(4) 2_656 ?
Mo1 O9 1.888(4) . ?
Mo1 O9 1.888(4) 2_656 ?
Mo1 O11 1.652(5) . ?
Mo1 O15 2.461(5) 5_676 ?
Mo1 O15 2.461(5) 6_575 ?
Mo2 O6 1.904(3) . ?
Mo2 O3 1.645(3) . ?
Mo2 O5 1.936(4) . ?
Mo2 O9 1.891(4) . ?
Mo2 O10 1.864(4) . ?
Mo2 O14 2.431(5) . ?
Mo2 O15 2.488(5) 6_575 ?
Mo3 O4 1.896(4) . ?
Mo3 O2 1.668(3) . ?
Mo3 O5 1.861(4) . ?
Mo3 O7 1.905(3) . ?
Mo3 O12 1.904(4) . ?
Mo3 O13 2.434(5) . ?
Mo4 O8 1.644(5) . ?
Mo4 O10 1.909(5) 6_575 ?
Mo4 O10 1.909(5) . ?
Mo4 O12 1.876(5) 5_676 ?
Mo4 O12 1.876(5) 2_656 ?
Mo4 O13 2.466(7) 5_676 ?
Mo4 O14 2.519(7) . ?
Cu1 O2 2.545(4) . ?
Cu1 O1 1.943(5) . ?
Cu1 O1 1.943(5) 7_667 ?
Cu1 N1 1.944(4) 7_667 ?
Cu1 N1 1.945(4) . ?
P1 O13 1.575(7) . ?
P1 O13 1.575(7) 5_676 ?
P1 O14 1.538(7) 5_676 ?
P1 O14 1.538(7) . ?
P1 O15 1.502(5) 6_575 ?
P1 O15 1.502(5) 5_676 ?
P1 O15 1.502(5) 2_656 ?
P1 O15 1.502(5) . ?
O1 C7 1.267(7) . ?
N1 C2 1.344(8) . ?
N1 C4 1.322(8) . ?
N2 C3 1.326(9) . ?
N2 C4 1.345(7) . ?
C1 H1 0.9300 . ?
C1 C2 1.391(7) . ?
C1 C3 1.373(9) . ?
C2 C7 1.475(9) . ?
C3 H3 0.9300 . ?
C4 H4 0.9300 . ?
C7 N3 1.18(3) . ?
C7 N16 1.48(2) . ?
N3 H3A 0.8600 . ?
N3 C6 1.54(3) . ?
C6 C6 0.88(3) 6_565 ?
C6 H6A 0.9700 . ?
C6 H6B 0.9700 . ?
C6A C6A 1.43(4) 6_565 ?
C6A H6AA 0.9700 . ?
C6A H6AB 0.9700 . ?
C6A N16 1.41(3) . ?
N16 H16 0.8600 . ?
loop_
_geom_torsion_atom_site_label_1
_geom_torsion_atom_site_label_2
_geom_torsion_atom_site_label_3
_geom_torsion_atom_site_label_4
_geom_torsion
_geom_torsion_site_symmetry_1
_geom_torsion_site_symmetry_2
_geom_torsion_site_symmetry_3
_geom_torsion_site_symmetry_4
_geom_torsion_publ_flag
Cu1 O1 C7 C2 -0.6(7) . . . . ?
Cu1 O1 C7 N3 -167.2(13) . . . . ?
Cu1 O1 C7 N16 170.0(11) . . . . ?
Cu1 N1 C2 C1 -179.4(4) . . . . ?
Cu1 N1 C2 C7 0.7(6) . . . . ?
Cu1 N1 C4 N2 -179.1(4) . . . . ?
O4 Mo1 O9 Mo2 101.5(4) 2_656 . . . ?
O4 Mo1 O9 Mo2 -55.5(4) . . . . ?
O4 Mo3 O2 Cu1 -51.7(3) . . . . ?
O4 Mo3 O5 Mo2 53.7(4) . . . . ?
O6 Mo2 O9 Mo1 -16.8(8) . . . . ?
O6 Mo2 O10 Mo4 -56.2(5) . . . . ?
O3 Mo2 O9 Mo1 155.7(4) . . . . ?
O3 Mo2 O10 Mo4 -157.2(5) . . . . ?
O2 Mo3 O4 Mo1 -155.1(4) . . . . ?
O2 Mo3 O5 Mo2 154.4(4) . . . . ?
O5 Mo2 O9 Mo1 55.3(4) . . . . ?
O5 Mo2 O10 Mo4 22.0(9) . . . . ?
O5 Mo3 O4 Mo1 -52.6(4) . . . . ?
O5 Mo3 O2 Cu1 -142.5(3) . . . . ?
O1 C7 N3 C6 -2(3) . . . . ?
O1 C7 N16 C6A 5(2) . . . . ?
O7 Mo3 O4 Mo1 31.0(8) . . . . ?
O7 Mo3 O2 Cu1 125.9(3) . . . . ?
O7 Mo3 O5 Mo2 -103.9(4) . . . . ?
N1 C2 C7 O1 -0.1(8) . . . . ?
N1 C2 C7 N3 165.2(14) . . . . ?
N1 C2 C7 N16 -171.4(11) . . . . ?
O9 Mo1 O9 Mo2 23.1(4) 2_656 . . . ?
O9 Mo2 O10 Mo4 100.7(5) . . . . ?
O10 Mo2 O9 Mo1 -101.1(4) . . . . ?
O11 Mo1 O9 Mo2 -156.9(4) . . . . ?
C1 C2 C7 O1 -179.9(6) . . . . ?
C1 C2 C7 N3 -14.6(16) . . . . ?
C1 C2 C7 N16 8.8(13) . . . . ?
O12 Mo3 O4 Mo1 104.0(4) . . . . ?
O12 Mo3 O2 Cu1 37.3(3) . . . . ?
O12 Mo3 O5 Mo2 -25.1(7) . . . . ?
C2 N1 C4 N2 0.7(8) . . . . ?
C2 C1 C3 N2 0.3(9) . . . . ?
C2 C7 N3 C6 -167.4(14) . . . . ?
C2 C7 N16 C6A 176.1(15) . . . . ?
C3 N2 C4 N1 -1.5(8) . . . . ?
C3 C1 C2 N1 -1.2(8) . . . . ?
C3 C1 C2 C7 178.7(6) . . . . ?
C4 N1 C2 C1 0.7(7) . . . . ?
C4 N1 C2 C7 -179.1(5) . . . . ?
C4 N2 C3 C1 1.0(9) . . . . ?
C7 N3 C6 C6 145.5(16) . . . 6_565 ?
O13 Mo3 O4 Mo1 40.4(4) . . . . ?
O13 Mo3 O2 Cu1 82.2(6) . . . . ?
O13 Mo3 O5 Mo2 -40.6(4) . . . . ?
O13 P1 O14 Mo2 -116.8(4) 5_676 . . . ?
O13 P1 O14 Mo2 -63.2(4) . . . 6_575 ?
O13 P1 O14 Mo2 63.2(4) . . . . ?
O13 P1 O14 Mo2 116.8(4) 5_676 . . 6_575 ?
O13 P1 O14 Mo4 0.000(1) 5_676 . . . ?
O13 P1 O14 Mo4 180.000(0) . . . . ?
O13 P1 O15 Mo1 -120.8(4) . . . 5_676 ?
O13 P1 O15 Mo1 59.2(4) 5_676 . . 5_676 ?
O13 P1 O15 Mo2 115.8(4) . . . 6_575 ?
O13 P1 O15 Mo2 -64.2(4) 5_676 . . 6_575 ?
O14 Mo2 O9 Mo1 -36.3(4) . . . . ?
O14 Mo2 O10 Mo4 6.1(4) . . . . ?
O14 P1 O13 Mo3 118.0(3) 5_676 . . . ?
O14 P1 O13 Mo3 -62.0(3) . . . . ?
O14 P1 O13 Mo3 -118.0(3) 5_676 . . 6_575 ?
O14 P1 O13 Mo3 62.0(3) . . . 6_575 ?
O14 P1 O13 Mo4 180.000(0) . . . 5_676 ?
O14 P1 O13 Mo4 0.000(0) 5_676 . . 5_676 ?
O14 P1 O15 Mo1 -56.1(4) 5_676 . . 5_676 ?
O14 P1 O15 Mo1 123.9(4) . . . 5_676 ?
O14 P1 O15 Mo2 0.5(3) . . . 6_575 ?
O14 P1 O15 Mo2 -179.5(3) 5_676 . . 6_575 ?
O15 Mo1 O9 Mo2 36.4(4) 5_676 . . . ?
O15 Mo1 O9 Mo2 8.2(4) 6_575 . . . ?
O15 Mo2 O9 Mo1 -8.1(4) 6_575 . . . ?
O15 Mo2 O10 Mo4 37.9(5) 6_575 . . . ?
O15 P1 O13 Mo3 123.6(5) 6_575 . . 6_575 ?
O15 P1 O13 Mo3 -123.6(5) . . . . ?
O15 P1 O13 Mo3 179.6(3) 2_656 . . . ?
O15 P1 O13 Mo3 -179.6(3) 5_676 . . 6_575 ?
O15 P1 O13 Mo3 -0.4(3) 6_575 . . . ?
O15 P1 O13 Mo3 -56.4(5) 2_656 . . 6_575 ?
O15 P1 O13 Mo3 56.4(5) 5_676 . . . ?
O15 P1 O13 Mo3 0.4(3) . . . 6_575 ?
O15 P1 O13 Mo4 61.6(2) 2_656 . . 5_676 ?
O15 P1 O13 Mo4 -118.4(2) 6_575 . . 5_676 ?
O15 P1 O13 Mo4 -61.6(2) 5_676 . . 5_676 ?
O15 P1 O13 Mo4 118.4(2) . . . 5_676 ?
O15 P1 O14 Mo2 -179.4(3) 2_656 . . . ?
O15 P1 O14 Mo2 125.7(5) . . . . ?
O15 P1 O14 Mo2 -54.3(5) 5_676 . . . ?
O15 P1 O14 Mo2 -0.6(3) . . . 6_575 ?
O15 P1 O14 Mo2 0.6(3) 6_575 . . . ?
O15 P1 O14 Mo2 54.3(5) 2_656 . . 6_575 ?
O15 P1 O14 Mo2 -125.7(5) 6_575 . . 6_575 ?
O15 P1 O14 Mo2 179.4(3) 5_676 . . 6_575 ?
O15 P1 O14 Mo4 62.6(2) 5_676 . . . ?
O15 P1 O14 Mo4 -62.6(2) 2_656 . . . ?
O15 P1 O14 Mo4 -117.4(2) . . . . ?
O15 P1 O14 Mo4 117.4(2) 6_575 . . . ?
O15 P1 O15 Mo1 180.000(0) 6_575 . . 5_676 ?
O15 P1 O15 Mo1 0.000(0) 2_656 . . 5_676 ?
O15 P1 O15 Mo2 -123.3(5) 2_656 . . 6_575 ?
O15 P1 O15 Mo2 56.7(5) 6_575 . . 6_575 ?
C6A C6A N16 C7 121.2(16) 6_565 . . . ?
