#------------------------------------------------------------------------------
#$Date: 2021-07-05 20:38:50 +0300 (Mon, 05 Jul 2021) $
#$Revision: 267178 $
#$URL: file:///home/coder/svn-repositories/cod/cif/7/70/73/7707390.cif $
#------------------------------------------------------------------------------
#
# This file is available in the Crystallography Open Database (COD),
# http://www.crystallography.net/
#
# All data on this site have been placed in the public domain by the
# contributors.
#
data_7707390
loop_
_publ_author_name
'Dissem, Nour'
'Essalhi, Mohamed'
'Ferhi, Najmeddine'
'Abidi, Adela'
'Maris, Thierry'
'Duong, Adam'
_publ_section_title
;
 Flexible and porous 2D layered structures based on mixed-linker
 metal-organic frameworks for gas sorption studies.
;
_journal_issue                   25
_journal_name_full
'Dalton transactions (Cambridge, England : 2003)'
_journal_page_first              8727
_journal_page_last               8735
_journal_paper_doi               10.1039/d1dt00426c
_journal_volume                  50
_journal_year                    2021
_chemical_formula_moiety         'C44 H44 Cu N4 O8'
_chemical_formula_sum            'C44 H44 Cu N4 O8'
_chemical_formula_weight         820.37
_space_group_crystal_system      triclinic
_space_group_IT_number           2
_space_group_name_Hall           '-P 1'
_space_group_name_H-M_alt        'P -1'
_atom_sites_solution_hydrogens   mixed
_atom_sites_solution_primary     dual
_audit_creation_date             2020-01-27
_audit_creation_method
;
Olex2 1.3
(compiled Nov 21 2019 18:26:39 for OlexSys, GUI svn.r6003)
;
_audit_update_record
;
2020-11-22 deposited with the CCDC.	2021-05-13 downloaded from the CCDC.
;
_cell_angle_alpha                81.516(2)
_cell_angle_beta                 80.992(2)
_cell_angle_gamma                72.616(2)
_cell_formula_units_Z            1
_cell_length_a                   7.5883(4)
_cell_length_b                   9.4777(5)
_cell_length_c                   16.8623(10)
_cell_measurement_reflns_used    9950
_cell_measurement_temperature    100
_cell_measurement_theta_max      69.966
_cell_measurement_theta_min      4.918
_cell_volume                     1136.51(11)
_computing_cell_refinement
;
SAINT (2019) V8.40A; Integration Software for Single Crystal Data.
Bruker AXS Inc., Madison, WI 53719-1173.
;
_computing_data_collection
;
APEX 3 (2019) Bruker AXS Inc., Madison, WI 53719-1173.
;
_computing_data_reduction
;
SAINT (2019) V8.40A; Integration Software for Single Crystal Data.
Bruker AXS Inc., Madison, WI 53719-1173.
;
_computing_molecular_graphics    'Olex2 1.3 (Dolomanov et al., 2009)'
_computing_publication_material  'Olex2 1.3 (Dolomanov et al., 2009)'
_computing_structure_refinement  'XL  (Sheldrick, 2008)'
_computing_structure_solution    'SHELXT 2014/5 (Sheldrick, 2014)'
_diffrn_ambient_temperature      100
_diffrn_detector                 'CCD area detector'
_diffrn_detector_area_resol_mean 8.3
_diffrn_detector_type            'Bruker APEX2 CCD'
_diffrn_measured_fraction_theta_full 0.978
_diffrn_measured_fraction_theta_max 0.975
_diffrn_measurement_device       'three-circle diffractometer'
_diffrn_measurement_device_type  'Bruker Smart APEX'
_diffrn_measurement_method       '\w scans'
_diffrn_radiation_collimation    'Focusing mirrors'
_diffrn_radiation_monochromator  'Quazar MX Mirror Optics'
_diffrn_radiation_probe          x-ray
_diffrn_radiation_type           CuK\a
_diffrn_radiation_wavelength     1.54178
_diffrn_reflns_av_R_equivalents  0.0259
_diffrn_reflns_av_unetI/netI     0.0173
_diffrn_reflns_Laue_measured_fraction_full 0.978
_diffrn_reflns_Laue_measured_fraction_max 0.975
_diffrn_reflns_limit_h_max       9
_diffrn_reflns_limit_h_min       -9
_diffrn_reflns_limit_k_max       11
_diffrn_reflns_limit_k_min       -11
_diffrn_reflns_limit_l_max       18
_diffrn_reflns_limit_l_min       -20
_diffrn_reflns_number            23181
_diffrn_reflns_point_group_measured_fraction_full 0.978
_diffrn_reflns_point_group_measured_fraction_max 0.975
_diffrn_reflns_theta_full        67.679
_diffrn_reflns_theta_max         70.108
_diffrn_reflns_theta_min         4.918
_diffrn_source                   'Microfocus Source'
_diffrn_source_target            Cu
_diffrn_source_type              'Incoatec I\mS High Brilliance Microsource'
_exptl_absorpt_coefficient_mu    1.107
_exptl_absorpt_correction_T_max  0.5220
_exptl_absorpt_correction_T_min  0.3966
_exptl_absorpt_correction_type   multi-scan
_exptl_absorpt_process_details
;
SADABS-2016/2 (Bruker,2016/2) was used for absorption correction.
wR2(int) was 0.0748 before and 0.0403 after correction.
The Ratio of minimum to maximum transmission is 0.7598.
The \l/2 correction factor is Not present.
;
_exptl_crystal_colour            'clear light orange'
_exptl_crystal_colour_lustre     clear
_exptl_crystal_colour_modifier   light
_exptl_crystal_colour_primary    orange
_exptl_crystal_density_diffrn    1.199
_exptl_crystal_description       block
_exptl_crystal_F_000             429
_exptl_crystal_size_max          0.17
_exptl_crystal_size_mid          0.12
_exptl_crystal_size_min          0.09
_refine_diff_density_max         0.326
_refine_diff_density_min         -0.307
_refine_diff_density_rms         0.049
_refine_ls_extinction_method     none
_refine_ls_goodness_of_fit_ref   1.047
_refine_ls_hydrogen_treatment    mixed
_refine_ls_matrix_type           full
_refine_ls_number_parameters     263
_refine_ls_number_reflns         4214
_refine_ls_number_restraints     0
_refine_ls_restrained_S_all      1.047
_refine_ls_R_factor_all          0.0343
_refine_ls_R_factor_gt           0.0333
_refine_ls_shift/su_max          0.000
_refine_ls_shift/su_mean         0.000
_refine_ls_structure_factor_coef Fsqd
_refine_ls_weighting_details
'w=1/[\s^2^(Fo^2^)+(0.0553P)^2^+0.4541P] where P=(Fo^2^+2Fc^2^)/3'
_refine_ls_weighting_scheme      calc
_refine_ls_wR_factor_gt          0.0923
_refine_ls_wR_factor_ref         0.0938
_reflns_Friedel_coverage         0.000
_reflns_number_gt                4041
_reflns_number_total             4214
_reflns_threshold_expression     'I > 2\s(I)'
_cod_data_source_file            d1dt00426c2.cif
_cod_data_source_block           ada251
_cod_depositor_comments
;
The following automatic conversions were performed:

data item '_diffrn_radiation_probe' value 'X-ray' was changed to
'x-ray' in accordance with the
/home/data/users/saulius/crontab/automatic-downloads/rss-feeds/RSC/lib/dictionaries/cif_core.dic
dictionary named 'cif_core.dic' version 2.4.2 last updated on
2011-04-26.

Automatic conversion script
Id: cif_fix_values 7556 2019-12-06 15:28:31Z antanas 

 Adding full bibliography for 7707385--7707390.cif.
;
_cod_database_code               7707390
_shelx_shelxl_version_number     2018/3
_shelx_space_group_comment
;
The symmetry employed for this shelxl refinement is uniquely defined
by the following loop, which should always be used as a source of
symmetry information in preference to the above space-group names.
They are only intended as comments.
;
_shelx_estimated_absorpt_t_max   0.907
_shelx_estimated_absorpt_t_min   0.834
_olex2_refinement_description
;
1. Fixed Uiso
 At 1.2 times of:
  All C(H) groups, All C(H,H) groups, All N(H) groups
2.a Ternary CH refined with riding coordinates:
 N1(H1), N2(H2A)
2.b Secondary CH2 refined with riding coordinates:
 C18(H18A,H18B), C19(H19A,H19B), C20(H20A,H20B), C21(H21A,H21B), C22(H22A,H22B)
2.c Aromatic/amide H refined with riding coordinates:
 C1(H1A), C5(H5), C6(H6), C8(H8), C9(H9), C12(H12), C13(H13), C15(H15), C16(H16)
;
_smtbx_masks_void_probe_radius   1.2
_smtbx_masks_void_truncation_radius 1.2
_shelx_res_file
;
TITL ada251_a.res in P-1
    ada251.res
    created by SHELXL-2018/3 at 09:58:50 on 27-Jan-2020
REM Old TITL ada251 in P-1
REM SHELXT solution in P-1
REM R1 0.083, Rweak 0.006, Alpha 0.032, Orientation as input
REM Formula found by SHELXT: C44 N4 O8 Cu
CELL 1.54178 7.5883 9.4777 16.8623 81.516 80.992 72.616
ZERR 1 0.0004 0.0005 0.001 0.002 0.002 0.002
LATT 1
SFAC C H Cu N O
UNIT 44 44 1 4 8
EQIV $1 +X,-1+Y,+Z
EQIV $2 -1+X,-1+Y,+Z
EQIV $3 1-X,1-Y,1-Z

L.S. 30
PLAN  6
SIZE 0.09 0.12 0.17
TEMP -173.15
CONF
HTAB N1 O4_$1
HTAB N2 O4_$2
HTAB C19 O3_$2
HTAB O2 O3_$3
HTAB
BOND $H
list 4
MORE -1
ABIN
fmap 2
acta
REM <olex2.extras>
REM <HklSrc "%.\\ada251.hkl">
REM </olex2.extras>

WGHT    0.055300    0.454100
FVAR       0.77292
CU1   3    0.000000    0.000000    0.500000    10.50000    0.02519    0.02127 =
         0.01765   -0.00018   -0.00290   -0.00607
O1    5    0.188164    0.159820    0.439068    11.00000    0.03499    0.02903 =
         0.01973    0.00115   -0.00086   -0.01338
O2    5    0.189780    0.390084    0.455250    11.00000    0.03699    0.02660 =
         0.01581   -0.00066   -0.00289   -0.00870
O3    5    0.799994    0.651860    0.396831    11.00000    0.03049    0.03605 =
         0.01877   -0.00402   -0.00458   -0.00605
O4    5    0.592743    0.874468    0.373798    11.00000    0.03406    0.02911 =
         0.02236   -0.00473   -0.00309   -0.00994
N1    4    0.225126   -0.165003    0.464495    11.00000    0.02634    0.02221 =
         0.02430   -0.00183   -0.00162   -0.00670
AFIX  13
H1    2    0.325623   -0.117374    0.441089    11.00000   -1.20000
AFIX   0
N2    4   -0.090718   -0.008426    0.395059    11.00000    0.02927    0.02660 =
         0.01784    0.00071   -0.00349   -0.01005
AFIX  13
H2A   2   -0.184287   -0.066158    0.408447    11.00000   -1.20000
AFIX   0
C1    1    0.602780    0.600900   -0.011216    11.00000    0.03224    0.02533 =
         0.02054   -0.00024   -0.00339   -0.01034
AFIX  43
H1A   2    0.672993    0.670747   -0.019033    11.00000   -1.20000
AFIX   0
C2    1    0.537625    0.554068    0.067154    11.00000    0.03105    0.02496 =
         0.01850   -0.00109   -0.00362   -0.00712
C3    1    0.431953    0.451657    0.078543    11.00000    0.03092    0.02467 =
         0.01885    0.00029   -0.00251   -0.00721
C4    1    0.586411    0.606814    0.137768    11.00000    0.03019    0.02830 =
         0.01692   -0.00032   -0.00113   -0.01148
C5    1    0.529610    0.757058    0.149875    11.00000    0.03824    0.02723 =
         0.02089    0.00270   -0.00780   -0.00940
AFIX  43
H5    2    0.467516    0.828635    0.110251    11.00000   -1.20000
AFIX   0
C6    1    0.562727    0.803127    0.219062    11.00000    0.03640    0.02362 =
         0.02270   -0.00191   -0.00393   -0.00758
AFIX  43
H6    2    0.520455    0.905603    0.226952    11.00000   -1.20000
AFIX   0
C7    1    0.657580    0.700402    0.277242    11.00000    0.02669    0.02836 =
         0.01724   -0.00109   -0.00053   -0.01092
C8    1    0.721900    0.551239    0.263321    11.00000    0.02786    0.02666 =
         0.02026    0.00196   -0.00426   -0.00823
AFIX  43
H8    2    0.791274    0.480540    0.301209    11.00000   -1.20000
AFIX   0
C9    1    0.686029    0.504856    0.195076    11.00000    0.03200    0.02432 =
         0.02177   -0.00148   -0.00224   -0.00821
AFIX  43
H9    2    0.729571    0.402480    0.187002    11.00000   -1.20000
AFIX   0
C10   1    0.683924    0.748221    0.355483    11.00000    0.02573    0.02947 =
         0.01781   -0.00135    0.00012   -0.01182
C11   1    0.352646    0.405088    0.161328    11.00000    0.03039    0.02904 =
         0.01621   -0.00023   -0.00472   -0.01145
C12   1    0.237133    0.512114    0.209530    11.00000    0.03108    0.02452 =
         0.01968    0.00161   -0.00530   -0.00762
AFIX  43
H12   2    0.196293    0.612565    0.186806    11.00000   -1.20000
AFIX   0
C13   1    0.181299    0.474277    0.289714    11.00000    0.02636    0.02547 =
         0.02051   -0.00320   -0.00258   -0.00661
AFIX  43
H13   2    0.105255    0.548782    0.322155    11.00000   -1.20000
AFIX   0
C14   1    0.236752    0.326390    0.323044    11.00000    0.02509    0.02663 =
         0.01747   -0.00064   -0.00276   -0.01048
C15   1    0.341996    0.216451    0.274257    11.00000    0.03129    0.02337 =
         0.02055    0.00012   -0.00292   -0.00990
AFIX  43
H15   2    0.374220    0.114961    0.295953    11.00000   -1.20000
AFIX   0
C16   1    0.399425    0.256039    0.193856    11.00000    0.03247    0.02560 =
         0.01951   -0.00440   -0.00039   -0.00906
AFIX  43
H16   2    0.471076    0.181195    0.160712    11.00000   -1.20000
AFIX   0
C17   1    0.200057    0.284584    0.411840    11.00000    0.02170    0.02513 =
         0.02055   -0.00019   -0.00257   -0.00620
C18   1    0.068412   -0.098275    0.343985    11.00000    0.03457    0.03408 =
         0.01910   -0.00459    0.00140   -0.01451
AFIX  23
H18A  2    0.148936   -0.036048    0.316702    11.00000   -1.20000
H18B  2    0.022506   -0.136574    0.302103    11.00000   -1.20000
AFIX   0
C19   1    0.177659   -0.226271    0.397478    11.00000    0.03053    0.02697 =
         0.02743   -0.00726    0.00225   -0.00985
AFIX  23
H19A  2    0.102469   -0.295682    0.419181    11.00000   -1.20000
H19B  2    0.292592   -0.281454    0.366013    11.00000   -1.20000
AFIX   0
C20   1    0.303833   -0.284888    0.526996    11.00000    0.02807    0.02271 =
         0.03283    0.00224   -0.00377   -0.00552
AFIX  23
H20A  2    0.418021   -0.353933    0.502373    11.00000   -1.20000
H20B  2    0.213046   -0.341907    0.547712    11.00000   -1.20000
AFIX   0
C21   1    0.350212   -0.223120    0.596752    11.00000    0.02895    0.02856 =
         0.03235    0.00663   -0.00934   -0.00859
AFIX  23
H21A  2    0.430832   -0.158042    0.574607    11.00000   -1.20000
H21B  2    0.422853   -0.307004    0.631449    11.00000   -1.20000
AFIX   0
C22   1   -0.183520    0.135081    0.350819    11.00000    0.03480    0.03184 =
         0.02266    0.00572   -0.00891   -0.01266
AFIX  23
H22A  2   -0.225061    0.116082    0.301614    11.00000   -1.20000
H22B  2   -0.093702    0.194195    0.333851    11.00000   -1.20000
AFIX   0
H2    2    0.194382    0.363505    0.505695    11.00000    0.07272
HKLF 4




REM  ada251_a.res in P-1
REM wR2 = 0.093754, GooF = S = 1.04651, Restrained GooF = 1.04651 for all data
REM R1 = 0.033282 for 4041 Fo > 4sig(Fo) and 0.034324 for all 4214 data
REM 263 parameters refined using 0 restraints

END

WGHT      0.0553      0.4554

REM Instructions for potential hydrogen bonds
HTAB N1 O4_$1
HTAB N2 O4_$2
HTAB C19 O3_$2
HTAB O2 O3_$3

REM Highest difference peak  0.326,  deepest hole -0.307,  1-sigma level  0.049
Q1    1   0.0987 -0.0952  0.4825  11.00000  0.05    0.33
Q2    1   0.2937  0.2764  0.2991  11.00000  0.05    0.30
Q3    1   0.6658  0.7229  0.3163  11.00000  0.05    0.30
Q4    1  -0.0251 -0.0352  0.4522  11.00000  0.05    0.29
Q5    1   0.5581  0.5847  0.1041  11.00000  0.05    0.29
Q6    1   0.5425  0.6782  0.1470  11.00000  0.05    0.28
;
_shelx_res_checksum              88540
_shelx_hkl_file
;
  -1   0   0  834.12   26.10
  -1   0   0  897.91   26.50
  -1   0   0  874.91   26.60
   1   0   0  898.11   26.30
   1   0   0  885.01   26.60
   1   0   0  818.82   26.40
   1   0   0  828.42   26.60
  -2   0   0 1329.27   40.00
  -2   0   0 1332.07   40.60
  -2   0   0 1339.97   40.30
  -2   0   0 1224.98   39.50
   2   0   0 1336.87   39.90
   2   0   0 1256.77   40.60
   2   0   0 1219.48   40.10
   2   0   0 1331.07   40.60
  -3   0   0    7.50    1.50
  -3   0   0    6.10    1.50
  -3   0   0    7.00    1.70
   3   0   0    9.00    1.60
   3   0   0    7.90    1.70
   3   0   0    8.00    2.10
   3   0   0    6.20    1.40
  -4   0   0   33.10    4.10
  -4   0   0   35.60    4.00
  -4   0   0   39.20    3.80
   4   0   0   35.50    4.00
   4   0   0   34.50    3.70
   4   0   0   34.60    4.00
  -5   0   0  957.70   35.20
   5   0   0 1004.70   36.40
   5   0   0 1085.29   35.40
  -6   0   0   80.29    3.40
  -6   0   0   82.29    3.60
   6   0   0   80.99    3.20
   6   0   0   81.39    3.40
   6   0   0   83.29    3.70
  -7   0   0    3.50    0.90
  -7   0   0    2.10    0.70
   7   0   0    4.10    0.90
   7   0   0    3.70    0.70
  -8   0   0   63.59    2.60
  -8   0   0   58.69    2.40
   8   0   0   59.09    2.50
   8   0   0   57.19    2.70
   8  -1   0   14.10    1.00
   8  -1   0   13.80    1.20
  -8   1   0   14.20    1.00
  -8   1   0   15.40    1.00
   7  -1   0   25.00    1.80
   7  -1   0   23.60    1.80
   7  -1   0   26.40    1.60
  -7   1   0   25.50    1.50
  -7   1   0   24.00    1.60
   6  -1   0   74.99    3.50
   6  -1   0   69.39    3.10
   6  -1   0   71.59    3.50
  -6   1   0   74.49    3.20
   5  -1   0   14.20    3.90
   5  -1   0   16.90    3.30
  -5   1   0   19.60    3.70
  -5   1   0   13.80    3.50
   4  -1   0  259.87   10.80
   4  -1   0  269.07   11.80
   4  -1   0  252.07   10.90
  -4   1   0  237.08   10.90
  -4   1   0  248.28   11.00
  -4   1   0  254.87   11.60
   3  -1   0  676.73   22.80
   3  -1   0  675.93   23.30
   3  -1   0  666.43   22.40
   3  -1   0  640.04   22.30
  -3   1   0  673.03   22.50
  -3   1   0  646.84   22.80
  -3   1   0  655.83   22.60
   2  -1   0  131.19    5.80
   2  -1   0  147.09    5.90
   2  -1   0  136.09    6.00
   2  -1   0  122.89    5.40
  -2   1   0  137.59    5.80
  -2   1   0  128.19    5.70
  -2   1   0  139.39    5.70
   1  -1   0 8927.11  262.07
   1  -1   0 8830.62  262.47
   1  -1   0 8591.94  262.57
   1  -1   0 8384.66  262.07
  -1   1   0 8668.83  262.37
  -1   1   0 9244.98  262.47
  -1   1   0 8824.72  262.37
   0  -1   0  647.74   19.60
   0  -1   0  619.24   19.40
   0  -1   0  646.94   19.60
   0  -1   0  643.14   19.50
   0   1   0  623.34   19.50
   0   1   0  619.54   19.50
   0   1   0  651.83   19.90
   0   1   0  635.24   19.60
  -1  -1   0   58.29    2.70
  -1  -1   0   59.39    2.30
  -1  -1   0   63.19    2.60
   1   1   0   50.19    2.40
   1   1   0   62.49    2.30
   1   1   0   56.49    2.40
   1   1   0   56.19    2.50
   1   1   0   52.29    2.80
  -2  -1   0 7676.73  219.08
  -2  -1   0 7377.86  218.28
  -2  -1   0 7501.35  218.28
   2   1   0 7200.28  218.48
   2   1   0 6886.61  219.08
   2   1   0 7334.57  218.38
   2   1   0 7030.90  218.18
  -3  -1   0    4.80    1.20
  -3  -1   0    0.80    0.70
  -3  -1   0    0.20    0.90
   3   1   0    0.40    0.90
   3   1   0    0.40    0.70
   3   1   0    3.10    1.10
   3   1   0    0.20    0.90
  -4  -1   0  734.23   24.60
  -4  -1   0  689.73   23.70
  -4  -1   0  696.93   24.80
  -4  -1   0  738.93   25.90
   4   1   0  727.53   25.50
   4   1   0  747.03   25.10
   4   1   0  712.93   25.70
  -5  -1   0   12.30    3.00
  -5  -1   0   13.40    3.20
   5   1   0   17.80    3.30
   5   1   0   14.30    3.80
   5   1   0   11.50    2.50
  -6  -1   0    0.00    0.60
   6   1   0   -0.10    0.60
   6   1   0   -0.10    0.40
   6   1   0   -0.10    0.50
   6   1   0    0.40    0.40
   6   1   0    0.50    0.50
  -7  -1   0    0.90    0.60
  -7  -1   0    1.30    0.70
   7   1   0    0.80    0.50
   7   1   0    0.40    0.50
   7   1   0    0.90    0.70
   7   1   0    1.50    0.50
  -8  -1   0   60.89    2.50
  -8  -1   0   54.09    2.60
  -8  -1   0   51.39    2.20
   8   1   0   56.09    2.60
   8   1   0   60.99    2.50
   8  -2   0   78.29    3.00
  -8   2   0   75.39    2.70
  -8   2   0   74.09    2.80
   7  -2   0   49.50    2.50
   7  -2   0   43.10    2.40
  -7   2   0   45.00    2.10
  -7   2   0   46.50    2.20
   6  -2   0   98.49    4.20
   6  -2   0   92.59    3.80
   6  -2   0  101.79    4.40
  -6   2   0  102.29    3.80
  -6   2   0   99.09    3.90
   5  -2   0    1.90    0.80
   5  -2   0    2.90    0.80
   5  -2   0    1.50    0.60
  -5   2   0    3.00    0.70
   4  -2   0  448.66   17.60
   4  -2   0  491.85   19.30
   4  -2   0  458.25   18.30
  -4   2   0  494.65   18.80
  -4   2   0  453.85   18.30
  -4   2   0  478.85   18.40
   3  -2   0  240.48    9.70
   3  -2   0  228.48   10.20
   3  -2   0  244.48   10.80
  -3   2   0  235.08   10.50
  -3   2   0  245.48   10.30
  -3   2   0  241.58   10.40
  -3   2   0  248.18   10.50
   2  -2   0  415.86   15.30
   2  -2   0  418.86   14.50
   2  -2   0  426.96   15.20
   2  -2   0  425.06   14.50
  -2   2   0  417.86   15.40
  -2   2   0  431.06   15.20
  -2   2   0  437.56   14.90
  -2   2   0  426.86   15.20
   1  -2   0   79.99    3.90
   1  -2   0   82.79    4.00
   1  -2   0   78.79    3.40
   1  -2   0   83.79    3.90
  -1   2   0   82.39    3.90
  -1   2   0   74.89    3.60
  -1   2   0   84.29    4.20
  -1   2   0   78.79    4.00
   0  -2   0   86.49    3.70
   0  -2   0  111.69    4.30
   0  -2   0   86.29    3.80
   0  -2   0  101.49    4.10
   0   2   0   93.09    3.90
   0   2   0   93.49    3.90
   0   2   0  103.29    4.60
   0   2   0  103.29    4.30
  -1  -2   0 8986.10  262.67
  -1  -2   0 8842.71  262.47
  -1  -2   0 8908.51  262.67
   1   2   0 9457.55  262.37
   1   2   0 8464.65  262.57
   1   2   0 8744.33  263.47
   1   2   0 8039.10  262.17
  -2  -2   0 1747.33   53.99
  -2  -2   0 1743.73   53.49
  -2  -2   0 1809.12   54.59
   2   2   0 1760.12   54.09
   2   2   0 1703.43   55.09
   2   2   0 1804.52   53.49
   2   2   0 1691.23   53.89
  -3  -2   0    0.30    0.70
  -3  -2   0    0.80    0.70
  -3  -2   0   -0.20    0.20
   3   2   0    0.40    0.80
   3   2   0    1.30    0.80
   3   2   0    0.40    0.90
   3   2   0    0.80    1.10
  -4  -2   0   20.90    2.70
  -4  -2   0   24.20    2.80
  -4  -2   0   18.00    3.10
   4   2   0   15.60    2.10
   4   2   0   18.60    2.40
   4   2   0   20.10    3.30
   4   2   0   19.60    3.30
  -5  -2   0   22.30    3.90
  -5  -2   0   25.10    3.40
   5   2   0   28.10    4.50
   5   2   0   30.20    4.20
   5   2   0   27.70    3.80
  -6  -2   0   50.49    2.70
   6   2   0   48.00    2.60
   6   2   0   50.19    2.30
   6   2   0   48.20    2.40
   6   2   0   45.10    2.10
   6   2   0   48.80    2.20
  -7  -2   0  199.88    7.10
   7   2   0  195.38    6.60
   7   2   0  202.58    6.90
   7   2   0  184.18    6.50
   7   2   0  190.58    7.10
  -8  -2   0    7.90    1.00
  -8  -2   0   10.40    1.00
   8   2   0    6.60    1.00
   8   2   0    9.00    0.80
   8   2   0    8.00    0.90
  -9  -2   0   -0.20    0.30
  -9  -2   0    0.80    0.70
   9   2   0   -0.10    0.30
   7  -3   0    0.90    0.50
   7  -3   0    1.40    0.60
  -7   3   0    0.70    0.50
  -7   3   0    0.90    0.50
   6  -3   0   23.30    1.80
   6  -3   0   22.90    1.80
  -6   3   0   23.30    1.60
  -6   3   0   25.30    2.00
  -6   3   0   23.00    1.50
   5  -3   0    4.90    0.80
   5  -3   0    5.10    1.00
   5  -3   0    4.60    1.00
   5  -3   0    4.80    1.60
  -5   3   0    5.60    0.90
  -5   3   0    4.90    0.80
   4  -3   0    7.30    3.70
   4  -3   0   10.80    3.10
  -4   3   0   13.90    3.00
  -4   3   0    6.20    1.90
   3  -3   0  445.16   17.30
   3  -3   0  407.16   16.90
  -3   3   0  426.26   17.10
  -3   3   0  439.66   17.00
   2  -3   0   36.00    3.10
   2  -3   0   37.00    3.80
   2  -3   0   39.90    3.70
   2  -3   0   33.40    3.50
  -2   3   0   33.10    3.50
  -2   3   0   39.80    4.20
  -2   3   0   36.40    3.40
  -2   3   0   36.00    3.90
   1  -3   0 2132.19   66.19
   1  -3   0 2184.28   65.99
   1  -3   0 2080.19   65.89
  -1   3   0 2094.89   65.59
  -1   3   0 2182.88   66.49
  -1   3   0 2172.28   66.89
  -1   3   0 2111.89   65.99
   0  -3   0  124.29    5.20
   0  -3   0  131.59    5.70
   0  -3   0  119.59    5.40
   0   3   0  116.59    5.20
   0   3   0  124.89    5.70
   0   3   0  131.79    6.50
   0   3   0  120.29    5.20
  -1  -3   0  181.48    7.30
  -1  -3   0  186.88    7.30
  -1  -3   0  185.38    7.30
  -1  -3   0  170.58    6.70
   1   3   0  188.28    6.90
   1   3   0  174.88    7.20
   1   3   0  175.88    6.90
   1   3   0  183.18    8.30
  -2  -3   0  769.92   25.00
  -2  -3   0  724.43   24.40
  -2  -3   0  761.82   25.10
   2   3   0  787.62   24.70
   2   3   0  745.43   24.20
   2   3   0  743.93   26.20
   2   3   0  740.23   24.70
  -3  -3   0  282.87   11.00
  -3  -3   0  274.17   10.40
  -3  -3   0  273.87   11.60
  -3  -3   0  269.27    9.90
   3   3   0  261.47   10.50
   3   3   0  272.57   12.20
   3   3   0  263.97   10.90
  -4  -3   0  467.35   18.70
  -4  -3   0  483.85   17.50
  -4  -3   0  457.35   17.50
   4   3   0  468.05   17.30
   4   3   0  479.45   18.10
   4   3   0  497.75   19.60
  -5  -3   0   42.40    5.20
  -5  -3   0   36.80    4.20
  -5  -3   0   48.90    4.90
   5   3   0   52.19    6.40
   5   3   0   60.19    5.80
  -6  -3   0   27.60    2.00
   6   3   0   24.60    1.50
   6   3   0   28.90    1.80
   6   3   0   23.90    1.40
   6   3   0   24.70    1.70
  -7  -3   0   15.30    1.60
   7   3   0   14.50    1.30
   7   3   0   14.50    1.40
   7   3   0   14.70    1.20
  -8  -3   0   10.20    1.00
  -8  -3   0    9.10    1.10
   8   3   0    9.50    1.00
   8   3   0   10.10    0.90
  -9  -3   0   35.70    1.50
  -9  -3   0   35.30    1.60
   9   3   0   36.20    1.60
   7  -4   0    3.00    0.60
   7  -4   0    3.30    0.60
  -7   4   0    4.50    0.50
  -7   4   0    4.10    0.50
   6  -4   0  282.87    9.60
   6  -4   0  278.07    9.80
  -6   4   0  289.37    9.30
  -6   4   0  283.27    9.30
  -6   4   0  287.27    9.40
   5  -4   0  100.69    4.40
   5  -4   0   93.89    4.10
   5  -4   0   89.59    5.00
  -5   4   0   91.99    3.70
  -5   4   0   93.49    3.90
  -5   4   0   94.59    3.70
   4  -4   0   93.59    4.00
   4  -4   0   96.59    4.20
   4  -4   0   98.29    5.20
  -4   4   0   98.69    3.70
  -4   4   0   90.89    3.70
   3  -4   0   58.39    6.10
   3  -4   0   51.39    5.60
  -3   4   0   53.09    5.70
  -3   4   0   56.79    5.60
   2  -4   0  622.34   22.90
   2  -4   0  635.04   22.90
   2  -4   0  624.44   22.40
  -2   4   0  664.13   23.00
  -2   4   0  622.54   23.30
   1  -4   0   26.70    3.20
   1  -4   0   30.00    3.50
   1  -4   0   35.30    2.50
   1  -4   0   26.60    3.00
  -1   4   0   28.70    3.70
  -1   4   0   29.00    3.10
  -1   4   0   32.20    3.70
   0  -4   0  271.37   11.00
   0  -4   0  265.47   10.60
   0  -4   0  272.47   10.40
   0   4   0  273.37   11.20
   0   4   0  263.57   10.40
   0   4   0  282.07   12.10
   0   4   0  279.07   10.40
  -1  -4   0  118.19    6.00
  -1  -4   0  121.29    5.80
  -1  -4   0  122.59    6.00
  -1  -4   0  120.79    5.40
   1   4   0  111.99    5.40
   1   4   0  120.59    7.20
   1   4   0  126.99    6.10
  -2  -4   0   15.60    2.00
  -2  -4   0   17.00    2.60
  -2  -4   0   16.00    2.20
   2   4   0   15.30    2.30
   2   4   0   19.80    2.30
   2   4   0   17.50    3.30
   2   4   0   19.30    2.20
  -3  -4   0 2462.85   76.69
  -3  -4   0 2439.06   78.19
  -3  -4   0 2514.85   77.79
  -3  -4   0 2391.16   76.69
   3   4   0 2614.14   80.19
   3   4   0 2497.45   77.39
   3   4   0 2473.95   77.39
  -4  -4   0   95.49    5.40
  -4  -4   0   92.49    6.00
  -4  -4   0   88.59    6.90
   4   4   0   97.59    5.90
   4   4   0  100.69    6.50
   4   4   0  110.39    7.80
  -5  -4   0   87.49    8.50
  -5  -4   0   92.29    6.40
   5   4   0  127.49    9.00
   5   4   0  108.19    8.80
  -6  -4   0   18.00    1.80
   6   4   0   17.60    1.60
   6   4   0   17.80    1.50
   6   4   0   17.60    1.30
   6   4   0   17.00    1.30
   6   4   0   18.60    1.30
  -7  -4   0  152.68    6.00
  -7  -4   0  155.68    6.10
   7   4   0  154.38    5.50
   7   4   0  156.08    5.70
   7   4   0  151.58    5.30
   7   4   0  151.78    5.50
  -8  -4   0   96.29    3.90
  -8  -4   0   92.49    3.50
   8   4   0   87.29    3.60
   8   4   0   94.09    3.40
  -9  -4   0   21.00    1.20
  -9  -4   0   20.70    1.00
   9   4   0   21.70    1.00
   9   4   0   21.70    1.10
   6  -5   0    1.50    0.80
   6  -5   0    0.50    0.60
  -6   5   0    1.20    0.50
  -6   5   0    0.70    0.50
   5  -5   0  132.69    6.60
   5  -5   0  151.08    5.80
  -5   5   0  149.39    5.80
  -5   5   0  151.78    5.50
  -5   5   0  154.68    5.40
   4  -5   0    4.10    1.00
   4  -5   0    4.40    1.40
  -4   5   0    5.00    0.80
  -4   5   0    3.20    0.80
   3  -5   0   77.99    4.40
   3  -5   0   84.59    4.80
   3  -5   0   88.99    3.90
  -3   5   0   85.09    3.40
  -3   5   0   89.09    3.60
   2  -5   0   92.39    6.50
   2  -5   0   83.19    5.90
  -2   5   0   96.09    6.40
  -2   5   0   93.19    8.10
   1  -5   0   73.29    5.30
   1  -5   0   70.29    5.90
  -1   5   0   70.19    6.40
  -1   5   0   77.19    5.20
  -1   5   0   75.09    5.30
   0  -5   0  272.07   10.80
   0  -5   0  262.57   11.60
   0  -5   0  271.87   11.40
   0   5   0  270.27   11.10
   0   5   0  284.67   12.20
   0   5   0  265.97   13.20
  -1  -5   0   28.60    3.40
  -1  -5   0   29.40    3.70
  -1  -5   0   27.20    3.00
  -1  -5   0   26.60    2.10
   1   5   0   30.70    3.60
   1   5   0   28.40    4.60
   1   5   0   29.30    3.10
  -2  -5   0 1361.96   44.80
  -2  -5   0 1321.27   44.70
  -2  -5   0 1347.57   44.90
   2   5   0 1431.76   45.20
   2   5   0 1391.16   44.70
   2   5   0 1386.06   47.50
   2   5   0 1398.46   43.90
  -3  -5   0    2.90    2.40
  -3  -5   0    2.50    1.50
  -3  -5   0    4.80    1.80
   3   5   0    3.80    1.60
   3   5   0    5.90    1.90
   3   5   0    6.10    1.70
   3   5   0    5.00    1.60
  -4  -5   0   10.40    3.20
  -4  -5   0    9.40    2.40
   4   5   0   11.30    2.90
   4   5   0   13.20    3.40
   4   5   0    9.70    2.50
  -5  -5   0   52.69    5.70
  -5  -5   0   45.60    6.30
   5   5   0   53.39    6.70
   5   5   0   59.29    7.90
   5   5   0   60.69    3.80
  -6  -5   0  255.47    9.00
   6   5   0  237.98    8.50
   6   5   0  247.68    8.20
   6   5   0  236.18    8.10
   6   5   0  241.48    8.00
   6   5   0  240.08    8.30
  -7  -5   0    7.60    1.10
  -7  -5   0    6.70    1.20
   7   5   0    5.30    0.90
   7   5   0    6.00    0.80
   7   5   0    7.40    0.90
   7   5   0    7.90    0.90
  -8  -5   0   54.19    2.30
  -8  -5   0   57.39    2.70
  -8  -5   0   55.19    2.70
   8   5   0   54.09    2.40
   8   5   0   56.19    2.30
  -9  -5   0   11.00    0.90
   9   5   0   11.70    0.70
   6  -6   0    4.20    0.70
  -6   6   0    5.30    0.50
   5  -6   0   51.89    3.40
   5  -6   0   54.29    2.70
  -5   6   0   53.69    2.40
  -5   6   0   52.69    2.30
   4  -6   0  235.78    8.30
   4  -6   0  224.78    9.50
  -4   6   0  221.48    7.90
  -4   6   0  230.38    7.70
   3  -6   0    2.10    0.80
   3  -6   0    0.10    0.90
   3  -6   0    0.90    1.10
  -3   6   0    1.80    0.60
  -3   6   0    2.90    0.70
   2  -6   0    0.40    0.90
   2  -6   0    2.50    1.00
  -2   6   0    0.70    0.50
  -2   6   0   -0.20    0.40
  -2   6   0    1.90    0.70
   1  -6   0  475.55   19.90
   1  -6   0  521.35   20.30
  -1   6   0  485.05   21.00
  -1   6   0  545.55   20.10
   0  -6   0  127.59    8.30
   0  -6   0  130.99    7.50
   0   6   0  133.89    8.30
   0   6   0  128.09    7.30
   0   6   0  139.19    8.90
  -1  -6   0  756.72   27.30
  -1  -6   0  747.93   27.10
   1   6   0  781.82   28.00
   1   6   0  769.22   29.90
   1   6   0  789.32   31.30
  -2  -6   0  133.29    7.70
  -2  -6   0  129.89    8.10
   2   6   0  149.19    8.30
   2   6   0  132.99   10.30
  -3  -6   0    5.90    2.10
  -3  -6   0   12.30    3.30
  -3  -6   0   16.60    2.30
   3   6   0    9.40    2.70
   3   6   0    9.10    4.10
  -4  -6   0  243.78   12.40
  -4  -6   0  245.48   12.40
   4   6   0  275.47   14.90
   4   6   0  273.07   12.50
  -5  -6   0  126.69    4.90
   5   6   0  123.79    4.50
   5   6   0  116.99    4.40
   5   6   0  120.59    4.50
   5   6   0  117.09    5.10
   5   6   0  120.59    4.80
  -6  -6   0    7.30    1.10
  -6  -6   0    7.50    1.30
   6   6   0    7.10    0.90
   6   6   0    6.20    1.00
   6   6   0    7.10    0.90
  -7  -6   0    3.20    0.80
  -7  -6   0    3.50    0.80
   7   6   0    1.50    0.60
   7   6   0    4.10    0.60
   7   6   0    3.40    0.70
  -8  -6   0   29.00    1.70
  -8  -6   0   29.00    1.80
   8   6   0   29.50    1.30
   8   6   0   27.70    1.40
   8   6   0   31.10    1.50
   5  -7   0   25.20    1.90
   5  -7   0   28.90    1.60
  -5   7   0   31.40    1.40
  -5   7   0   27.80    1.40
   4  -7   0   28.00    2.60
   4  -7   0   27.40    1.80
  -4   7   0   28.40    1.70
  -4   7   0   27.60    1.50
   3  -7   0    6.40    1.60
   3  -7   0    7.90    1.20
   3  -7   0    6.80    1.40
  -3   7   0    7.20    0.90
  -3   7   0    5.60    1.00
   2  -7   0  284.37   11.30
   2  -7   0  275.67   10.90
  -2   7   0  278.77    9.50
  -2   7   0  287.57    9.30
  -2   7   0  279.87    9.70
   1  -7   0   42.50    2.80
   1  -7   0   48.70    3.50
   1  -7   0   43.90    3.20
  -1   7   0   47.50    2.30
  -1   7   0   45.20    2.40
  -1   7   0   42.70    2.10
   0  -7   0  221.08   11.40
   0  -7   0  209.58    8.10
   0  -7   0  210.78    8.60
   0   7   0  212.88    7.50
   0   7   0  216.68    7.40
  -1  -7   0   47.40    5.60
   1   7   0   51.89    6.10
   1   7   0   45.80    6.90
  -2  -7   0    1.60    3.60
  -2  -7   0   -0.60    1.70
   2   7   0    2.30    2.20
   2   7   0   -0.90    1.70
  -3  -7   0  192.08    7.60
  -3  -7   0  186.78   10.40
   3   7   0  194.08    6.90
   3   7   0  198.08   10.90
   3   7   0  187.98    6.70
   3   7   0  191.98    6.60
  -4  -7   0   10.40    1.30
  -4  -7   0    7.30    1.40
   4   7   0    8.50    1.00
   4   7   0    8.60    1.20
   4   7   0    8.10    0.90
   4   7   0    8.30    0.90
  -5  -7   0   30.50    2.00
   5   7   0   28.80    1.70
   5   7   0   28.60    1.60
   5   7   0   30.70    1.90
   5   7   0   28.50    1.70
  -6  -7   0   22.70    1.70
  -6  -7   0   23.70    2.00
   6   7   0   24.80    1.40
   6   7   0   22.80    1.50
   6   7   0   27.20    1.80
   6   7   0   24.80    1.50
  -7  -7   0    1.50    0.60
  -7  -7   0    0.80    0.60
   7   7   0    0.20    0.40
   7   7   0    1.10    0.40
  -8  -7   0   22.80    1.40
  -8  -7   0   24.30    1.50
   8   7   0   25.00    1.10
   8   7   0   23.50    1.20
   4  -8   0    0.30    0.60
  -4   8   0    0.10    0.30
  -4   8   0    0.30    0.30
   3  -8   0   94.39    4.70
   3  -8   0  105.99    5.20
  -3   8   0  101.39    4.00
  -3   8   0   99.29    3.70
   2  -8   0   35.70    2.90
   2  -8   0   34.60    3.00
  -2   8   0   35.20    2.10
  -2   8   0   32.90    1.90
  -2   8   0   35.50    1.80
   1  -8   0   81.49    4.80
   1  -8   0   79.89    4.60
   1  -8   0   72.29    3.90
  -1   8   0   81.59    3.40
  -1   8   0   81.69    3.60
  -1   8   0   84.49    3.20
   0  -8   0  273.47   10.60
   0  -8   0  263.37   10.00
   0   8   0  266.77    9.10
   0   8   0  267.47    9.20
  -1  -8   0   41.30    2.90
  -1  -8   0   47.30    3.30
   1   8   0   48.00    2.40
   1   8   0   43.20    2.40
   1   8   0   43.80    2.30
  -2  -8   0   18.20    2.20
  -2  -8   0   17.30    2.10
   2   8   0   18.10    1.60
   2   8   0   19.40    1.50
   2   8   0   15.70    1.40
   2   8   0   17.90    1.50
  -3  -8   0    0.40    0.70
  -3  -8   0    0.70    0.60
   3   8   0    0.00    0.50
   3   8   0    1.00    0.70
   3   8   0    0.30    0.50
   3   8   0    0.30    0.50
  -4  -8   0    0.40    0.60
  -4  -8   0    0.40    0.80
   4   8   0    1.60    0.70
   4   8   0    0.70    0.50
   4   8   0    1.50    0.50
  -5  -8   0  240.68    8.90
  -5  -8   0  249.08    8.60
   5   8   0  248.48    8.10
   5   8   0  224.18    8.00
   5   8   0  249.68    8.20
  -6  -8   0    3.10    0.80
  -6  -8   0    2.70    0.90
   6   8   0    4.60    0.70
   6   8   0    3.90    0.60
   6   8   0    4.70    0.70
  -7  -8   0   21.60    1.60
  -7  -8   0   20.50    1.40
  -7  -8   0   18.10    1.30
   7   8   0   18.60    1.10
   7   8   0   23.10    1.20
  -8  -8   0    1.30    0.50
   8   8   0    1.10    0.30
   8   8   0    1.20    0.30
   3  -9   0   31.10    2.20
   3  -9   0   31.10    2.00
  -3   9   0   31.90    1.40
  -3   9   0   34.40    1.60
   2  -9   0  162.68    6.80
   2  -9   0  156.88    6.60
  -2   9   0  153.48    5.30
  -2   9   0  170.98    5.80
   1  -9   0   29.60    2.60
   1  -9   0   27.90    2.00
   1  -9   0   28.00    2.60
  -1   9   0   27.80    1.80
  -1   9   0   31.00    1.70
   0  -9   0   35.20    2.90
   0  -9   0   32.60    2.40
   0   9   0   36.80    2.10
   0   9   0   34.90    2.00
  -1  -9   0   11.90    1.80
  -1  -9   0   12.80    1.70
   1   9   0   12.70    1.30
   1   9   0   14.00    1.30
  -2  -9   0  188.68    7.50
  -2  -9   0  167.58    6.50
  -2  -9   0  180.38    7.70
   2   9   0  182.88    6.50
   2   9   0  187.28    6.50
   2   9   0  172.88    6.20
  -3  -9   0   18.40    2.10
  -3  -9   0   16.90    1.60
   3   9   0   18.40    1.50
   3   9   0   18.20    1.40
   3   9   0   18.00    1.50
  -4  -9   0   16.50    1.90
  -4  -9   0   20.00    1.80
   4   9   0   17.30    1.30
   4   9   0   19.90    1.50
  -5  -9   0    9.00    1.20
  -5  -9   0   10.30    1.40
   5   9   0   10.60    1.00
   5   9   0   10.40    1.00
  -6  -9   0   22.20    1.60
  -6  -9   0   22.80    1.50
   6   9   0   20.60    1.20
   6   9   0   19.20    1.10
   6   9   0   20.40    1.20
  -7  -9   0    9.20    1.00
  -7  -9   0    9.50    0.80
   7   9   0    8.20    0.70
   7   9   0    9.60    0.70
   1 -10   0   22.80    1.90
  -1  10   0   20.70    1.20
  -1  10   0   24.00    1.40
   0 -10   0   57.59    3.00
   0 -10   0   63.89    3.50
   0  10   0   54.79    2.50
   0  10   0   58.99    2.60
  -1 -10   0   47.80    3.00
  -1 -10   0   47.40    2.80
   1  10   0   43.90    2.20
   1  10   0   44.90    2.20
  -2 -10   0  103.29    4.90
  -2 -10   0  103.39    4.80
  -2 -10   0   97.29    4.00
   2  10   0  103.39    4.00
   2  10   0  107.09    4.00
  -3 -10   0  163.98    6.40
  -3 -10   0  150.88    5.60
   3  10   0  147.79    5.30
   3  10   0  158.58    5.50
   3  10   0  155.58    5.40
  -4 -10   0   58.79    2.80
  -4 -10   0   59.59    3.10
   4  10   0   57.29    2.40
   4  10   0   62.39    2.50
  -5 -10   0   14.10    1.20
  -5 -10   0   13.00    1.20
   5  10   0   11.30    0.90
   5  10   0   13.50    0.90
  -6 -10   0   37.80    1.70
  -6 -10   0   33.30    1.70
   6  10   0   34.90    1.50
   6  10   0   36.10    1.50
  -1 -11   0   29.10    1.70
  -1 -11   0   30.60    1.90
   1  11   0   28.60    1.40
   1  11   0   31.00    1.40
  -2 -11   0   83.49    3.60
   2  11   0   83.59    3.10
   2  11   0   87.29    3.10
  -3 -11   0    4.30    0.80
  -3 -11   0    2.80    0.60
   3  11   0    3.80    0.60
  -4 -11   0  101.09    4.00
  -4 -11   0  100.89    3.70
   4  11   0   96.59    3.40
   4  11   0  109.79    3.60
   4  11  -1   41.50    1.60
  -4 -11   1   36.80    2.00
  -4 -11   1   40.00    1.80
   3  11  -1   21.20    1.20
   3  11  -1   22.40    1.40
  -3 -11   1   21.70    1.20
  -3 -11   1   23.70    1.60
   2  11  -1   19.40    1.10
   2  11  -1   16.20    1.00
  -2 -11   1   18.50    1.40
   1  11  -1   37.20    1.60
   1  11  -1   34.50    1.50
  -1 -11   1   37.20    2.00
  -1 -11   1   37.50    2.10
   6  10  -1   23.70    1.10
   6  10  -1   24.40    1.10
  -6 -10   1   24.60    1.40
  -6 -10   1   25.70    1.30
   5  10  -1    7.60    0.70
   5  10  -1    8.30    0.80
  -5 -10   1    8.40    0.90
  -5 -10   1    5.50    0.90
   4  10  -1    1.50    0.50
   4  10  -1    1.30    0.40
  -4 -10   1    1.80    0.80
  -4 -10   1    0.60    0.50
   3  10  -1    7.30    0.90
   3  10  -1    8.50    1.00
   3  10  -1    7.00    0.70
  -3 -10   1    6.40    1.20
  -3 -10   1    6.70    0.90
   2  10  -1  176.98    6.20
   2  10  -1  179.58    6.20
  -2 -10   1  168.88    7.10
  -2 -10   1  188.48    7.00
  -2 -10   1  171.28    6.20
   1  10  -1   38.70    1.90
   1  10  -1   31.30    1.70
  -1 -10   1   36.60    2.60
  -1 -10   1   35.50    2.40
   0  10  -1   18.70    1.30
   0  10  -1   17.20    1.10
   0 -10   1   18.50    1.90
   0 -10   1   17.20    1.50
  -1  10  -1   38.90    1.90
   1 -10   1   43.40    2.60
   7   9  -1    2.50    0.40
  -7  -9   1    3.60    0.60
   6   9  -1    2.40    0.50
  -6  -9   1    3.80    0.70
  -6  -9   1    2.60    0.70
   5   9  -1    6.50    0.80
   5   9  -1    6.10    0.70
  -5  -9   1    7.30    1.10
  -5  -9   1    7.70    1.10
   4   9  -1   22.10    1.40
   4   9  -1   21.70    1.80
   4   9  -1   21.70    1.40
   4   9  -1   20.20    1.30
  -4  -9   1   22.50    1.90
  -4  -9   1   20.70    2.00
   3   9  -1  149.99    5.50
   3   9  -1  172.78    5.80
   3   9  -1  159.28    5.80
  -3  -9   1  155.28    6.60
  -3  -9   1  157.38    6.10
   2   9  -1  109.29    4.20
   2   9  -1  102.39    4.20
  -2  -9   1  110.59    5.10
  -2  -9   1  103.39    5.20
  -2  -9   1   98.39    4.30
   1   9  -1   19.50    1.60
   1   9  -1   21.40    1.60
  -1  -9   1   19.30    2.10
  -1  -9   1   20.60    1.50
  -1  -9   1   22.80    2.30
   0   9  -1   36.60    2.10
   0   9  -1   34.60    1.90
   0  -9   1   37.30    2.90
   0  -9   1   35.00    2.50
  -1   9  -1   27.30    1.80
  -1   9  -1   28.90    1.50
  -1   9  -1   25.20    1.50
   1  -9   1   27.90    2.50
   1  -9   1   27.00    2.50
   1  -9   1   24.80    2.00
  -2   9  -1    3.30    0.60
  -2   9  -1    3.20    0.70
   2  -9   1    4.70    1.20
   2  -9   1    3.80    1.10
  -3   9  -1  143.59    4.70
  -3   9  -1  142.39    4.90
   3  -9   1  139.59    5.40
   3  -9   1  148.29    5.70
   7   8  -1    2.20    0.50
   7   8  -1    1.10    0.40
  -7  -8   1    2.10    0.70
  -7  -8   1    2.30    0.60
   6   8  -1   30.50    1.60
   6   8  -1   25.90    1.50
   6   8  -1   28.70    1.70
   6   8  -1   31.40    1.60
  -6  -8   1   31.30    1.90
  -6  -8   1   33.90    2.20
   5   8  -1   34.70    1.80
   5   8  -1   34.20    1.90
  -5  -8   1   34.40    2.10
   4   8  -1   18.00    1.40
   4   8  -1   16.80    1.50
   4   8  -1   16.80    1.80
   4   8  -1   13.80    1.20
  -4  -8   1   16.20    1.70
  -4  -8   1   16.70    1.90
   3   8  -1   62.79    2.80
   3   8  -1   59.39    2.70
   3   8  -1   59.89    3.10
   3   8  -1   62.09    2.80
  -3  -8   1   62.49    3.60
   2   8  -1   28.30    1.80
   2   8  -1   30.60    1.90
   2   8  -1   26.30    1.60
   2   8  -1   27.70    1.70
  -2  -8   1   27.60    2.30
  -2  -8   1   26.60    2.70
   1   8  -1   49.30    2.50
   1   8  -1   43.50    2.40
   1   8  -1   42.30    2.30
  -1  -8   1   45.60    3.00
  -1  -8   1   49.50    3.40
   0   8  -1   68.69    2.90
   0   8  -1   69.29    3.20
   0   8  -1   74.99    3.20
   0  -8   1   72.09    4.30
   0  -8   1   69.69    3.80
  -1   8  -1   15.30    1.30
  -1   8  -1   15.50    1.40
  -1   8  -1   15.50    1.50
   1  -8   1   12.50    2.10
   1  -8   1   12.90    1.70
   1  -8   1   14.00    2.10
  -2   8  -1  164.68    5.80
  -2   8  -1  172.18    6.20
   2  -8   1  163.38    7.20
   2  -8   1  175.38    7.70
  -3   8  -1   55.59    2.70
  -3   8  -1   61.19    2.50
   3  -8   1   63.49    3.80
   3  -8   1   58.69    3.40
  -4   8  -1    7.60    0.80
  -4   8  -1    6.40    0.60
   4  -8   1    5.90    1.20
   8   7  -1   16.80    0.90
   8   7  -1   15.50    0.90
  -8  -7   1   15.90    1.20
  -8  -7   1   15.90    1.10
   7   7  -1   18.40    1.20
   7   7  -1   19.80    1.20
  -7  -7   1   18.20    1.60
  -7  -7   1   19.00    1.40
   6   7  -1    4.10    0.70
   6   7  -1    4.50    0.70
   6   7  -1    3.20    0.70
   6   7  -1    4.20    0.90
  -6  -7   1    4.40    1.10
  -6  -7   1    3.90    0.90
   5   7  -1   40.40    2.00
   5   7  -1   43.70    2.30
   5   7  -1   37.60    2.00
   5   7  -1   40.00    2.60
   5   7  -1   40.30    2.10
  -5  -7   1   42.00    2.40
   4   7  -1   91.09    3.60
   4   7  -1   90.09    3.50
   4   7  -1   88.49    4.10
   4   7  -1   84.99    4.20
  -4  -7   1   89.89    3.90
   3   7  -1   94.69    3.70
   3   7  -1   91.19    4.10
   3   7  -1   93.99    3.70
   3   7  -1   94.99    3.80
   3   7  -1   90.69    3.90
  -3  -7   1   99.89    4.60
   2   7  -1    1.60    2.50
   2   7  -1    3.90    0.80
   2   7  -1    1.30    2.00
  -2  -7   1    4.60    2.50
  -2  -7   1    6.10    2.20
  -2  -7   1    3.70    1.30
   1   7  -1  168.98    6.60
   1   7  -1  170.18    7.30
   1   7  -1  176.98   11.20
  -1  -7   1  167.68    9.90
  -1  -7   1  158.28    8.20
   0   7  -1  163.48    5.80
   0   7  -1  163.38    5.50
   0   7  -1  158.48    6.60
   0   7  -1  148.09    5.80
   0  -7   1  160.88    7.00
  -1   7  -1   46.50    2.50
  -1   7  -1   50.79    2.50
  -1   7  -1   49.70    2.30
   1  -7   1   49.10    3.40
   1  -7   1   52.59    3.60
  -2   7  -1    0.40    0.60
  -2   7  -1    0.90    0.50
   2  -7   1    3.80    1.20
   2  -7   1    0.40    0.80
  -3   7  -1  145.99    5.70
  -3   7  -1  146.89    5.30
   3  -7   1  151.68    6.20
   3  -7   1  157.38    7.20
   3  -7   1  148.79    6.60
  -4   7  -1   21.10    1.30
  -4   7  -1   19.00    1.40
   4  -7   1   19.70    2.20
   4  -7   1   19.00    1.50
  -5   7  -1    0.40    0.40
  -5   7  -1    0.50    0.40
   5  -7   1    0.70    0.50
   5  -7   1    1.30    0.70
   8   6  -1    8.40    0.70
   8   6  -1    9.10    0.80
  -8  -6   1    8.30    1.00
  -8  -6   1    8.70    1.00
   7   6  -1    4.60    0.70
   7   6  -1    5.00    0.70
   7   6  -1    4.20    0.70
  -7  -6   1    5.10    0.90
  -7  -6   1    5.20    1.00
   6   6  -1   58.99    2.80
   6   6  -1   60.89    2.60
   6   6  -1   56.19    2.50
   6   6  -1   53.09    2.50
  -6  -6   1   57.09    3.20
   5   6  -1  270.37    9.10
   5   6  -1  274.17    9.90
   5   6  -1  269.57    9.10
   5   6  -1  279.47    9.10
   5   6  -1  282.27    9.50
  -5  -6   1  283.57    9.60
   4   6  -1  228.48   11.10
   4   6  -1  201.98   12.50
  -4  -6   1  186.58   11.10
  -4  -6   1  202.58   10.80
   3   6  -1   12.10    4.70
   3   6  -1   17.50    3.50
  -3  -6   1   11.40    2.40
  -3  -6   1   16.60    2.40
  -3  -6   1   13.10    2.80
   2   6  -1   21.60    3.20
   2   6  -1   24.00    4.70
   2   6  -1   22.80    3.70
  -2  -6   1   20.60    3.90
  -2  -6   1   15.80    1.90
  -2  -6   1   17.30    3.10
   1   6  -1  182.38    9.70
   1   6  -1  168.78   10.60
   1   6  -1  168.98    8.60
  -1  -6   1  170.88    8.80
  -1  -6   1  173.28    9.30
   0   6  -1  545.55   19.90
   0   6  -1  514.75   20.50
   0  -6   1  517.95   19.70
   0  -6   1  499.35   20.40
   0  -6   1  514.15   19.70
  -1   6  -1  132.19    8.00
  -1   6  -1  122.49    8.40
   1  -6   1  125.99    7.90
   1  -6   1  120.69    7.90
  -2   6  -1  210.38    7.50
  -2   6  -1  212.28    7.20
   2  -6   1  214.18    8.70
   2  -6   1  219.38    9.00
  -3   6  -1  370.26   11.90
  -3   6  -1  369.36   12.20
   3  -6   1  370.56   12.50
   3  -6   1  378.26   14.00
   3  -6   1  351.96   13.30
  -4   6  -1   44.70    2.40
  -4   6  -1   44.90    2.20
   4  -6   1   47.60    3.50
   4  -6   1   49.30    2.70
  -5   6  -1  455.25   14.00
  -5   6  -1  443.76   14.10
   5  -6   1  424.16   15.50
   5  -6   1  449.66   14.40
  -6   6  -1   23.80    1.10
   6  -6   1   22.60    1.30
   8   5  -1   28.70    1.40
   8   5  -1   28.60    1.50
   8   5  -1   30.80    1.50
  -8  -5   1   26.60    1.70
  -8  -5   1   30.40    1.50
  -8  -5   1   35.20    1.90
   7   5  -1    2.20    0.60
   7   5  -1    2.80    0.60
   7   5  -1    2.90    0.70
   7   5  -1    2.90    0.70
  -7  -5   1    2.70    0.80
  -7  -5   1    2.70    0.90
   6   5  -1  152.78    5.40
   6   5  -1  147.79    5.60
   6   5  -1  157.18    5.80
   6   5  -1  148.69    5.40
   6   5  -1  155.88    5.50
  -6  -5   1  155.28    6.20
   5   5  -1  133.89    5.40
   5   5  -1  133.49    4.80
   5   5  -1  137.29    5.20
   5   5  -1  134.09    8.20
   5   5  -1  131.29    4.80
  -5  -5   1  138.29    8.40
   4   5  -1   22.20    3.20
   4   5  -1   24.70    3.70
   4   5  -1   21.30    4.50
  -4  -5   1   21.80    3.50
  -4  -5   1   22.10    2.70
  -4  -5   1   20.50    4.10
   3   5  -1  112.89    6.30
   3   5  -1  126.59    7.10
   3   5  -1  115.09    6.20
   3   5  -1  125.59    8.90
  -3  -5   1  115.09    6.80
  -3  -5   1  113.89    7.30
  -3  -5   1  108.29    6.30
   2   5  -1   51.99    4.50
   2   5  -1   52.19    5.00
   2   5  -1   58.59    6.50
  -2  -5   1   51.39    4.70
  -2  -5   1   51.89    5.20
  -2  -5   1   55.39    5.00
   1   5  -1 1580.04   52.29
   1   5  -1 1572.74   49.50
   1   5  -1 1615.44   50.69
  -1  -5   1 1520.95   49.00
  -1  -5   1 1541.75   49.80
  -1  -5   1 1567.54   49.99
  -1  -5   1 1441.16   49.60
   0   5  -1   94.19    5.70
   0   5  -1   91.49    5.60
   0   5  -1  108.89    7.20
   0   5  -1  102.39    6.90
   0  -5   1   91.69    5.60
   0  -5   1   98.59    6.00
   0  -5   1  105.69    5.80
  -1   5  -1  382.36   15.10
  -1   5  -1  368.76   15.80
   1  -5   1  367.66   15.10
   1  -5   1  352.76   15.30
  -2   5  -1   16.60    3.90
  -2   5  -1   12.70    2.80
   2  -5   1   15.90    2.70
   2  -5   1   16.30    3.30
  -3   5  -1   31.80    2.00
  -3   5  -1   32.10    1.70
   3  -5   1   37.00    2.20
   3  -5   1   31.80    2.60
   3  -5   1   34.60    2.90
  -4   5  -1  676.63   22.00
  -4   5  -1  688.83   22.30
  -4   5  -1  723.63   22.00
   4  -5   1  723.03   22.70
   4  -5   1  719.33   24.20
  -5   5  -1  134.09    4.90
  -5   5  -1  135.09    5.00
  -5   5  -1  135.79    4.90
   5  -5   1  127.69    6.30
   5  -5   1  132.59    5.40
  -6   5  -1   62.39    2.50
  -6   5  -1   67.09    2.60
   6  -5   1   68.39    3.00
   6  -5   1   60.19    3.40
   9   4  -1   26.40    1.10
   9   4  -1   24.00    1.10
  -9  -4   1   22.50    1.30
  -9  -4   1   25.50    1.30
   8   4  -1    5.80    0.70
   8   4  -1    5.30    0.80
  -8  -4   1    6.10    0.80
  -8  -4   1    5.60    0.90
   7   4  -1   38.90    1.90
   7   4  -1   38.70    1.80
   7   4  -1   37.20    2.10
   7   4  -1   36.40    1.90
  -7  -4   1   38.70    2.40
  -7  -4   1   39.50    2.30
   6   4  -1   64.09    2.70
   6   4  -1   62.89    2.90
   6   4  -1   61.49    3.00
   6   4  -1   60.89    2.60
   6   4  -1   60.99    2.70
  -6  -4   1   61.89    3.30
   5   4  -1   71.89    7.90
   5   4  -1   59.99    6.30
  -5  -4   1   58.39    5.60
  -5  -4   1   47.90    6.50
  -5  -4   1   54.19    5.30
   4   4  -1  513.65   19.30
   4   4  -1  515.35   19.50
   4   4  -1  538.65   22.00
  -4  -4   1  506.45   19.50
  -4  -4   1  518.45   19.20
  -4  -4   1  502.35   20.50
   3   4  -1 1191.38   38.20
   3   4  -1 1174.88   40.60
   3   4  -1 1193.68   38.00
  -3  -4   1 1130.09   38.90
  -3  -4   1 1109.59   37.10
  -3  -4   1 1145.89   38.10
   2   4  -1  596.14   20.80
   2   4  -1  575.34   20.10
   2   4  -1  599.54   22.40
   2   4  -1  608.84   20.00
  -2  -4   1  591.94   21.10
  -2  -4   1  566.04   20.40
  -2  -4   1  592.94   20.80
   1   4  -1   12.50    2.00
   1   4  -1   10.20    2.80
   1   4  -1   11.90    1.90
  -1  -4   1   10.60    1.90
  -1  -4   1    8.60    1.80
  -1  -4   1   10.20    1.90
  -1  -4   1   11.40    1.70
   0   4  -1   59.09    3.90
   0   4  -1   65.69    4.80
   0   4  -1   56.89    3.80
   0   4  -1   52.89    3.60
   0  -4   1   54.99    3.70
   0  -4   1   59.99    3.80
   0  -4   1   57.99    3.70
  -1   4  -1  925.71   30.20
  -1   4  -1  900.41   30.40
  -1   4  -1  946.01   31.50
  -1   4  -1  910.71   31.10
   1  -4   1  891.41   29.90
   1  -4   1  908.91   30.50
   1  -4   1  888.31   30.40
   1  -4   1  909.51   29.60
  -2   4  -1  129.09    7.10
  -2   4  -1  114.89    7.40
   2  -4   1  111.49    6.70
   2  -4   1  107.89    6.50
   2  -4   1  121.29    7.00
  -3   4  -1  896.41   32.90
  -3   4  -1  970.40   33.10
   3  -4   1  931.51   32.80
   3  -4   1  902.11   33.00
  -4   4  -1  823.12   25.70
  -4   4  -1  801.32   25.40
  -4   4  -1  812.52   25.50
   4  -4   1  852.01   26.10
   4  -4   1  827.52   27.40
  -5   4  -1    9.20    1.10
  -5   4  -1   11.70    1.20
  -5   4  -1   10.50    1.20
   5  -4   1   10.60    1.30
   5  -4   1   11.60    1.50
   5  -4   1    9.60    1.90
  -6   4  -1  415.96   13.20
  -6   4  -1  438.66   13.20
   6  -4   1  384.46   14.40
   6  -4   1  424.56   13.50
   6  -4   1  410.76   13.80
  -7   4  -1    6.40    0.70
  -7   4  -1    6.10    0.60
   7  -4   1    5.60    0.70
   7  -4   1    4.50    0.70
   9   3  -1   13.00    0.80
  -9  -3   1   13.70    0.90
  -9  -3   1   13.90    0.80
   8   3  -1    2.40    0.60
   8   3  -1    2.80    0.60
  -8  -3   1    2.20    0.60
  -8  -3   1    1.30    0.50
   7   3  -1   37.70    1.90
   7   3  -1   38.90    2.00
   7   3  -1   39.60    2.10
   7   3  -1   35.70    2.50
  -7  -3   1   41.80    2.40
   6   3  -1    0.30    0.40
   6   3  -1    0.70    0.40
   6   3  -1    0.90    0.50
   6   3  -1    0.80    0.50
   6   3  -1    0.40    0.50
   6   3  -1    0.40    0.50
  -6  -3   1    0.40    0.70
   5   3  -1   14.40    3.90
   5   3  -1   11.10    3.10
   5   3  -1   11.60    2.70
  -5  -3   1   18.70    3.70
  -5  -3   1    8.50    2.70
   4   3  -1  360.86   15.60
   4   3  -1  344.37   13.60
   4   3  -1  346.07   14.20
  -4  -3   1  342.27   14.70
  -4  -3   1  326.77   13.50
  -4  -3   1  333.17   13.50
   3   3  -1  994.70   32.80
   3   3  -1 1008.90   34.70
   3   3  -1 1014.80   32.80
  -3  -3   1 1003.70   32.50
  -3  -3   1  977.70   32.80
  -3  -3   1  986.70   33.70
   2   3  -1  713.93   25.50
   2   3  -1  735.83   23.80
   2   3  -1  723.33   24.20
   2   3  -1  686.63   23.70
  -2  -3   1  736.33   24.60
  -2  -3   1  748.63   23.80
  -2  -3   1  748.13   24.30
   1   3  -1  224.08    8.70
   1   3  -1  243.38   10.10
   1   3  -1  243.98    9.20
  -1  -3   1  232.08    8.90
  -1  -3   1  221.78    8.20
  -1  -3   1  233.48    8.90
   0   3  -1  842.52   27.90
   0   3  -1  861.61   28.10
   0   3  -1  895.01   28.50
   0   3  -1  905.71   29.00
   0  -3   1  873.91   27.90
   0  -3   1  834.42   27.80
   0  -3   1  891.11   28.30
  -1   3  -1  328.77   12.40
  -1   3  -1  329.67   12.40
  -1   3  -1  329.17   12.00
  -1   3  -1  330.07   12.20
   1  -3   1  333.37   12.20
   1  -3   1  305.97   11.70
   1  -3   1  320.17   11.40
   1  -3   1  326.17   12.00
  -2   3  -1  285.27   11.50
  -2   3  -1  275.37   11.70
  -2   3  -1  285.57   11.30
   2  -3   1  296.57   11.60
   2  -3   1  284.37   11.30
   2  -3   1  275.97   11.40
  -3   3  -1   75.89    5.50
  -3   3  -1   85.79    6.90
  -3   3  -1   79.99    5.40
   3  -3   1   79.79    5.60
   3  -3   1   72.59    5.20
  -4   3  -1  104.49    7.30
  -4   3  -1  102.79    6.10
   4  -3   1  106.59    7.60
   4  -3   1  107.19    7.00
  -5   3  -1    4.80    0.80
  -5   3  -1    5.20    0.90
   5  -3   1    5.70    1.50
   5  -3   1    5.30    1.00
   5  -3   1    6.20    1.10
  -6   3  -1   27.80    1.60
  -6   3  -1   27.20    1.70
   6  -3   1   26.10    1.80
   6  -3   1   25.40    2.00
  -7   3  -1   33.20    1.60
  -7   3  -1   32.70    1.70
   7  -3   1   30.10    1.80
   7  -3   1   33.90    1.80
   9   2  -1    0.20    0.30
  -9  -2   1    0.20    0.30
   8   2  -1   47.70    2.00
   8   2  -1   45.30    2.40
   8   2  -1   53.49    2.30
  -8  -2   1   50.59    2.40
  -8  -2   1   49.40    2.30
   7   2  -1   39.30    2.10
   7   2  -1   36.60    1.80
   7   2  -1   36.90    2.30
   7   2  -1   40.70    1.90
  -7  -2   1   39.60    2.30
   6   2  -1    9.80    1.00
   6   2  -1    8.80    1.10
   6   2  -1    9.10    1.00
   6   2  -1    8.10    1.20
  -6  -2   1   10.40    1.30
   5   2  -1   39.60    5.50
   5   2  -1   43.60    4.20
   5   2  -1   39.80    3.00
  -5  -2   1   35.40    3.60
  -5  -2   1   41.70    4.60
  -5  -2   1   36.80    5.10
   4   2  -1  135.59    7.00
   4   2  -1  149.19    7.10
   4   2  -1  144.39    7.60
   4   2  -1  149.59    8.60
  -4  -2   1  135.49    6.70
  -4  -2   1  135.09    7.40
  -4  -2   1  139.99    7.90
   3   2  -1  372.26   13.10
   3   2  -1  350.26   13.20
   3   2  -1  354.26   13.40
   3   2  -1  353.86   14.50
  -3  -2   1  373.96   14.30
  -3  -2   1  368.36   13.40
  -3  -2   1  351.86   13.10
   2   2  -1 9778.12  294.57
   2   2  -1 9641.44  293.07
   2   2  -1 9572.14  293.27
   2   2  -1 9772.82  293.17
  -2  -2   1 9999.00  293.87
  -2  -2   1 9967.30  293.37
   1   2  -1 2074.99   63.49
   1   2  -1 2084.29   64.49
   1   2  -1 2122.19   63.19
   1   2  -1 2082.49   63.79
  -1  -2   1 2085.89   63.99
  -1  -2   1 2062.99   63.39
  -1  -2   1 2089.49   63.69
   0   2  -1  372.66   12.10
   0   2  -1  372.76   12.40
   0   2  -1  332.27   12.50
   0   2  -1  362.86   12.20
   0  -2   1  368.36   12.20
   0  -2   1  369.06   12.10
   0  -2   1  359.66   12.00
  -1   2  -1  307.17   10.70
  -1   2  -1  289.37   10.60
  -1   2  -1  286.17   10.10
  -1   2  -1  319.57   10.80
  -1   2  -1  298.47   10.70
   1  -2   1  294.57   10.50
   1  -2   1  289.17   10.50
   1  -2   1  307.47   10.80
  -2   2  -1  198.48    8.10
  -2   2  -1  204.68    8.20
  -2   2  -1  193.28    8.10
   2  -2   1  195.08    7.60
   2  -2   1  198.18    8.20
   2  -2   1  189.08    7.30
   2  -2   1  186.18    8.20
  -3   2  -1 1425.56   46.50
  -3   2  -1 1424.66   46.00
  -3   2  -1 1429.96   46.40
   3  -2   1 1434.96   46.30
   3  -2   1 1450.25   46.70
   3  -2   1 1430.66   45.30
  -4   2  -1   32.60    3.60
  -4   2  -1   31.30    4.20
  -4   2  -1   36.40    3.70
   4  -2   1   30.50    4.20
   4  -2   1   29.70    4.30
  -5   2  -1   19.10    1.40
  -5   2  -1   19.50    1.50
   5  -2   1   18.30    1.60
   5  -2   1   18.00    1.70
  -6   2  -1   60.09    2.80
  -6   2  -1   60.39    2.70
   6  -2   1   59.49    3.20
   6  -2   1   61.69    3.10
  -7   2  -1   36.10    1.80
  -7   2  -1   35.70    1.90
   7  -2   1   34.70    2.10
   7  -2   1   36.00    2.10
  -8   2  -1   91.09    3.20
  -8   2  -1   90.39    3.10
   8  -2   1   79.99    3.20
   8  -2   1   92.79    3.30
   8   1  -1    0.20    0.40
   8   1  -1   -0.40    0.40
  -8  -1   1    1.00    0.40
  -8  -1   1   -0.10    0.50
  -8  -1   1    1.20    0.50
   7   1  -1   36.00    1.80
   7   1  -1   34.90    1.80
   7   1  -1   32.10    2.10
   7   1  -1   36.60    2.00
  -7  -1   1   34.30    2.10
  -7  -1   1   35.10    2.00
   6   1  -1    3.80    0.90
   6   1  -1    3.40    0.70
   6   1  -1    3.00    0.70
   6   1  -1    2.90    0.60
   6   1  -1    3.70    0.80
  -6  -1   1    3.10    0.90
   5   1  -1   72.09    6.30
   5   1  -1   68.49    6.20
   5   1  -1   68.69    6.80
  -5  -1   1   57.69    6.10
  -5  -1   1   60.69    5.30
  -5  -1   1   67.99    6.20
   4   1  -1    8.60    2.60
   4   1  -1   14.20    2.70
   4   1  -1    7.50    2.20
  -4  -1   1    9.70    2.50
  -4  -1   1    5.30    1.90
  -4  -1   1    4.20    1.50
   3   1  -1 1474.45   47.30
   3   1  -1 1454.45   46.90
   3   1  -1 1572.44   47.50
   3   1  -1 1445.16   48.30
  -3  -1   1 1533.65   48.00
  -3  -1   1 1507.25   46.40
  -3  -1   1 1490.35   47.20
   2   1  -1 1396.96   43.90
   2   1  -1 1450.85   43.80
   2   1  -1 1389.86   43.90
   2   1  -1 1358.16   44.70
  -2  -1   1 1462.95   44.00
  -2  -1   1 1457.45   44.50
  -2  -1   1 1410.76   43.70
   1   1  -1    1.10    0.50
   1   1  -1    0.90    0.50
   1   1  -1    0.60    0.40
   1   1  -1    0.80    0.50
  -1  -1   1    2.70    0.70
  -1  -1   1    0.50    0.50
   0   1  -1 5487.85  165.68
   0   1  -1 5638.94  165.78
   0   1  -1 5386.56  165.78
   0   1  -1 5551.64  165.58
   0   1  -1 5503.45  165.68
   0  -1   1 5621.34  165.58
   0  -1   1 5601.94  165.68
  -1   1  -1  434.06   13.70
  -1   1  -1  424.26   13.80
  -1   1  -1  414.46   13.30
  -1   1  -1  427.16   13.90
   1  -1   1  421.06   13.80
   1  -1   1  416.46   13.50
   1  -1   1  407.86   13.80
  -2   1  -1 3923.21  113.99
  -2   1  -1 3857.21  113.69
  -2   1  -1 3750.92  114.09
   2  -1   1 3803.82  113.89
   2  -1   1 3693.33  114.09
   2  -1   1 3570.24  113.39
   2  -1   1 3708.23  113.09
  -3   1  -1    8.50    1.90
  -3   1  -1    5.90    1.90
  -3   1  -1    8.50    1.70
   3  -1   1    9.00    1.70
   3  -1   1    8.00    1.50
   3  -1   1    9.10    1.90
   3  -1   1    5.30    1.50
  -4   1  -1  144.89    8.20
  -4   1  -1  156.28    7.50
  -4   1  -1  144.49    8.10
   4  -1   1  151.68    7.60
   4  -1   1  143.09    7.30
   4  -1   1  152.28    8.20
  -5   1  -1    5.20    2.60
  -5   1  -1    5.80    1.80
   5  -1   1    5.60    2.30
   5  -1   1    6.40    1.40
  -6   1  -1    0.50    0.60
  -6   1  -1    1.00    0.60
  -6   1  -1    0.60    0.50
   6  -1   1    1.00    0.50
   6  -1   1    0.90    0.70
   6  -1   1    0.10    0.60
  -7   1  -1  191.58    6.70
  -7   1  -1  185.78    6.50
   7  -1   1  186.98    7.00
   7  -1   1  198.18    7.00
   7  -1   1  192.18    6.60
  -8   1  -1    3.90    0.60
  -8   1  -1    4.40    0.60
   8  -1   1    4.50    0.60
   8  -1   1    4.60    0.80
   8   0  -1    1.40    0.50
   8   0  -1    1.50    0.60
  -8   0   1    1.40    0.50
  -8   0   1    1.40    0.50
   7   0  -1    0.30    0.60
   7   0  -1    0.20    0.40
   7   0  -1   -0.70    0.30
  -7   0   1   -0.10    0.80
  -7   0   1    0.40    0.50
   6   0  -1    6.00    1.00
   6   0  -1    6.90    0.80
   6   0  -1    5.30    0.90
   6   0  -1    5.50    0.80
  -6   0   1    7.20    1.10
  -6   0   1    7.70    1.00
   5   0  -1  499.35   19.00
   5   0  -1  465.75   20.00
  -5   0   1  477.35   18.30
  -5   0   1  467.15   19.50
  -5   0   1  458.65   19.20
   4   0  -1  409.56   15.70
   4   0  -1  407.06   16.50
   4   0  -1  400.46   16.40
  -4   0   1  408.86   15.90
  -4   0   1  408.06   16.20
  -4   0   1  401.86   15.60
   3   0  -1   51.49    3.70
   3   0  -1   48.20    3.40
   3   0  -1   52.89    3.10
   3   0  -1   47.90    3.80
  -3   0   1   45.20    3.50
  -3   0   1   47.60    3.10
  -3   0   1   54.29    3.50
   2   0  -1 5221.58  165.48
   2   0  -1 5578.04  164.38
   2   0  -1 5297.47  164.98
   2   0  -1 5644.54  165.28
  -2   0   1 5628.84  164.98
  -2   0   1 5475.95  165.28
  -2   0   1 5539.45  164.88
   1   0  -1 5274.27  159.38
   1   0  -1 5203.58  159.28
   1   0  -1 5222.38  159.28
   1   0  -1 5544.15  158.98
   1   0  -1 5222.38  159.78
  -1   0   1 5376.36  159.38
  -1   0   1 5412.96  159.28
  -1   0  -1 5233.58  155.38
  -1   0  -1 5160.28  154.88
  -1   0  -1 5163.08  154.98
  -1   0  -1 5460.65  155.08
   1   0   1 5131.49  154.78
   1   0   1 5177.08  154.88
   1   0   1 5096.69  155.08
   1   0   1 5107.19  155.28
   1   0   1 5150.08  155.08
  -2   0  -1  278.07   10.00
  -2   0  -1  263.57    9.10
  -2   0  -1  280.77    9.60
  -2   0  -1  277.87    9.20
   2   0   1  243.98    9.40
   2   0   1  281.57    9.90
   2   0   1  250.97    9.60
   2   0   1  280.87    9.40
  -3   0  -1  300.17   11.40
  -3   0  -1  306.17   10.60
  -3   0  -1  302.47   11.00
  -3   0  -1  314.67   12.10
   3   0   1  292.97   11.30
   3   0   1  299.67   11.00
   3   0   1  300.87   12.00
  -4   0  -1   39.50    4.30
  -4   0  -1   38.90    4.50
  -4   0  -1   45.40    3.30
   4   0   1   45.70    4.90
   4   0   1   48.70    4.40
   4   0   1   43.50    2.90
   4   0   1   45.40    4.00
  -5   0  -1  325.97   15.10
  -5   0  -1  330.87   15.40
   5   0   1  367.16   14.60
   5   0   1  314.07   15.10
  -6   0  -1  749.33   22.60
  -6   0  -1  725.43   22.80
   6   0   1  725.23   22.50
   6   0   1  717.63   22.30
   6   0   1  720.13   22.90
   6   0   1  692.43   22.90
  -7   0  -1   47.20    2.40
  -7   0  -1   40.70    2.40
  -7   0  -1   42.20    2.00
   7   0   1   46.00    2.50
   7   0   1   43.20    2.20
  -8   0  -1   11.20    1.10
  -8   0  -1   14.80    1.00
  -8   0  -1   11.70    1.10
   8   0   1   12.20    1.00
   8   0   1   12.80    1.20
   8  -1  -1   19.60    1.30
   8  -1  -1   19.30    1.10
  -8   1   1   20.60    1.20
  -8   1   1   18.70    1.10
   7  -1  -1    3.00    0.70
   7  -1  -1    2.60    0.80
   7  -1  -1    3.10    0.80
  -7   1   1    2.90    0.60
  -7   1   1    3.90    0.80
   6  -1  -1  125.79    5.20
   6  -1  -1  128.79    4.70
   6  -1  -1  122.19    4.60
   6  -1  -1  123.49    5.10
  -6   1   1  124.29    4.80
   5  -1  -1  133.29    9.20
   5  -1  -1  138.59    7.90
  -5   1   1  113.29    7.90
  -5   1   1  115.49    7.10
   4  -1  -1  331.57   12.60
   4  -1  -1  297.57   13.70
   4  -1  -1  316.97   14.10
   4  -1  -1  325.97   13.10
  -4   1   1  318.37   13.30
  -4   1   1  307.27   13.30
  -4   1   1  319.77   13.40
   3  -1  -1  112.89    6.40
   3  -1  -1  115.59    5.90
   3  -1  -1  119.39    6.30
   3  -1  -1  130.09    6.10
  -3   1   1  120.69    6.10
  -3   1   1  116.99    6.00
  -3   1   1  126.59    6.40
   2  -1  -1 2180.28   69.49
   2  -1  -1 2273.97   68.89
   2  -1  -1 2169.08   68.79
   2  -1  -1 2271.17   69.49
  -2   1   1 2319.77   68.99
  -2   1   1 2309.47   68.99
  -2   1   1 2222.48   68.89
   1  -1  -1  117.59    4.90
   1  -1  -1  118.09    4.70
   1  -1  -1  121.59    5.10
   1  -1  -1  120.99    4.80
  -1   1   1  125.89    4.80
  -1   1   1  117.89    4.40
  -1   1   1  118.99    4.60
   0  -1  -1 3011.40   94.09
   0  -1  -1 3240.68   94.09
   0  -1  -1 3213.38   94.09
   0  -1  -1 3032.50   93.99
   0  -1  -1 3334.07   93.79
   0   1   1 3051.99   93.69
   0   1   1 3109.79   94.49
   0   1   1 3099.29   93.99
  -1  -1  -1   10.20    1.00
  -1  -1  -1   19.70    1.30
  -1  -1  -1   16.40    1.00
  -1  -1  -1   14.30    0.90
  -1  -1  -1   12.90    1.30
   1   1   1   14.40    1.30
   1   1   1   12.70    1.20
   1   1   1   13.80    0.90
   1   1   1   12.30    1.40
  -2  -1  -1  361.36   12.40
  -2  -1  -1  366.46   11.70
  -2  -1  -1  357.16   11.90
   2   1   1  347.97   11.40
   2   1   1  321.67   12.30
   2   1   1  341.17   11.00
   2   1   1  344.67   12.00
   2   1   1  349.27   12.00
  -3  -1  -1 1338.07   41.10
  -3  -1  -1 1274.87   39.50
  -3  -1  -1 1245.88   39.70
  -3  -1  -1 1307.97   40.00
   3   1   1 1274.17   40.50
   3   1   1 1219.68   40.10
   3   1   1 1206.78   40.60
  -4  -1  -1  464.55   18.10
  -4  -1  -1  474.65   16.50
  -4  -1  -1  438.56   16.20
  -4  -1  -1  457.25   17.10
   4   1   1  466.55   17.90
   4   1   1  485.65   17.40
   4   1   1  473.55   17.90
  -5  -1  -1  437.16   18.70
  -5  -1  -1  440.16   17.80
   5   1   1  496.55   18.40
   5   1   1  429.86   18.30
  -6  -1  -1   57.89    2.80
   6   1   1   52.79    2.80
   6   1   1   58.99    2.60
   6   1   1   54.29    2.40
  -7  -1  -1   12.20    1.30
  -7  -1  -1   14.40    1.50
   7   1   1   14.40    1.50
   7   1   1   14.20    1.10
   7   1   1   15.20    1.30
  -8  -1  -1   96.59    3.60
  -8  -1  -1   90.69    3.70
   8   1   1   86.79    3.70
   8   1   1   93.49    3.50
  -9  -1  -1   32.80    1.40
   9   1   1   30.90    1.80
   9   1   1   34.10    1.40
   8  -2  -1  161.18    5.40
  -8   2   1  152.58    5.10
  -8   2   1  154.98    5.10
   7  -2  -1    0.20    0.50
   7  -2  -1    0.20    0.40
   7  -2  -1   -0.10    0.60
  -7   2   1    1.10    0.50
  -7   2   1    0.30    0.40
   6  -2  -1    2.40    0.70
   6  -2  -1    1.80    0.70
   6  -2  -1    2.00    0.60
   6  -2  -1    1.10    0.80
  -6   2   1    4.80    0.70
  -6   2   1    1.90    0.60
   5  -2  -1    2.90    0.70
   5  -2  -1    3.20    0.60
   5  -2  -1    2.80    0.70
   5  -2  -1    3.60    0.90
   5  -2  -1    4.60    1.00
  -5   2   1    3.10    0.70
   4  -2  -1  208.48    9.90
   4  -2  -1  199.88    9.90
   4  -2  -1  244.28   11.70
  -4   2   1  210.58   10.60
  -4   2   1  210.48   11.00
   3  -2  -1  837.42   28.70
   3  -2  -1  882.61   30.00
   3  -2  -1  874.81   29.30
  -3   2   1  855.31   28.80
  -3   2   1  853.31   29.50
  -3   2   1  848.72   30.10
  -3   2   1  893.31   29.40
   2  -2  -1    2.30    1.10
   2  -2  -1    2.00    1.00
   2  -2  -1    2.00    0.90
  -2   2   1    2.70    1.10
  -2   2   1    2.60    0.90
  -2   2   1    3.80    1.40
  -2   2   1    1.80    1.10
   1  -2  -1  677.93   21.70
   1  -2  -1  629.84   21.10
   1  -2  -1  633.34   21.60
   1  -2  -1  693.23   21.30
  -1   2   1  656.93   22.20
  -1   2   1  683.93   21.70
  -1   2   1  652.93   21.30
   0  -2  -1  990.80   29.10
   0  -2  -1  908.81   29.30
   0  -2  -1  941.41   29.40
   0  -2  -1  972.40   29.50
   0   2   1  890.51   29.00
   0   2   1  959.40   29.50
   0   2   1  976.70   30.20
   0   2   1  896.81   28.90
  -1  -2  -1 2105.29   64.99
  -1  -2  -1 2180.68   65.29
  -1  -2  -1 2240.58   65.49
  -1  -2  -1 2239.28   65.49
   1   2   1 2110.19   64.99
   1   2   1 2252.27   65.39
   1   2   1 2170.98   66.29
   1   2   1 2059.09   64.69
   1   2   1 2001.70   65.09
  -2  -2  -1 4667.03  136.39
  -2  -2  -1 4332.87  136.39
  -2  -2  -1 4763.72  137.09
  -2  -2  -1 4723.03  137.39
   2   2   1 4570.64  136.49
   2   2   1 4277.07  137.69
   2   2   1 4647.94  136.99
   2   2   1 4316.97  136.39
  -3  -2  -1  230.38    9.60
  -3  -2  -1  224.08    8.50
  -3  -2  -1  216.18    8.80
   3   2   1  226.68    8.90
   3   2   1  223.48    8.40
   3   2   1  208.98    8.70
   3   2   1  203.68    9.50
  -4  -2  -1   17.30    2.80
  -4  -2  -1   14.10    2.00
  -4  -2  -1   11.20    2.00
   4   2   1   12.80    2.40
   4   2   1   20.10    2.90
   4   2   1   12.60    2.70
  -5  -2  -1    5.20    2.70
  -5  -2  -1    4.20    2.10
   5   2   1    0.50    1.50
   5   2   1    2.50    2.20
   5   2   1    2.90    2.30
  -6  -2  -1  231.58    8.00
   6   2   1  218.48    7.40
   6   2   1  223.58    7.70
   6   2   1  218.98    7.60
   6   2   1  224.78    8.00
  -7  -2  -1  241.98    8.20
  -7  -2  -1  240.38    8.50
   7   2   1  242.78    8.20
   7   2   1  241.18    7.90
   7   2   1  228.48    8.40
  -8  -2  -1    1.50    0.60
  -8  -2  -1    0.90    0.60
   8   2   1    1.50    0.50
   8   2   1    0.40    0.50
   8   2   1   -0.10    0.60
  -9  -2  -1    9.10    0.70
  -9  -2  -1    9.10    0.80
   9   2   1    8.30    1.00
   9   2   1    9.10    0.70
   7  -3  -1   41.30    2.20
   7  -3  -1   41.10    2.10
  -7   3   1   43.30    1.90
  -7   3   1   43.20    1.90
   6  -3  -1  270.37    9.70
   6  -3  -1  279.97    9.60
  -6   3   1  279.77    9.10
  -6   3   1  264.87    9.10
   5  -3  -1   27.00    1.80
   5  -3  -1   25.40    1.60
   5  -3  -1   27.20    2.00
  -5   3   1   25.60    1.60
  -5   3   1   25.30    1.60
   4  -3  -1  149.19    8.90
   4  -3  -1  154.48    9.60
  -4   3   1  150.58    9.80
  -4   3   1  158.58    9.10
   3  -3  -1   16.50    2.80
   3  -3  -1   21.70    4.00
   3  -3  -1   20.60    3.40
  -3   3   1   15.60    2.80
  -3   3   1   19.80    3.80
   2  -3  -1 1083.49   34.40
   2  -3  -1 1073.99   35.40
   2  -3  -1 1063.99   35.50
   2  -3  -1 1048.50   34.30
  -2   3   1 1075.79   34.90
  -2   3   1 1066.79   35.40
  -2   3   1 1074.19   36.10
   1  -3  -1  775.62   25.30
   1  -3  -1  723.23   25.10
   1  -3  -1  740.43   24.30
   1  -3  -1  788.12   25.00
  -1   3   1  777.02   25.40
  -1   3   1  767.52   26.10
  -1   3   1  725.03   24.60
   0  -3  -1  170.38    7.10
   0  -3  -1  167.18    6.80
   0  -3  -1  187.78    6.80
   0  -3  -1  188.58    7.30
   0   3   1  183.18    8.10
   0   3   1  171.08    6.60
   0   3   1  178.18    7.30
   0   3   1  168.68    6.60
  -1  -3  -1   38.10    2.40
  -1  -3  -1   40.20    2.70
  -1  -3  -1   39.30    2.50
  -1  -3  -1   44.50    2.80
   1   3   1   37.30    2.60
   1   3   1   44.70    3.50
   1   3   1   39.50    2.30
   1   3   1   42.20    2.60
  -2  -3  -1  132.49    6.00
  -2  -3  -1  123.89    5.90
  -2  -3  -1  123.19    5.60
   2   3   1  131.59    5.80
   2   3   1  125.89    5.10
   2   3   1  127.19    6.80
   2   3   1  122.69    5.50
  -3  -3  -1  204.88    8.10
  -3  -3  -1  206.08    9.50
  -3  -3  -1  215.38    9.10
  -3  -3  -1  202.68    8.30
   3   3   1  215.28   10.20
   3   3   1  221.78    8.50
   3   3   1  205.68    9.00
   3   3   1  213.08    8.50
  -4  -3  -1  494.65   18.60
  -4  -3  -1  518.95   18.20
  -4  -3  -1  470.15   19.50
   4   3   1  510.45   18.40
   4   3   1  506.85   19.00
   4   3   1  542.35   20.50
   4   3   1  518.55   17.90
  -5  -3  -1   66.69    5.10
  -5  -3  -1   77.19    4.70
  -5  -3  -1   73.19    5.30
   5   3   1   68.19    4.80
   5   3   1   86.69    6.80
  -6  -3  -1  105.79    4.40
  -6  -3  -1  108.09    4.60
   6   3   1  101.29    3.90
   6   3   1  102.19    4.00
   6   3   1  105.99    4.10
  -7  -3  -1   11.30    1.40
  -7  -3  -1    8.50    1.20
   7   3   1    8.90    1.10
   7   3   1    9.00    1.20
   7   3   1   10.60    1.00
  -8  -3  -1    8.80    1.10
  -8  -3  -1   10.80    1.10
   8   3   1    9.10    0.90
   8   3   1   10.00    1.10
   8   3   1    8.40    1.00
  -9  -3  -1   80.49    2.90
  -9  -3  -1   80.89    3.10
   9   3   1   83.59    3.00
   7  -4  -1  112.69    4.30
   7  -4  -1  118.89    4.20
  -7   4   1  122.19    4.00
   6  -4  -1   10.00    1.20
   6  -4  -1   10.20    1.30
  -6   4   1   10.90    1.10
  -6   4   1   12.10    1.10
  -6   4   1   10.10    1.00
   5  -4  -1    8.90    1.20
   5  -4  -1    8.50    1.70
   5  -4  -1    8.60    1.30
  -5   4   1    7.40    0.90
  -5   4   1    8.00    1.00
  -5   4   1    7.50    1.00
   4  -4  -1  279.77   10.90
   4  -4  -1  273.87    9.50
   4  -4  -1  277.37    9.70
   4  -4  -1  264.07    9.20
  -4   4   1  280.37    9.10
   3  -4  -1  477.75   20.30
   3  -4  -1  549.25   20.80
  -3   4   1  491.45   20.40
  -3   4   1  518.85   19.90
   2  -4  -1   71.49    4.40
   2  -4  -1   49.20    4.50
   2  -4  -1   53.49    5.20
  -2   4   1   49.00    5.20
  -2   4   1   64.79    5.30
  -2   4   1   51.29    4.30
   1  -4  -1  218.48    9.20
   1  -4  -1  204.48    9.30
   1  -4  -1  213.88    9.30
  -1   4   1  210.28   10.30
  -1   4   1  212.78    9.30
  -1   4   1  204.58    8.90
   0  -4  -1   -0.30    1.10
   0  -4  -1   -0.20    0.80
   0  -4  -1    0.60    0.80
   0  -4  -1    1.10    0.90
   0   4   1    0.60    1.80
   0   4   1    2.70    1.00
   0   4   1    0.20    0.70
  -1  -4  -1    0.60    0.80
  -1  -4  -1   -0.20    0.70
  -1  -4  -1    0.50    0.80
  -1  -4  -1    0.60    0.70
   1   4   1    0.50    0.70
   1   4   1    0.10    1.30
   1   4   1    1.10    0.80
   1   4   1   -0.60    0.70
  -2  -4  -1  980.00   32.60
  -2  -4  -1  994.20   32.90
  -2  -4  -1  998.90   32.80
   2   4   1  988.10   32.70
   2   4   1 1025.50   31.80
   2   4   1 1016.80   32.50
   2   4   1 1003.90   34.70
  -3  -4  -1  400.26   15.70
  -3  -4  -1  385.26   14.70
  -3  -4  -1  416.16   14.40
  -3  -4  -1  420.76   15.60
   3   4   1  407.26   15.00
   3   4   1  402.46   15.40
   3   4   1  410.16   17.00
  -4  -4  -1   12.00    2.50
  -4  -4  -1   13.00    1.40
  -4  -4  -1    8.10    3.10
   4   4   1   13.10    3.30
   4   4   1   12.40    3.10
   4   4   1   12.00    2.30
  -5  -4  -1   45.40    5.00
  -5  -4  -1   49.40    6.30
   5   4   1   66.99    7.30
   5   4   1   58.69    6.40
  -6  -4  -1   15.70    1.70
   6   4   1   15.10    1.20
   6   4   1   15.90    1.20
   6   4   1   11.70    1.10
   6   4   1   14.30    1.40
  -7  -4  -1  134.09    5.30
  -7  -4  -1  133.99    5.50
   7   4   1  128.79    4.80
   7   4   1  125.99    4.70
   7   4   1  129.49    5.00
  -8  -4  -1  331.67   11.40
  -8  -4  -1  346.87   11.00
  -8  -4  -1  369.96   11.40
   8   4   1  331.97   11.10
   8   4   1  337.67   10.90
  -9  -4  -1    0.80    0.40
  -9  -4  -1    0.50    0.40
   9   4   1   -0.10    0.30
   9   4   1    0.10    0.30
   6  -5  -1   33.60    2.00
   6  -5  -1   33.50    1.70
  -6   5   1   35.60    1.60
  -6   5   1   32.80    1.70
   5  -5  -1  346.67   13.30
   5  -5  -1  361.06   12.20
   5  -5  -1  362.06   11.90
  -5   5   1  358.26   11.80
  -5   5   1  360.46   11.60
   4  -5  -1   20.40    2.60
   4  -5  -1   19.10    1.90
  -4   5   1   19.90    1.50
  -4   5   1   20.10    1.70
   3  -5  -1   18.00    1.80
   3  -5  -1   19.60    2.50
   3  -5  -1   17.60    5.10
  -3   5   1   16.30    1.30
  -3   5   1   18.00    1.50
   2  -5  -1  422.16   17.30
   2  -5  -1  429.46   17.50
   2  -5  -1  406.56   16.40
  -2   5   1  416.66   17.90
  -2   5   1  439.86   17.10
   1  -5  -1   60.99    5.70
   1  -5  -1   71.99    5.20
  -1   5   1   64.19    5.40
  -1   5   1   70.59    4.80
  -1   5   1   68.39    4.50
   0  -5  -1    7.30    1.90
   0  -5  -1    5.60    2.20
   0  -5  -1    4.40    0.90
   0   5   1   12.10    3.20
   0   5   1    6.10    1.90
   0   5   1    8.60    1.80
  -1  -5  -1 1220.68   40.00
  -1  -5  -1 1227.78   40.20
  -1  -5  -1 1228.58   40.60
   1   5   1 1232.38   42.80
   1   5   1 1287.47   41.00
  -2  -5  -1   17.70    2.80
  -2  -5  -1   19.50    3.10
  -2  -5  -1   23.90    3.00
   2   5   1   18.00    2.50
   2   5   1   21.00    2.70
   2   5   1   20.00    2.90
   2   5   1   21.50    4.00
  -3  -5  -1  144.79    7.30
  -3  -5  -1  121.79    6.80
  -3  -5  -1  130.79    7.40
   3   5   1  143.29    7.30
   3   5   1  127.49    8.50
   3   5   1  133.49    7.20
  -4  -5  -1   27.80    3.90
  -4  -5  -1   25.40    3.80
   4   5   1   25.10    3.70
   4   5   1   27.20    4.90
   4   5   1   28.30    4.60
  -5  -5  -1    3.20    2.10
  -5  -5  -1    7.10    2.90
   5   5   1    4.70    3.00
   5   5   1    8.20    2.20
  -6  -5  -1  106.69    4.80
   6   5   1  103.09    4.20
   6   5   1  103.89    4.00
   6   5   1  106.29    4.00
   6   5   1  110.99    4.40
  -7  -5  -1  144.39    5.80
  -7  -5  -1  139.19    5.50
   7   5   1  134.29    5.20
   7   5   1  139.19    5.00
   7   5   1  140.09    5.20
   7   5   1  148.79    5.00
  -8  -5  -1   22.90    1.40
  -8  -5  -1   23.30    1.70
  -8  -5  -1   25.50    1.70
   8   5   1   24.00    1.40
   8   5   1   21.30    1.30
  -9  -5  -1   35.00    1.60
   9   5   1   36.30    1.40
   9   5   1   33.70    1.50
   6  -6  -1    0.20    0.40
  -6   6   1    0.50    0.30
   5  -6  -1    7.70    1.10
   5  -6  -1    5.70    1.40
  -5   6   1    6.60    0.90
  -5   6   1    7.60    0.80
   4  -6  -1   78.89    3.80
   4  -6  -1   82.39    4.90
  -4   6   1   83.09    3.30
  -4   6   1   86.39    3.60
   3  -6  -1  285.27   11.20
   3  -6  -1  297.67   11.90
   3  -6  -1  309.47   10.50
  -3   6   1  295.27   10.00
  -3   6   1  306.57    9.90
  -3   6   1  307.27   10.20
   2  -6  -1  128.59    5.20
   2  -6  -1  130.19    6.30
   2  -6  -1  135.49    6.10
  -2   6   1  128.69    4.60
  -2   6   1  129.69    4.90
  -2   6   1  126.09    5.00
   1  -6  -1   21.90    3.80
   1  -6  -1   24.00    4.40
  -1   6   1   24.80    2.80
   0  -6  -1  685.63   24.50
   0  -6  -1  628.74   24.30
   0   6   1  663.23   25.20
   0   6   1  683.13   27.10
  -1  -6  -1   -0.40    1.50
  -1  -6  -1    1.20    1.70
  -1  -6  -1    3.40    1.70
   1   6   1    1.20    2.20
   1   6   1    1.40    1.60
  -2  -6  -1   14.50    2.90
  -2  -6  -1   16.20    3.20
   2   6   1   14.90    3.00
   2   6   1   11.60    4.20
  -3  -6  -1  123.19    7.30
  -3  -6  -1  108.89    7.60
   3   6   1  136.79    9.00
   3   6   1  132.19    7.60
  -4  -6  -1    1.00    1.70
  -4  -6  -1   -2.50    0.70
   4   6   1   -0.10    2.30
  -5  -6  -1   98.69    4.20
   5   6   1   98.09    4.00
   5   6   1   98.59    3.70
   5   6   1   97.19    3.80
  -6  -6  -1   18.60    1.60
  -6  -6  -1   15.90    1.80
   6   6   1   19.30    1.30
   6   6   1   19.40    1.70
   6   6   1   15.60    1.30
  -7  -6  -1   28.30    2.10
  -7  -6  -1   32.00    2.00
   7   6   1   30.90    1.70
   7   6   1   30.30    1.60
   7   6   1   27.80    1.70
  -8  -6  -1  146.59    5.30
  -8  -6  -1  152.88    5.50
   8   6   1  138.09    5.00
   8   6   1  152.88    5.00
   5  -7  -1    1.50    0.50
   5  -7  -1    1.50    0.70
  -5   7   1    1.70    0.40
  -5   7   1    2.50    0.50
   4  -7  -1  104.79    5.30
   4  -7  -1  104.99    4.30
  -4   7   1  104.79    3.80
  -4   7   1  105.29    4.10
   3  -7  -1   22.00    1.80
   3  -7  -1   19.00    2.20
   3  -7  -1   20.80    2.70
  -3   7   1   22.00    1.50
  -3   7   1   23.60    1.60
  -3   7   1   20.10    1.60
   2  -7  -1   64.49    4.20
   2  -7  -1   58.89    3.80
  -2   7   1   59.79    2.80
  -2   7   1   58.39    2.90
  -2   7   1   61.09    2.60
   1  -7  -1  261.17   11.50
   1  -7  -1  303.67   11.50
   1  -7  -1  293.87   11.20
  -1   7   1  289.07    9.80
  -1   7   1  289.57    9.70
  -1   7   1  295.77    9.80
   0  -7  -1  160.38    6.70
   0  -7  -1  171.88    9.70
   0  -7  -1  165.88    7.30
   0   7   1  169.38    6.10
   0   7   1  174.78    6.10
  -1  -7  -1   59.79    6.00
   1   7   1   59.09    7.30
   1   7   1   70.29    7.00
  -2  -7  -1   26.10    4.30
  -2  -7  -1   30.50    4.50
   2   7   1   39.80    5.30
   2   7   1   29.70    5.80
  -3  -7  -1    0.80    1.20
  -3  -7  -1   -1.50    3.70
  -3  -7  -1   -0.60    1.90
  -3  -7  -1    1.50    0.70
   3   7   1    0.50    0.50
   3   7   1    1.60    2.70
   3   7   1   -0.30    2.10
   3   7   1   -0.10    0.40
  -4  -7  -1   58.29    2.90
  -4  -7  -1   59.19    3.40
   4   7   1   60.19    2.60
   4   7   1   56.29    2.60
   4   7   1   53.19    2.50
   4   7   1   62.29    3.10
  -5  -7  -1   73.59    3.70
  -5  -7  -1   74.69    3.50
   5   7   1   74.89    3.10
   5   7   1   76.29    3.10
   5   7   1   78.09    3.10
  -6  -7  -1    0.60    0.70
  -6  -7  -1    0.80    0.70
   6   7   1    0.70    0.60
   6   7   1    0.20    0.50
   6   7   1    0.90    0.50
  -7  -7  -1   90.19    4.00
  -7  -7  -1   89.59    3.70
   7   7   1   87.99    3.40
   7   7   1   89.19    3.30
  -8  -7  -1    3.20    0.70
  -8  -7  -1    2.70    0.70
   8   7   1    2.40    0.50
   8   7   1    3.20    0.40
   4  -8  -1   14.50    1.10
   4  -8  -1   14.90    1.60
  -4   8   1   15.90    0.90
  -4   8   1   15.80    1.00
   3  -8  -1    6.30    1.40
   3  -8  -1    6.10    1.30
  -3   8   1    4.90    0.80
  -3   8   1    5.60    0.70
   2  -8  -1  127.49    6.00
   2  -8  -1  127.19    6.40
  -2   8   1  128.39    4.80
  -2   8   1  133.39    5.00
  -2   8   1  128.09    4.60
   1  -8  -1   94.29    5.10
   1  -8  -1   96.69    5.40
   1  -8  -1   81.39    4.40
  -1   8   1   96.89    3.90
  -1   8   1   94.79    3.90
   0  -8  -1  256.57   10.30
   0  -8  -1  250.37    9.60
   0  -8  -1  253.37   10.30
   0   8   1  258.77    8.80
   0   8   1  261.07    8.80
  -1  -8  -1   58.89    3.50
  -1  -8  -1   61.39    3.90
   1   8   1   58.89    2.80
   1   8   1   58.89    2.70
   1   8   1   63.29    2.90
  -2  -8  -1    7.30    1.50
  -2  -8  -1    6.50    1.40
  -2  -8  -1    7.50    1.10
   2   8   1    5.50    0.80
   2   8   1    7.20    1.00
   2   8   1    6.40    0.90
  -3  -8  -1   14.70    1.50
  -3  -8  -1   15.50    1.90
   3   8   1   16.30    1.30
   3   8   1   14.50    1.30
  -4  -8  -1   94.99    4.70
  -4  -8  -1   98.99    4.30
   4   8   1   96.49    3.80
   4   8   1   97.89    3.90
   4   8   1   98.99    4.40
  -5  -8  -1  102.19    4.30
  -5  -8  -1   89.09    4.30
   5   8   1  101.79    3.80
   5   8   1   90.39    3.70
   5   8   1   97.79    3.70
  -6  -8  -1   45.50    2.60
  -6  -8  -1   40.20    2.30
   6   8   1   42.90    2.00
   6   8   1   42.50    2.40
   6   8   1   39.70    2.00
  -7  -8  -1    3.30    0.70
  -7  -8  -1    4.10    0.80
  -7  -8  -1    5.00    0.90
   7   8   1    4.30    0.50
   7   8   1    3.70    0.60
  -8  -8  -1    0.40    0.40
   8   8   1    0.60    0.30
   8   8   1    0.20    0.30
   3  -9  -1   42.40    2.40
   3  -9  -1   49.90    2.80
  -3   9   1   46.50    2.00
   2  -9  -1  111.99    5.20
   2  -9  -1  117.79    5.50
  -2   9   1  120.29    4.40
  -2   9   1  113.79    4.20
   1  -9  -1  116.59    5.60
   1  -9  -1  109.49    5.60
  -1   9   1  116.29    4.40
  -1   9   1  119.09    4.50
   0  -9  -1   20.10    2.40
   0  -9  -1   17.70    1.90
   0   9   1   17.90    1.50
   0   9   1   19.10    1.60
  -1  -9  -1    0.70    0.60
  -1  -9  -1    1.10    0.80
   1   9   1    0.10    0.50
   1   9   1    0.40    0.50
  -2  -9  -1  128.29    5.70
  -2  -9  -1  128.39    6.00
  -2  -9  -1  112.59    4.80
   2   9   1  123.39    4.70
   2   9   1  129.09    4.70
   2   9   1  115.69    4.50
  -3  -9  -1  108.09    5.10
  -3  -9  -1  102.39    4.40
   3   9   1  107.49    4.10
   3   9   1  108.99    4.20
  -4  -9  -1    2.80    1.00
  -4  -9  -1    2.50    0.80
  -4  -9  -1    2.60    0.80
   4   9   1    2.70    0.60
   4   9   1    2.60    0.60
  -5  -9  -1   55.39    3.60
  -5  -9  -1   53.59    2.70
  -5  -9  -1   56.29    2.90
   5   9   1   54.39    2.40
   5   9   1   49.50    2.30
  -6  -9  -1    1.30    0.70
  -6  -9  -1    1.20    0.60
   6   9   1    1.50    0.50
   6   9   1    1.20    0.40
   6   9   1    1.90    0.50
  -7  -9  -1   49.70    2.30
  -7  -9  -1   43.90    2.00
   7   9   1   45.60    1.80
   7   9   1   50.59    1.90
   2 -10  -1    0.00    0.50
  -2  10   1   -0.40    0.30
   1 -10  -1    0.30    0.70
   1 -10  -1    0.50    0.70
  -1  10   1    1.10    0.40
  -1  10   1    0.80    0.50
   0 -10  -1   27.50    1.90
   0 -10  -1   28.70    2.30
   0  10   1   28.30    1.60
   0  10   1   26.50    1.50
  -1 -10  -1   53.59    3.30
  -1 -10  -1   51.59    2.90
   1  10   1   50.99    2.40
   1  10   1   54.89    2.40
  -2 -10  -1  203.38    8.20
  -2 -10  -1  193.68    7.00
  -2 -10  -1  223.58    8.00
   2  10   1  193.68    6.80
   2  10   1  202.38    7.10
   2  10   1  212.98    7.00
  -3 -10  -1    3.20    0.70
  -3 -10  -1    2.40    0.90
   3  10   1    2.60    0.60
   3  10   1    3.60    0.60
  -4 -10  -1   26.20    1.60
  -4 -10  -1   25.60    2.00
   4  10   1   24.60    1.40
   4  10   1   22.30    1.30
  -5 -10  -1   32.10    1.80
  -5 -10  -1   26.90    1.70
  -5 -10  -1   29.20    1.90
   5  10   1   32.20    1.50
   5  10   1   34.30    1.60
  -6 -10  -1   31.60    1.70
  -6 -10  -1   33.80    1.70
   6  10   1   31.30    1.40
   6  10   1   32.80    1.40
   0 -11  -1   11.30    1.20
   0  11   1   10.00    1.00
   0  11   1   11.90    0.90
  -1 -11  -1   36.30    2.20
  -1 -11  -1   36.30    1.90
   1  11   1   36.20    1.60
   1  11   1   33.40    1.50
  -2 -11  -1    4.80    0.90
  -2 -11  -1    3.90    0.80
   2  11   1    4.80    0.60
  -3 -11  -1   70.69    3.20
  -3 -11  -1   64.19    2.60
   3  11   1   62.89    2.40
   3  11   1   69.69    2.60
  -4 -11  -1   65.89    2.60
  -4 -11  -1   69.89    3.00
   4  11   1   62.19    2.40
   4  11   1   71.69    2.50
  -5 -11  -1   13.70    0.90
   5  11   1   12.30    0.70
   5  11   1   14.20    0.90
   4  11  -2   48.50    1.90
  -4 -11   2   50.09    2.00
   3  11  -2   25.90    1.20
   3  11  -2   24.40    1.20
  -3 -11   2   26.90    1.60
  -3 -11   2   25.00    1.30
   2  11  -2   28.20    1.30
   2  11  -2   28.80    1.30
  -2 -11   2   29.50    1.80
   1  11  -2   14.60    0.90
  -1 -11   2   14.00    1.10
   6  10  -2    8.70    0.60
   6  10  -2    9.40    0.60
  -6 -10   2    9.60    0.80
  -6 -10   2   10.50    0.90
   5  10  -2   38.50    1.60
   5  10  -2   33.70    1.50
  -5 -10   2   34.50    1.90
  -5 -10   2   37.70    1.80
   4  10  -2   10.20    0.90
   4  10  -2   10.10    0.80
   4  10  -2   11.60    1.00
  -4 -10   2   10.00    1.30
  -4 -10   2   11.30    1.10
   3  10  -2    3.20    0.60
   3  10  -2    3.40    0.70
  -3 -10   2    3.40    0.90
  -3 -10   2    3.00    0.70
   2  10  -2   30.80    1.60
   2  10  -2   28.30    1.60
  -2 -10   2   27.20    1.70
  -2 -10   2   27.20    2.10
   1  10  -2   40.50    2.00
   1  10  -2   41.20    2.10
  -1 -10   2   42.20    2.60
  -1 -10   2   42.00    2.70
   0  10  -2   21.80    1.30
   0  10  -2   23.90    1.40
   0 -10   2   25.60    2.10
   0 -10   2   23.30    1.80
  -1  10  -2   82.49    3.20
   1 -10   2   85.09    3.90
   7   9  -2   42.30    1.60
  -7  -9   2   41.70    2.00
   6   9  -2   12.00    0.90
   6   9  -2   13.50    0.90
  -6  -9   2   14.60    1.40
  -6  -9   2   13.70    1.10
   5   9  -2    5.80    0.80
   5   9  -2    6.40    0.70
  -5  -9   2    5.40    0.90
  -5  -9   2    5.70    1.00
   4   9  -2   10.90    1.10
   4   9  -2   10.90    1.10
   4   9  -2   11.00    1.40
   4   9  -2   10.50    1.00
  -4  -9   2   11.00    1.50
  -4  -9   2   11.00    1.30
   3   9  -2  132.69    5.00
   3   9  -2  145.89    5.40
   3   9  -2  130.29    5.00
   3   9  -2  128.69    4.80
  -3  -9   2  138.89    5.30
  -3  -9   2  132.99    5.90
   2   9  -2  206.38    7.30
   2   9  -2  202.18    7.20
  -2  -9   2  212.58    8.30
   1   9  -2   29.80    1.80
   1   9  -2   29.80    1.90
  -1  -9   2   33.60    2.70
  -1  -9   2   31.40    2.40
   0   9  -2    7.10    1.00
   0   9  -2    6.40    0.90
   0  -9   2    6.90    1.50
   0  -9   2    5.70    1.20
  -1   9  -2    1.00    0.50
  -1   9  -2    0.70    0.50
  -1   9  -2    1.10    0.60
   1  -9   2    0.40    0.70
   1  -9   2    1.20    0.90
   1  -9   2    0.90    0.90
  -2   9  -2   61.59    2.70
  -2   9  -2   61.69    2.50
   2  -9   2   62.29    3.40
   2  -9   2   64.89    3.60
  -3   9  -2   20.10    1.00
  -3   9  -2   19.00    1.10
   3  -9   2   17.00    1.40
   3  -9   2   19.80    1.60
   7   8  -2   10.00    0.80
   7   8  -2    9.90    0.70
   7   8  -2   10.50    0.80
  -7  -8   2   11.10    1.00
  -7  -8   2   10.50    1.10
   6   8  -2   24.50    1.40
   6   8  -2   25.20    1.40
   6   8  -2   25.70    1.60
   6   8  -2   22.10    1.30
  -6  -8   2   24.00    1.60
  -6  -8   2   26.90    1.90
   5   8  -2   11.50    1.40
   5   8  -2   10.30    1.10
   5   8  -2   11.60    1.10
   5   8  -2   13.00    1.30
  -5  -8   2   12.00    1.30
   4   8  -2   69.59    3.00
   4   8  -2   74.49    3.10
   4   8  -2   69.89    3.10
   4   8  -2   73.39    3.60
  -4  -8   2   76.19    3.50
  -4  -8   2   69.59    3.80
   3   8  -2  334.07   11.20
   3   8  -2  326.87   11.10
   3   8  -2  323.67   10.90
   3   8  -2  348.37   11.50
   3   8  -2  339.27   11.60
  -3  -8   2  348.97   12.20
   2   8  -2   46.60    2.50
   2   8  -2   44.80    2.40
   2   8  -2   45.20    2.40
  -2  -8   2   47.80    3.00
   1   8  -2   22.70    1.80
   1   8  -2   21.00    1.60
   1   8  -2   23.70    1.80
   1   8  -2   19.50    1.40
  -1  -8   2   21.60    2.30
  -1  -8   2   23.40    2.40
   0   8  -2   10.30    1.00
   0   8  -2    9.80    1.20
   0   8  -2   10.00    1.20
   0  -8   2    8.30    1.40
   0  -8   2    9.70    1.80
  -1   8  -2    5.40    0.90
  -1   8  -2    5.40    0.80
  -1   8  -2    5.00    0.90
   1  -8   2    6.60    1.60
   1  -8   2    5.40    1.40
   1  -8   2    4.80    1.20
  -2   8  -2   73.69    3.10
  -2   8  -2   78.19    3.40
   2  -8   2   77.59    4.50
   2  -8   2   77.99    4.30
  -3   8  -2  139.79    5.10
  -3   8  -2  136.99    4.90
   3  -8   2  145.79    6.40
   3  -8   2  134.59    6.00
  -4   8  -2    0.10    0.40
  -4   8  -2    0.30    0.30
   4  -8   2    0.60    0.70
   8   7  -2   17.20    0.90
   8   7  -2   20.60    0.90
  -8  -7   2   17.30    1.10
  -8  -7   2   18.40    1.20
   7   7  -2   18.20    1.20
   7   7  -2   19.50    1.10
   7   7  -2   22.70    1.20
  -7  -7   2   21.60    1.70
   6   7  -2   12.00    1.30
   6   7  -2   12.60    1.10
   6   7  -2   14.60    1.20
   6   7  -2   12.50    1.10
  -6  -7   2   12.00    1.20
  -6  -7   2   11.90    1.50
   5   7  -2   54.99    3.10
   5   7  -2   57.09    2.60
   5   7  -2   54.89    2.50
   5   7  -2   52.39    2.70
   5   7  -2   55.69    2.50
  -5  -7   2   54.79    2.90
   4   7  -2  193.78    7.20
   4   7  -2  203.78    7.00
   4   7  -2  208.38    7.20
   4   7  -2  210.88    7.70
   4   7  -2  213.58    7.20
   3   7  -2   23.10    1.50
   3   7  -2   23.60    1.50
   3   7  -2   24.30    1.80
   3   7  -2   23.60    1.70
   3   7  -2   24.80    1.60
  -3  -7   2   24.10    2.10
   2   7  -2   63.29    3.00
   2   7  -2   65.79    2.90
   2   7  -2   64.19    7.60
   2   7  -2   62.49    2.80
   1   7  -2  195.68    8.00
   1   7  -2  214.38    7.50
   1   7  -2  217.88    7.40
   1   7  -2  209.28    7.40
   1   7  -2  220.28    8.30
  -1  -7   2  203.58   10.50
  -1  -7   2  214.28    8.60
   0   7  -2  210.08    7.40
   0   7  -2  214.18    8.30
   0   7  -2  214.48    7.50
   0   7  -2  207.28    7.10
   0  -7   2  216.08    8.70
  -1   7  -2    3.20    1.00
  -1   7  -2    1.40    0.70
  -1   7  -2    3.10    0.70
  -1   7  -2    4.10    0.80
   1  -7   2    4.20    1.40
   1  -7   2    2.90    1.20
  -2   7  -2   59.19    2.70
  -2   7  -2   60.99    3.00
   2  -7   2   60.59    3.80
   2  -7   2   64.39    4.10
  -3   7  -2    0.80    0.60
  -3   7  -2    1.20    0.60
   3  -7   2    1.20    0.90
   3  -7   2    1.10    0.90
  -4   7  -2   43.70    2.00
  -4   7  -2   43.10    2.10
   4  -7   2   40.70    2.20
   4  -7   2   40.70    3.00
   4  -7   2   35.90    2.60
  -5   7  -2   12.40    1.00
  -5   7  -2   13.40    0.90
   5  -7   2   12.70    1.40
   5  -7   2   13.00    1.00
   8   6  -2    3.70    0.50
   8   6  -2    2.90    0.40
  -8  -6   2    3.10    0.50
  -8  -6   2    2.20    0.60
  -8  -6   2    1.80    0.60
   7   6  -2   -0.10    0.40
   7   6  -2    0.80    0.40
   7   6  -2   -0.30    0.40
  -7  -6   2   -0.20    0.50
   6   6  -2  140.69    5.00
   6   6  -2  136.59    5.30
   6   6  -2  136.39    4.90
   6   6  -2  135.59    5.00
   6   6  -2  140.89    5.00
  -6  -6   2  135.89    5.70
   5   6  -2  330.57   11.40
   5   6  -2  356.26   11.50
   5   6  -2  362.36   12.30
   5   6  -2  360.16   11.50
   5   6  -2  351.86   11.50
   5   6  -2  356.56   11.90
  -5  -6   2  373.66   11.90
   4   6  -2   22.50    2.20
   4   6  -2   23.70    1.80
   4   6  -2   23.10    1.40
   4   6  -2   24.10    1.50
   4   6  -2   21.10    3.90
   4   6  -2   24.00    1.70
  -4  -6   2   23.60    5.50
   3   6  -2  155.28    8.30
   3   6  -2  173.68    9.60
   3   6  -2  158.58   11.90
  -3  -6   2  134.99    8.10
  -3  -6   2  158.28    9.40
  -3  -6   2  144.59    9.00
   2   6  -2  100.69    8.40
   2   6  -2  108.69    7.20
   2   6  -2  103.79    6.40
  -2  -6   2   94.79    6.40
  -2  -6   2   94.79    6.60
  -2  -6   2   92.79    6.50
   1   6  -2  247.98   11.20
   1   6  -2  228.58   12.60
   1   6  -2  233.48   12.00
  -1  -6   2  241.68   11.50
  -1  -6   2  241.18   11.40
   0   6  -2   87.29    6.20
   0   6  -2   85.79    7.70
   0  -6   2   80.29    5.40
   0  -6   2   71.69    6.30
   0  -6   2   85.29    5.30
  -1   6  -2  785.72   27.90
  -1   6  -2  730.53   28.70
   1  -6   2  767.52   27.60
   1  -6   2  704.73   27.80
  -2   6  -2   41.00    2.10
  -2   6  -2   46.40    2.40
   2  -6   2   41.40    3.20
   2  -6   2   39.10    3.00
  -3   6  -2   95.89    4.00
  -3   6  -2   97.09    3.80
   3  -6   2   96.99    5.30
   3  -6   2   92.99    4.20
   3  -6   2   92.59    4.90
  -4   6  -2  294.97    9.60
  -4   6  -2  292.77    9.80
  -4   6  -2  289.27    9.60
   4  -6   2  293.27   10.10
   4  -6   2  292.17   11.50
   4  -6   2  273.67   10.70
  -5   6  -2   -0.40    0.50
  -5   6  -2    0.10    0.40
   5  -6   2    0.60    0.60
   5  -6   2    1.40    0.90
  -6   6  -2   49.99    1.90
   6  -6   2   52.49    2.10
   6  -6   2   41.10    3.20
   8   5  -2    0.20    0.40
   8   5  -2   -0.20    0.40
   8   5  -2   -0.10    0.30
  -8  -5   2    0.60    0.50
   7   5  -2   72.59    2.90
   7   5  -2   70.99    2.90
   7   5  -2   72.19    2.80
   7   5  -2   67.29    3.00
  -7  -5   2   72.59    3.40
   6   5  -2   62.19    2.70
   6   5  -2   62.59    2.70
   6   5  -2   64.39    3.00
   6   5  -2   60.79    2.60
   6   5  -2   58.69    2.60
  -6  -5   2   60.29    3.20
   5   5  -2   40.00    2.00
   5   5  -2   38.30    1.90
   5   5  -2   38.40    2.10
   5   5  -2   38.10    2.40
   5   5  -2   35.80    1.80
   5   5  -2   37.20    1.90
   4   5  -2  689.93   27.50
   4   5  -2  688.43   25.00
  -4  -5   2  658.13   26.20
  -4  -5   2  638.64   23.90
  -4  -5   2  668.33   25.00
   3   5  -2   17.30    4.20
   3   5  -2   20.80    3.00
   3   5  -2   19.50    3.40
  -3  -5   2    9.80    3.00
  -3  -5   2   13.30    2.30
  -3  -5   2   20.70    3.40
   2   5  -2    9.50    3.30
   2   5  -2    5.90    1.70
   2   5  -2    7.90    2.00
  -2  -5   2    6.50    1.30
  -2  -5   2    9.30    2.10
  -2  -5   2    6.00    1.80
   1   5  -2 1240.18   41.60
   1   5  -2 1239.08   40.70
   1   5  -2 1266.47   43.20
  -1  -5   2 1227.58   41.00
  -1  -5   2 1277.17   41.20
  -1  -5   2 1203.18   41.20
   0   5  -2  876.51   31.20
   0   5  -2  937.41   32.10
   0   5  -2  881.41   30.60
   0   5  -2  899.11   30.40
   0  -5   2  880.21   30.20
   0  -5   2  889.21   30.60
   0  -5   2  869.11   30.00
  -1   5  -2  178.08    9.10
  -1   5  -2  172.28    9.80
   1  -5   2  173.38    9.20
   1  -5   2  182.68    9.20
  -2   5  -2   28.50    4.40
  -2   5  -2   36.50    4.70
   2  -5   2   29.20    4.60
   2  -5   2   26.40    4.20
  -3   5  -2   36.20    1.90
  -3   5  -2   37.80    2.00
  -3   5  -2   40.10    2.20
   3  -5   2   41.00    2.40
   3  -5   2   37.80    3.10
  -4   5  -2   47.60    2.40
  -4   5  -2   50.39    2.40
  -4   5  -2   49.80    2.50
   4  -5   2   50.99    2.80
  -5   5  -2  298.97    9.70
  -5   5  -2  287.17    9.70
  -5   5  -2  299.27    9.60
   5  -5   2  280.27   11.30
   5  -5   2  295.87   10.20
  -6   5  -2    6.10    0.80
  -6   5  -2    6.50    0.80
   6  -5   2    6.10    1.30
   6  -5   2    5.60    0.90
   8   4  -2    3.10    0.60
   8   4  -2    3.60    0.60
   8   4  -2    3.00    0.50
  -8  -4   2    4.40    0.80
  -8  -4   2    4.90    0.70
   7   4  -2   -0.40    0.40
   7   4  -2    0.10    0.50
   7   4  -2    0.40    0.40
   7   4  -2    0.60    0.50
  -7  -4   2   -0.20    1.20
  -7  -4   2    0.80    0.70
   6   4  -2   42.90    2.00
   6   4  -2   47.40    2.50
   6   4  -2   46.40    2.10
   6   4  -2   47.70    2.40
   6   4  -2   46.60    2.20
   6   4  -2   45.20    2.20
   6   4  -2   42.70    2.10
  -6  -4   2   48.90    2.80
   5   4  -2   10.10    2.90
   5   4  -2   13.20    3.80
   5   4  -2   13.60    3.90
  -5  -4   2   10.60    2.90
   4   4  -2  407.46   16.20
   4   4  -2  409.46   16.30
   4   4  -2  415.56   18.60
  -4  -4   2  403.76   16.20
  -4  -4   2  392.06   15.70
  -4  -4   2  377.06   17.10
   3   4  -2  460.05   17.00
   3   4  -2  462.85   17.50
   3   4  -2  452.05   19.30
   3   4  -2  483.05   17.00
  -3  -4   2  452.75   17.40
  -3  -4   2  436.66   17.90
   2   4  -2 1104.29   37.70
   2   4  -2 1114.99   35.90
   2   4  -2 1112.19   34.60
   2   4  -2 1072.79   35.30
  -2  -4   2 1083.79   36.30
  -2  -4   2 1025.50   35.10
  -2  -4   2 1065.29   35.70
   1   4  -2  446.46   16.30
   1   4  -2  460.65   17.80
   1   4  -2  471.85   16.90
  -1  -4   2  468.55   16.50
  -1  -4   2  435.56   16.40
  -1  -4   2  436.06   15.40
   0   4  -2    0.90    0.90
   0   4  -2    0.90    1.40
   0   4  -2    1.20    1.10
   0   4  -2    2.80    1.20
   0  -4   2    0.80    1.30
   0  -4   2    1.10    0.50
   0  -4   2    1.50    0.90
  -1   4  -2  437.66   16.60
  -1   4  -2  440.36   17.10
  -1   4  -2  461.95   16.70
   1  -4   2  451.35   16.60
   1  -4   2  415.96   15.70
   1  -4   2  450.95   16.70
  -2   4  -2  784.42   27.50
  -2   4  -2  797.22   27.30
  -2   4  -2  783.62   27.70
   2  -4   2  777.32   26.90
   2  -4   2  708.33   26.60
   2  -4   2  791.12   27.30
  -3   4  -2   29.10    4.30
  -3   4  -2   27.30    3.30
   3  -4   2   33.40    4.50
   3  -4   2   25.60    4.40
  -4   4  -2   13.20    1.30
  -4   4  -2   12.90    1.30
  -4   4  -2   11.70    1.10
   4  -4   2   14.80    2.20
   4  -4   2   14.20    1.60
  -5   4  -2    3.10    0.70
  -5   4  -2    3.40    0.80
   5  -4   2    1.70    1.10
   5  -4   2    2.40    0.80
   5  -4   2    3.10    0.90
  -6   4  -2   66.39    2.80
  -6   4  -2   67.59    2.80
   6  -4   2   58.69    3.60
   6  -4   2   66.59    3.20
   6  -4   2   66.29    3.00
  -7   4  -2   64.99    2.50
  -7   4  -2   63.29    2.40
   7  -4   2   63.09    2.70
   7  -4   2   62.39    2.50
   8   3  -2    1.70    0.50
   8   3  -2    1.00    0.50
   8   3  -2    1.60    0.60
  -8  -3   2    1.80    0.60
  -8  -3   2    1.30    0.60
   7   3  -2   48.40    2.40
   7   3  -2   51.19    2.50
   7   3  -2   50.19    2.30
   7   3  -2   49.80    2.20
   7   3  -2   49.20    2.10
  -7  -3   2   48.30    2.60
   6   3  -2    4.70    0.90
   6   3  -2    6.20    0.70
   6   3  -2    6.80    0.90
   6   3  -2    4.60    0.80
   6   3  -2    7.50    1.00
   6   3  -2    7.00    0.90
   5   3  -2    2.10    1.90
   5   3  -2    0.50    2.20
   5   3  -2   -0.80    2.30
  -5  -3   2    1.50    1.40
  -5  -3   2    0.20    1.50
   4   3  -2  462.15   19.00
   4   3  -2  443.06   17.40
   4   3  -2  439.26   16.80
  -4  -3   2  452.25   18.00
  -4  -3   2  412.26   16.50
  -4  -3   2  410.66   16.40
   3   3  -2  169.18    7.70
   3   3  -2  169.28    9.10
   3   3  -2  170.18    7.80
  -3  -3   2  157.48    8.10
  -3  -3   2  162.18    7.60
  -3  -3   2  156.58    7.60
   2   3  -2 2190.68   69.89
   2   3  -2 2295.77   69.59
   2   3  -2 2272.67   70.39
   2   3  -2 2296.17   71.99
  -2  -3   2 2240.98   69.59
  -2  -3   2 2309.97   70.29
  -2  -3   2 2258.07   70.89
   1   3  -2   23.10    2.50
   1   3  -2   27.90    3.30
   1   3  -2   23.40    2.70
   1   3  -2   25.70    2.90
  -1  -3   2   26.60    2.60
  -1  -3   2   28.90    2.70
   0   3  -2 1958.20   60.79
   0   3  -2 1919.91   61.09
   0   3  -2 2011.00   61.49
   0   3  -2 1999.60   61.09
   0  -3   2 1998.00   60.89
   0  -3   2 1897.41   60.39
   0  -3   2 1953.80   60.59
  -1   3  -2  581.74   20.00
  -1   3  -2  555.34   19.70
  -1   3  -2  569.24   19.70
   1  -3   2  560.94   19.10
   1  -3   2  564.74   19.10
   1  -3   2  591.54   19.70
   1  -3   2  581.84   19.60
  -2   3  -2   17.40    2.70
  -2   3  -2   16.70    2.70
  -2   3  -2   15.50    2.60
   2  -3   2   18.60    2.50
   2  -3   2   17.20    2.00
   2  -3   2   12.10    2.10
   2  -3   2   17.60    2.60
  -3   3  -2  846.72   29.60
  -3   3  -2  842.12   29.50
  -3   3  -2  863.71   29.40
   3  -3   2  810.02   29.60
   3  -3   2  844.02   29.50
   3  -3   2  830.92   29.50
  -4   3  -2    0.00    1.00
   4  -3   2    2.00    2.00
   4  -3   2   -0.80    1.90
  -5   3  -2   31.90    1.80
  -5   3  -2   31.30    1.90
   5  -3   2   31.20    2.80
   5  -3   2   30.80    2.00
   5  -3   2   33.70    2.20
  -6   3  -2   37.10    1.90
  -6   3  -2   38.30    2.10
   6  -3   2   35.50    2.30
   6  -3   2   38.40    2.20
  -7   3  -2    3.40    0.60
  -7   3  -2    3.70    0.70
   7  -3   2    2.40    0.70
   7  -3   2    2.60    0.70
   8   2  -2    9.30    0.80
   8   2  -2   11.60    0.90
   8   2  -2   10.20    1.00
  -8  -2   2    9.80    1.00
  -8  -2   2   10.10    1.00
   7   2  -2   18.70    1.70
   7   2  -2   24.10    1.30
   7   2  -2   21.60    1.40
   7   2  -2   26.30    1.60
   7   2  -2   19.10    1.60
  -7  -2   2   25.80    1.80
   6   2  -2    2.50    0.60
   6   2  -2    1.90    0.60
   6   2  -2    2.30    0.60
   6   2  -2    2.00    0.90
   6   2  -2    1.60    0.60
   6   2  -2    1.00    0.50
   5   2  -2  551.14   22.30
  -5  -2   2  482.85   20.40
  -5  -2   2  532.95   21.60
  -5  -2   2  536.15   20.10
   4   2  -2  484.65   18.10
   4   2  -2  490.25   17.90
   4   2  -2  502.85   20.00
   4   2  -2  491.55   18.70
  -4  -2   2  485.55   19.10
  -4  -2   2  450.75   18.00
   3   2  -2  559.74   20.70
   3   2  -2  552.64   18.80
   3   2  -2  550.14   19.30
   3   2  -2  545.75   19.30
  -3  -2   2  522.15   18.80
  -3  -2   2  550.24   19.20
  -3  -2   2  573.34   20.20
   2   2  -2 6129.29  184.68
   2   2  -2 6141.49  186.28
   2   2  -2 6137.09  185.08
   2   2  -2 6163.38  184.88
  -2  -2   2 6024.70  184.78
  -2  -2   2 6245.18  185.58
   1   2  -2    0.40    0.60
   1   2  -2    2.10    0.60
   1   2  -2    0.70    0.60
   1   2  -2    1.70    0.80
   1   2  -2    1.80    0.90
  -1  -2   2    0.20    0.50
  -1  -2   2    1.40    0.70
   0   2  -2  234.18    8.40
   0   2  -2  232.78    8.50
   0   2  -2  226.08    8.60
   0   2  -2  196.08    8.30
   0  -2   2  239.08    8.40
   0  -2   2  235.38    8.10
   0  -2   2  238.68    8.40
  -1   2  -2  182.68    7.20
  -1   2  -2  173.18    7.20
  -1   2  -2  182.78    7.10
  -1   2  -2  176.98    6.70
   1  -2   2  169.38    6.80
   1  -2   2  176.18    7.10
   1  -2   2  176.48    7.00
  -2   2  -2 1608.24   49.50
  -2   2  -2 1538.35   49.50
  -2   2  -2 1602.14   49.20
  -2   2  -2 1594.04   48.40
   2  -2   2 1562.34   49.30
   2  -2   2 1502.05   49.30
   2  -2   2 1545.25   48.80
  -3   2  -2  203.18    9.40
  -3   2  -2  210.88    9.00
  -3   2  -2  195.18    9.00
   3  -2   2  200.38    9.40
   3  -2   2  195.18    8.00
   3  -2   2  197.98    9.20
  -4   2  -2  615.54   22.90
  -4   2  -2  589.94   22.70
   4  -2   2  611.34   23.10
   4  -2   2  567.94   21.90
  -5   2  -2    1.90    0.60
  -5   2  -2    0.10    0.50
   5  -2   2    0.90    0.50
   5  -2   2    0.60    0.70
  -6   2  -2   42.90    2.20
  -6   2  -2   40.20    2.10
   6  -2   2   43.50    2.60
   6  -2   2   39.00    2.30
  -7   2  -2  112.49    4.20
  -7   2  -2  108.89    4.00
   7  -2   2  108.99    4.30
   7  -2   2  100.39    4.40
  -8   2  -2   83.39    2.90
  -8   2  -2   78.09    2.80
   8  -2   2   72.89    3.00
   8  -2   2   82.89    3.00
   8   1  -2   17.60    1.30
   8   1  -2   17.90    1.10
   8   1  -2   21.70    1.30
  -8  -1   2   18.90    1.10
  -8  -1   2   19.60    1.30
   7   1  -2   20.30    1.40
   7   1  -2   18.90    1.70
   7   1  -2   20.50    1.50
   7   1  -2   21.70    1.40
  -7  -1   2   21.90    1.50
  -7  -1   2   22.10    1.60
   6   1  -2    1.00    0.50
   6   1  -2    1.10    0.60
   6   1  -2    3.10    0.90
   6   1  -2    1.80    0.50
   6   1  -2    1.40    0.60
  -6  -1   2    1.60    0.80
   5   1  -2   18.60    2.90
   5   1  -2   16.00    3.70
   5   1  -2   17.30    3.40
  -5  -1   2   13.50    3.30
  -5  -1   2   16.80    2.30
  -5  -1   2   12.10    3.00
   4   1  -2  404.96   16.50
   4   1  -2  395.66   15.90
   4   1  -2  397.56   15.40
  -4  -1   2  367.06   15.10
  -4  -1   2  379.66   15.80
  -4  -1   2  382.26   15.20
   3   1  -2 2435.36   76.79
   3   1  -2 2524.15   77.09
   3   1  -2 2509.45   76.89
   3   1  -2 2507.75   78.39
  -3  -1   2 2498.55   75.89
  -3  -1   2 2447.56   77.39
  -3  -1   2 2468.85   76.79
   2   1  -2 2313.47   70.79
   2   1  -2 2290.27   70.99
   2   1  -2 2326.27   71.09
   2   1  -2 2274.57   71.99
  -2  -1   2 2372.06   71.09
  -2  -1   2 2360.56   71.59
  -2  -1   2 2309.17   70.59
   1   1  -2 4269.27  129.39
   1   1  -2 4278.27  129.59
   1   1  -2 4234.68  129.69
   1   1  -2 4172.68  130.19
  -1  -1   2 4590.14  129.49
  -1  -1   2 4225.58  129.09
  -1  -1   2 4418.36  129.99
   0   1  -2  645.74   20.50
   0   1  -2  658.03   20.90
   0   1  -2  662.13   20.60
   0   1  -2  653.73   20.60
   0   1  -2  656.03   20.60
   0  -1   2  656.63   20.20
   0  -1   2  668.53   20.60
   0  -1   2  659.53   20.40
   0  -1   2  657.93   20.10
  -1   1  -2   97.39    4.40
  -1   1  -2   96.49    4.20
  -1   1  -2  102.59    4.10
  -1   1  -2  100.09    4.00
   1  -1   2   98.99    4.30
   1  -1   2   98.69    4.10
   1  -1   2   95.89    4.10
  -2   1  -2  422.86   14.50
  -2   1  -2  454.15   14.80
  -2   1  -2  453.05   15.50
  -2   1  -2  454.25   15.30
   2  -1   2  446.06   15.20
   2  -1   2  445.26   15.40
   2  -1   2  430.46   14.50
   2  -1   2  428.86   14.60
  -3   1  -2  461.25   16.80
  -3   1  -2  474.35   16.10
  -3   1  -2  448.46   17.00
   3  -1   2  456.95   16.60
   3  -1   2  470.75   17.10
   3  -1   2  453.05   16.00
   3  -1   2  446.36   15.50
  -4   1  -2    3.80    1.80
  -4   1  -2    2.40    1.00
   4  -1   2    0.20    2.20
   4  -1   2    1.50    1.30
   4  -1   2    4.00    1.80
  -5   1  -2   26.30    4.90
  -5   1  -2   26.70    4.40
   5  -1   2   28.20    4.50
  -6   1  -2  120.09    4.90
  -6   1  -2  125.09    4.80
  -6   1  -2  118.89    4.50
   6  -1   2  122.89    4.90
   6  -1   2  122.79    4.60
   6  -1   2  126.89    5.10
  -7   1  -2   42.50    2.00
  -7   1  -2   39.90    2.30
  -7   1  -2   42.10    2.20
   7  -1   2   40.00    2.40
   7  -1   2   41.40    2.00
   7  -1   2   42.40    2.40
  -8   1  -2   50.29    2.10
  -8   1  -2   43.30    1.80
   8  -1   2   41.00    2.00
   8  -1   2   48.90    2.30
   8   0  -2    4.00    0.70
   8   0  -2    6.20    0.70
  -8   0   2    4.40    0.60
  -8   0   2    5.30    0.70
   7   0  -2    0.30    0.50
   7   0  -2   -0.10    0.40
   7   0  -2    0.60    0.40
   7   0  -2    0.50    0.50
  -7   0   2    0.50    0.60
   6   0  -2   69.79    3.00
   6   0  -2   59.59    2.80
   6   0  -2   66.19    2.70
   6   0  -2   66.99    3.20
   6   0  -2   64.29    2.70
   5   0  -2  124.39    8.70
   5   0  -2  135.99    8.90
   5   0  -2  124.69    7.80
  -5   0   2  107.99    6.90
  -5   0   2  121.59    7.90
  -5   0   2  121.09    7.90
   4   0  -2  612.04   23.50
   4   0  -2  627.24   23.50
   4   0  -2  676.23   22.90
  -4   0   2  619.44   22.90
  -4   0   2  608.94   22.30
  -4   0   2  604.34   22.30
   3   0  -2   18.00    2.70
   3   0  -2   20.20    2.90
   3   0  -2   20.70    2.60
  -3   0   2   22.00    2.80
  -3   0   2   24.20    2.70
  -3   0   2   22.00    2.80
   2   0  -2  120.89    4.80
   2   0  -2  120.89    5.40
   2   0  -2  123.49    5.60
   2   0  -2  111.19    5.80
  -2   0   2  131.69    5.40
  -2   0   2  126.19    5.50
   1   0  -2 1674.63   51.79
   1   0  -2 1754.82   51.39
   1   0  -2 1678.93   51.79
   1   0  -2 1644.14   52.29
   1   0  -2 1702.63   51.89
  -1   0   2 1727.33   51.79
  -1   0   2 1718.63   51.79
   0   0  -2   49.50    2.00
   0   0  -2   50.39    2.10
   0   0  -2   45.40    2.10
   0   0  -2   45.80    2.00
   0   0  -2   49.50    2.00
   0   0  -2   48.80    2.10
   0   0  -2   54.39    2.20
  -1   0  -2  780.12   23.70
  -1   0  -2  778.02   23.70
  -1   0  -2  767.52   23.90
  -1   0  -2  774.52   23.50
   1   0   2  758.32   23.90
   1   0   2  757.02   23.60
   1   0   2  750.12   23.80
   1   0   2  759.62   23.60
   1   0   2  749.73   23.40
  -2   0  -2 2353.26   70.59
  -2   0  -2 2340.67   69.99
  -2   0  -2 2276.87   69.79
  -2   0  -2 2257.57   69.59
   2   0   2 2352.56   70.49
   2   0   2 2198.68   69.89
   2   0   2 2314.27   69.99
  -3   0  -2  520.65   16.60
  -3   0  -2  508.45   17.30
  -3   0  -2  488.95   16.60
  -3   0  -2  505.55   17.90
   3   0   2  494.85   16.90
   3   0   2  446.16   16.80
   3   0   2  499.45   17.70
  -4   0  -2    4.30    1.70
  -4   0  -2    8.40    2.60
   4   0   2    4.70    1.40
   4   0   2    4.50    1.60
   4   0   2    5.80    2.30
  -5   0  -2  745.43   28.00
  -5   0  -2  792.52   28.90
   5   0   2  754.42   28.70
   5   0   2  780.12   27.40
  -6   0  -2   46.70    2.50
  -6   0  -2   45.50    2.30
   6   0   2   39.80    2.20
   6   0   2   40.90    2.50
   6   0   2   49.00    2.50
  -7   0  -2  120.39    4.70
  -7   0  -2  113.99    4.20
  -7   0  -2  110.19    4.40
   7   0   2  106.29    4.60
   7   0   2  118.69    4.40
   7   0   2  114.99    4.70
  -8   0  -2    2.30    0.60
  -8   0  -2    3.10    0.70
   8   0   2    3.30    0.60
   8   0   2    2.40    0.70
   8  -1  -2   79.99    3.30
   8  -1  -2   84.29    3.00
  -8   1   2   84.29    3.00
  -8   1   2   88.19    3.10
   7  -1  -2    6.10    1.00
   7  -1  -2    5.60    0.80
  -7   1   2    5.60    0.80
  -7   1   2    6.40    0.90
   6  -1  -2   90.69    3.70
   6  -1  -2   88.79    4.10
   6  -1  -2   91.39    4.10
   6  -1  -2   94.49    3.60
   6  -1  -2   92.89    3.70
  -6   1   2   98.59    3.80
   5  -1  -2   54.49    5.70
   5  -1  -2   44.60    6.80
  -5   1   2   43.40    5.20
  -5   1   2   44.40    5.40
   4  -1  -2  102.59    6.40
   4  -1  -2  109.19    7.60
   4  -1  -2  101.19    7.00
  -4   1   2  106.09    6.70
  -4   1   2  100.99    6.30
  -4   1   2  101.99    6.40
   3  -1  -2  169.38    7.80
   3  -1  -2  172.28    8.60
   3  -1  -2  185.08    7.80
   3  -1  -2  173.48    8.60
  -3   1   2  167.08    8.00
  -3   1   2  178.08    8.00
  -3   1   2  177.68    7.90
   2  -1  -2  459.05   16.30
   2  -1  -2  456.25   16.60
   2  -1  -2  469.45   15.80
   2  -1  -2  450.45   15.80
  -2   1   2  476.05   16.00
  -2   1   2  476.35   15.90
  -2   1   2  444.46   15.50
   1  -1  -2   49.99    3.10
   1  -1  -2   52.49    2.80
   1  -1  -2   49.60    2.90
   1  -1  -2   50.79    2.80
  -1   1   2   54.49    2.80
  -1   1   2   56.69    2.70
   0  -1  -2 1161.38   36.40
   0  -1  -2 1173.88   36.60
   0  -1  -2 1241.98   36.40
   0  -1  -2 1201.68   36.50
   0   1   2 1180.48   36.90
   0   1   2 1187.68   36.20
  -1  -1  -2 1960.90   59.89
  -1  -1  -2 1926.31   59.89
  -1  -1  -2 2048.99   59.99
  -1  -1  -2 2062.49   59.99
   1   1   2 2028.20   60.09
   1   1   2 1924.21   60.19
   1   1   2 1892.01   60.09
  -2  -1  -2 2811.22   84.19
  -2  -1  -2 2912.41   85.09
  -2  -1  -2 2807.72   84.49
  -2  -1  -2 2857.31   84.19
   2   1   2 2808.62   84.79
   2   1   2 2771.92   83.89
   2   1   2 2750.32   84.59
   2   1   2 2761.22   83.79
   2   1   2 2757.92   84.19
   2   1   2 2620.74   84.69
  -3  -1  -2    1.50    0.80
  -3  -1  -2    2.20    1.00
  -3  -1  -2    2.10    0.80
   3   1   2    2.80    1.10
   3   1   2    2.00    1.10
   3   1   2    3.80    1.00
   3   1   2    3.50    1.20
  -4  -1  -2 1969.20   61.29
  -4  -1  -2 1954.60   62.69
  -4  -1  -2 1966.80   60.69
   4   1   2 1905.41   61.79
   4   1   2 1916.91   62.09
   4   1   2 1961.10   61.49
  -5  -1  -2   46.00    5.50
  -5  -1  -2   42.80    5.20
   5   1   2   47.10    5.90
   5   1   2   44.50    4.90
  -6  -1  -2  115.79    4.80
  -6  -1  -2  121.49    4.60
   6   1   2  117.49    4.60
   6   1   2  122.49    4.90
  -7  -1  -2    8.30    1.20
  -7  -1  -2    8.80    1.10
   7   1   2    9.00    1.20
   7   1   2    8.80    1.00
  -8  -1  -2   10.20    1.00
  -8  -1  -2   10.80    1.20
   8   1   2   10.70    1.00
   8   1   2   10.50    1.20
  -9  -1  -2   91.89    3.20
   9   1   2   95.89    3.30
   9   1   2   87.79    3.30
   8  -2  -2   14.10    1.00
  -8   2   2   13.10    0.80
  -8   2   2   14.50    1.00
   7  -2  -2    1.80    0.60
   7  -2  -2    2.30    0.70
   7  -2  -2    2.50    0.60
  -7   2   2    1.40    0.50
   6  -2  -2  133.29    5.40
   6  -2  -2  124.39    4.90
   6  -2  -2  134.29    4.90
   6  -2  -2  137.89    5.40
  -6   2   2  133.49    4.80
  -6   2   2  132.99    5.00
   5  -2  -2  110.09    4.40
   5  -2  -2  116.19    4.30
   5  -2  -2  110.79    4.40
   5  -2  -2  126.69    5.00
   5  -2  -2  117.09    4.70
  -5   2   2  119.89    4.50
   4  -2  -2    2.00    0.80
   4  -2  -2    0.40    1.50
  -4   2   2    1.00    1.50
  -4   2   2    1.00    1.80
   3  -2  -2  127.69    6.70
   3  -2  -2  130.49    7.40
   3  -2  -2  127.59    6.60
  -3   2   2  130.79    7.20
  -3   2   2  121.29    8.60
  -3   2   2  134.49    7.90
  -3   2   2  130.79    6.80
   2  -2  -2 3231.18   97.59
   2  -2  -2 3187.38   97.09
   2  -2  -2 3051.39   96.69
  -2   2   2 3235.78   98.29
  -2   2   2 3146.99   97.19
  -2   2   2 3150.98   96.69
   1  -2  -2   23.50    2.30
   1  -2  -2   16.60    2.10
   1  -2  -2   19.40    2.00
   1  -2  -2   27.20    1.90
  -1   2   2   28.90    3.00
  -1   2   2   17.90    1.80
  -1   2   2   23.40    2.40
   0  -2  -2    4.90    1.00
   0  -2  -2    5.10    0.90
   0  -2  -2    7.50    1.20
   0  -2  -2    5.70    1.10
   0  -2  -2    5.90    0.90
   0   2   2    5.50    1.30
   0   2   2    4.30    0.70
   0   2   2    5.00    1.00
  -1  -2  -2   30.50    2.10
  -1  -2  -2   23.80    1.80
  -1  -2  -2   27.30    2.20
  -1  -2  -2   24.70    1.80
  -1  -2  -2   27.10    1.80
   1   2   2   25.80    2.00
   1   2   2   23.10    1.60
   1   2   2   26.70    2.40
  -2  -2  -2  121.69    5.40
  -2  -2  -2  110.49    4.50
  -2  -2  -2  121.69    5.20
  -2  -2  -2  110.69    4.80
   2   2   2  106.69    5.60
   2   2   2  112.49    5.00
   2   2   2  112.29    5.10
  -3  -2  -2  776.92   26.80
  -3  -2  -2  811.22   25.20
  -3  -2  -2  818.62   25.50
  -3  -2  -2  774.62   26.00
   3   2   2  757.82   26.80
   3   2   2  793.92   26.10
   3   2   2  786.42   26.20
  -4  -2  -2   10.20    2.30
  -4  -2  -2    8.20    1.70
  -4  -2  -2   10.80    1.70
   4   2   2   14.90    2.60
   4   2   2    9.80    2.10
   4   2   2   10.20    2.40
  -5  -2  -2   21.50    2.90
  -5  -2  -2   21.80    3.90
  -5  -2  -2   19.20    3.00
   5   2   2   23.50    3.50
   5   2   2   23.30    4.40
  -6  -2  -2  267.67    9.20
  -6  -2  -2  259.37    9.00
   6   2   2  256.97    8.90
   6   2   2  247.68    8.30
   6   2   2  249.88    8.60
  -7  -2  -2   44.30    2.50
  -7  -2  -2   45.30    2.30
   7   2   2   42.80    2.40
   7   2   2   43.90    2.30
   7   2   2   44.80    2.10
  -8  -2  -2   45.40    2.40
  -8  -2  -2   46.20    2.20
   8   2   2   48.80    2.30
   8   2   2   43.50    2.30
  -9  -2  -2   36.90    1.70
  -9  -2  -2   37.20    1.60
   9   2   2   33.70    1.60
   9   2   2   40.00    1.60
   7  -3  -2  266.17    8.80
   7  -3  -2  246.08    8.70
  -7   3   2  272.77    8.40
  -7   3   2  257.57    8.40
   6  -3  -2   94.19    3.80
   6  -3  -2   92.59    4.00
   6  -3  -2   88.09    4.10
  -6   3   2   97.59    3.70
  -6   3   2   92.59    3.70
   5  -3  -2   13.70    1.50
   5  -3  -2   13.90    1.60
   5  -3  -2   14.50    1.90
   5  -3  -2   15.30    1.30
  -5   3   2   13.80    1.20
  -5   3   2   15.70    1.30
   4  -3  -2   95.29    8.50
   4  -3  -2   85.79    6.20
  -4   3   2   85.79    6.30
  -4   3   2   83.59    7.10
   3  -3  -2  209.88   10.20
   3  -3  -2  232.88   11.10
   3  -3  -2  212.38    9.80
  -3   3   2  218.68   10.10
  -3   3   2  207.68   11.00
  -3   3   2  222.28   10.70
   2  -3  -2    8.20    1.90
   2  -3  -2    8.40    2.00
   2  -3  -2    5.90    1.60
   2  -3  -2    7.10    1.60
  -2   3   2    9.30    2.00
  -2   3   2    6.30    1.60
  -2   3   2    5.40    1.90
   1  -3  -2 2625.74   80.89
   1  -3  -2 2703.83   81.69
   1  -3  -2 2731.23   81.09
   1  -3  -2 2488.25   81.49
  -1   3   2 2547.84   80.79
  -1   3   2 2655.03   81.59
  -1   3   2 2767.32   82.89
   0  -3  -2  558.64   19.10
   0  -3  -2  591.34   19.40
   0  -3  -2  594.54   18.60
   0  -3  -2  593.94   19.40
   0   3   2  575.14   19.30
   0   3   2  550.54   18.40
   0   3   2  556.14   18.80
   0   3   2  582.24   20.40
  -1  -3  -2  152.18    6.30
  -1  -3  -2  164.78    6.60
  -1  -3  -2  173.78    6.90
  -1  -3  -2  143.79    6.10
   1   3   2  148.89    6.30
   1   3   2  163.38    7.70
   1   3   2  164.58    6.60
  -2  -3  -2   21.40    2.40
  -2  -3  -2   18.00    2.30
  -2  -3  -2   18.10    1.80
  -2  -3  -2   17.10    2.00
   2   3   2   17.80    1.90
   2   3   2   23.10    3.10
   2   3   2   18.70    2.30
   2   3   2   24.30    2.20
  -3  -3  -2   24.50    3.30
  -3  -3  -2   19.00    2.20
  -3  -3  -2   22.70    2.20
  -3  -3  -2   18.90    2.50
   3   3   2   22.80    2.90
   3   3   2   22.00    2.50
   3   3   2   22.50    2.30
   3   3   2   19.90    3.00
  -4  -3  -2  224.38   10.70
  -4  -3  -2  225.78   10.00
  -4  -3  -2  230.68    9.30
   4   3   2  234.38   10.10
   4   3   2  224.78   11.20
   4   3   2  223.78    9.80
  -5  -3  -2  213.68   11.70
  -5  -3  -2  237.68   10.80
   5   3   2  216.38   10.50
   5   3   2  253.47   11.50
   5   3   2  238.28   12.20
  -6  -3  -2  124.39    5.20
  -6  -3  -2  119.19    5.00
   6   3   2  130.09    4.80
   6   3   2  123.89    4.50
   6   3   2  130.99    4.60
   6   3   2  117.19    4.80
  -7  -3  -2   23.90    1.90
  -7  -3  -2   23.00    1.80
  -7  -3  -2   21.40    1.50
   7   3   2   22.70    1.60
   7   3   2   22.10    1.70
   7   3   2   21.70    1.40
  -8  -3  -2   25.20    1.50
  -8  -3  -2   24.90    1.70
   8   3   2   24.30    1.50
   8   3   2   23.40    1.60
   8   3   2   24.50    1.30
  -9  -3  -2   13.40    0.90
  -9  -3  -2   13.70    1.00
   9   3   2   13.70    0.90
   7  -4  -2    3.40    0.60
   7  -4  -2    3.50    0.60
  -7   4   2    3.40    0.50
   6  -4  -2    2.90    0.70
   6  -4  -2    3.00    0.80
  -6   4   2    3.20    0.60
  -6   4   2    2.70    0.70
   5  -4  -2   18.30    2.50
   5  -4  -2   18.60    1.80
   5  -4  -2   19.20    1.60
  -5   4   2   17.40    1.40
   4  -4  -2  427.66   15.60
   4  -4  -2  418.86   13.80
   4  -4  -2  449.76   14.40
   4  -4  -2  423.46   14.00
  -4   4   2  417.96   13.60
   3  -4  -2  231.48   12.60
   3  -4  -2  268.37   12.60
  -3   4   2  232.38   12.30
  -3   4   2  256.77   11.80
   2  -4  -2  472.65   18.30
   2  -4  -2  458.55   17.00
   2  -4  -2  476.55   18.40
  -2   4   2  475.75   17.60
  -2   4   2  470.35   18.50
  -2   4   2  474.45   19.50
   1  -4  -2  360.06   13.90
   1  -4  -2  343.77   13.80
   1  -4  -2  350.76   13.50
  -1   4   2  350.46   15.10
  -1   4   2  364.46   14.10
  -1   4   2  346.67   13.20
   0  -4  -2  596.64   20.70
   0  -4  -2  590.94   19.60
   0  -4  -2  604.74   20.30
   0  -4  -2  592.74   20.60
   0   4   2  594.04   19.90
   0   4   2  595.14   22.20
   0   4   2  583.64   19.60
   0   4   2  585.74   20.70
  -1  -4  -2  411.16   14.50
  -1  -4  -2  412.86   14.20
  -1  -4  -2  366.96   13.90
   1   4   2  403.96   16.10
   1   4   2  382.46   14.00
   1   4   2  364.66   14.10
  -2  -4  -2  544.15   18.90
  -2  -4  -2  525.95   18.90
  -2  -4  -2  532.05   18.50
   2   4   2  566.04   20.80
   2   4   2  502.35   18.30
   2   4   2  524.15   18.60
  -3  -4  -2  503.45   18.40
  -3  -4  -2  518.75   19.10
  -3  -4  -2  536.15   19.10
   3   4   2  513.15   19.00
   3   4   2  519.45   18.20
   3   4   2  531.95   20.70
  -4  -4  -2    8.70    2.20
  -4  -4  -2    3.50    2.20
   4   4   2   10.00    2.80
   4   4   2    9.90    2.90
  -5  -4  -2   14.70    4.20
  -5  -4  -2   15.90    2.90
   5   4   2   18.80    4.00
   5   4   2   19.40    4.00
  -6  -4  -2   13.60    1.50
  -6  -4  -2   15.70    1.70
   6   4   2   13.70    1.30
   6   4   2   13.20    1.20
  -7  -4  -2  243.18    8.90
  -7  -4  -2  238.88    8.60
   7   4   2  234.98    8.00
   7   4   2  247.98    8.40
  -8  -4  -2  112.79    4.40
  -8  -4  -2  103.89    4.00
  -8  -4  -2  101.89    4.40
   8   4   2  106.19    4.10
   8   4   2  113.59    3.90
  -9  -4  -2   23.30    1.60
  -9  -4  -2   24.20    1.40
   9   4   2   22.50    1.20
   9   4   2   23.70    1.00
   6  -5  -2   24.90    1.60
   6  -5  -2   24.80    1.50
  -6   5   2   25.20    1.30
  -6   5   2   25.30    1.40
   5  -5  -2  186.98    8.40
   5  -5  -2  206.48    7.20
   5  -5  -2  208.38    7.50
  -5   5   2  207.98    7.20
  -5   5   2  199.98    6.90
   4  -5  -2  307.97   10.80
   4  -5  -2  323.87   10.50
   4  -5  -2  313.87   12.20
  -4   5   2  297.37   10.10
  -4   5   2  299.57   10.40
   3  -5  -2   33.90    1.80
   3  -5  -2   34.50    2.90
   3  -5  -2   35.00    2.20
  -3   5   2   33.00    1.90
  -3   5   2   35.10    1.80
   2  -5  -2  143.09    8.40
   2  -5  -2  131.49    7.20
  -2   5   2  124.59    8.70
  -2   5   2  141.29    7.90
   1  -5  -2   -1.00    0.80
   1  -5  -2    2.60    1.60
   1  -5  -2    2.30    1.50
  -1   5   2    2.40    1.60
  -1   5   2    2.20    1.30
  -1   5   2   -1.40    2.70
   0  -5  -2  724.33   25.60
   0  -5  -2  714.03   25.50
   0   5   2  748.63   28.10
   0   5   2  741.63   26.00
  -1  -5  -2  627.64   22.20
  -1  -5  -2  651.13   22.80
  -1  -5  -2  622.24   22.10
   1   5   2  649.34   24.80
   1   5   2  645.44   22.70
   1   5   2  633.54   21.90
  -2  -5  -2    0.30    1.00
  -2  -5  -2   -0.90    1.00
  -2  -5  -2   -0.90    1.80
   2   5   2   -0.20    0.90
   2   5   2    0.60    1.00
   2   5   2    0.20    0.80
  -3  -5  -2    0.40    1.00
  -3  -5  -2   -0.20    1.10
  -3  -5  -2    0.60    1.60
   3   5   2   -0.70    1.60
   3   5   2    0.20    1.40
   3   5   2    0.50    1.20
  -4  -5  -2   -0.50    1.20
  -4  -5  -2    3.60    2.60
   4   5   2    1.00    1.80
   4   5   2    2.00    2.10
  -5  -5  -2   52.69    6.70
  -5  -5  -2   67.49    6.30
   5   5   2   74.79    8.20
   5   5   2   70.39    7.10
  -6  -5  -2   63.69    3.30
   6   5   2   56.19    2.50
   6   5   2   57.39    2.70
   6   5   2   57.69    2.60
  -7  -5  -2   10.00    1.20
  -7  -5  -2   11.60    1.50
   7   5   2   11.50    1.20
   7   5   2   11.40    1.10
  -8  -5  -2  303.27   10.30
  -8  -5  -2  292.17   10.10
   8   5   2  315.27    9.70
   8   5   2  305.37    9.90
  -9  -5  -2   -0.10    0.40
   9   5   2    0.70    0.30
   9   5   2    0.30    0.20
   6  -6  -2    1.00    0.40
  -6   6   2    1.00    0.30
   5  -6  -2   27.10    2.30
   5  -6  -2   28.80    1.80
  -5   6   2   27.20    1.40
  -5   6   2   25.50    1.50
   4  -6  -2    0.30    0.90
   4  -6  -2    0.80    0.60
  -4   6   2    1.50    0.60
  -4   6   2    0.40    0.50
   3  -6  -2  187.78    7.20
   3  -6  -2  178.78    8.70
   3  -6  -2  195.78    8.60
  -3   6   2  200.28    7.00
  -3   6   2  191.38    6.60
   2  -6  -2  797.02   26.00
   2  -6  -2  746.13   25.40
   2  -6  -2  759.82   24.40
   2  -6  -2  795.72   24.00
  -2   6   2  766.92   23.80
  -2   6   2  768.02   24.20
   1  -6  -2   18.10    4.30
   1  -6  -2   26.90    4.10
  -1   6   2   26.10    4.10
  -1   6   2   24.50    4.10
   0  -6  -2  135.39    8.60
   0  -6  -2  151.88    8.40
   0   6   2  150.58    8.80
   0   6   2  157.28   11.20
  -1  -6  -2   14.30    2.60
  -1  -6  -2   10.30    1.50
  -1  -6  -2   13.10    2.40
   1   6   2   13.90    4.40
   1   6   2   11.30    2.60
  -2  -6  -2   86.29    6.10
  -2  -6  -2   80.49    5.70
   2   6   2   79.49    8.40
   2   6   2   86.49    5.90
  -3  -6  -2  476.45   19.60
  -3  -6  -2  499.45   19.50
   3   6   2  498.85   19.00
   3   6   2  516.85   22.20
   3   6   2  526.45   19.40
   4   6   2    0.20    2.00
   4   6   2    3.50    2.80
  -5  -6  -2   16.40    1.60
  -5  -6  -2   14.10    1.60
   5   6   2   15.90    1.30
   5   6   2   15.30    1.20
   5   6   2   14.40    1.40
  -6  -6  -2    0.30    0.70
  -6  -6  -2    1.00    0.60
   6   6   2    0.00    0.50
   6   6   2    0.00    0.40
   6   6   2    0.20    0.60
  -7  -6  -2   68.29    3.40
  -7  -6  -2   63.09    3.10
   7   6   2   65.89    2.80
   7   6   2   69.29    2.70
   7   6   2   61.29    2.90
  -8  -6  -2   18.10    1.30
  -8  -6  -2   18.30    1.50
   8   6   2   18.10    1.20
   8   6   2   20.00    1.10
   5  -7  -2    6.40    1.00
   5  -7  -2    6.30    0.80
  -5   7   2    5.80    0.60
  -5   7   2    6.00    0.60
   4  -7  -2   94.69    4.00
   4  -7  -2   95.99    5.00
  -4   7   2   93.09    3.50
  -4   7   2   99.69    3.80
   3  -7  -2  293.07   11.50
   3  -7  -2  316.17   12.40
   3  -7  -2  324.07   10.80
  -3   7   2  304.97   10.30
  -3   7   2  317.17   10.10
  -3   7   2  320.77   10.50
   2  -7  -2    6.10    1.50
   2  -7  -2    8.20    1.80
   2  -7  -2    8.20    1.20
  -2   7   2    7.70    1.10
  -2   7   2   10.00    1.20
  -2   7   2    7.40    0.90
   1  -7  -2    6.30    1.40
   1  -7  -2    4.20    1.40
  -1   7   2    4.40    0.90
  -1   7   2    4.70    0.80
   0  -7  -2  556.04   19.70
   0  -7  -2  583.54   22.40
   0  -7  -2  552.74   19.00
   0  -7  -2  523.45   18.30
   0   7   2  553.64   17.50
   0   7   2  549.45   17.50
   0   7   2  565.64   24.00
  -1  -7  -2   94.69    6.30
   1   7   2  101.39    8.70
   1   7   2  107.29    7.50
  -2  -7  -2  141.69    8.80
  -2  -7  -2  145.29    7.80
   2   7   2  145.29   12.10
   2   7   2  165.08    9.30
  -3  -7  -2    9.00    2.70
  -3  -7  -2   14.50    1.80
  -3  -7  -2    9.60    2.70
   3   7   2   16.90    3.80
   3   7   2   13.30    1.20
   3   7   2   14.30    4.40
  -4  -7  -2    9.60    1.30
  -4  -7  -2    7.90    1.40
   4   7   2   10.60    1.10
   4   7   2    9.80    1.00
   4   7   2    9.20    1.00
  -5  -7  -2   98.79    4.20
  -5  -7  -2   96.19    4.40
   5   7   2   96.59    3.70
   5   7   2   90.49    3.70
  -6  -7  -2  130.99    5.10
  -6  -7  -2  129.79    5.40
  -6  -7  -2  119.79    4.90
   6   7   2  124.79    4.60
   6   7   2  130.19    4.60
  -7  -7  -2   14.90    1.30
  -7  -7  -2   14.40    1.30
  -7  -7  -2   13.20    1.50
   7   7   2   16.80    1.10
   7   7   2   17.30    1.20
  -8  -7  -2    3.70    0.80
  -8  -7  -2    3.50    0.60
   8   7   2    3.30    0.50
   8   7   2    4.00    0.50
   4  -8  -2   -0.40    0.40
   4  -8  -2    0.60    0.60
  -4   8   2    0.00    0.30
  -4   8   2   -0.20    0.30
   3  -8  -2    0.90    0.80
   3  -8  -2    1.10    0.80
   3  -8  -2    1.30    0.60
  -3   8   2    1.40    0.60
  -3   8   2    0.70    0.50
  -3   8   2    0.30    0.40
   2  -8  -2   30.80    2.60
   2  -8  -2   32.00    2.90
  -2   8   2   29.90    1.80
  -2   8   2   32.00    1.90
   1  -8  -2  451.75   16.60
   1  -8  -2  454.55   16.30
  -1   8   2  462.05   14.70
  -1   8   2  454.85   14.80
   0  -8  -2   62.79    4.20
   0  -8  -2   60.39    3.50
   0  -8  -2   71.89    4.30
   0   8   2   65.19    3.00
   0   8   2   66.49    3.00
  -1  -8  -2   22.20    2.10
  -1  -8  -2   25.10    2.40
   1   8   2   24.40    1.70
   1   8   2   24.90    1.50
   1   8   2   24.20    1.60
  -2  -8  -2    5.20    0.90
  -2  -8  -2    5.60    1.30
  -2  -8  -2    4.80    1.40
   2   8   2    6.00    0.90
   2   8   2    5.80    0.90
   2   8   2    5.60    0.80
  -3  -8  -2    6.20    1.30
  -3  -8  -2    5.20    1.00
   3   8   2    5.70    0.90
   3   8   2    6.00    0.90
  -4  -8  -2  175.58    7.00
  -4  -8  -2  188.58    7.00
  -4  -8  -2  199.58    7.70
   4   8   2  193.08    6.60
   4   8   2  190.58    6.60
   4   8   2  187.18    6.50
  -5  -8  -2  252.27    8.70
  -5  -8  -2  232.18    8.80
   5   8   2  233.48    8.10
   5   8   2  250.97    8.10
   5   8   2  244.08    8.10
  -6  -8  -2    0.20    0.50
  -6  -8  -2    0.00    0.60
   6   8   2    0.10    0.40
   6   8   2    0.20    0.40
  -7  -8  -2   47.50    2.30
  -7  -8  -2   47.40    2.60
   7   8   2   51.49    2.10
   7   8   2   48.50    2.10
  -8  -8  -2    9.30    1.00
   8   8   2    7.90    0.60
   8   8   2    7.90    0.60
   3  -9  -2   16.10    2.10
   3  -9  -2   20.90    1.80
  -3   9   2   19.30    1.20
   2  -9  -2   84.29    4.40
   2  -9  -2   80.59    4.10
  -2   9   2   86.89    3.40
  -2   9   2   82.59    3.20
   1  -9  -2  134.29    6.10
   1  -9  -2  116.89    5.80
  -1   9   2  124.79    4.80
  -1   9   2  125.89    4.70
   0  -9  -2    2.70    1.20
   0  -9  -2    2.70    0.90
   0  -9  -2    2.90    1.20
   0   9   2    3.50    0.80
   0   9   2    3.10    0.70
  -1  -9  -2    0.40    0.70
  -1  -9  -2    0.40    0.80
   1   9   2    1.40    0.60
   1   9   2    0.80    0.50
   1   9   2    0.50    0.50
  -2  -9  -2  191.48    8.10
  -2  -9  -2  194.78    7.70
  -2  -9  -2  171.68    6.70
   2   9   2  184.48    6.50
   2   9   2  193.78    6.60
   2   9   2  192.08    6.70
  -3  -9  -2   35.50    2.60
  -3  -9  -2   30.50    2.00
   3   9   2   35.30    2.00
   3   9   2   35.30    1.90
  -4  -9  -2   88.39    3.90
  -4  -9  -2   87.09    4.40
   4   9   2   90.99    3.50
   4   9   2   89.79    3.60
  -5  -9  -2    1.80    0.80
  -5  -9  -2    2.10    0.90
  -5  -9  -2    2.20    0.80
   5   9   2    2.10    0.60
   5   9   2    2.40    0.60
   5   9   2    2.40    0.60
  -6  -9  -2   48.50    2.40
  -6  -9  -2   44.10    2.40
   6   9   2   49.00    2.00
   6   9   2   41.60    1.90
  -7  -9  -2    3.80    0.80
  -7  -9  -2    3.30    0.60
   7   9   2    3.60    0.50
   7   9   2    3.80    0.50
   2 -10  -2   24.20    1.90
  -2  10   2   27.20    1.30
   1 -10  -2    1.00    0.80
   1 -10  -2    0.90    0.70
  -1  10   2    0.70    0.40
  -1  10   2    0.40    0.40
   0 -10  -2    1.60    0.70
   0 -10  -2    0.90    0.80
   0  10   2    1.60    0.50
   0  10   2    2.30    0.60
  -1 -10  -2   96.99    4.40
  -1 -10  -2  102.69    5.00
   1  10   2   98.59    3.80
   1  10   2   93.89    3.80
  -2 -10  -2   21.00    2.10
  -2 -10  -2   20.30    2.30
   2  10   2   23.50    1.40
   2  10   2   21.50    1.30
   2  10   2   23.40    1.50
  -3 -10  -2   59.59    3.30
  -3 -10  -2   56.79    2.70
   3  10   2   57.39    2.50
   3  10   2   57.29    2.40
  -4 -10  -2   16.20    1.80
  -4 -10  -2   16.70    1.40
   4  10   2   16.50    1.20
   4  10   2   17.20    1.10
  -5 -10  -2    0.90    0.50
  -5 -10  -2    0.20    0.60
   5  10   2    0.70    0.40
   5  10   2    0.30    0.40
  -6 -10  -2   47.70    2.10
  -6 -10  -2   43.80    2.10
   6  10   2   49.20    1.90
   0 -11  -2   99.69    4.00
   0  11   2   90.49    3.20
  -1 -11  -2    4.70    0.80
  -1 -11  -2    5.30    1.00
   1  11   2    5.50    0.60
   1  11   2    5.40    0.60
  -2 -11  -2   34.80    2.10
  -2 -11  -2   34.80    2.20
   2  11   2   40.10    1.70
  -3 -11  -2   63.89    2.60
  -3 -11  -2   71.39    3.20
   3  11   2   73.89    2.70
   3  11   2   64.09    2.50
  -4 -11  -2   56.59    2.40
  -4 -11  -2   63.09    2.80
   4  11   2   61.19    2.30
   4  11   2   54.49    2.20
  -5 -11  -2   -0.50    0.30
   5  11   2   -0.20    0.30
   3  11  -3   30.60    1.30
  -3 -11   3   29.60    1.40
  -3 -11   3   34.20    1.70
   2  11  -3   36.50    1.60
   2  11  -3   41.00    1.60
  -2 -11   3   41.00    2.00
   5  10  -3   53.99    2.20
   5  10  -3   62.49    2.30
  -5 -10   3   65.69    2.50
  -5 -10   3   57.89    2.60
   4  10  -3   77.89    3.00
   4  10  -3   77.79    2.90
   4  10  -3   69.99    2.80
  -4 -10   3   72.99    3.40
  -4 -10   3   89.69    3.30
  -4 -10   3   82.19    3.30
   3  10  -3   36.50    1.80
   3  10  -3   34.70    1.80
  -3 -10   3   34.80    2.20
  -3 -10   3   34.50    1.90
   2  10  -3    2.80    0.60
   2  10  -3    2.90    0.60
  -2 -10   3    3.60    0.90
  -2 -10   3    2.40    0.60
   1  10  -3    3.60    0.60
   1  10  -3    3.90    0.70
  -1 -10   3    4.40    1.10
  -1 -10   3    4.70    1.00
   0  10  -3  156.68    5.40
   0  10  -3  140.79    5.10
   0 -10   3  158.38    6.20
   0 -10   3  152.18    5.80
  -1  10  -3   20.20    1.20
  -1  10  -3   22.10    1.00
   1 -10   3   19.30    1.30
   1 -10   3   20.80    1.70
   6   9  -3  150.48    4.80
   6   9  -3  136.89    4.80
  -6  -9   3  146.69    5.30
  -6  -9   3  136.99    5.00
   5   9  -3    2.70    0.50
   5   9  -3    2.10    0.50
   5   9  -3    2.60    0.50
  -5  -9   3    3.00    0.70
   4   9  -3    4.20    0.90
   4   9  -3    4.00    0.60
   4   9  -3    3.50    0.70
   4   9  -3    3.90    0.70
  -4  -9   3    3.40    1.00
  -4  -9   3    3.50    0.80
   3   9  -3   40.70    2.10
   3   9  -3   38.10    2.10
   3   9  -3   33.80    2.00
   3   9  -3   45.40    2.40
  -3  -9   3   41.40    2.70
   2   9  -3  252.17    8.70
   2   9  -3  257.47    8.90
   2   9  -3  253.57    8.80
  -2  -9   3  265.57    9.80
   1   9  -3  134.69    5.00
   1   9  -3  130.99    5.00
   1   9  -3  126.89    4.80
   1   9  -3  131.59    4.60
  -1  -9   3  126.89    5.70
  -1  -9   3  129.59    6.00
   0   9  -3    6.70    0.80
   0   9  -3    5.40    0.90
   0   9  -3    3.70    0.70
   0  -9   3    3.30    1.00
   0  -9   3    4.20    1.20
  -1   9  -3   10.00    0.90
  -1   9  -3    9.40    1.10
   1  -9   3   10.50    1.60
   1  -9   3    8.10    1.30
  -2   9  -3   83.89    3.10
  -2   9  -3   84.39    3.40
   2  -9   3   86.99    4.20
   2  -9   3   87.39    4.20
  -3   9  -3    1.20    0.40
  -3   9  -3    3.60    0.50
   3  -9   3    3.90    0.90
   3  -9   3    3.80    0.80
   7   8  -3   13.30    0.80
   7   8  -3   15.10    0.90
   7   8  -3   14.60    0.90
  -7  -8   3   16.10    1.10
  -7  -8   3   16.20    1.20
   6   8  -3   53.99    2.50
   6   8  -3   55.09    2.30
   6   8  -3   55.19    2.30
  -6  -8   3   54.59    2.50
  -6  -8   3   57.49    2.90
   5   8  -3   20.70    1.30
   5   8  -3   22.20    1.40
   5   8  -3   20.60    1.80
   5   8  -3   22.30    1.60
   5   8  -3   22.40    1.40
  -5  -8   3   20.70    1.60
   4   8  -3  221.88    8.30
   4   8  -3  230.88    7.90
   4   8  -3  231.18    7.90
   4   8  -3  234.28    7.90
   4   8  -3  219.58    7.70
  -4  -8   3  228.98    8.20
   3   8  -3  485.55   15.20
   3   8  -3  453.55   15.10
   3   8  -3  468.35   15.30
   3   8  -3  451.15   14.80
   3   8  -3  482.25   15.60
  -3  -8   3  472.65   16.10
   2   8  -3   66.39    2.70
   2   8  -3   63.09    2.90
   2   8  -3   65.49    3.10
   2   8  -3   61.39    3.20
   2   8  -3   63.79    3.00
  -2  -8   3   65.09    3.70
   1   8  -3   23.50    1.40
   1   8  -3   23.60    1.90
   1   8  -3   23.40    1.60
   1   8  -3   21.00    1.60
  -1  -8   3   22.40    2.40
   0   8  -3    3.20    0.80
   0   8  -3    3.60    0.90
   0   8  -3    3.30    0.70
   0  -8   3    2.90    1.10
  -1   8  -3   17.40    1.60
  -1   8  -3   16.70    1.30
   1  -8   3   15.30    2.10
   1  -8   3   14.90    2.10
   1  -8   3   14.70    1.80
  -2   8  -3  227.08    8.00
  -2   8  -3  224.68    7.60
   2  -8   3  230.58    9.10
   2  -8   3  224.28    9.20
  -3   8  -3   30.70    1.70
  -3   8  -3   31.60    1.60
   3  -8   3   33.20    2.40
   3  -8   3   29.90    2.50
  -4   8  -3   14.30    0.90
   4  -8   3   15.20    1.50
   8   7  -3   25.40    1.20
   8   7  -3   28.80    1.10
  -8  -7   3   25.70    1.30
   7   7  -3   16.50    1.30
   7   7  -3   17.20    1.10
   7   7  -3   17.30    1.10
   7   7  -3   18.60    1.10
  -7  -7   3   17.90    1.40
   6   7  -3   79.39    3.40
   6   7  -3   79.69    3.10
   6   7  -3   75.89    3.10
   6   7  -3   77.89    3.10
   6   7  -3   79.29    3.10
  -6  -7   3   78.39    3.80
   5   7  -3  211.88    7.50
   5   7  -3  212.28    7.30
   5   7  -3  212.28    7.20
   5   7  -3  212.18    7.20
   5   7  -3  209.88    8.00
  -5  -7   3  209.98    7.60
   4   7  -3   45.70    2.20
   4   7  -3   45.60    2.30
   4   7  -3   46.60    2.40
   4   7  -3   44.90    2.70
   4   7  -3   44.70    2.40
   4   7  -3   42.20    2.20
   3   7  -3  139.89    5.40
   3   7  -3  137.99    5.10
   3   7  -3  142.99    5.70
   3   7  -3  147.19    5.30
   3   7  -3  134.09    5.30
   3   7  -3  137.89    4.90
   3   7  -3  145.59    5.30
  -3  -7   3  146.29    6.10
   2   7  -3   51.09    2.80
   2   7  -3   47.80    2.50
   2   7  -3   50.89    2.50
   2   7  -3   52.39    2.20
   2   7  -3   49.99    3.00
   2   7  -3   49.30    2.40
   1   7  -3  365.56   11.50
   1   7  -3  363.36   12.70
   1   7  -3  352.96   11.70
   1   7  -3  350.46   11.90
   1   7  -3  350.96   11.90
  -1  -7   3  366.56   13.10
   0   7  -3    1.00    0.60
   0   7  -3    1.00    0.50
   0   7  -3    1.80    0.60
   0   7  -3    1.20    0.80
   0   7  -3    2.60    0.80
   0  -7   3    1.00    0.80
  -1   7  -3  279.57   10.20
  -1   7  -3  279.07    9.50
  -1   7  -3  275.17    9.10
   1  -7   3  272.17   10.70
   1  -7   3  265.57   10.80
  -2   7  -3    2.40    0.70
  -2   7  -3    2.40    1.00
  -2   7  -3    1.80    0.70
   2  -7   3    2.20    1.00
   2  -7   3    2.90    1.30
  -3   7  -3    3.00    0.80
  -3   7  -3    2.00    0.60
   3  -7   3    1.00    1.00
   3  -7   3    2.00    1.10
  -4   7  -3   73.39    2.90
  -4   7  -3   71.29    3.00
   4  -7   3   73.69    4.10
   4  -7   3   67.79    3.60
  -5   7  -3    0.20    0.40
   5  -7   3    0.30    0.50
   5  -7   3    0.90    0.60
   8   6  -3    0.70    0.30
   8   6  -3    0.20    0.30
  -8  -6   3    0.20    0.40
  -8  -6   3    1.20    0.70
   7   6  -3    1.00    0.40
   7   6  -3    0.80    0.40
   7   6  -3    0.50    0.40
   7   6  -3    1.20    0.50
  -7  -6   3    0.50    0.60
   6   6  -3  145.69    5.70
   6   6  -3  146.39    5.40
   6   6  -3  155.58    5.40
   6   6  -3  152.78    5.40
   6   6  -3  154.18    5.40
  -6  -6   3  152.38    6.10
   5   6  -3   26.30    1.70
   5   6  -3   25.30    1.60
   5   6  -3   24.30    1.90
   5   6  -3   23.80    1.50
   5   6  -3   25.30    1.50
   5   6  -3   25.30    1.60
   5   6  -3   25.30    1.50
  -5  -6   3   25.00    1.80
   4   6  -3  205.08    7.00
   4   6  -3  209.28    7.20
   4   6  -3  216.38    7.40
   4   6  -3  208.08    7.50
   4   6  -3  224.38    8.00
   4   6  -3  222.58    7.30
   4   6  -3  221.88    7.40
   4   6  -3  209.68    7.50
   3   6  -3  176.28   12.10
   3   6  -3  187.98   10.40
   3   6  -3  181.18    9.40
  -3  -6   3  159.38   10.80
  -3  -6   3  172.68    9.90
   2   6  -3  278.17   13.30
   2   6  -3  279.67   15.10
   2   6  -3  272.57   12.40
  -2  -6   3  253.47   13.00
  -2  -6   3  270.37   13.10
  -2  -6   3  273.57   12.80
   1   6  -3   84.49    7.50
   1   6  -3   85.59    6.00
  -1  -6   3   74.09    6.80
  -1  -6   3   66.39    4.80
  -1  -6   3   75.79    6.70
   0   6  -3  264.97   13.30
   0   6  -3  282.07   12.90
   0  -6   3  263.87   11.80
   0  -6   3  257.27   12.20
  -1   6  -3  358.86   17.00
  -1   6  -3  400.46   16.80
   1  -6   3  395.86   16.60
   1  -6   3  348.57   16.60
  -2   6  -3  226.68   10.00
  -2   6  -3  267.57    8.80
  -2   6  -3  272.07    9.10
  -2   6  -3  271.97    8.80
   2  -6   3  277.37   10.70
  -3   6  -3  186.48    6.80
  -3   6  -3  196.68    6.80
  -3   6  -3  199.28    7.10
   3  -6   3  199.68    8.20
   3  -6   3  200.18    8.60
   3  -6   3  188.38    7.30
  -4   6  -3   68.49    2.90
  -4   6  -3   65.09    3.00
  -4   6  -3   65.09    2.90
   4  -6   3   67.19    4.30
   4  -6   3   68.59    3.20
   4  -6   3   56.89    3.60
  -5   6  -3    1.80    0.60
  -5   6  -3    2.00    0.60
   5  -6   3    2.90    0.80
   5  -6   3    2.70    1.00
  -6   6  -3    3.20    0.50
   6  -6   3    3.00    0.60
   8   5  -3   18.70    1.00
   8   5  -3   16.70    1.40
   8   5  -3   21.10    1.10
  -8  -5   3   18.70    1.30
   7   5  -3   50.99    2.20
   7   5  -3   52.29    2.20
   7   5  -3   51.09    2.30
   7   5  -3   51.99    2.30
  -7  -5   3   52.89    2.70
   6   5  -3   81.79    3.20
   6   5  -3   80.79    3.20
   6   5  -3   82.59    3.60
   6   5  -3   82.79    3.30
   6   5  -3   78.39    3.30
   6   5  -3   78.99    3.10
  -6  -5   3   80.39    3.90
   5   5  -3   41.30    2.10
   5   5  -3   42.40    1.90
   5   5  -3   45.60    2.10
   5   5  -3   40.00    2.50
   5   5  -3   46.60    2.20
   5   5  -3   43.50    2.30
   5   5  -3   47.30    2.10
   5   5  -3   43.90    2.10
   4   5  -3  761.72   30.40
   4   5  -3  786.82   27.80
  -4  -5   3  745.53   27.40
  -4  -5   3  712.83   28.50
  -4  -5   3  722.93   26.80
   3   5  -3    8.60    3.30
   3   5  -3    9.50    2.40
   3   5  -3    9.40    2.70
  -3  -5   3    8.30    2.40
  -3  -5   3    6.50    3.20
   2   5  -3  304.67   14.80
   2   5  -3  298.37   12.40
   2   5  -3  297.27   13.10
  -2  -5   3  279.57   13.20
  -2  -5   3  293.57   12.40
  -2  -5   3  283.37   12.30
   1   5  -3  171.68    8.40
   1   5  -3  169.68    9.80
   1   5  -3  153.28    8.40
  -1  -5   3  159.08    8.30
  -1  -5   3  159.58    8.60
  -1  -5   3  171.58    8.50
   0   5  -3  609.44   22.10
   0   5  -3  606.14   22.80
   0   5  -3  579.04   22.30
   0  -5   3  573.14   21.40
   0  -5   3  610.94   21.80
   0  -5   3  629.94   22.40
  -1   5  -3  276.97   13.20
  -1   5  -3  292.17   12.80
  -1   5  -3  269.97   12.50
   1  -5   3  264.07   11.30
   1  -5   3  281.37   12.20
   1  -5   3  277.87   12.40
  -2   5  -3  213.18   11.00
  -2   5  -3  212.48   11.70
   2  -5   3  200.08   10.50
   2  -5   3  183.38   10.90
  -3   5  -3   16.60    1.50
  -3   5  -3   22.10    2.80
  -3   5  -3   18.90    1.50
  -3   5  -3   18.00    1.40
   3  -5   3   17.00    2.30
   3  -5   3   17.80    1.70
  -4   5  -3   72.19    3.20
  -4   5  -3   69.49    3.00
  -4   5  -3   69.49    3.00
   4  -5   3   75.49    3.50
   4  -5   3   65.09    3.90
   4  -5   3   68.99    4.40
  -5   5  -3  316.27   10.00
  -5   5  -3  297.17   10.00
   5  -5   3  310.07   10.60
   5  -5   3  293.67   11.60
  -6   5  -3  127.49    4.40
  -6   5  -3  123.59    4.40
   6  -5   3  120.39    5.40
   6  -5   3  130.49    4.80
   8   4  -3    1.00    0.40
   8   4  -3    1.10    0.50
   8   4  -3    0.20    0.30
  -8  -4   3    0.50    0.50
   7   4  -3  199.48    6.90
   7   4  -3  204.48    7.00
   7   4  -3  210.88    6.70
   7   4  -3  196.18    7.00
   7   4  -3  203.28    6.80
  -7  -4   3  202.58    7.40
   6   4  -3   21.40    1.50
   6   4  -3   27.40    1.60
   6   4  -3   25.30    1.70
   6   4  -3   26.20    1.50
   6   4  -3   24.50    1.50
   6   4  -3   26.90    1.50
   6   4  -3   22.90    1.40
   6   4  -3   23.20    1.60
  -6  -4   3   23.20    1.90
   5   4  -3   44.40    2.10
   5   4  -3   42.80    2.10
   5   4  -3   40.60    5.50
   5   4  -3   45.30    2.30
   5   4  -3   45.30    5.30
   5   4  -3   39.20    1.90
  -5  -4   3   43.10    5.50
   4   4  -3  438.86   19.50
   4   4  -3  462.35   17.70
   4   4  -3  453.35   17.40
  -4  -4   3  431.86   17.20
  -4  -4   3  434.26   17.40
  -4  -4   3  412.86   18.30
   3   4  -3   73.49    5.20
   3   4  -3   74.49    4.90
   3   4  -3   68.69    7.30
   3   4  -3   79.09    4.50
  -3  -4   3   72.69    5.10
  -3  -4   3   60.99    5.90
   2   4  -3  618.54   21.40
   2   4  -3  593.64   22.80
   2   4  -3  557.34   20.50
  -2  -4   3  583.84   21.00
  -2  -4   3  577.44   21.40
  -2  -4   3  559.04   20.30
   1   4  -3  676.33   24.20
   1   4  -3  703.33   25.30
   1   4  -3  690.83   23.80
   1   4  -3  679.73   24.30
  -1  -4   3  704.83   23.80
  -1  -4   3  685.83   23.90
   0   4  -3  628.44   21.90
   0   4  -3  603.14   22.10
   0   4  -3  641.14   22.40
   0   4  -3  640.44   22.60
   0  -4   3  607.24   21.30
   0  -4   3  599.74   21.60
   0  -4   3  645.44   22.00
  -1   4  -3   79.79    5.80
  -1   4  -3   76.49    5.30
  -1   4  -3   80.69    5.30
   1  -4   3   80.09    5.10
   1  -4   3   79.49    5.10
   1  -4   3   78.39    5.40
  -2   4  -3  250.87   11.80
  -2   4  -3  268.57   11.90
  -2   4  -3  259.97   12.30
   2  -4   3  246.38   11.40
   2  -4   3  247.38   11.30
  -3   4  -3  137.29    7.60
  -3   4  -3  143.39    8.60
   3  -4   3  129.59    7.40
  -4   4  -3   29.40    1.80
  -4   4  -3   29.60    1.70
   4  -4   3   32.10    2.80
   4  -4   3   31.80    2.10
  -5   4  -3  160.78    5.70
  -5   4  -3  151.48    5.70
   5  -4   3  157.48    7.20
   5  -4   3  157.28    6.20
  -6   4  -3   12.00    1.10
  -6   4  -3   12.90    1.20
   6  -4   3   13.20    1.50
   6  -4   3   13.00    1.30
   6  -4   3   11.60    1.70
  -7   4  -3   42.20    1.70
  -7   4  -3   43.70    1.80
   7  -4   3   38.90    2.00
   8   3  -3   31.70    1.60
   8   3  -3   33.00    1.50
   8   3  -3   31.00    1.40
  -8  -3   3   31.20    1.60
  -8  -3   3   32.00    1.80
   7   3  -3    0.50    0.50
   7   3  -3    1.20    0.50
   7   3  -3    1.00    0.50
   7   3  -3    1.10    0.60
   7   3  -3    0.80    0.50
  -7  -3   3    0.80    0.60
   6   3  -3   38.90    2.20
   6   3  -3   38.00    2.00
   6   3  -3   36.00    1.80
   6   3  -3   39.60    1.90
   6   3  -3   38.40    2.10
   6   3  -3   35.30    1.80
   6   3  -3   33.20    1.90
   6   3  -3   39.60    1.90
   5   3  -3  739.63   28.10
   5   3  -3  683.53   24.80
   5   3  -3  675.63   25.90
  -5  -3   3  625.24   24.80
  -5  -3   3  628.24   26.00
   4   3  -3  402.86   16.10
   4   3  -3  438.56   16.20
   4   3  -3  415.56   18.10
  -4  -3   3  401.46   17.00
  -4  -3   3  358.86   15.20
  -4  -3   3  380.46   15.80
   3   3  -3  510.65   18.90
   3   3  -3  515.35   20.50
   3   3  -3  543.45   18.80
  -3  -3   3  528.85   19.90
  -3  -3   3  515.25   18.80
  -3  -3   3  506.75   18.70
   2   3  -3 1520.65   48.20
   2   3  -3 1508.95   47.60
   2   3  -3 1581.54   48.80
   2   3  -3 1493.65   49.80
  -2  -3   3 1518.95   48.40
  -2  -3   3 1523.15   49.10
  -2  -3   3 1529.65   47.60
   1   3  -3  164.58    7.70
   1   3  -3  173.98    7.60
   1   3  -3  170.88    7.40
   1   3  -3  172.58    8.10
  -1  -3   3  166.18    7.20
  -1  -3   3  175.28    7.40
   0   3  -3   68.79    4.10
   0   3  -3   65.39    4.00
   0   3  -3   69.59    4.10
   0   3  -3   70.39    4.40
   0  -3   3   69.59    4.00
   0  -3   3   67.19    4.00
   0  -3   3   65.59    3.70
  -1   3  -3   78.89    4.70
  -1   3  -3   71.59    4.70
  -1   3  -3   80.39    5.10
   1  -3   3   74.89    4.30
   1  -3   3   78.79    4.50
   1  -3   3   79.09    4.80
   1  -3   3   74.39    4.00
  -2   3  -3  522.45   19.70
  -2   3  -3  555.04   19.70
  -2   3  -3  544.65   19.50
   2  -3   3  525.35   19.00
   2  -3   3  511.25   18.90
   2  -3   3  552.74   19.50
  -3   3  -3   63.79    4.10
  -3   3  -3   52.39    4.90
  -3   3  -3   69.59    5.40
   3  -3   3   65.99    6.00
   3  -3   3   63.29    4.00
   3  -3   3   60.39    5.60
  -4   3  -3  158.98   10.10
  -4   3  -3  193.38   10.80
   4  -3   3  190.28   10.60
   4  -3   3  194.78   10.60
  -5   3  -3    1.30    0.60
  -5   3  -3    1.00    0.60
   5  -3   3    0.10    0.60
   5  -3   3    1.40    1.10
   5  -3   3    0.80    0.70
  -6   3  -3  144.19    5.20
  -6   3  -3  144.19    5.30
   6  -3   3  131.69    6.30
   6  -3   3  141.39    5.70
   6  -3   3  147.99    5.50
  -7   3  -3  104.59    3.70
  -7   3  -3  103.69    3.80
   7  -3   3  101.29    4.00
   7  -3   3   98.99    4.10
   8   2  -3    9.60    0.80
   8   2  -3   11.10    1.00
   8   2  -3   11.50    0.90
  -8  -2   3   10.60    1.00
  -8  -2   3    9.10    1.00
   7   2  -3    2.40    0.50
   7   2  -3    3.20    0.60
   7   2  -3    3.20    0.70
   7   2  -3    4.70    0.70
   7   2  -3    2.00    0.60
  -7  -2   3    2.70    0.80
   6   2  -3  188.28    6.60
   6   2  -3  184.08    6.20
   6   2  -3  165.98    6.50
   6   2  -3  179.78    6.40
   6   2  -3  189.78    6.30
   6   2  -3  193.98    6.50
   6   2  -3  187.48    6.40
   5   2  -3   22.10    4.50
   5   2  -3   24.70    4.70
  -5  -2   3   30.30    5.00
  -5  -2   3   21.30    3.90
  -5  -2   3   24.50    4.20
   4   2  -3   43.90    4.70
   4   2  -3   44.70    4.60
   4   2  -3   53.49    6.00
  -4  -2   3   43.70    5.20
  -4  -2   3   42.80    4.60
   3   2  -3 2395.96   74.79
   3   2  -3 2512.65   75.09
   3   2  -3 2441.16   76.59
  -3  -2   3 2422.66   75.69
  -3  -2   3 2318.57   74.09
  -3  -2   3 2336.17   74.69
   2   2  -3   23.20    2.40
   2   2  -3   23.00    2.60
   2   2  -3   24.00    2.50
   2   2  -3   26.30    3.30
  -2  -2   3   23.60    2.50
  -2  -2   3   24.40    2.90
   1   2  -3   71.79    3.90
   1   2  -3   68.39    4.10
   1   2  -3   77.59    4.20
   1   2  -3   73.59    3.80
  -1  -2   3   75.19    3.60
  -1  -2   3   76.49    3.80
   0   2  -3  475.75   16.20
   0   2  -3  481.45   16.00
   0   2  -3  480.95   16.50
   0   2  -3  492.15   16.20
   0   2  -3  462.15   16.00
   0  -2   3  470.55   15.80
   0  -2   3  491.85   16.20
  -1   2  -3  378.26   13.90
  -1   2  -3  396.66   13.50
  -1   2  -3  390.46   13.60
  -1   2  -3  371.16   13.20
   1  -2   3  385.96   13.50
   1  -2   3  387.16   13.50
   1  -2   3  374.86   13.00
  -2   2  -3  556.94   18.90
  -2   2  -3  590.34   19.40
  -2   2  -3  568.34   19.80
  -2   2  -3  554.74   20.00
   2  -2   3  545.75   19.50
   2  -2   3  558.44   19.30
   2  -2   3  573.64   19.60
  -3   2  -3  975.90   31.60
  -3   2  -3 1002.80   33.40
  -3   2  -3  956.00   32.80
  -3   2  -3  966.30   32.10
   3  -2   3  956.10   31.70
   3  -2   3  975.80   32.90
   3  -2   3  957.70   32.60
  -4   2  -3  387.36   16.70
  -4   2  -3  394.86   17.00
   4  -2   3  416.86   17.00
   4  -2   3  389.56   16.30
  -5   2  -3   29.20    1.70
  -5   2  -3   27.50    1.60
  -5   2  -3   30.00    1.90
   5  -2   3   28.10    1.80
   5  -2   3   27.50    2.60
   5  -2   3   27.00    1.90
  -6   2  -3   24.20    1.80
  -6   2  -3   26.40    1.60
  -6   2  -3   25.30    1.70
   6  -2   3   26.30    1.90
   6  -2   3   22.50    1.90
  -7   2  -3   29.00    1.70
  -7   2  -3   28.00    1.50
   7  -2   3   24.80    1.70
   7  -2   3   24.40    1.70
  -8   2  -3   62.19    2.30
   8  -2   3   58.99    2.40
   8  -2   3   53.89    2.30
   8   1  -3   62.99    2.80
   8   1  -3   74.69    2.90
   8   1  -3   69.69    2.60
  -8  -1   3   69.39    2.80
   7   1  -3    5.00    0.80
   7   1  -3    3.50    0.90
   7   1  -3    4.70    0.70
   7   1  -3    4.80    0.70
  -7  -1   3    4.00    0.70
  -7  -1   3    5.40    0.90
   6   1  -3   -0.30    0.50
   6   1  -3   -0.10    0.40
   6   1  -3    1.80    0.70
   6   1  -3    0.60    0.50
   6   1  -3   -0.10    0.60
   6   1  -3    0.50    0.50
   6   1  -3    0.10    0.50
  -6  -1   3    0.80    0.60
   5   1  -3   76.59    7.00
   5   1  -3   85.69    7.20
   5   1  -3   84.79    5.80
  -5  -1   3   81.59    6.40
  -5  -1   3   88.19    7.70
  -5  -1   3   74.49    6.60
   4   1  -3 1833.82   59.19
   4   1  -3 1916.01   61.09
   4   1  -3 1893.71   59.79
  -4  -1   3 1820.02   59.79
  -4  -1   3 1852.61   59.29
  -4  -1   3 1776.62   58.99
   3   1  -3    8.00    2.00
   3   1  -3    7.70    1.80
   3   1  -3    6.60    1.70
   3   1  -3    5.00    1.60
  -3  -1   3    7.80    1.30
  -3  -1   3    6.50    1.30
  -3  -1   3    7.00    1.80
   2   1  -3    5.80    1.20
   2   1  -3    5.70    1.20
   2   1  -3    5.20    1.50
   2   1  -3    5.20    1.20
  -2  -1   3    6.40    1.50
  -2  -1   3    5.80    1.20
  -2  -1   3    5.20    1.00
   1   1  -3  885.61   27.70
   1   1  -3  881.61   28.00
   1   1  -3  864.21   28.30
   1   1  -3  868.31   27.80
   1   1  -3  893.81   27.40
  -1  -1   3  881.91   27.50
  -1  -1   3  865.51   27.10
   0   1  -3   53.69    2.90
   0   1  -3   50.79    2.60
   0   1  -3   53.49    2.60
   0   1  -3   55.29    2.70
   0   1  -3   54.39    2.70
   0  -1   3   52.09    2.40
   0  -1   3   53.59    2.60
   0  -1   3   51.69    2.30
   0  -1   3   52.49    2.70
  -1   1  -3    2.00    0.60
  -1   1  -3    3.90    1.00
  -1   1  -3    4.30    1.00
  -1   1  -3    3.50    1.10
   1  -1   3    3.20    0.90
   1  -1   3    2.30    0.80
   1  -1   3    4.20    0.90
   1  -1   3    4.00    1.00
   1  -1   3    3.80    0.90
  -2   1  -3 2080.49   64.49
  -2   1  -3 2118.29   63.29
  -2   1  -3 2119.79   63.99
  -2   1  -3 2044.70   63.39
   2  -1   3 2049.79   63.89
   2  -1   3 2048.79   63.59
   2  -1   3 2035.00   64.09
  -3   1  -3   68.69    4.60
  -3   1  -3   76.19    4.10
  -3   1  -3   74.89    4.10
   3  -1   3   73.19    4.00
   3  -1   3   77.49    4.00
   3  -1   3   76.29    4.90
   3  -1   3   68.09    4.60
  -4   1  -3    9.00    3.00
  -4   1  -3   12.30    2.90
   4  -1   3   12.50    2.50
   4  -1   3    9.70    2.50
   4  -1   3   11.40    2.20
  -5   1  -3  211.78   11.70
  -5   1  -3  187.68   10.70
   5  -1   3  206.48   11.30
  -6   1  -3   59.59    2.60
  -6   1  -3   65.39    2.90
  -6   1  -3   60.39    3.00
   6  -1   3   59.89    3.10
   6  -1   3   60.69    3.00
  -7   1  -3  142.89    5.30
  -7   1  -3  142.49    5.30
  -7   1  -3  137.49    4.90
   7  -1   3  142.99    5.40
   7  -1   3  129.59    5.40
  -8   1  -3   57.99    2.40
   8  -1   3   51.79    2.40
   8  -1   3   56.69    2.50
   8   0  -3   11.40    0.90
   8   0  -3    8.80    1.00
  -8   0   3   11.30    0.80
  -8   0   3   10.50    0.90
   7   0  -3   15.30    1.20
   7   0  -3   15.90    1.20
   7   0  -3   13.80    1.10
   7   0  -3   15.60    1.30
   7   0  -3   13.80    1.50
  -7   0   3   13.10    1.20
   6   0  -3   51.59    2.80
   6   0  -3   51.09    2.30
   6   0  -3   50.09    2.40
   6   0  -3   52.79    2.30
   6   0  -3   46.50    2.40
   6   0  -3   50.99    2.40
   5   0  -3   78.29    7.10
   5   0  -3   94.79    9.10
   5   0  -3   75.89    7.80
  -5   0   3   60.19    6.70
  -5   0   3   78.99    5.10
   4   0  -3  743.83   25.70
   4   0  -3  736.83   26.50
   4   0  -3  720.33   27.00
  -4   0   3  694.33   25.80
  -4   0   3  727.83   25.70
  -4   0   3  703.83   25.70
   3   0  -3  735.63   24.80
   3   0  -3  709.03   24.10
   3   0  -3  699.13   25.20
  -3   0   3  690.73   24.20
  -3   0   3  706.83   24.00
  -3   0   3  691.83   24.10
   2   0  -3    5.60    1.20
   2   0  -3    5.70    1.50
   2   0  -3    6.40    1.30
   2   0  -3   12.40    1.80
  -2   0   3    5.90    1.20
  -2   0   3    6.90    1.40
   1   0  -3   93.99    4.50
   1   0  -3   91.19    4.10
   1   0  -3   89.39    4.10
   1   0  -3   98.89    4.10
   1   0  -3   88.39    3.70
  -1   0   3   92.39    4.00
  -1   0   3   91.79    3.90
   0   0  -3  119.69    4.40
   0   0  -3  112.39    4.40
   0   0  -3  119.99    4.50
   0   0  -3  111.99    4.50
   0   0  -3  112.29    4.30
   0   0  -3  116.69    4.30
   0   0  -3  111.09    4.20
  -1   0  -3   21.60    1.90
  -1   0  -3   16.00    1.50
  -1   0  -3   22.30    1.80
  -1   0  -3   15.00    1.30
   1   0   3   16.20    1.70
   1   0   3   14.60    1.50
   1   0   3   14.40    1.40
   1   0   3   14.40    1.30
   1   0   3   16.90    1.50
  -2   0  -3  835.42   26.60
  -2   0  -3  857.91   26.70
  -2   0  -3  866.91   27.40
  -2   0  -3  842.72   26.60
   2   0   3  842.52   26.50
   2   0   3  827.52   27.10
   2   0   3  840.02   26.30
   2   0   3  846.62   26.90
   2   0   3  802.42   26.50
  -3   0  -3   37.70    2.70
  -3   0  -3   40.20    3.90
  -3   0  -3   41.10    3.70
   3   0   3   42.00    3.90
   3   0   3   30.40    2.80
   3   0   3   36.60    3.20
  -4   0  -3  202.28    9.30
  -4   0  -3  191.48    8.40
  -4   0  -3  212.08   10.20
   4   0   3  200.88    8.90
   4   0   3  192.78    8.80
   4   0   3  196.48    9.40
  -5   0  -3   99.09    6.80
  -5   0  -3  109.79    7.80
   5   0   3  106.79    6.70
   5   0   3  105.89    7.80
  -6   0  -3   67.49    3.00
  -6   0  -3   69.39    3.30
   6   0   3   66.89    3.30
   6   0   3   68.89    3.30
   6   0   3   66.89    2.90
  -7   0  -3  144.19    5.30
  -7   0  -3  137.29    5.50
   7   0   3  143.79    5.20
   7   0   3  151.48    5.60
   7   0   3  130.59    5.50
  -8   0  -3   71.89    3.00
  -8   0  -3   71.99    2.90
   8   0   3   70.29    3.10
   8   0   3   66.89    2.70
   8  -1  -3   48.40    2.20
   8  -1  -3   52.29    2.00
  -8   1   3   51.39    2.00
  -8   1   3   49.20    2.00
   7  -1  -3   30.00    1.90
   7  -1  -3   28.40    1.60
   7  -1  -3   27.70    1.60
  -7   1   3   31.00    1.60
  -7   1   3   26.00    1.60
   6  -1  -3   56.99    2.70
   6  -1  -3   58.69    2.80
   6  -1  -3   59.89    2.60
   6  -1  -3   61.79    3.10
   6  -1  -3   60.89    2.60
  -6   1   3   67.89    2.80
   5  -1  -3   51.69    2.40
   5  -1  -3   50.99    2.40
   5  -1  -3   50.79    2.20
   5  -1  -3   51.79    2.40
   5  -1  -3   50.19    2.70
  -5   1   3   61.19    6.00
   4  -1  -3  359.76   14.50
   4  -1  -3  342.47   15.50
   4  -1  -3  342.57   15.60
  -4   1   3  335.97   14.50
  -4   1   3  335.47   14.30
   3  -1  -3 1123.29   37.20
   3  -1  -3 1103.19   36.30
   3  -1  -3 1107.89   37.60
   3  -1  -3 1104.59   35.80
  -3   1   3 1111.09   36.00
  -3   1   3 1081.29   36.40
  -3   1   3 1118.69   36.30
   2  -1  -3  181.38    8.00
   2  -1  -3  176.58    7.30
   2  -1  -3  184.98    8.40
   2  -1  -3  178.68    7.50
  -2   1   3  171.38    7.30
  -2   1   3  181.48    7.60
  -2   1   3  184.88    7.20
   1  -1  -3   71.29    3.50
   1  -1  -3   68.69    4.00
   1  -1  -3   65.49    3.40
   1  -1  -3   68.59    3.70
  -1   1   3   68.59    3.50
  -1   1   3   69.09    3.20
   0  -1  -3   14.60    1.40
   0  -1  -3   15.00    1.50
   0  -1  -3   15.70    1.60
   0  -1  -3   16.70    1.60
   0  -1  -3   15.00    1.10
   0   1   3   16.50    1.80
   0   1   3   18.50    1.30
  -1  -1  -3  506.95   16.10
  -1  -1  -3  510.25   16.00
  -1  -1  -3  509.95   16.20
   1   1   3  479.55   16.20
   1   1   3  499.65   16.20
   1   1   3  478.95   16.30
  -2  -1  -3  113.49    4.90
  -2  -1  -3  118.89    4.60
  -2  -1  -3  117.89    5.10
  -2  -1  -3  127.19    5.50
   2   1   3  119.09    4.70
   2   1   3  119.49    5.20
   2   1   3  115.89    4.50
   2   1   3  114.99    5.00
   2   1   3  121.39    5.40
  -3  -1  -3  668.33   22.80
  -3  -1  -3  657.53   21.90
  -3  -1  -3  683.83   21.80
   3   1   3  653.83   21.30
   3   1   3  646.54   21.70
   3   1   3  641.34   22.10
   3   1   3  657.33   21.00
   3   1   3  675.03   22.60
  -4  -1  -3  333.57   12.90
  -4  -1  -3  327.37   13.90
  -4  -1  -3  312.27   12.30
   4   1   3  320.97   12.80
   4   1   3  328.47   13.40
   4   1   3  316.27   12.00
  -5  -1  -3  256.07   11.70
  -5  -1  -3  236.48   12.50
   5   1   3  264.67   11.70
   5   1   3  236.68   12.30
  -6  -1  -3  211.38    7.80
  -6  -1  -3  225.68    7.50
   6   1   3  221.08    7.70
   6   1   3  210.08    7.40
  -7  -1  -3   50.39    2.50
  -7  -1  -3   49.70    2.70
   7   1   3   48.80    2.60
   7   1   3   49.50    2.40
  -8  -1  -3    2.60    0.70
  -8  -1  -3    4.40    0.80
   8   1   3    3.40    0.80
   8   1   3    3.70    0.70
  -9  -1  -3   39.60    1.60
   9   1   3   35.70    1.70
   7  -2  -3   29.70    1.80
   7  -2  -3   28.90    1.60
   7  -2  -3   24.90    1.60
   7  -2  -3   27.20    1.50
  -7   2   3   30.60    1.60
  -7   2   3   29.60    1.50
   6  -2  -3  223.98    7.80
   6  -2  -3  223.48    8.30
   6  -2  -3  237.88    8.40
   6  -2  -3  233.38    7.90
  -6   2   3  230.68    7.80
   5  -2  -3  162.38    5.80
   5  -2  -3  156.78    5.60
   5  -2  -3  167.58    6.20
   5  -2  -3  165.78    6.40
   5  -2  -3  162.18    5.80
  -5   2   3  157.68    5.70
   4  -2  -3    6.60    2.20
   4  -2  -3   -0.90    0.70
  -4   2   3    2.00    2.40
  -4   2   3    2.40    2.30
  -4   2   3    2.00    1.80
   3  -2  -3  120.29    6.90
   3  -2  -3  115.59    6.70
   3  -2  -3  121.39    6.50
  -3   2   3  118.39    6.50
  -3   2   3  119.19    7.40
  -3   2   3  119.49    7.00
   2  -2  -3 1793.22   55.69
   2  -2  -3 1815.02   56.29
   2  -2  -3 1734.83   55.29
  -2   2   3 1779.12   55.19
  -2   2   3 1711.03   56.69
  -2   2   3 1765.02   55.59
   1  -2  -3 1518.05   46.40
   1  -2  -3 1436.36   46.00
   1  -2  -3 1562.94   45.80
   1  -2  -3 1443.76   46.50
  -1   2   3 1478.25   47.30
  -1   2   3 1425.46   45.50
  -1   2   3 1480.05   46.20
   0  -2  -3   14.20    1.60
   0  -2  -3   11.70    1.70
   0  -2  -3   14.80    1.70
   0  -2  -3   12.90    1.60
   0   2   3   12.50    1.90
   0   2   3   11.90    1.40
  -1  -2  -3  102.19    4.20
  -1  -2  -3  101.79    4.40
  -1  -2  -3   96.89    4.30
  -1  -2  -3   94.89    4.30
   1   2   3   80.09    3.60
   1   2   3   95.29    4.30
   1   2   3   93.49    4.80
  -2  -2  -3 2908.31   85.59
  -2  -2  -3 2737.43   84.89
  -2  -2  -3 2751.62   85.19
  -2  -2  -3 2931.41   85.49
   2   2   3 2735.13   85.39
   2   2   3 2883.91   85.59
   2   2   3 2644.84   85.89
  -3  -2  -3  616.74   20.10
  -3  -2  -3  597.54   21.20
  -3  -2  -3  622.24   20.70
  -3  -2  -3  635.04   19.80
   3   2   3  603.04   19.20
   3   2   3  586.44   21.10
   3   2   3  598.24   20.70
   3   2   3  601.04   20.80
   3   2   3  582.74   19.40
   3   2   3  589.64   19.80
  -4  -2  -3  970.30   32.10
  -4  -2  -3  969.50   33.50
  -4  -2  -3  951.90   31.40
   4   2   3  961.10   32.90
   4   2   3  985.60   32.50
   4   2   3  960.30   32.70
  -5  -2  -3   11.40    2.30
   5   2   3    7.70    2.00
   5   2   3    6.10    2.00
  -6  -2  -3  170.38    6.40
  -6  -2  -3  180.38    6.70
  -6  -2  -3  170.88    6.10
   6   2   3  175.48    6.40
   6   2   3  165.38    6.30
   6   2   3  170.88    6.10
  -7  -2  -3    0.40    0.60
  -7  -2  -3   -0.10    0.60
   7   2   3    1.30    0.60
   7   2   3    1.10    0.60
  -8  -2  -3   55.49    2.70
  -8  -2  -3   54.79    2.40
   8   2   3   55.29    2.50
   8   2   3   52.09    2.60
  -9  -2  -3   82.89    3.00
  -9  -2  -3   78.19    2.80
   9   2   3   84.19    2.90
   9   2   3   74.49    2.90
   7  -3  -3  159.28    5.40
   7  -3  -3  139.09    5.20
  -7   3   3  152.08    5.10
  -7   3   3  149.69    5.10
  -7   3   3  137.39    5.00
   6  -3  -3   67.19    2.80
   6  -3  -3   58.59    2.80
   6  -3  -3   64.39    3.20
   6  -3  -3   64.99    3.10
  -6   3   3   67.89    2.80
  -6   3   3   66.89    2.80
   5  -3  -3   57.89    2.70
   5  -3  -3   66.19    3.20
   5  -3  -3   64.79    3.30
   5  -3  -3   64.99    2.80
  -5   3   3   63.09    2.70
  -5   3   3   60.79    2.70
   4  -3  -3  122.09    6.90
   4  -3  -3  126.39    8.00
   4  -3  -3  131.19    8.80
  -4   3   3  122.59    8.60
  -4   3   3  119.29    7.80
   3  -3  -3    5.10    1.60
   3  -3  -3    1.00    1.40
   3  -3  -3    1.60    1.80
  -3   3   3    1.80    2.10
  -3   3   3    0.60    2.30
  -3   3   3    3.10    1.40
   2  -3  -3 1073.99   35.70
   2  -3  -3 1112.09   36.70
   2  -3  -3 1098.69   36.40
  -2   3   3 1104.49   36.40
  -2   3   3 1078.89   37.70
  -2   3   3 1094.09   35.70
   1  -3  -3 1568.54   50.19
   1  -3  -3 1540.45   49.50
   1  -3  -3 1658.83   49.70
   1  -3  -3 1603.84   50.09
  -1   3   3 1557.24   51.19
  -1   3   3 1530.55   49.00
  -1   3   3 1595.64   49.99
   0  -3  -3  102.09    4.90
   0  -3  -3   93.39    4.10
   0  -3  -3   88.59    4.70
   0  -3  -3   95.99    4.80
   0   3   3   93.89    4.70
   0   3   3   93.19    5.60
   0   3   3   81.69    4.40
  -1  -3  -3    1.10    0.80
  -1  -3  -3    1.20    0.80
  -1  -3  -3    0.60    0.80
  -1  -3  -3    0.50    0.70
   1   3   3   -0.10    0.60
   1   3   3    1.10    0.90
   1   3   3    0.00    0.60
  -2  -3  -3   24.60    2.60
  -2  -3  -3   25.00    2.40
  -2  -3  -3   28.30    2.60
  -2  -3  -3   23.80    2.60
   2   3   3   22.90    2.40
   2   3   3   24.00    2.10
   2   3   3   25.20    2.70
   2   3   3   23.90    3.10
  -3  -3  -3  706.83   23.70
  -3  -3  -3  696.83   23.20
  -3  -3  -3  707.43   24.10
   3   3   3  688.03   23.30
   3   3   3  692.23   23.70
   3   3   3  661.53   24.60
  -4  -3  -3   46.00    4.90
  -4  -3  -3   52.89    4.70
   4   3   3   54.49    4.80
   4   3   3   53.49    5.10
   4   3   3   63.19    4.40
  -5  -3  -3  122.79    7.40
  -5  -3  -3  130.69    8.70
   5   3   3  136.69    7.80
   5   3   3  157.98    8.40
  -6  -3  -3  200.38    7.50
  -6  -3  -3  200.68    7.20
   6   3   3  195.88    6.90
   6   3   3  191.38    6.60
   6   3   3  192.38    7.00
  -7  -3  -3   55.19    3.10
  -7  -3  -3   55.59    2.90
  -7  -3  -3   51.79    2.50
   7   3   3   54.29    2.80
   7   3   3   59.09    2.70
   7   3   3   55.79    2.40
  -8  -3  -3   19.60    1.30
  -8  -3  -3   18.70    1.70
   8   3   3   17.70    1.40
   8   3   3   19.30    1.20
   8   3   3   19.00    1.40
  -9  -3  -3   11.70    1.00
  -9  -3  -3   12.30    0.80
   9   3   3    9.90    0.80
   9   3   3   11.80    0.80
   7  -4  -3    1.00    0.40
   7  -4  -3    0.30    0.40
  -7   4   3    1.40    0.40
   6  -4  -3   26.30    1.80
   6  -4  -3   26.30    1.70
  -6   4   3   28.80    1.50
  -6   4   3   28.30    1.70
   5  -4  -3   36.30    2.00
   5  -4  -3   34.80    2.20
   5  -4  -3   36.40    2.40
  -5   4   3   36.30    1.90
   4  -4  -3  216.38    9.20
   4  -4  -3  204.48    7.20
   4  -4  -3  214.78    7.70
   4  -4  -3  228.88    8.00
   4  -4  -3  209.68    7.40
  -4   4   3  212.98    7.20
   3  -4  -3  184.38   10.40
   3  -4  -3  209.08   11.00
  -3   4   3  197.28   11.00
  -3   4   3  194.98    9.90
   2  -4  -3  630.64   23.00
   2  -4  -3  644.44   24.10
   2  -4  -3  688.73   24.40
  -2   4   3  670.43   24.20
  -2   4   3  658.53   23.10
  -2   4   3  653.93   25.80
   1  -4  -3    1.40    1.20
   1  -4  -3    1.10    1.30
   1  -4  -3    0.10    1.00
  -1   4   3    0.30    1.00
  -1   4   3   -0.30    0.80
  -1   4   3    0.30    2.30
   0  -4  -3  156.98    7.60
   0  -4  -3  166.38    6.60
   0  -4  -3  172.78    7.70
   0  -4  -3  143.29    7.10
   0   4   3  150.18    7.00
   0   4   3  158.08    7.30
   0   4   3  152.48    8.60
  -1  -4  -3   25.80    2.60
  -1  -4  -3   26.40    2.80
  -1  -4  -3   24.30    2.60
  -1  -4  -3   20.40    2.50
   1   4   3   18.80    2.30
   1   4   3   26.10    3.30
   1   4   3   24.10    2.70
  -2  -4  -3  309.97   11.70
  -2  -4  -3  332.77   12.50
  -2  -4  -3  330.87   12.40
  -2  -4  -3  309.37   11.60
   2   4   3  322.17   13.80
   2   4   3  309.47   12.40
   2   4   3  310.57   11.70
   2   4   3  311.27   11.70
  -3  -4  -3  303.37   12.40
  -3  -4  -3  299.97   12.00
  -3  -4  -3  307.87   12.20
   3   4   3  300.07   12.40
   3   4   3  297.77   11.60
   3   4   3  300.07   11.30
   3   4   3  315.37   13.90
  -4  -4  -3   20.70    3.10
  -4  -4  -3   15.00    3.20
  -4  -4  -3   17.50    3.30
   4   4   3   22.30    3.90
   4   4   3   23.10    3.70
  -5  -4  -3   38.80    5.40
  -5  -4  -3   32.10    4.10
   5   4   3   32.70    4.90
   5   4   3   39.10    5.70
  -6  -4  -3   39.20    2.30
  -6  -4  -3   36.20    2.40
   6   4   3   38.20    2.10
   6   4   3   36.10    1.80
  -7  -4  -3   53.49    2.90
  -7  -4  -3   57.29    3.10
   7   4   3   55.79    2.50
   7   4   3   59.59    2.70
  -8  -4  -3  116.89    4.50
  -8  -4  -3  105.49    4.00
  -8  -4  -3  107.39    4.50
   8   4   3  110.99    4.20
   8   4   3  113.99    4.00
  -9  -4  -3    0.10    0.40
   9   4   3    0.10    0.30
   6  -5  -3    0.50    0.50
   6  -5  -3    0.20    0.50
  -6   5   3    0.80    0.40
  -6   5   3   -0.30    0.40
   5  -5  -3  151.78    6.00
   5  -5  -3  158.98    5.80
   5  -5  -3  146.39    6.80
  -5   5   3  151.48    5.60
  -5   5   3  151.38    5.30
   4  -5  -3  243.98   10.30
   4  -5  -3  240.58    8.30
   4  -5  -3  252.07    8.80
   4  -5  -3  256.57    9.00
  -4   5   3  256.97    8.60
  -4   5   3  242.58    8.30
   3  -5  -3  210.88    7.30
   3  -5  -3  208.88    7.60
   3  -5  -3  220.58    9.20
   3  -5  -3  218.58    7.90
  -3   5   3  212.08    7.20
   2  -5  -3    5.80    2.80
   2  -5  -3    5.40    2.50
  -2   5   3    8.00    2.90
  -2   5   3   12.90    2.40
   1  -5  -3   21.60    3.60
   1  -5  -3   18.80    3.30
   1  -5  -3   19.40    3.20
  -1   5   3   15.40    3.30
  -1   5   3   18.20    3.30
   0  -5  -3  807.42   27.70
   0  -5  -3  779.72   27.80
   0  -5  -3  790.02   27.20
   0   5   3  791.82   27.00
   0   5   3  793.62   29.90
   0   5   3  824.02   27.90
  -1  -5  -3   93.39    5.50
  -1  -5  -3   90.99    5.10
  -1  -5  -3   91.89    5.30
   1   5   3   88.09    6.70
   1   5   3   89.69    5.40
   1   5   3   87.19    5.40
  -2  -5  -3  360.96   14.30
  -2  -5  -3  366.46   14.40
  -2  -5  -3  352.56   13.50
   2   5   3  362.86   16.20
   2   5   3  338.07   13.70
   2   5   3  374.56   14.40
  -3  -5  -3    2.60    1.50
  -3  -5  -3    2.10    0.70
  -3  -5  -3    7.30    2.50
   3   5   3    3.90    1.50
   3   5   3    0.90    1.90
   3   5   3    2.40    1.80
  -4  -5  -3    1.60    1.70
  -4  -5  -3    2.10    1.50
  -4  -5  -3    4.20    1.50
   4   5   3    2.30    2.20
   4   5   3    3.60    2.40
  -5  -5  -3  398.36   17.00
  -5  -5  -3  378.26   17.50
   5   5   3  393.66   17.80
   5   5   3  456.95   19.70
  -6  -5  -3   11.10    1.40
  -6  -5  -3   12.50    1.60
  -6  -5  -3   11.60    1.30
   6   5   3   12.30    1.20
   6   5   3   13.10    1.10
   6   5   3   13.50    1.20
  -7  -5  -3  107.89    4.70
  -7  -5  -3   93.19    4.20
   7   5   3   99.69    3.80
   7   5   3   98.99    4.00
  -8  -5  -3  151.78    5.80
  -8  -5  -3  153.68    5.60
   8   5   3  153.78    5.20
   8   5   3  147.89    5.30
  -9  -5  -3    3.20    0.60
   9   5   3    2.70    0.40
   9   5   3    2.50    0.40
   5  -6  -3   23.00    2.10
   5  -6  -3   25.60    1.70
  -5   6   3   23.80    1.30
  -5   6   3   25.00    1.50
   4  -6  -3    2.00    1.20
   4  -6  -3    1.60    0.70
  -4   6   3    2.10    0.60
  -4   6   3    2.60    0.60
   3  -6  -3   53.79    3.90
   3  -6  -3   53.99    2.50
   3  -6  -3   52.89    2.90
  -3   6   3   51.99    2.40
  -3   6   3   51.49    2.60
   2  -6  -3  297.67    9.90
   2  -6  -3  312.07   11.90
   2  -6  -3  300.27   10.40
   2  -6  -3  292.07   11.30
  -2   6   3  291.57   10.00
  -2   6   3  301.17   10.10
   1  -6  -3  276.07   13.00
   1  -6  -3  243.78   11.90
  -1   6   3  293.27   13.60
  -1   6   3  270.07   14.50
   0  -6  -3    7.80    3.70
   0  -6  -3    5.70    2.20
   0   6   3    7.70    3.50
   0   6   3    7.00    2.30
  -1  -6  -3    2.20    1.50
  -1  -6  -3    0.70    1.10
  -1  -6  -3   -0.10    0.50
   1   6   3   -1.40    2.30
   1   6   3   -0.50    1.30
  -2  -6  -3  142.59    8.30
  -2  -6  -3  155.78    8.40
   2   6   3  153.68    8.20
   2   6   3  150.38   10.10
   2   6   3  141.69    7.30
  -3  -6  -3  199.38   10.20
  -3  -6  -3  202.88   10.50
   3   6   3  193.18    9.70
   3   6   3  213.28   12.50
  -4  -6  -3  216.68   11.20
  -4  -6  -3  233.28   11.90
   4   6   3  242.98   11.90
   4   6   3  284.27   14.80
  -5  -6  -3    5.50    1.00
  -5  -6  -3    5.70    1.10
   5   6   3    5.40    0.80
   5   6   3    6.20    0.90
   5   6   3    6.00    0.80
  -6  -6  -3   16.00    1.50
  -6  -6  -3   14.90    1.70
  -6  -6  -3   14.50    1.50
   6   6   3   16.00    1.30
   6   6   3   16.30    1.30
   6   6   3   16.80    1.40
  -7  -6  -3   82.89    3.60
  -7  -6  -3   82.09    3.90
   7   6   3   84.29    3.30
   7   6   3   85.99    3.10
   7   6   3   75.59    3.30
  -8  -6  -3   11.10    1.10
  -8  -6  -3   11.40    1.30
   8   6   3   11.00    1.00
   8   6   3   11.90    0.90
   5  -7  -3   13.80    1.40
   5  -7  -3   14.00    1.10
  -5   7   3   14.10    1.00
   4  -7  -3   74.89    4.20
   4  -7  -3   75.89    3.30
  -4   7   3   77.59    3.20
  -4   7   3   69.49    2.80
   3  -7  -3  308.47   12.30
   3  -7  -3  344.17   11.40
   3  -7  -3  332.97   12.90
  -3   7   3  344.87   11.10
  -3   7   3  332.17   11.00
  -3   7   3  333.07   10.70
   2  -7  -3    7.40    1.20
   2  -7  -3    7.10    1.50
   2  -7  -3    8.20    1.80
  -2   7   3    7.60    1.00
  -2   7   3    7.10    1.00
   1  -7  -3  135.89    6.40
   1  -7  -3  136.79    6.80
  -1   7   3  140.29    5.20
  -1   7   3  133.19    5.10
   0  -7  -3  123.59    6.10
   0  -7  -3  113.49    5.20
   0  -7  -3  116.39    4.40
   0  -7  -3  119.09    5.80
   0   7   3  119.89    4.60
   0   7   3  123.29    4.60
  -1  -7  -3  474.15   20.70
  -1  -7  -3  532.45   20.90
   1   7   3  557.74   21.20
   1   7   3  502.25   23.50
  -2  -7  -3  148.19    8.90
  -2  -7  -3  140.39    7.50
   2   7   3  154.68    9.00
   2   7   3  149.99   10.60
  -3  -7  -3    8.50    1.50
  -3  -7  -3    9.80    2.30
  -3  -7  -3    6.10    2.50
  -3  -7  -3    7.50    1.50
   3   7   3    1.90    1.80
   3   7   3   10.70    1.10
  -4  -7  -3    6.30    1.40
  -4  -7  -3   15.40    1.60
  -4  -7  -3    6.00    1.10
   4   7   3    6.70    0.80
   4   7   3    7.30    0.90
   4   7   3    9.50    1.00
  -5  -7  -3   58.99    2.90
  -5  -7  -3   54.99    3.10
   5   7   3   54.59    2.50
   5   7   3   56.39    2.50
  -6  -7  -3  337.97   11.90
  -6  -7  -3  341.37   11.50
   6   7   3  342.07   11.10
   6   7   3  343.47   11.00
  -7  -7  -3  103.79    4.20
  -7  -7  -3  100.29    4.10
  -7  -7  -3  105.79    4.60
   7   7   3  109.89    3.90
   7   7   3   98.69    3.90
   7   7   3  109.49    3.80
  -8  -7  -3   27.50    1.50
  -8  -7  -3   27.00    1.70
   8   7   3   30.00    1.40
   8   7   3   21.60    1.30
   4  -8  -3    1.00    0.70
   4  -8  -3    0.70    0.50
  -4   8   3    1.10    0.40
   3  -8  -3    2.00    0.90
   3  -8  -3    0.90    0.90
   3  -8  -3    2.50    0.70
  -3   8   3    2.00    0.60
  -3   8   3    1.40    0.60
   2  -8  -3    9.40    1.80
   2  -8  -3    7.90    1.60
  -2   8   3    9.60    1.10
  -2   8   3    8.90    1.10
   1  -8  -3  272.47   11.00
   1  -8  -3  266.47   10.60
  -1   8   3  273.27    9.20
  -1   8   3  268.57    9.20
   0  -8  -3  243.98    9.60
   0  -8  -3  261.27   10.60
   0  -8  -3  271.07   10.60
   0   8   3  268.77    8.90
   0   8   3  258.57    8.70
   0   8   3  258.67    8.90
  -1  -8  -3    1.20    0.70
  -1  -8  -3    1.20    0.90
   1   8   3    0.90    0.50
   1   8   3    1.30    0.60
   1   8   3    0.70    0.50
  -2  -8  -3    3.20    0.90
  -2  -8  -3    3.50    1.10
   2   8   3    2.70    0.70
   2   8   3    2.70    0.70
  -3  -8  -3    5.10    1.00
  -3  -8  -3    4.70    1.10
   3   8   3    4.80    0.80
   3   8   3    4.40    0.70
  -4  -8  -3  315.27   11.20
  -4  -8  -3  314.97   10.60
  -4  -8  -3  286.57   10.50
   4   8   3  316.47   10.00
   4   8   3  300.07   10.00
   4   8   3  292.17    9.90
  -5  -8  -3  155.68    5.80
  -5  -8  -3  140.49    6.10
  -5  -8  -3  141.69    5.80
   5   8   3  135.19    5.10
   5   8   3  146.69    5.20
  -6  -8  -3  128.59    5.00
  -6  -8  -3  122.69    5.10
   6   8   3  128.69    4.50
   6   8   3  119.89    4.50
  -7  -8  -3    4.90    1.00
  -7  -8  -3    4.20    0.80
   7   8   3    3.70    0.50
   7   8   3    3.40    0.60
  -8  -8  -3    0.30    0.40
   8   8   3    0.40    0.30
   3  -9  -3   20.80    1.80
  -3   9   3   20.70    1.20
   2  -9  -3  120.89    5.60
   2  -9  -3  112.39    5.20
  -2   9   3  121.79    4.40
  -2   9   3  119.99    4.30
   1  -9  -3  155.28    7.00
   1  -9  -3  156.28    6.90
  -1   9   3  160.88    5.70
  -1   9   3  156.98    5.70
   0  -9  -3  216.88    8.90
   0  -9  -3  221.68    9.00
   0  -9  -3  192.38    7.90
   0   9   3  214.28    7.40
   0   9   3  211.98    7.40
  -1  -9  -3    5.40    1.40
  -1  -9  -3    4.50    1.10
   1   9   3    5.70    0.90
   1   9   3    6.80    0.90
   1   9   3    6.20    0.90
  -2  -9  -3  126.09    5.20
  -2  -9  -3  143.09    6.20
  -2  -9  -3  143.39    6.60
   2   9   3  142.49    5.20
   2   9   3  141.09    5.10
  -3  -9  -3   73.29    3.90
  -3  -9  -3   70.09    3.30
  -3  -9  -3   60.29    5.30
   3   9   3   66.99    2.90
   3   9   3   71.39    3.00
  -4  -9  -3  139.89    5.60
  -4  -9  -3  137.29    6.10
   4   9   3  153.18    5.30
   4   9   3  149.59    5.20
  -5  -9  -3   26.10    1.90
  -5  -9  -3   29.00    1.90
  -5  -9  -3   28.80    2.20
   5   9   3   28.60    1.50
   5   9   3   27.10    1.60
   5   9   3   31.30    1.60
  -6  -9  -3    0.10    0.50
  -6  -9  -3   -0.20    0.50
   6   9   3    0.50    0.40
   6   9   3    0.30    0.40
  -7  -9  -3   16.70    1.20
  -7  -9  -3   16.10    1.20
   7   9   3   14.70    0.90
   7   9   3   17.50    0.90
   1 -10  -3   14.60    1.60
   1 -10  -3   13.90    1.60
  -1  10   3   14.70    1.00
  -1  10   3   14.80    1.00
   0 -10  -3    1.70    0.70
   0 -10  -3    1.60    0.90
   0  10   3    1.00    0.50
   0  10   3    1.00    0.50
  -1 -10  -3   12.90    1.60
  -1 -10  -3   13.50    1.90
   1  10   3   15.10    1.30
   1  10   3   14.30    1.20
   1  10   3   12.60    1.00
  -2 -10  -3    2.00    0.80
  -2 -10  -3    2.50    1.00
   2  10   3    2.80    0.60
   2  10   3    1.90    0.50
  -3 -10  -3  166.88    6.20
  -3 -10  -3  177.78    7.00
   3  10   3  180.68    6.10
   3  10   3  168.68    5.90
  -4 -10  -3   12.60    1.30
  -4 -10  -3   15.40    1.70
   4  10   3   14.00    1.10
   4  10   3   11.50    1.00
  -5 -10  -3    3.20    0.90
  -5 -10  -3    3.60    0.70
   5  10   3    2.40    0.50
   5  10   3    3.50    0.60
  -6 -10  -3   74.09    3.00
  -6 -10  -3   82.19    3.10
   6  10   3   83.39    2.80
   6  10   3   71.19    2.70
   0 -11  -3   59.19    2.80
   0  11   3   52.19    2.10
  -1 -11  -3    9.00    1.00
  -1 -11  -3    7.70    1.10
   1  11   3    8.70    0.80
  -2 -11  -3   25.90    1.70
  -2 -11  -3   24.30    1.90
   2  11   3   23.10    1.10
   2  11   3   28.80    1.40
  -3 -11  -3   26.70    1.90
   3  11   3   26.50    1.30
   3  11   3   28.40    1.40
  -4 -11  -3   24.40    1.60
  -4 -11  -3   20.70    1.20
   4  11   3   23.30    1.10
   4  11   3   20.20    1.10
  -5 -11  -3   78.99    3.40
  -5 -11  -3   85.59    3.10
   5  11   3   88.49    2.90
   5  10  -4  114.19    3.90
  -5 -10   4  117.59    4.00
  -5 -10   4  109.39    4.10
   4  10  -4   34.00    1.60
   4  10  -4   34.20    1.60
  -4 -10   4   36.30    1.90
  -4 -10   4   36.60    1.80
   3  10  -4   68.59    2.80
   3  10  -4   73.29    2.90
  -3 -10   4   70.89    3.00
  -3 -10   4   72.19    3.30
   2  10  -4   -1.70    0.30
   2  10  -4    0.20    0.40
  -2 -10   4   -0.30    0.60
  -2 -10   4    0.20    0.40
   1  10  -4    2.80    0.50
   1  10  -4    1.30    0.50
   1  10  -4    2.30    0.70
  -1 -10   4    2.10    0.50
  -1 -10   4    2.20    0.80
  -1 -10   4    2.40    0.80
   0  10  -4  115.39    4.30
   0  10  -4  115.29    4.00
   0 -10   4  116.89    4.70
   0 -10   4  125.59    5.00
  -1  10  -4    5.10    0.60
  -1  10  -4    6.20    0.80
   1 -10   4    5.40    0.90
   6   9  -4  261.97    8.00
   6   9  -4  241.58    8.00
  -6  -9   4  261.27    8.50
  -6  -9   4  249.88    8.20
   5   9  -4   28.80    1.50
   5   9  -4   26.50    1.50
   5   9  -4   24.70    1.40
   5   9  -4   25.70    1.30
  -5  -9   4   28.70    1.70
   4   9  -4    8.40    1.20
   4   9  -4    7.90    0.80
   4   9  -4   10.50    1.10
   4   9  -4    8.40    0.90
  -4  -9   4    9.20    1.10
   3   9  -4  100.39    4.00
   3   9  -4  100.19    4.00
   3   9  -4  105.79    4.30
  -3  -9   4  102.09    4.70
   2   9  -4   19.20    1.60
   2   9  -4   15.50    1.40
   2   9  -4   16.30    1.50
   2   9  -4   16.90    1.20
  -2  -9   4   18.10    2.00
   1   9  -4  307.37   10.70
   1   9  -4  306.07   10.90
   1   9  -4  331.47   10.80
   1   9  -4  337.17   10.50
  -1  -9   4  345.97   12.00
  -1  -9   4  331.07   11.70
   0   9  -4    0.70    0.50
   0   9  -4    1.90    0.60
   0   9  -4    1.40    0.60
   0  -9   4    2.30    0.80
   0  -9   4    1.70    0.90
  -1   9  -4    9.40    0.90
  -1   9  -4    7.60    0.90
   1  -9   4   10.30    1.60
   1  -9   4   10.10    1.30
  -2   9  -4   14.20    1.00
  -2   9  -4   12.50    1.00
   2  -9   4   13.50    1.60
   2  -9   4   12.80    1.50
   7   8  -4   91.39    3.20
   7   8  -4   91.99    3.20
  -7  -8   4   97.19    3.60
  -7  -8   4   91.19    3.40
   6   8  -4   12.60    1.00
   6   8  -4   13.40    1.10
   6   8  -4   13.30    1.20
  -6  -8   4   12.20    1.10
  -6  -8   4   16.50    1.50
   5   8  -4    1.70    0.60
   5   8  -4    1.60    0.50
   5   8  -4    1.20    0.50
   5   8  -4    1.60    0.50
   5   8  -4    2.20    0.70
  -5  -8   4    1.40    0.60
   4   8  -4  379.96   12.10
   4   8  -4  353.26   11.90
   4   8  -4  364.26   12.10
   4   8  -4  376.26   12.10
   4   8  -4  374.16   12.60
   3   8  -4  135.69    5.30
   3   8  -4  142.39    5.30
   3   8  -4  140.29    5.50
   3   8  -4  137.49    5.00
   3   8  -4  142.59    4.90
   3   8  -4  139.99    5.70
  -3  -8   4  147.59    6.10
   2   8  -4  176.08    6.50
   2   8  -4  180.28    6.20
   2   8  -4  179.28    6.60
   2   8  -4  178.08    6.80
   2   8  -4  178.28    6.70
  -2  -8   4  188.38    7.50
   1   8  -4  218.88    7.80
   1   8  -4  227.98    7.60
   1   8  -4  228.68    8.00
   1   8  -4  229.48    8.00
  -1  -8   4  223.98    9.10
   0   8  -4  212.68    8.40
   0   8  -4  211.98    7.50
   0   8  -4  214.48    7.70
   0   8  -4  201.88    7.40
   0   8  -4  222.88    7.30
   0  -8   4  212.68    8.80
  -1   8  -4   50.19    2.40
  -1   8  -4   49.20    2.70
   1  -8   4   53.29    3.50
  -2   8  -4  192.38    6.40
  -2   8  -4  189.38    6.70
   2  -8   4  190.48    7.80
   2  -8   4  170.28    6.90
   2  -8   4  186.78    7.90
  -3   8  -4   30.20    1.70
  -3   8  -4   30.80    1.50
   3  -8   4   29.80    2.20
   3  -8   4   29.60    2.40
  -4   8  -4    1.90    0.40
   4  -8   4    1.80    0.70
   7   7  -4   41.90    1.80
   7   7  -4   37.40    1.70
   7   7  -4   42.30    1.70
   7   7  -4   40.20    1.70
  -7  -7   4   38.60    2.10
   6   7  -4   39.60    1.90
   6   7  -4   39.80    1.90
   6   7  -4   34.50    1.80
   6   7  -4   39.40    1.90
   6   7  -4   40.80    1.90
   6   7  -4   39.60    2.10
  -6  -7   4   40.80    2.40
   5   7  -4  182.58    6.40
   5   7  -4  177.38    6.70
   5   7  -4  182.78    6.40
   5   7  -4  194.38    6.60
   5   7  -4  190.18    7.20
   5   7  -4  187.28    6.50
  -5  -7   4  193.78    6.80
   4   7  -4  140.69    5.50
   4   7  -4  133.09    4.90
   4   7  -4  125.09    5.00
   4   7  -4  123.29    4.70
   4   7  -4  131.89    4.90
   4   7  -4  127.79    5.00
   4   7  -4  125.09    4.60
   4   7  -4  130.79    4.80
   3   7  -4   92.99    4.00
   3   7  -4   95.79    3.80
   3   7  -4   99.99    4.20
   3   7  -4  101.79    4.10
   3   7  -4   98.49    3.70
   3   7  -4  103.19    4.10
   3   7  -4   98.39    3.80
   3   7  -4  105.29    4.50
  -3  -7   4  100.59    4.70
   2   7  -4   95.49    4.00
   2   7  -4  105.69    4.80
   2   7  -4  100.69    4.40
   2   7  -4  101.79    3.80
   2   7  -4  105.89    4.20
   2   7  -4   94.89    4.10
   1   7  -4    0.00    0.50
   1   7  -4    0.10    0.40
   1   7  -4    0.30    0.60
   1   7  -4    0.40    0.50
   1   7  -4    0.20    0.50
   1   7  -4    0.20    0.50
  -1  -7   4   -0.20    0.70
   0   7  -4  240.48    8.70
   0   7  -4  240.48    8.50
   0   7  -4  255.77    8.40
   0   7  -4  249.78    8.70
   0   7  -4  255.07    9.50
   0  -7   4  257.27    9.90
  -1   7  -4  331.67   11.90
  -1   7  -4  347.87   11.10
  -1   7  -4  328.37   11.40
  -1   7  -4  351.86   12.30
   1  -7   4  354.96   12.80
   1  -7   4  326.57   12.70
  -2   7  -4  125.09    4.70
  -2   7  -4  118.79    4.90
  -2   7  -4  127.89    4.70
  -2   7  -4  124.99    5.50
   2  -7   4  125.79    6.10
   2  -7   4  127.19    6.30
  -3   7  -4   92.89    3.60
  -3   7  -4   87.89    3.70
  -3   7  -4   94.09    3.60
   3  -7   4   87.19    4.90
   3  -7   4   88.39    4.70
  -4   7  -4   32.70    1.80
  -4   7  -4   30.70    2.10
  -4   7  -4   33.70    1.70
   4  -7   4   34.90    2.40
   4  -7   4   35.50    2.70
  -5   7  -4    8.40    0.70
   5  -7   4    8.10    1.20
   8   6  -4    1.20    0.30
   8   6  -4    1.10    0.30
  -8  -6   4    1.10    0.40
   7   6  -4   22.60    1.20
   7   6  -4   22.40    1.20
   7   6  -4   21.60    1.20
   7   6  -4   22.70    1.50
   7   6  -4   20.50    1.20
  -7  -6   4   18.30    1.50
   6   6  -4   37.80    1.90
   6   6  -4   37.60    1.90
   6   6  -4   40.20    1.80
   6   6  -4   36.50    1.90
   6   6  -4   41.40    2.00
   6   6  -4   40.90    2.20
   6   6  -4   41.00    2.00
   5   6  -4    2.90    0.60
   5   6  -4    2.10    0.60
   5   6  -4    1.10    0.70
   5   6  -4    1.80    0.50
   5   6  -4    2.90    0.70
   5   6  -4    2.20    0.60
   5   6  -4    1.80    0.70
   5   6  -4    2.00    0.50
  -5  -6   4    2.20    0.80
   4   6  -4  233.98    8.70
   4   6  -4  247.38    8.20
   4   6  -4  249.08    8.30
   4   6  -4  237.18    8.10
   4   6  -4  244.38    7.90
   4   6  -4  241.08    8.00
   4   6  -4  235.68    8.40
   4   6  -4  242.68    8.40
   3   6  -4  136.09    6.00
   3   6  -4  120.79    5.40
   3   6  -4  129.49    5.00
   3   6  -4  126.09   10.70
   3   6  -4  146.39    8.30
   3   6  -4  136.09    8.90
  -3  -6   4  153.98    9.00
  -3  -6   4  133.09    8.70
   2   6  -4  265.17   13.90
   2   6  -4  287.77   13.00
   2   6  -4  270.47   13.70
  -2  -6   4  274.87   13.60
  -2  -6   4  285.27   13.00
  -2  -6   4  275.37   14.00
   1   6  -4    4.60    2.20
   1   6  -4    5.60    2.40
  -1  -6   4    1.30    1.50
  -1  -6   4    4.00    3.60
  -1  -6   4    5.70    2.40
   0   6  -4  405.26   16.80
   0   6  -4  357.46   17.50
   0  -6   4  363.46   16.30
   0  -6   4  359.46   15.70
  -1   6  -4    2.20    0.90
  -1   6  -4    3.50    0.80
  -1   6  -4    1.40    1.10
  -1   6  -4    2.60    0.60
  -1   6  -4    1.80    1.00
   1  -6   4    1.70    1.60
   1  -6   4    3.70    2.50
  -2   6  -4   52.59    3.80
  -2   6  -4   48.80    2.30
  -2   6  -4   49.30    2.60
  -2   6  -4   48.40    2.40
  -2   6  -4   49.80    3.10
   2  -6   4   49.20    3.50
  -3   6  -4  133.09    4.90
  -3   6  -4  127.69    4.90
  -3   6  -4  126.89    5.00
   3  -6   4  133.29    6.50
   3  -6   4  127.09    6.10
  -4   6  -4   20.40    1.60
  -4   6  -4   18.10    1.50
  -4   6  -4   20.20    1.60
   4  -6   4   18.60    1.70
   4  -6   4   16.90    2.00
   4  -6   4   19.40    2.50
  -5   6  -4   12.00    1.00
  -5   6  -4   11.60    1.00
   5  -6   4   11.30    1.70
   5  -6   4   12.70    1.20
   8   5  -4    4.80    0.60
   8   5  -4    4.40    0.50
  -8  -5   4    4.30    0.70
   7   5  -4   45.70    2.00
   7   5  -4   48.20    2.20
   7   5  -4   47.00    2.00
   7   5  -4   44.70    2.10
   7   5  -4   49.20    2.10
  -7  -5   4   47.50    2.50
   6   5  -4    0.30    0.40
   6   5  -4   -0.10    0.40
   6   5  -4    0.30    0.40
   6   5  -4    0.30    0.40
   6   5  -4    0.30    0.50
   6   5  -4   -0.10    0.40
   6   5  -4    0.40    0.50
  -6  -5   4    1.10    0.80
   5   5  -4  342.17   10.90
   5   5  -4  335.17   11.00
   5   5  -4  332.47   11.60
   5   5  -4  319.17   10.70
   5   5  -4  347.07   11.30
   5   5  -4  331.97   10.90
   5   5  -4  346.37   11.00
   5   5  -4  342.67   11.00
   4   5  -4  158.28   10.70
   4   5  -4  164.08    9.50
  -4  -5   4  143.29    8.80
  -4  -5   4  152.18   10.30
  -4  -5   4  147.79    9.00
   3   5  -4   85.69    5.90
   3   5  -4   94.79    6.60
   3   5  -4   84.39    8.90
  -3  -5   4   82.19    7.20
  -3  -5   4   81.09    7.90
   2   5  -4  131.79    9.20
   2   5  -4  134.69    8.00
   2   5  -4  127.99    7.40
  -2  -5   4  125.99    8.70
  -2  -5   4  127.19    7.30
  -2  -5   4  126.99    7.50
   1   5  -4   -1.20    1.40
   1   5  -4   -0.10    1.20
   1   5  -4    5.90    1.40
  -1  -5   4    1.70    1.30
  -1  -5   4    2.60    2.00
   0   5  -4   31.40    4.20
   0   5  -4   31.00    4.10
   0   5  -4   36.00    4.80
   0  -5   4   26.40    3.70
   0  -5   4   35.80    4.40
   0  -5   4   27.70    3.50
  -1   5  -4  654.53   24.60
  -1   5  -4  652.23   24.70
  -1   5  -4  649.54   24.40
   1  -5   4  629.54   24.20
   1  -5   4  647.64   23.30
   1  -5   4  639.84   23.70
  -2   5  -4  384.26   16.90
  -2   5  -4  394.76   17.20
   2  -5   4  391.46   16.50
   2  -5   4  382.36   16.30
  -3   5  -4   53.49    2.60
  -3   5  -4   53.09    2.50
  -3   5  -4   52.69    2.70
  -3   5  -4   57.39    3.90
   3  -5   4   49.00    2.70
   3  -5   4   54.09    3.60
  -4   5  -4   23.10    1.60
  -4   5  -4   22.20    1.70
   4  -5   4   23.50    2.50
   4  -5   4   20.50    2.30
   4  -5   4   24.70    1.90
  -5   5  -4  100.49    3.90
  -5   5  -4   96.29    3.90
   5  -5   4   94.69    4.20
   5  -5   4  100.99    5.20
  -6   5  -4   61.69    2.40
  -6   5  -4   62.19    2.50
   6  -5   4   61.89    2.70
   6  -5   4   55.69    3.20
   8   4  -4   34.20    1.40
   8   4  -4   33.40    1.40
   8   4  -4   34.70    1.60
   8   4  -4   30.50    1.60
  -8  -4   4   33.00    1.70
   7   4  -4  236.58    7.70
   7   4  -4  243.98    7.80
   7   4  -4  237.48    7.80
   7   4  -4  234.38    7.90
   7   4  -4  241.28    7.90
   7   4  -4  227.08    8.00
   6   4  -4   15.20    1.30
   6   4  -4   17.20    1.50
   6   4  -4   21.20    1.30
   6   4  -4   21.20    1.30
   6   4  -4   18.10    1.60
   6   4  -4   19.40    1.50
   6   4  -4   21.60    1.40
   6   4  -4   22.90    1.40
  -6  -4   4   20.90    1.70
   5   4  -4   18.50    1.40
   5   4  -4   16.90    1.70
   5   4  -4   18.70    1.30
   5   4  -4   20.00    1.20
   5   4  -4   18.90    1.30
   5   4  -4   18.80    1.30
   5   4  -4   17.50    1.40
   5   4  -4   18.90    1.30
   4   4  -4   58.29    5.90
   4   4  -4   54.89    4.00
   4   4  -4   46.80    6.80
  -4  -4   4   48.60    5.80
  -4  -4   4   51.09    5.40
  -4  -4   4   52.79    5.40
   3   4  -4   13.40    2.60
   3   4  -4    8.80    2.40
   3   4  -4   10.40    3.40
  -3  -4   4    9.30    2.30
  -3  -4   4    8.40    1.80
   2   4  -4  207.38    9.50
   2   4  -4  215.08   10.00
   2   4  -4  216.08   11.10
  -2  -4   4  221.58    9.90
  -2  -4   4  215.58   10.50
  -2  -4   4  196.08    9.00
   1   4  -4 1250.47   41.40
   1   4  -4 1266.37   40.30
   1   4  -4 1230.38   40.60
   1   4  -4 1200.28   40.90
  -1  -4   4 1215.68   40.30
  -1  -4   4 1189.98   39.90
   0   4  -4  252.37   11.30
   0   4  -4  259.47   11.00
   0   4  -4  243.68   11.20
   0  -4   4  252.27   10.30
   0  -4   4  259.37   10.90
   0  -4   4  253.47   10.90
  -1   4  -4  127.49    7.30
  -1   4  -4  130.09    7.20
  -1   4  -4  125.59    7.30
   1  -4   4  121.59    6.90
   1  -4   4  125.19    6.50
   1  -4   4  118.29    6.70
  -2   4  -4    5.20    2.20
  -2   4  -4    4.30    1.90
  -2   4  -4    1.10    1.70
   2  -4   4    6.40    1.20
   2  -4   4    4.60    1.90
   2  -4   4    3.20    1.60
  -3   4  -4  206.28   11.30
  -3   4  -4  243.18   12.30
   3  -4   4  222.28   10.30
   3  -4   4  231.08   11.60
  -4   4  -4  135.79    4.90
  -4   4  -4  127.99    4.90
   4  -4   4  130.29    6.30
   4  -4   4  131.99    5.30
  -5   4  -4  259.47    8.90
  -5   4  -4  271.77    9.10
   5  -4   4  267.67    9.50
   5  -4   4  265.47   10.70
  -6   4  -4   37.40    1.90
  -6   4  -4   37.30    1.90
   6  -4   4   37.30    2.20
   6  -4   4   36.90    2.80
  -7   4  -4    8.30    0.70
  -7   4  -4    7.90    0.70
   7  -4   4    7.30    0.80
   8   3  -4    0.70    0.40
   8   3  -4    0.30    0.40
   8   3  -4    0.30    0.40
   8   3  -4    0.40    0.30
  -8  -3   4    0.40    0.40
  -8  -3   4    0.40    0.50
   7   3  -4   17.30    1.40
   7   3  -4   16.30    1.20
   7   3  -4   15.10    1.20
   7   3  -4   17.30    1.40
   7   3  -4   15.80    1.20
   7   3  -4   16.70    1.30
   7   3  -4   16.10    1.40
  -7  -3   4   15.30    1.50
   6   3  -4  256.87    9.00
   6   3  -4  254.37    8.70
   6   3  -4  265.77    8.60
   6   3  -4  266.67    8.90
   6   3  -4  252.97    8.70
   6   3  -4  261.07    8.60
   6   3  -4  266.47    8.70
   6   3  -4  265.27    8.60
   5   3  -4  263.07    9.10
   5   3  -4  301.77   13.40
   5   3  -4  312.47   15.70
   5   3  -4  262.37    9.20
   5   3  -4  293.87   13.10
   5   3  -4  251.67    9.00
  -5  -3   4  265.97   13.40
  -5  -3   4  286.67   14.10
   4   3  -4  240.18   11.20
   4   3  -4  244.48   13.20
   4   3  -4  250.67   11.50
  -4  -3   4  244.88   12.20
  -4  -3   4  222.88   10.40
  -4  -3   4  225.08   10.80
   3   3  -4  588.14   20.60
   3   3  -4  532.15   21.80
   3   3  -4  549.25   19.80
  -3  -3   4  546.15   19.90
  -3  -3   4  542.55   20.90
   2   3  -4  563.04   19.20
   2   3  -4  569.14   21.50
   2   3  -4  590.94   20.20
   2   3  -4  576.84   20.50
  -2  -3   4  580.24   19.30
  -2  -3   4  550.84   20.70
  -2  -3   4  561.34   20.00
   1   3  -4  130.49    6.70
   1   3  -4  122.79    6.40
   1   3  -4  128.09    6.80
   1   3  -4  137.49    6.50
  -1  -3   4  134.09    6.20
  -1  -3   4  134.79    6.40
   0   3  -4   30.80    3.60
   0   3  -4   31.20    3.20
   0   3  -4   31.20    3.40
   0  -3   4   26.60    2.70
   0  -3   4   26.50    3.00
   0  -3   4   30.60    3.10
  -1   3  -4  246.48   10.90
  -1   3  -4  256.87   10.60
  -1   3  -4  255.27   10.50
   1  -3   4  247.08   10.40
   1  -3   4  255.17   10.30
  -2   3  -4  143.99    7.00
  -2   3  -4  155.48    7.60
  -2   3  -4  155.08    7.70
  -2   3  -4  150.28    8.10
   2  -3   4  140.69    7.40
   2  -3   4  138.29    7.00
   2  -3   4  144.49    7.60
  -3   3  -4  719.43   25.50
  -3   3  -4  663.43   25.00
   3  -3   4  667.93   23.60
   3  -3   4  646.64   24.30
   3  -3   4  650.83   24.20
  -4   3  -4   62.39    7.40
  -4   3  -4   82.99    7.90
   4  -3   4   74.79    7.10
   4  -3   4   74.09    7.70
  -5   3  -4   60.69    2.80
  -5   3  -4   57.09    3.20
  -5   3  -4   63.49    2.70
   5  -3   4   60.69    3.10
   5  -3   4   58.09    3.80
   5  -3   4   58.19    2.90
  -6   3  -4    5.70    0.90
  -6   3  -4    2.90    0.80
   6  -3   4    4.50    0.90
   6  -3   4    2.10    1.10
   6  -3   4    5.50    1.10
  -7   3  -4  223.48    7.50
  -7   3  -4  218.08    7.30
   7  -3   4  224.58    7.50
   7  -3   4  226.08    7.80
   8   2  -4   87.19    3.20
   8   2  -4   86.99    3.40
   8   2  -4   93.19    3.30
  -8  -2   4   92.29    3.40
   7   2  -4    2.90    0.70
   7   2  -4    2.40    0.50
   7   2  -4    2.10    0.60
   7   2  -4    2.50    0.60
   7   2  -4    2.10    0.70
   7   2  -4    2.60    0.60
  -7  -2   4    3.40    0.80
   6   2  -4  373.46   11.80
   6   2  -4  377.96   11.80
   6   2  -4  371.36   12.20
   6   2  -4  364.96   11.90
   6   2  -4  367.36   12.00
   6   2  -4  372.56   12.10
   6   2  -4  370.86   12.00
   6   2  -4  356.16   11.80
   5   2  -4   24.40    4.90
   5   2  -4   23.50    4.50
  -5  -2   4   21.10    3.20
  -5  -2   4   23.40    4.40
  -5  -2   4   17.20    4.10
   4   2  -4  344.77   14.90
   4   2  -4  357.86   16.30
   4   2  -4  358.66   14.70
  -4  -2   4  342.37   15.10
  -4  -2   4  339.57   14.40
   3   2  -4  162.78    7.90
   3   2  -4  154.48    7.70
   3   2  -4  165.48    8.60
  -3  -2   4  164.48    7.60
  -3  -2   4  160.48    8.30
  -3  -2   4  161.58    7.30
   2   2  -4    6.50    1.50
   2   2  -4    4.40    1.00
   2   2  -4    4.30    1.20
   2   2  -4    5.30    1.90
  -2  -2   4    5.20    1.30
  -2  -2   4    5.50    1.60
   1   2  -4  171.78    7.40
   1   2  -4  180.48    7.90
   1   2  -4  184.58    7.50
   1   2  -4  181.48    7.80
  -1  -2   4  177.58    7.30
  -1  -2   4  171.88    7.00
   0   2  -4 1085.99   35.10
   0   2  -4 1132.29   35.10
   0   2  -4 1093.69   35.20
   0   2  -4 1123.19   35.70
   0  -2   4 1124.69   35.10
   0  -2   4 1079.19   34.70
  -1   2  -4    2.90    1.00
  -1   2  -4    4.50    1.50
  -1   2  -4    4.20    1.20
  -1   2  -4    2.70    1.10
   1  -2   4    5.40    1.10
   1  -2   4    3.50    1.10
   1  -2   4    3.60    1.10
  -2   2  -4   70.09    4.70
  -2   2  -4   69.19    4.80
  -2   2  -4   68.79    4.10
  -2   2  -4   66.39    4.00
   2  -2   4   71.29    4.40
   2  -2   4   66.09    4.60
   2  -2   4   64.59    4.20
  -3   2  -4    2.10    1.50
  -3   2  -4    4.40    1.80
  -3   2  -4    1.80    1.60
   3  -2   4    4.70    1.40
   3  -2   4    3.60    1.90
   3  -2   4    2.80    1.60
  -4   2  -4  293.37   14.20
  -4   2  -4  324.07   14.70
   4  -2   4  304.47   13.90
   4  -2   4  324.57   14.20
  -5   2  -4  216.28    7.20
  -5   2  -4  210.78    7.50
  -5   2  -4  205.18    7.30
   5  -2   4  207.88    7.70
   5  -2   4  211.28    7.50
  -6   2  -4  163.48    5.90
  -6   2  -4  170.68    6.20
  -6   2  -4  164.48    6.20
   6  -2   4  166.58    6.50
   6  -2   4  169.08    6.30
  -7   2  -4   51.59    2.20
  -7   2  -4   55.19    2.50
  -7   2  -4   49.80    2.50
   7  -2   4   48.30    2.60
   7  -2   4   51.59    2.50
  -8   2  -4    3.50    0.50
   8  -2   4    3.50    0.60
   8  -2   4    3.10    0.60
   8   1  -4   14.50    1.00
   8   1  -4   13.90    0.90
   8   1  -4   11.40    1.10
  -8  -1   4   13.40    1.00
   7   1  -4   14.50    1.30
   7   1  -4   13.50    1.40
   7   1  -4   14.60    1.20
   7   1  -4   12.80    1.10
   7   1  -4   12.90    1.00
   7   1  -4   13.50    1.10
   6   1  -4    1.70    0.60
   6   1  -4    2.50    0.70
   6   1  -4    1.70    0.60
   6   1  -4    1.60    0.50
   6   1  -4    2.30    0.60
   6   1  -4    3.60    0.60
   6   1  -4    2.10    0.70
   6   1  -4    2.00    0.80
  -6  -1   4    3.20    0.80
   5   1  -4  509.45   20.50
   5   1  -4  569.74   22.90
  -5  -1   4  473.25   19.90
  -5  -1   4  504.75   21.10
  -5  -1   4  532.55   20.70
   4   1  -4  658.23   24.90
   4   1  -4  623.04   23.10
   4   1  -4  651.23   23.50
  -4  -1   4  642.24   23.70
  -4  -1   4  618.44   23.10
  -4  -1   4  600.94   22.80
   3   1  -4   16.90    2.50
   3   1  -4   18.30    2.80
   3   1  -4   13.50    2.30
   3   1  -4   13.40    2.70
  -3  -1   4   14.10    2.20
  -3  -1   4   14.40    2.60
   2   1  -4  515.05   17.90
   2   1  -4  541.65   19.50
   2   1  -4  519.95   18.30
   2   1  -4  523.75   17.80
  -2  -1   4  532.25   17.50
  -2  -1   4  521.15   18.50
  -2  -1   4  551.34   18.20
   1   1  -4   18.00    2.00
   1   1  -4   17.80    1.70
   1   1  -4   16.80    2.20
   1   1  -4   16.50    2.10
   1   1  -4   23.80    2.20
  -1  -1   4   18.90    1.70
  -1  -1   4   19.70    1.90
   0   1  -4  354.96   12.40
   0   1  -4  359.06   12.40
   0   1  -4  367.16   12.50
   0   1  -4  366.26   12.90
   0   1  -4  362.56   12.40
   0  -1   4  365.26   11.90
   0  -1   4  367.66   12.40
   0  -1   4  371.16   12.10
   0  -1   4  381.96   12.20
  -1   1  -4  183.78    7.00
  -1   1  -4  166.08    6.40
  -1   1  -4  185.48    6.90
  -1   1  -4  173.48    7.30
   1  -1   4  174.78    6.60
   1  -1   4  180.28    6.40
   1  -1   4  161.68    6.70
   1  -1   4  175.38    7.00
  -2   1  -4  601.24   19.90
  -2   1  -4  614.74   20.30
  -2   1  -4  598.84   20.90
   2  -1   4  588.84   20.00
   2  -1   4  571.54   20.20
   2  -1   4  602.74   20.30
  -3   1  -4   -0.90    1.00
  -3   1  -4    0.20    1.70
  -3   1  -4    1.00    1.10
   3  -1   4    1.80    1.40
   3  -1   4    0.90    0.90
   3  -1   4    1.30    1.30
   3  -1   4    1.90    1.10
  -4   1  -4  490.65   19.60
  -4   1  -4  462.65   18.60
   4  -1   4  499.95   19.20
   4  -1   4  468.95   18.30
  -5   1  -4    9.60    3.40
  -5   1  -4    9.30    2.10
   5  -1   4    6.60    2.90
   5  -1   4    2.90    1.60
  -6   1  -4   33.70    2.00
  -6   1  -4   35.60    2.20
  -6   1  -4   33.50    1.80
   6  -1   4   34.90    2.10
   6  -1   4   36.20    2.30
  -7   1  -4   92.59    3.90
  -7   1  -4   95.39    3.80
   7  -1   4   86.19    4.00
   7  -1   4   95.89    4.00
  -8   1  -4  109.39    4.00
  -8   1  -4  106.19    4.00
   8  -1   4  107.89    4.10
   8  -1   4  117.29    4.20
   8   0  -4   67.39    2.90
   8   0  -4   80.09    2.90
  -8   0   4   76.19    2.70
  -8   0   4   76.29    2.80
   7   0  -4   38.30    1.90
   7   0  -4   41.60    1.90
   7   0  -4   40.80    1.90
   7   0  -4   41.40    2.10
   7   0  -4   37.30    2.20
  -7   0   4   38.50    2.00
   6   0  -4    0.60    0.50
   6   0  -4    0.50    0.50
   6   0  -4    1.00    0.50
   6   0  -4    1.20    0.50
   6   0  -4    0.40    0.50
   6   0  -4    0.50    0.40
   6   0  -4    1.90    0.80
   6   0  -4    0.70    0.50
   5   0  -4   85.29    8.10
   5   0  -4   76.49    3.10
   5   0  -4   88.79    8.90
   5   0  -4   78.59    3.30
   5   0  -4   91.49    7.90
  -5   0   4   70.69    7.10
  -5   0   4   85.49    6.00
   4   0  -4 1122.49   37.70
   4   0  -4 1117.49   38.40
   4   0  -4 1164.88   39.50
  -4   0   4 1116.59   37.40
  -4   0   4 1091.79   37.70
  -4   0   4 1044.70   37.40
   3   0  -4 1918.71   61.79
   3   0  -4 1934.21   60.39
   3   0  -4 1898.91   60.79
  -3   0   4 1866.21   60.39
  -3   0   4 1894.01   60.39
  -3   0   4 1940.41   60.29
   2   0  -4  234.58    9.30
   2   0  -4  225.08    9.00
   2   0  -4  232.58    9.10
   2   0  -4  221.08    9.90
  -2   0   4  222.88    8.90
  -2   0   4  230.58    9.10
   1   0  -4    1.90    0.80
   1   0  -4    1.00    0.70
   1   0  -4    2.00    1.00
   1   0  -4    0.30    0.50
   1   0  -4    0.00    0.60
  -1   0   4    0.10    0.50
   0   0  -4   80.09    3.50
   0   0  -4   85.49    3.40
   0   0  -4   78.69    3.60
   0   0  -4   83.49    3.60
   0   0  -4   73.29    3.60
   0   0  -4   82.39    3.40
   0   0  -4   62.99    3.50
   0   0  -4   81.99    3.70
   0   0  -4   76.39    3.40
  -1   0  -4  800.72   25.20
  -1   0  -4  845.22   25.50
  -1   0  -4  765.82   24.90
  -1   0  -4  809.02   25.60
   1   0   4  777.92   25.00
   1   0   4  792.72   25.60
  -2   0  -4  183.18    7.10
  -2   0  -4  185.68    7.20
  -2   0  -4  185.68    7.90
  -2   0  -4  185.68    7.20
   2   0   4  186.88    6.80
   2   0   4  173.38    6.90
   2   0   4  178.38    7.30
   2   0   4  180.58    7.60
   2   0   4  175.78    6.90
  -3   0  -4  102.69    5.40
  -3   0  -4  127.19    6.60
  -3   0  -4  124.99    5.80
   3   0   4  117.39    6.10
   3   0   4  114.49    6.20
   3   0   4  106.29    5.30
  -4   0  -4   32.20    3.50
  -4   0  -4   25.70    3.80
  -4   0  -4   24.80    3.00
   4   0   4   30.00    3.70
   4   0   4   27.90    3.10
   4   0   4   31.40    4.00
  -5   0  -4    0.70    2.00
  -5   0  -4    0.60    1.70
   5   0   4    0.40    1.20
   5   0   4    2.00    2.20
  -6   0  -4  287.37    9.60
  -6   0  -4  294.17   10.00
   6   0   4  274.77    9.50
   6   0   4  293.97    9.90
   6   0   4  282.67    9.90
  -7   0  -4  118.39    4.90
  -7   0  -4  124.39    4.70
   7   0   4  123.59    5.00
   7   0   4  125.79    4.60
   7   0   4  119.49    4.90
  -8   0  -4   53.49    2.50
  -8   0  -4   54.29    2.30
   8   0   4   47.10    2.10
   8   0   4   46.90    2.30
   8   0   4   54.89    2.50
   8  -1  -4   -0.30    0.30
   8  -1  -4    0.60    0.30
  -8   1   4    0.30    0.30
  -8   1   4    0.00    0.30
   7  -1  -4   11.80    1.30
   7  -1  -4   12.20    1.00
   7  -1  -4   11.10    1.00
   7  -1  -4   12.20    1.10
  -7   1   4   10.20    1.00
   6  -1  -4  198.98    6.80
   6  -1  -4  204.98    7.10
   6  -1  -4  191.98    7.00
   6  -1  -4  206.08    6.80
   6  -1  -4  205.88    7.50
  -6   1   4  195.88    7.00
   5  -1  -4   19.70    1.30
   5  -1  -4   20.60    1.40
   5  -1  -4   21.20    1.60
   5  -1  -4   19.40    1.20
   5  -1  -4   19.70    1.40
   5  -1  -4   19.20    1.20
   5  -1  -4   17.40    1.20
   5  -1  -4   19.80    1.40
   4  -1  -4  300.17   13.10
   4  -1  -4  296.37   14.30
   4  -1  -4  298.47   14.50
  -4   1   4  284.37   13.20
  -4   1   4  285.17   12.90
   3  -1  -4 1272.47   40.80
   3  -1  -4 1219.18   39.90
   3  -1  -4 1252.27   42.10
   3  -1  -4 1218.28   41.30
  -3   1   4 1254.07   40.50
  -3   1   4 1225.08   40.70
  -3   1   4 1244.88   40.00
   2  -1  -4  375.76   13.70
   2  -1  -4  379.66   14.70
   2  -1  -4  366.66   13.30
   2  -1  -4  354.86   14.00
  -2   1   4  362.26   13.30
  -2   1   4  383.06   13.70
   1  -1  -4    1.20    0.70
   1  -1  -4    0.90    0.80
   1  -1  -4    2.00    0.80
   1  -1  -4   -0.30    0.60
  -1   1   4    0.50    0.50
  -1   1   4    0.60    0.60
   0  -1  -4    2.00    0.90
   0  -1  -4    2.20    0.80
   0  -1  -4    1.80    0.80
   0  -1  -4    1.40    0.60
   0  -1  -4    2.40    0.80
   0   1   4    1.90    0.90
   0   1   4    2.60    0.70
  -1  -1  -4  165.08    6.30
  -1  -1  -4  182.68    6.70
  -1  -1  -4  183.28    6.80
  -1  -1  -4  180.18    6.40
   1   1   4  139.89    6.40
   1   1   4  171.38    6.90
   1   1   4  169.88    6.50
  -2  -1  -4  284.47   10.70
  -2  -1  -4  294.77   10.40
  -2  -1  -4  276.97   10.30
   2   1   4  271.77   10.30
   2   1   4  282.27   10.70
  -3  -1  -4   72.99    4.20
  -3  -1  -4   79.29    4.10
  -3  -1  -4   76.39    4.00
  -3  -1  -4   71.29    4.80
   3   1   4   71.79    4.50
   3   1   4   73.19    4.10
   3   1   4   68.49    4.20
   3   1   4   70.99    3.70
   3   1   4   74.69    3.60
  -4  -1  -4   35.70    3.60
  -4  -1  -4   31.00    3.70
  -4  -1  -4   34.90    3.60
   4   1   4   39.40    4.60
   4   1   4   29.80    3.10
   4   1   4   30.40    3.40
  -5  -1  -4  320.27   15.10
  -5  -1  -4  318.87   13.30
   5   1   4  350.96   14.10
   5   1   4  320.47   14.60
  -6  -1  -4  253.77    8.50
  -6  -1  -4  250.67    8.90
  -6  -1  -4  256.17    9.00
   6   1   4  230.18    8.60
   6   1   4  254.27    8.70
   6   1   4  252.67    8.40
  -7  -1  -4   19.70    1.60
  -7  -1  -4   18.60    1.80
   7   1   4   21.60    1.50
   7   1   4   21.60    1.60
  -8  -1  -4   43.70    2.30
  -8  -1  -4   45.70    2.10
   8   1   4   41.50    2.30
   8   1   4   41.10    2.00
  -9  -1  -4    0.40    0.50
  -9  -1  -4    1.20    0.30
   9   1   4    1.80    0.40
   7  -2  -4  113.39    4.10
   7  -2  -4  115.59    4.10
   7  -2  -4  107.29    4.40
  -7   2   4  113.99    4.10
  -7   2   4  118.39    4.10
   6  -2  -4   99.59    4.40
   6  -2  -4  102.89    4.00
   6  -2  -4   99.59    4.00
   6  -2  -4  101.99    4.30
  -6   2   4  103.29    3.90
   5  -2  -4   61.49    2.50
   5  -2  -4   55.99    2.50
   5  -2  -4   58.29    2.70
   5  -2  -4   60.79    3.10
   5  -2  -4   55.69    2.50
   5  -2  -4   59.79    2.70
   5  -2  -4   65.09    3.20
  -5   2   4   55.09    2.60
   4  -2  -4  192.18   10.90
   4  -2  -4  193.38    9.80
  -4   2   4  175.38   10.10
  -4   2   4  196.48    9.80
  -4   2   4  179.48   11.70
   3  -2  -4   43.10    4.40
   3  -2  -4   35.20    4.20
   3  -2  -4   49.99    3.50
  -3   2   4   42.60    4.30
  -3   2   4   43.90    5.50
  -3   2   4   40.10    4.40
   2  -2  -4  486.75   17.90
   2  -2  -4  475.75   17.50
   2  -2  -4  502.35   17.40
  -2   2   4  451.15   18.50
  -2   2   4  473.45   16.90
  -2   2   4  498.65   17.60
   1  -2  -4 1532.75   48.10
   1  -2  -4 1515.85   46.80
   1  -2  -4 1525.95   47.50
   1  -2  -4 1543.05   47.80
  -1   2   4 1501.35   47.50
  -1   2   4 1486.25   46.70
  -1   2   4 1496.55   48.80
   0  -2  -4  423.76   14.70
   0  -2  -4  425.26   15.00
   0  -2  -4  451.35   14.70
   0  -2  -4  434.56   14.80
   0   2   4  436.36   15.70
   0   2   4  410.46   14.30
  -1  -2  -4   52.99    3.10
  -1  -2  -4   49.30    3.00
  -1  -2  -4   48.50    2.70
  -1  -2  -4   46.30    3.00
   1   2   4   50.19    3.10
   1   2   4   47.50    3.30
  -2  -2  -4  259.77    9.80
  -2  -2  -4  265.77    9.80
  -2  -2  -4  273.57   10.00
  -2  -2  -4  269.67   10.00
   2   2   4  248.38   10.30
   2   2   4  264.77   10.10
   2   2   4  262.57   10.20
  -3  -2  -4   93.79    5.50
  -3  -2  -4   92.99    4.70
  -3  -2  -4   94.49    5.00
   3   2   4   88.29    5.20
   3   2   4   85.99    4.00
   3   2   4   90.69    4.60
   3   2   4   85.09    5.00
   3   2   4   84.89    4.20
   3   2   4   85.69    4.90
  -4  -2  -4  822.02   27.90
  -4  -2  -4  789.62   29.00
  -4  -2  -4  830.42   27.10
   4   2   4  815.52   27.00
   4   2   4  838.82   28.30
   4   2   4  814.72   28.50
  -5  -2  -4  699.23   25.20
   5   2   4  737.93   25.90
   5   2   4  689.13   26.20
  -6  -2  -4    9.10    1.20
  -6  -2  -4    7.10    1.00
  -6  -2  -4    9.70    1.40
   6   2   4    8.70    1.10
   6   2   4    7.40    1.00
  -7  -2  -4    0.50    0.60
  -7  -2  -4    0.30    0.70
  -7  -2  -4    0.90    0.70
   7   2   4    0.30    0.50
   7   2   4   -0.50    0.50
  -8  -2  -4   17.80    1.50
  -8  -2  -4   15.40    1.30
   8   2   4   16.90    1.50
   8   2   4   16.60    1.20
  -9  -2  -4   60.79    2.40
  -9  -2  -4   56.49    2.20
   9   2   4   60.39    2.20
   9   2   4   54.09    2.30
   7  -3  -4    8.60    0.90
   7  -3  -4   10.10    1.00
   7  -3  -4    9.70    0.80
  -7   3   4    9.50    0.80
  -7   3   4   10.90    0.90
   6  -3  -4   84.59    3.40
   6  -3  -4   81.09    3.40
   6  -3  -4   88.29    3.90
   6  -3  -4   89.29    3.80
  -6   3   4   88.59    3.40
   5  -3  -4  150.78    5.80
   5  -3  -4  137.69    5.20
   5  -3  -4  141.79    5.40
   5  -3  -4  152.68    6.00
   5  -3  -4  155.08    5.50
   4  -3  -4   19.70    1.40
   4  -3  -4   17.00    1.60
   4  -3  -4   20.60    1.90
   4  -3  -4   20.20    1.50
   4  -3  -4   21.10    4.10
   4  -3  -4   17.90    1.80
   4  -3  -4   19.20    1.40
  -4   3   4   24.70    5.10
   3  -3  -4  150.68    8.00
   3  -3  -4  147.79    8.80
   3  -3  -4  139.29    8.90
  -3   3   4  152.38   10.40
  -3   3   4  127.49    8.40
  -3   3   4  142.69    7.90
   2  -3  -4 3179.08   98.69
   2  -3  -4 3226.88   99.09
   2  -3  -4 3184.08   98.09
  -2   3   4 3114.89  100.39
  -2   3   4 3227.48   98.89
  -2   3   4 3114.99   97.59
   1  -3  -4  521.05   18.60
   1  -3  -4  516.35   17.90
   1  -3  -4  509.55   18.10
   1  -3  -4  532.05   18.80
  -1   3   4  509.35   17.40
  -1   3   4  514.25   18.30
  -1   3   4  502.45   19.70
   0  -3  -4   10.10    1.80
   0  -3  -4   12.10    1.90
   0  -3  -4   12.30    2.00
   0   3   4   11.40    1.70
   0   3   4   14.80    2.40
   0   3   4   11.30    1.80
  -1  -3  -4   13.60    1.90
  -1  -3  -4   13.80    1.80
  -1  -3  -4   12.60    2.00
  -1  -3  -4   11.60    1.90
   1   3   4   11.00    1.50
   1   3   4   11.20    1.80
   1   3   4   12.10    2.30
  -2  -3  -4    2.10    1.00
  -2  -3  -4    3.20    1.10
  -2  -3  -4    1.50    1.00
  -2  -3  -4    1.90    1.10
   2   3   4    1.30    1.00
   2   3   4    1.40    0.80
   2   3   4    1.60    0.50
  -3  -3  -4 2228.88   66.89
  -3  -3  -4 2142.39   67.49
  -3  -3  -4 2260.97   68.09
  -3  -3  -4 2203.78   68.29
   3   3   4 2160.38   68.09
   3   3   4 2087.09   68.89
   3   3   4 2130.89   67.79
  -4  -3  -4  159.08    8.10
  -4  -3  -4  162.18    9.00
  -4  -3  -4  160.48    7.50
   4   3   4  168.48    8.30
   4   3   4  155.98    8.70
   4   3   4  154.98    7.90
  -5  -3  -4  101.09    6.60
  -5  -3  -4  102.19    7.80
   5   3   4   98.99    6.70
   5   3   4  116.29    7.10
  -6  -3  -4  224.38    7.80
  -6  -3  -4  226.58    8.10
   6   3   4  207.28    7.20
   6   3   4  217.28    7.50
   6   3   4  211.38    7.70
  -7  -3  -4   75.89    3.60
  -7  -3  -4   77.89    3.30
  -7  -3  -4   78.09    3.80
   7   3   4   76.29    3.00
   7   3   4   77.29    3.30
   7   3   4   77.69    3.50
  -8  -3  -4   33.80    2.10
  -8  -3  -4   30.40    2.00
  -8  -3  -4   31.60    1.70
   8   3   4   34.40    1.80
   8   3   4   32.50    1.90
  -9  -3  -4    3.40    0.60
   9   3   4    4.00    0.50
   9   3   4    2.50    0.50
   7  -4  -4   79.29    2.90
  -7   4   4   74.89    2.70
   6  -4  -4    0.20    0.50
   6  -4  -4    0.70    0.50
  -6   4   4    0.30    0.50
  -6   4   4    0.40    0.40
   5  -4  -4   62.39    3.20
   5  -4  -4   58.29    2.80
   5  -4  -4   56.29    2.60
   5  -4  -4   63.79    3.10
  -5   4   4   61.19    2.60
   4  -4  -4   45.10    2.30
   4  -4  -4   42.80    2.10
   4  -4  -4   46.00    2.50
   4  -4  -4   43.20    3.50
   4  -4  -4   47.60    2.70
  -4   4   4   43.80    2.10
   3  -4  -4  365.66   16.30
   3  -4  -4  332.27   15.20
  -3   4   4  365.56   15.00
  -3   4   4  330.07   15.80
  -3   4   4  346.17   17.00
   2  -4  -4   95.39    6.50
   2  -4  -4   79.79    5.80
   2  -4  -4   91.29    5.80
  -2   4   4   89.99    7.30
  -2   4   4   89.19    5.50
  -2   4   4   97.09    6.30
   1  -4  -4    2.10    1.40
   1  -4  -4    1.10    1.90
  -1   4   4    2.60    2.30
  -1   4   4    1.90    1.20
  -1   4   4    2.30    1.20
   0  -4  -4  578.54   19.60
   0  -4  -4  542.15   19.40
   0  -4  -4  544.35   19.50
   0   4   4  533.55   21.00
   0   4   4  519.65   19.00
   0   4   4  537.15   19.20
  -1  -4  -4   71.99    4.10
  -1  -4  -4   69.79    4.20
  -1  -4  -4   70.69    4.30
  -1  -4  -4   63.39    4.20
   1   4   4   68.59    5.30
   1   4   4   60.09    3.90
   1   4   4   72.39    4.90
  -2  -4  -4  132.39    6.30
  -2  -4  -4  136.29    6.80
  -2  -4  -4  134.99    6.70
   2   4   4  131.19    7.70
   2   4   4  130.39    6.40
   2   4   4  134.29    6.90
  -3  -4  -4  374.66   14.70
  -3  -4  -4  366.76   14.40
  -3  -4  -4  386.16   14.60
   3   4   4  385.86   14.40
   3   4   4  385.16   16.30
   3   4   4  373.06   14.90
  -4  -4  -4    0.70    2.50
  -4  -4  -4    2.90    1.80
  -4  -4  -4    3.10    1.40
   4   4   4   -1.40    1.90
   4   4   4    0.60    1.80
  -5  -4  -4  610.44   24.30
  -5  -4  -4  646.64   23.70
   5   4   4  610.34   23.20
  -6  -4  -4   16.10    1.80
  -6  -4  -4   14.50    1.50
   6   4   4   15.50    1.30
   6   4   4   13.80    1.40
   6   4   4   15.50    1.20
  -7  -4  -4   29.40    2.00
  -7  -4  -4   31.00    2.30
   7   4   4   26.90    1.90
   7   4   4   31.40    1.70
   7   4   4   31.50    1.90
  -8  -4  -4   26.40    1.90
  -8  -4  -4   28.10    1.80
   8   4   4   27.30    1.60
   8   4   4   27.90    1.40
   8   4   4   24.40    1.60
  -9  -4  -4    1.90    0.60
   9   4   4    2.90    0.50
   6  -5  -4    9.80    1.00
  -6   5   4    8.90    0.80
  -6   5   4   10.20    0.90
   5  -5  -4  103.29    4.10
   5  -5  -4   93.19    4.90
   5  -5  -4  105.09    4.40
   5  -5  -4   95.29    3.90
  -5   5   4  105.39    4.10
  -5   5   4  100.59    3.70
   4  -5  -4   37.40    3.20
   4  -5  -4   41.20    2.40
   4  -5  -4   39.40    2.50
   4  -5  -4   39.90    2.00
  -4   5   4   39.40    2.00
   3  -5  -4  140.89    7.00
   3  -5  -4  141.49    5.20
   3  -5  -4  141.89    5.50
   3  -5  -4  144.09    5.30
   3  -5  -4  145.59    5.70
  -3   5   4  142.39    5.00
   2  -5  -4    1.60    2.10
   2  -5  -4   -0.70    3.30
  -2   5   4    0.80    1.70
  -2   5   4    3.60    2.60
   1  -5  -4   60.59    5.90
   1  -5  -4   64.89    5.70
   1  -5  -4   68.69    5.40
  -1   5   4   68.79    4.40
  -1   5   4   73.19    6.30
  -1   5   4   59.29    6.80
   0  -5  -4  265.17   12.10
   0  -5  -4  261.57   11.60
   0  -5  -4  291.77   12.00
   0   5   4  264.57   11.40
   0   5   4  267.07   13.30
   0   5   4  271.07   11.70
  -1  -5  -4   18.70    2.30
  -1  -5  -4   12.80    2.40
  -1  -5  -4   12.90    2.30
  -1  -5  -4   18.10    2.70
   1   5   4   16.30    3.30
   1   5   4   21.80    3.40
   1   5   4   15.80    2.60
  -2  -5  -4  362.26   14.10
  -2  -5  -4  364.46   14.40
  -2  -5  -4  397.46   15.10
   2   5   4  352.76   13.80
   2   5   4  378.46   16.70
   2   5   4  367.26   14.00
   2   5   4  363.16   14.60
  -3  -5  -4   72.39    5.10
  -3  -5  -4   70.59    5.10
   3   5   4   66.09    5.80
   3   5   4   77.79    6.60
  -4  -5  -4  336.77   14.10
  -4  -5  -4  326.57   14.20
  -4  -5  -4  341.37   14.10
   4   5   4  328.07   14.70
   4   5   4  357.66   16.30
  -5  -5  -4  214.98   11.10
  -5  -5  -4  202.78   11.20
   5   5   4  201.08   11.00
   5   5   4  247.68   13.20
  -6  -5  -4   29.10    2.20
  -6  -5  -4   42.30    2.20
  -6  -5  -4   29.00    2.00
   6   5   4   30.00    1.70
   6   5   4   28.20    1.80
  -7  -5  -4  193.58    7.40
  -7  -5  -4  187.88    7.00
   7   5   4  191.78    6.80
   7   5   4  190.98    6.50
  -8  -5  -4   31.00    2.00
  -8  -5  -4   30.50    1.90
   8   5   4   31.60    1.50
   8   5   4   29.70    1.70
  -9  -5  -4    3.30    0.60
   9   5   4    3.40    0.60
   9   5   4    2.50    0.50
   5  -6  -4   19.60    1.50
   5  -6  -4   19.50    1.30
   5  -6  -4   15.00    1.80
  -5   6   4   17.40    1.20
  -5   6   4   17.70    1.10
   4  -6  -4   17.30    1.40
   4  -6  -4   16.40    1.70
   4  -6  -4   19.60    2.40
   4  -6  -4   17.30    1.50
  -4   6   4   14.40    1.40
  -4   6   4   18.80    1.30
   3  -6  -4  101.79    5.60
   3  -6  -4  100.79    4.40
   3  -6  -4   92.19    3.80
  -3   6   4   91.39    3.60
  -3   6   4   95.89    4.00
   2  -6  -4   15.70    1.40
   2  -6  -4   15.00    1.60
   2  -6  -4   14.50    2.10
   2  -6  -4   14.10    2.30
  -2   6   4   16.10    1.50
   1  -6  -4  214.98   10.20
   1  -6  -4  211.78   11.30
  -1   6   4  215.58   11.50
  -1   6   4  230.68   14.30
   0  -6  -4  130.99    7.80
   0  -6  -4  111.29    7.50
   0   6   4  115.39    7.40
   0   6   4  116.29    9.90
  -1  -6  -4    0.20    1.50
  -1  -6  -4    1.40    1.90
   1   6   4    0.10    1.40
   1   6   4   -0.30    2.70
   1   6   4   -1.10    1.10
  -2  -6  -4  292.37   12.50
  -2  -6  -4  281.37   12.40
  -2  -6  -4  288.57   13.00
   2   6   4  284.87   12.50
   2   6   4  294.47   12.50
   2   6   4  299.27   14.70
  -3  -6  -4   15.50    3.00
  -3  -6  -4   24.20    3.80
   3   6   4   20.70    4.40
   3   6   4   15.70    3.00
  -4  -6  -4  184.08    9.90
  -4  -6  -4  175.58   10.00
   4   6   4  200.08   12.00
   4   6   4  183.38   11.00
  -5  -6  -4  219.88    7.70
  -5  -6  -4  201.88    7.80
   5   6   4  210.98    7.10
   5   6   4  218.08    7.20
   5   6   4  201.88    7.20
  -6  -6  -4  118.09    5.10
  -6  -6  -4  108.89    4.60
  -6  -6  -4  120.19    4.80
   6   6   4  116.79    4.20
   6   6   4  118.69    4.40
   6   6   4  114.19    4.40
  -7  -6  -4   13.10    1.30
  -7  -6  -4   12.90    1.30
  -7  -6  -4   11.60    1.50
   7   6   4   13.50    1.10
   7   6   4   11.10    1.20
  -8  -6  -4   12.00    1.20
  -8  -6  -4   10.50    1.20
   8   6   4   11.50    0.90
   8   6   4   10.70    1.00
   5  -7  -4    0.90    0.50
  -5   7   4    1.00    0.40
   4  -7  -4  109.99    5.40
   4  -7  -4  116.99    4.60
  -4   7   4  123.09    4.40
  -4   7   4  107.39    4.00
  -4   7   4  117.89    4.20
   3  -7  -4   79.69    3.80
   3  -7  -4   89.29    5.00
  -3   7   4   85.19    3.60
  -3   7   4   84.29    3.50
   2  -7  -4   11.30    1.40
   2  -7  -4   11.60    1.90
   2  -7  -4   10.50    2.00
  -2   7   4    9.50    1.20
  -2   7   4   11.50    1.30
   1  -7  -4    5.90    0.80
   1  -7  -4    4.50    1.40
   1  -7  -4    6.30    1.50
  -1   7   4    5.80    0.90
  -1   7   4    4.80    0.90
   0  -7  -4   26.40    2.20
   0  -7  -4   28.10    2.70
   0  -7  -4   27.80    1.60
   0  -7  -4   28.60    2.60
   0   7   4   25.80    1.70
   0   7   4   27.20    1.70
  -1  -7  -4  424.66   17.30
  -1  -7  -4  399.76   17.90
   1   7   4  421.96   17.70
   1   7   4  376.96   20.80
  -2  -7  -4  346.97   15.70
   2   7   4  359.16   18.40
   2   7   4  334.07   18.10
  -3  -7  -4   14.80    1.50
  -3  -7  -4   15.00    3.60
  -3  -7  -4   13.90    1.80
  -3  -7  -4   12.40    3.40
   3   7   4   16.60    1.30
  -4  -7  -4   24.30    1.90
  -4  -7  -4   26.40    2.20
  -4  -7  -4   24.40    1.80
   4   7   4   27.00    1.60
   4   7   4   27.20    1.60
  -5  -7  -4    6.10    1.30
  -5  -7  -4    6.80    1.10
  -5  -7  -4    7.70    1.20
   5   7   4    7.20    0.90
   5   7   4    7.00    0.90
  -6  -7  -4  601.54   19.70
  -6  -7  -4  596.54   19.30
   6   7   4  615.24   18.70
   6   7   4  578.14   18.90
   6   7   4  619.84   18.90
  -7  -7  -4  145.39    5.90
  -7  -7  -4  134.29    5.30
  -7  -7  -4  146.49    5.40
   7   7   4  138.49    5.10
   7   7   4  152.18    5.10
   7   7   4  154.68    5.00
  -8  -7  -4    1.20    0.60
  -8  -7  -4    0.90    0.50
   8   7   4   -0.10    0.40
   8   7   4    0.40    0.40
   4  -8  -4   38.40    1.80
   4  -8  -4   34.80    2.30
  -4   8   4   37.20    1.70
   3  -8  -4    0.50    0.60
   3  -8  -4    1.20    0.90
  -3   8   4    0.40    0.50
  -3   8   4    1.70    0.50
   2  -8  -4    0.20    0.70
   2  -8  -4    0.00    0.80
   2  -8  -4    1.50    0.70
  -2   8   4    0.50    0.50
  -2   8   4    0.60    0.50
   1  -8  -4    1.40    1.00
   1  -8  -4    1.60    1.00
  -1   8   4    1.10    0.60
  -1   8   4    2.10    0.60
   0  -8  -4   88.39    5.00
   0  -8  -4   77.99    4.20
   0  -8  -4   89.09    5.00
   0   8   4   90.39    3.50
   0   8   4   89.69    3.70
   0   8   4   89.19    3.70
  -1  -8  -4  315.77   11.60
  -1  -8  -4  329.77   12.40
   1   8   4  319.27   10.70
   1   8   4  324.47   10.60
  -2  -8  -4   16.90    1.60
  -2  -8  -4   16.40    2.20
  -2  -8  -4   20.40    2.20
   2   8   4   16.70    1.40
   2   8   4   18.80    1.50
  -3  -8  -4    2.90    0.80
  -3  -8  -4    1.20    0.80
  -3  -8  -4   -0.10    0.90
   3   8   4    1.00    0.50
   3   8   4   -0.50    0.40
   3   8   4    0.90    0.60
  -4  -8  -4   86.69    3.90
  -4  -8  -4   89.29    4.40
   4   8   4   88.79    3.50
   4   8   4   85.59    3.50
   4   8   4   82.69    3.40
  -5  -8  -4  194.18    7.60
  -5  -8  -4  206.88    8.10
  -5  -8  -4  226.18    7.70
   5   8   4  207.38    7.00
   5   8   4  197.48    7.00
  -6  -8  -4  246.88    8.70
  -6  -8  -4  241.18    8.50
   6   8   4  238.28    7.90
   6   8   4  236.78    8.00
  -7  -8  -4    3.20    0.70
  -7  -8  -4    2.70    0.80
   7   8   4    3.80    0.50
   7   8   4    2.90    0.60
  -8  -8  -4   11.60    1.10
   8   8   4   15.20    0.90
   3  -9  -4   11.60    1.40
  -3   9   4   13.00    0.90
   2  -9  -4  208.08    8.30
   2  -9  -4  204.08    7.80
  -2   9   4  202.08    6.90
  -2   9   4  209.58    7.00
   1  -9  -4   58.69    3.70
   1  -9  -4   59.39    3.80
  -1   9   4   60.29    2.70
  -1   9   4   59.49    2.70
   0  -9  -4   45.40    3.40
   0  -9  -4   45.50    3.40
   0  -9  -4   37.50    2.60
   0   9   4   49.10    2.30
   0   9   4   41.20    2.00
   0   9   4   45.30    2.30
  -1  -9  -4   17.10    1.90
  -1  -9  -4   15.50    2.10
   1   9   4   18.00    1.50
   1   9   4   17.40    1.40
   1   9   4   20.00    1.60
  -2  -9  -4    2.60    1.00
  -2  -9  -4    3.40    1.20
   2   9   4    1.90    0.60
   2   9   4    3.60    0.80
  -3  -9  -4  387.46   13.20
  -3  -9  -4  379.26   13.50
  -3  -9  -4  340.97   12.10
   3   9   4  369.66   12.00
   3   9   4  363.46   11.90
  -4  -9  -4  156.98    6.60
  -4  -9  -4  150.28    5.90
   4   9   4  161.38    5.50
   4   9   4  156.18    5.50
   4   9   4  147.39    5.40
  -5  -9  -4   20.10    1.70
  -5  -9  -4   24.60    2.10
  -5  -9  -4   25.60    1.80
   5   9   4   27.20    1.40
   5   9   4   26.60    1.50
  -6  -9  -4   53.49    2.70
  -6  -9  -4   58.99    2.70
   6   9   4   57.79    2.30
   6   9   4   54.29    2.30
  -7  -9  -4  122.39    4.70
  -7  -9  -4  131.49    4.50
   7   9   4  131.39    4.20
   7   9   4  120.29    4.30
   1 -10  -4   16.40    1.70
   1 -10  -4   15.80    1.60
  -1  10   4   16.90    1.10
  -1  10   4   17.00    1.10
   0 -10  -4   30.70    2.50
   0 -10  -4   33.70    2.60
   0  10   4   33.60    1.70
   0  10   4   36.90    1.80
  -1 -10  -4   32.70    2.20
  -1 -10  -4   34.10    2.60
   1  10   4   33.00    1.60
   1  10   4   33.00    1.80
  -2 -10  -4   60.39    3.30
  -2 -10  -4   58.99    3.60
   2  10   4   58.89    2.50
   2  10   4   66.19    2.70
  -3 -10  -4   58.09    3.60
  -3 -10  -4   59.59    2.80
  -3 -10  -4   71.39    3.60
   3  10   4   64.59    2.70
   3  10   4   64.79    2.70
  -4 -10  -4    2.80    0.70
  -4 -10  -4    3.20    1.00
   4  10   4    1.90    0.50
   4  10   4    2.50    0.60
  -5 -10  -4   35.20    2.30
  -5 -10  -4   37.20    1.90
   5  10   4   37.60    1.70
   5  10   4   32.60    1.50
  -6 -10  -4   90.69    3.40
   6  10   4   86.59    3.00
   6  10   4   77.89    2.90
  -1 -11  -4    0.50    0.60
   1  11   4    0.20    0.30
  -2 -11  -4    4.30    1.00
  -2 -11  -4    4.10    0.90
   2  11   4    4.50    0.50
   2  11   4    5.40    0.60
  -3 -11  -4    7.70    1.10
   3  11   4    7.00    0.70
   3  11   4    5.70    0.60
  -4 -11  -4   84.19    3.50
  -4 -11  -4   75.09    2.90
   4  11   4   79.39    2.80
   4  11   4   77.79    2.80
  -5 -11  -4   50.89    2.10
  -5 -11  -4   48.40    2.30
   5  11   4   49.20    1.90
   4  10  -5   20.80    1.10
   4  10  -5   19.80    1.10
  -4 -10   5   16.90    1.30
  -4 -10   5   21.40    1.30
   3  10  -5   35.60    1.70
   3  10  -5   38.00    2.30
   3  10  -5   41.60    1.80
  -3 -10   5   38.60    2.20
  -3 -10   5   40.20    1.90
   2  10  -5    2.00    0.50
   2  10  -5    2.00    0.50
  -2 -10   5    2.00    0.70
   1  10  -5   44.90    2.00
   1  10  -5   50.29    1.90
   1  10  -5   51.99    2.20
  -1 -10   5   45.60    2.10
  -1 -10   5   56.29    2.70
   0  10  -5    9.90    0.90
   0  10  -5   11.00    0.80
   0 -10   5   10.70    1.30
   0 -10   5   11.30    1.20
   6   9  -5   21.30    1.00
   6   9  -5   19.70    1.00
  -6  -9   5   19.60    1.30
   5   9  -5   98.09    3.60
   5   9  -5   96.99    3.50
   5   9  -5  103.19    3.60
   5   9  -5   92.19    3.40
  -5  -9   5   98.39    3.70
   4   9  -5   34.70    2.50
   4   9  -5   36.20    1.80
   4   9  -5   36.40    1.80
   4   9  -5   36.90    2.20
  -4  -9   5   38.10    2.10
   3   9  -5    6.90    0.90
   3   9  -5    7.00    0.70
   3   9  -5    6.90    1.10
   3   9  -5    7.20    0.90
  -3  -9   5    5.30    1.10
   2   9  -5   63.29    2.90
   2   9  -5   61.09    2.50
   2   9  -5   60.89    2.70
   2   9  -5   61.99    3.00
   2   9  -5   62.09    2.90
  -2  -9   5   65.29    3.50
   1   9  -5  188.28    6.70
   1   9  -5  193.58    6.50
   1   9  -5  193.78    6.80
   1   9  -5  192.78    6.90
  -1  -9   5  189.88    7.70
  -1  -9   5  202.48    7.60
   0   9  -5   11.90    1.00
   0   9  -5   10.60    1.20
   0   9  -5   11.10    1.30
   0  -9   5   10.10    1.40
   0  -9   5   10.20    1.60
  -1   9  -5    0.00    0.40
  -1   9  -5    0.70    0.40
   1  -9   5    0.70    0.60
   1  -9   5    0.30    0.70
  -2   9  -5    0.10    0.40
  -2   9  -5    0.70    0.30
   2  -9   5    0.20    0.70
   7   8  -5    3.70    0.40
   7   8  -5    3.20    0.40
  -7  -8   5    4.30    0.50
  -7  -8   5    3.40    0.60
   6   8  -5  233.58    7.80
   6   8  -5  248.68    8.10
   6   8  -5  249.08    7.80
   6   8  -5  232.48    7.80
  -6  -8   5  246.38    8.40
   5   8  -5    4.10    0.90
   5   8  -5   -0.10    0.40
   5   8  -5   -0.40    0.40
   5   8  -5   -0.30    0.40
   5   8  -5    0.30    0.40
   5   8  -5    0.20    0.40
   5   8  -5    0.00    0.40
  -5  -8   5   -0.50    0.50
   4   8  -5   29.00    1.50
   4   8  -5   28.20    1.60
   4   8  -5   26.90    1.70
   4   8  -5   28.70    2.00
   4   8  -5   28.10    1.50
   4   8  -5   30.40    1.70
   4   8  -5   29.70    1.80
   3   8  -5   34.10    2.10
   3   8  -5   32.30    2.00
   3   8  -5   32.80    2.00
   3   8  -5   31.30    1.90
   3   8  -5   35.50    2.20
   3   8  -5   33.00    1.70
  -3  -8   5   37.30    2.60
   2   8  -5  238.38    8.40
   2   8  -5  232.98    8.30
   2   8  -5  246.78    8.50
   2   8  -5  242.68    8.70
   2   8  -5  238.68    8.00
  -2  -8   5  238.48    9.10
   1   8  -5  123.49    4.60
   1   8  -5  121.99    4.80
   1   8  -5  132.69    6.50
   1   8  -5  117.49    5.00
   1   8  -5  125.99    4.90
   1   8  -5  126.09    5.70
  -1  -8   5  126.99    5.90
   0   8  -5   40.40    2.80
   0   8  -5   38.10    2.30
   0   8  -5   41.10    2.10
   0   8  -5   41.90    2.30
   0  -8   5   42.30    3.10
  -1   8  -5   72.79    3.30
  -1   8  -5   75.89    3.90
  -1   8  -5   70.49    3.00
   1  -8   5   73.69    4.20
  -2   8  -5   54.89    2.70
  -2   8  -5   59.99    2.50
   2  -8   5   61.49    3.60
   2  -8   5   55.99    3.00
   2  -8   5   59.19    3.60
  -3   8  -5   38.20    1.70
  -3   8  -5   32.40    1.70
   3  -8   5   37.70    2.60
   3  -8   5   34.50    2.40
   7   7  -5  107.09    3.60
   7   7  -5  109.59    3.70
   7   7  -5   94.19    3.60
   7   7  -5  110.19    3.70
  -7  -7   5  109.29    4.10
   6   7  -5    2.70    0.70
   6   7  -5    2.30    0.60
   6   7  -5    2.30    0.50
   6   7  -5    2.90    0.60
   6   7  -5    2.40    0.50
   6   7  -5    2.90    0.60
  -6  -7   5    2.90    0.80
   5   7  -5    0.20    0.50
   5   7  -5    0.70    0.60
   5   7  -5    0.10    0.40
   5   7  -5    0.40    0.40
   5   7  -5    0.80    0.40
   5   7  -5    0.50    0.50
  -5  -7   5    0.80    0.60
   4   7  -5  647.94   21.20
   4   7  -5  664.93   20.80
   4   7  -5  646.84   20.30
   4   7  -5  647.24   20.60
   4   7  -5  660.53   20.70
   4   7  -5  655.43   20.40
   4   7  -5  647.14   20.80
   4   7  -5  675.73   20.40
   3   7  -5   25.30    1.60
   3   7  -5   22.50    1.40
   3   7  -5   22.90    1.40
   3   7  -5   23.70    1.60
   3   7  -5   22.00    2.10
   3   7  -5   22.40    1.70
   3   7  -5   24.30    1.70
   3   7  -5   23.60    1.50
  -3  -7   5   21.60    2.00
   2   7  -5    3.80    0.80
   2   7  -5    5.00    1.20
   2   7  -5    4.90    0.80
   2   7  -5    4.70    1.00
   2   7  -5    5.20    0.90
   2   7  -5    4.60    0.90
   2   7  -5    6.00    0.80
   2   7  -5    7.00    0.90
   1   7  -5   25.30    1.80
   1   7  -5   26.60    1.50
   1   7  -5   23.00    1.50
   1   7  -5   25.10    2.20
   1   7  -5   23.10    1.60
   1   7  -5   24.40    1.70
   1   7  -5   24.60    1.90
  -1  -7   5   26.60    2.40
   0   7  -5  735.23   24.10
   0   7  -5  715.73   22.80
   0   7  -5  742.83   22.80
   0   7  -5  745.83   23.20
   0   7  -5  730.33   23.10
   0  -7   5  734.43   24.40
  -1   7  -5    4.40    0.80
  -1   7  -5    4.40    1.10
  -1   7  -5    3.40    0.90
  -1   7  -5    3.90    0.70
   1  -7   5    3.10    1.40
   1  -7   5    3.90    1.30
  -2   7  -5    5.20    1.20
  -2   7  -5    4.70    0.80
  -2   7  -5    4.80    0.80
  -2   7  -5    4.90    0.90
   2  -7   5    4.40    1.30
   2  -7   5    5.80    1.40
  -3   7  -5   99.19    3.80
  -3   7  -5   94.09    4.00
  -3   7  -5  101.69    3.90
   3  -7   5   99.29    5.00
   3  -7   5   98.89    5.20
  -4   7  -5   13.20    1.10
  -4   7  -5   14.90    1.10
   4  -7   5   15.40    1.60
   4  -7   5   15.40    1.90
  -5   7  -5   24.40    1.20
   8   6  -5   33.20    1.40
   8   6  -5   38.40    1.40
  -8  -6   5   37.70    1.60
   7   6  -5   19.30    1.10
   7   6  -5   19.60    1.10
   7   6  -5   20.50    1.10
   7   6  -5   20.50    1.40
   7   6  -5   16.60    1.00
   7   6  -5   19.20    1.10
  -7  -6   5   18.00    1.40
   6   6  -5   16.40    1.20
   6   6  -5   13.40    1.20
   6   6  -5   13.10    1.10
   6   6  -5   14.10    1.40
   6   6  -5   13.80    1.20
   6   6  -5   14.20    1.20
   6   6  -5   17.10    1.10
   5   6  -5  335.37   10.80
   5   6  -5  327.27   10.80
   5   6  -5  310.87   11.30
   5   6  -5  334.67   11.10
   5   6  -5  327.87   10.70
   5   6  -5  315.87   10.50
   5   6  -5  332.27   10.70
   5   6  -5  340.37   11.40
   4   6  -5   -0.20    0.40
   4   6  -5    0.30    0.60
   4   6  -5    0.30    0.50
   4   6  -5   -0.20    0.50
   4   6  -5    0.20    0.40
   4   6  -5    0.60    0.40
   4   6  -5    0.50    0.50
   4   6  -5    0.30    0.50
   3   6  -5  309.97   10.10
   3   6  -5  306.67   10.00
   3   6  -5  306.87   10.20
   3   6  -5  299.77    9.90
   3   6  -5  287.37   10.10
   3   6  -5  306.07   10.50
   3   6  -5  300.57    9.80
   3   6  -5  298.17    9.80
   2   6  -5   49.80    5.10
   2   6  -5   61.39    6.30
  -2  -6   5   52.29    6.20
  -2  -6   5   57.39    5.80
  -2  -6   5   50.19    5.50
   1   6  -5   -0.90    1.70
   1   6  -5   -3.00    2.00
  -1  -6   5    4.60    2.70
  -1  -6   5    2.00    2.10
  -1  -6   5    0.80    2.10
   0   6  -5    3.10    0.70
   0   6  -5    2.80    0.90
   0   6  -5    2.80    1.00
   0   6  -5    6.20    2.80
   0   6  -5    7.00    2.60
   0   6  -5   -1.20    2.60
   0  -6   5    5.40    3.10
   0  -6   5    2.10    2.00
  -1   6  -5  105.29    5.00
  -1   6  -5  101.39    4.20
  -1   6  -5  107.09    4.10
  -1   6  -5  104.79    4.30
  -1   6  -5  118.19    5.80
  -1   6  -5  100.79    4.00
   1  -6   5  102.19    5.30
  -2   6  -5  257.07    8.90
  -2   6  -5  290.87   11.00
  -2   6  -5  258.47    9.80
  -2   6  -5  252.77    9.00
  -2   6  -5  251.47    8.80
   2  -6   5  264.67   10.50
  -3   6  -5   35.00    1.90
  -3   6  -5   32.50    2.10
  -3   6  -5   36.30    2.00
   3  -6   5   36.30    3.10
  -4   6  -5   27.10    1.60
  -4   6  -5   27.80    1.70
   4  -6   5   27.80    1.90
   4  -6   5   31.20    2.80
   4  -6   5   25.20    2.30
  -5   6  -5   18.10    1.20
  -5   6  -5   18.50    1.20
   5  -6   5   18.60    1.40
   5  -6   5   19.90    2.00
   8   5  -5   53.49    2.10
   8   5  -5   53.59    2.00
  -8  -5   5   56.09    2.30
   7   5  -5   11.70    1.00
   7   5  -5   11.40    1.00
   7   5  -5   12.20    1.20
   7   5  -5   12.20    1.00
   7   5  -5   12.30    1.10
   7   5  -5   11.50    0.90
   7   5  -5   11.70    1.00
   6   5  -5   -0.20    0.50
   6   5  -5    0.30    0.50
   6   5  -5    0.50    0.40
   6   5  -5    0.70    0.50
   6   5  -5    1.20    0.50
   6   5  -5    1.00    0.50
   6   5  -5    0.60    0.40
   5   5  -5  111.79    4.20
   5   5  -5  111.89    4.20
   5   5  -5  111.79    4.10
   5   5  -5  117.79    4.40
   5   5  -5  113.29    4.30
   5   5  -5  107.09    4.50
   5   5  -5  118.49    4.30
   5   5  -5  118.29    4.90
   4   5  -5  320.27   11.10
   4   5  -5  330.57   11.40
   4   5  -5  349.77   11.00
   4   5  -5  327.27   10.70
   4   5  -5  326.57   10.80
   4   5  -5  341.57   10.80
   4   5  -5  348.57   11.00
   3   5  -5  103.59    8.10
   3   5  -5   95.79    6.60
   3   5  -5  104.29    7.30
  -3  -5   5   93.29    6.90
  -3  -5   5   97.99    9.10
   2   5  -5   27.10    3.40
   2   5  -5   33.70    4.30
   2   5  -5   30.60    4.50
  -2  -5   5   27.40    4.10
  -2  -5   5   24.80    3.70
  -2  -5   5   27.30    4.80
   1   5  -5   75.99    6.80
   1   5  -5   85.39    6.10
  -1  -5   5   79.09    6.90
  -1  -5   5   81.39    5.80
   0   5  -5   -1.30    1.70
   0   5  -5    1.50    2.40
   0   5  -5   -1.20    1.30
   0  -5   5   -1.70    2.50
   0  -5   5   -0.90    1.30
  -1   5  -5  701.03   26.70
  -1   5  -5  707.63   26.60
  -1   5  -5  701.23   26.20
   1  -5   5  682.03   25.90
   1  -5   5  711.73   25.50
   1  -5   5  661.13   25.10
  -2   5  -5  152.48   15.10
  -2   5  -5  137.59    6.60
  -2   5  -5  136.69    5.00
  -2   5  -5  119.09   10.40
   2  -5   5  133.19    8.50
   2  -5   5  128.09    8.80
  -3   5  -5   15.10    1.40
  -3   5  -5   17.30    1.40
  -3   5  -5   17.00    1.50
  -3   5  -5   16.60    2.40
   3  -5   5   17.40    2.30
   3  -5   5   18.20    1.90
  -4   5  -5   26.20    1.70
  -4   5  -5   26.90    1.70
   4  -5   5   26.00    1.90
   4  -5   5   28.40    2.80
  -5   5  -5   90.79    3.50
  -5   5  -5   89.79    3.60
   5  -5   5   84.29    4.70
   5  -5   5   88.99    3.90
  -6   5  -5   23.30    1.30
   6  -5   5   21.90    1.90
   6  -5   5   23.10    1.50
   8   4  -5   75.49    2.70
   8   4  -5   73.79    2.60
   8   4  -5   75.89    2.60
   8   4  -5   64.49    2.70
  -8  -4   5   72.79    2.80
   7   4  -5  110.19    3.90
   7   4  -5  107.09    4.00
   7   4  -5  112.49    3.90
   7   4  -5  114.49    4.00
   7   4  -5  100.29    4.10
   7   4  -5  106.69    4.00
   6   4  -5  285.47    9.60
   6   4  -5  293.77    9.90
   6   4  -5  280.97    9.40
   6   4  -5  294.37    9.60
   6   4  -5  292.87    9.50
   6   4  -5  287.97    9.60
   6   4  -5  294.87    9.50
   5   4  -5  230.98    7.80
   5   4  -5  237.38    8.00
   5   4  -5  232.68    7.90
   5   4  -5  243.18    7.90
   5   4  -5  234.78    8.00
   5   4  -5  244.28    8.50
   5   4  -5  226.68    8.20
   5   4  -5  239.38    7.90
   4   4  -5  306.47   13.90
   4   4  -5  291.87   16.30
  -4  -4   5  296.37   13.50
  -4  -4   5  284.07   14.40
  -4  -4   5  296.07   13.20
   3   4  -5    5.00    2.00
   3   4  -5    5.40    1.90
   3   4  -5    3.80    3.40
  -3  -4   5    5.40    1.30
  -3  -4   5    4.10    1.70
   2   4  -5  435.76   18.30
   2   4  -5  442.06   16.80
   2   4  -5  433.76   17.00
  -2  -4   5  426.36   17.80
  -2  -4   5  405.96   16.00
  -2  -4   5  447.46   16.90
   1   4  -5  731.83   25.50
   1   4  -5  690.03   25.80
   1   4  -5  701.33   25.50
   1   4  -5  714.63   26.00
  -1  -4   5  712.73   24.90
  -1  -4   5  726.63   25.20
   0   4  -5   11.10    2.60
   0   4  -5    9.60    2.50
   0   4  -5   10.30    2.40
   0  -4   5   11.60    2.10
   0  -4   5    7.60    1.90
   0  -4   5    8.10    2.20
  -1   4  -5  127.89    7.50
  -1   4  -5  134.59    8.00
  -1   4  -5  131.19    8.10
   1  -4   5  126.69    7.30
   1  -4   5  132.89    7.20
   1  -4   5  124.99    7.00
  -2   4  -5   47.80    4.60
  -2   4  -5   46.50    5.60
  -2   4  -5   50.79    3.70
   2  -4   5   41.80    5.10
   2  -4   5   55.29    5.10
   2  -4   5   49.30    5.30
  -3   4  -5   76.49    7.80
  -3   4  -5   67.89    6.40
   3  -4   5   74.39    7.00
   3  -4   5   64.99    6.30
  -4   4  -5  231.28    8.10
  -4   4  -5  237.58    8.00
  -4   4  -5  229.38    9.50
   4  -4   5  236.58    9.70
   4  -4   5  245.18    8.50
  -5   4  -5  234.28    8.10
  -5   4  -5  233.48    7.90
   5  -4   5  232.28    9.60
   5  -4   5  235.88    8.50
  -6   4  -5   34.10    1.90
  -6   4  -5   37.60    1.80
   6  -4   5   32.00    2.60
   6  -4   5   39.60    2.20
  -7   4  -5    7.70    0.70
  -7   4  -5    8.00    0.80
   7  -4   5    9.00    0.90
   8   3  -5    5.20    0.70
   8   3  -5    6.40    0.60
   8   3  -5    7.10    0.70
   8   3  -5    5.60    0.60
  -8  -3   5    7.20    0.80
  -8  -3   5    5.80    0.70
   7   3  -5   78.09    3.00
   7   3  -5   72.29    2.90
   7   3  -5   75.69    3.10
   7   3  -5   71.29    2.90
   7   3  -5   72.09    2.90
   7   3  -5   75.39    3.10
   7   3  -5   71.29    3.00
  -7  -3   5   70.79    3.20
   6   3  -5  729.03   23.10
   6   3  -5  760.32   23.20
   6   3  -5  766.12   23.40
   6   3  -5  733.33   23.40
   6   3  -5  751.12   23.30
   6   3  -5  759.92   23.20
   6   3  -5  749.73   23.40
   6   3  -5  754.02   23.60
   5   3  -5  289.67    9.40
   5   3  -5  284.97    9.40
   5   3  -5  291.47    9.50
   5   3  -5  280.17    9.70
   5   3  -5  293.47    9.50
   5   3  -5  281.27    9.30
   5   3  -5  289.07    9.40
   5   3  -5  285.97    9.60
   4   3  -5  455.85   17.90
   4   3  -5  433.46   19.50
   4   3  -5  441.96   18.00
  -4  -3   5  455.85   19.10
  -4  -3   5  415.86   17.70
   3   3  -5  581.74   21.70
   3   3  -5  574.74   20.70
   3   3  -5  605.64   23.60
  -3  -3   5  569.74   21.00
  -3  -3   5  583.54   22.30
   2   3  -5    1.50    1.10
   2   3  -5    0.80    0.40
   2   3  -5   -0.60    0.80
   2   3  -5   -0.90    1.50
  -2  -3   5    0.30    0.70
  -2  -3   5    0.10    0.90
  -2  -3   5    0.80    1.20
   1   3  -5  256.47   10.40
   1   3  -5  251.17   10.40
   1   3  -5  247.78   10.80
   1   3  -5  237.08   10.60
  -1  -3   5  241.68   10.10
  -1  -3   5  227.48    9.80
   0   3  -5  219.78    9.90
   0   3  -5  217.08    9.20
   0   3  -5  211.98    9.50
   0  -3   5  209.68    8.70
   0  -3   5  214.28    9.10
   0  -3   5  221.68    9.20
  -1   3  -5  956.10   31.70
  -1   3  -5  936.11   31.30
  -1   3  -5  928.41   31.80
  -1   3  -5  978.60   32.50
   1  -3   5  920.91   31.30
   1  -3   5  942.91   31.60
  -2   3  -5    2.00    0.80
  -2   3  -5    4.90    2.00
  -2   3  -5    1.00    1.50
  -2   3  -5    4.20    1.60
   2  -3   5    2.50    2.10
   2  -3   5    2.30    1.40
   2  -3   5    4.20    1.80
  -3   3  -5 1024.20   35.90
  -3   3  -5  997.00   35.20
   3  -3   5 1025.30   34.10
   3  -3   5  983.30   34.30
   3  -3   5  963.20   34.30
  -4   3  -5  160.88    6.00
  -4   3  -5  178.68    8.30
  -4   3  -5  164.88    5.90
  -4   3  -5  176.98   11.00
  -4   3  -5  167.88    7.60
   4  -3   5  164.98    9.90
   4  -3   5  165.58    6.30
  -5   3  -5   21.90    1.60
  -5   3  -5   22.30    1.70
  -5   3  -5   20.70    1.80
   5  -3   5   23.50    1.80
   5  -3   5   21.50    2.40
  -6   3  -5   28.30    1.80
  -6   3  -5   26.00    1.50
  -6   3  -5   26.30    1.70
   6  -3   5   24.00    2.40
   6  -3   5   26.30    1.70
   6  -3   5   28.30    2.00
  -7   3  -5   32.60    1.60
  -7   3  -5   36.80    1.70
   7  -3   5   32.50    1.80
   7  -3   5   34.50    1.90
   8   2  -5   19.60    1.50
   8   2  -5   22.80    1.10
   8   2  -5   21.10    1.20
   8   2  -5   21.90    1.10
  -8  -2   5   21.20    1.20
   7   2  -5  165.08    6.00
   7   2  -5  172.58    5.60
   7   2  -5  169.48    5.90
   7   2  -5  159.48    5.80
   7   2  -5  162.88    5.60
   7   2  -5  156.28    5.60
   7   2  -5  173.68    5.70
  -7  -2   5  161.98    6.00
   6   2  -5   32.70    1.80
   6   2  -5   32.20    1.70
   6   2  -5   30.20    1.90
   6   2  -5   30.00    1.70
   6   2  -5   29.00    1.80
   6   2  -5   29.60    1.60
   6   2  -5   31.50    1.80
   6   2  -5   31.30    1.90
   5   2  -5 1299.97   39.00
   5   2  -5 1263.77   38.90
   5   2  -5 1287.17   39.10
   5   2  -5 1263.17   39.00
   5   2  -5 1321.47   39.30
   5   2  -5 1244.08   38.80
   5   2  -5 1253.17   38.80
   5   2  -5 1263.67   38.90
  -5  -2   5 1330.87   45.30
   4   2  -5   82.49    6.90
   4   2  -5   76.69    5.70
   4   2  -5   74.99    6.60
  -4  -2   5   73.49    4.70
  -4  -2   5   70.59    6.70
   3   2  -5  279.57   11.70
   3   2  -5  268.67   11.30
   3   2  -5  270.57   13.20
  -3  -2   5  279.97   12.20
  -3  -2   5  260.77   10.80
  -3  -2   5  275.47   11.50
   2   2  -5  211.68   10.30
   2   2  -5  212.88    9.10
   2   2  -5  206.68    9.00
   2   2  -5  218.78    8.70
  -2  -2   5  222.48    9.80
  -2  -2   5  209.48    8.80
   1   2  -5  547.55   19.30
   1   2  -5  529.45   18.80
   1   2  -5  541.95   19.30
   1   2  -5  551.64   18.90
  -1  -2   5  531.95   18.30
  -1  -2   5  544.35   18.60
   0   2  -5  648.84   22.30
   0   2  -5  626.14   21.50
   0   2  -5  643.04   21.70
   0   2  -5  640.94   21.50
   0  -2   5  647.44   21.50
   0  -2   5  636.44   21.10
  -1   2  -5    3.80    1.30
  -1   2  -5    3.00    1.00
  -1   2  -5    2.50    1.30
  -1   2  -5    3.60    1.50
   1  -2   5    1.10    0.90
   1  -2   5    2.80    0.90
  -2   2  -5  125.79    6.60
  -2   2  -5  125.39    6.20
  -2   2  -5  128.39    7.10
  -2   2  -5  122.09    5.90
   2  -2   5  115.69    6.10
   2  -2   5  125.99    6.50
   2  -2   5  126.19    6.50
  -3   2  -5  298.97   12.20
  -3   2  -5  299.57   13.20
  -3   2  -5  324.97   14.00
   3  -2   5  302.57   12.70
   3  -2   5  306.87   13.00
   3  -2   5  300.87   13.10
  -4   2  -5  151.08    9.60
  -4   2  -5  164.58    9.90
   4  -2   5  160.38    9.10
   4  -2   5  157.98    9.80
  -5   2  -5  371.26   14.30
  -5   2  -5  337.07   11.90
  -5   2  -5  360.26   11.50
  -5   2  -5  351.36   11.70
   5  -2   5  362.66   12.10
   5  -2   5  354.46   11.90
  -6   2  -5  179.28    6.70
  -6   2  -5  184.78    6.50
  -6   2  -5  170.58    6.20
   6  -2   5  189.18    6.90
   6  -2   5  165.48    7.50
   6  -2   5  183.38    6.60
  -7   2  -5   53.19    2.30
  -7   2  -5   56.59    2.70
  -7   2  -5   54.69    2.60
   7  -2   5   55.39    2.80
   7  -2   5   59.09    2.70
  -8   2  -5    0.60    0.40
   8  -2   5    0.20    0.40
   8  -2   5    0.20    0.40
   8   1  -5  271.37    8.40
   8   1  -5  264.17    8.60
  -8  -1   5  269.97    8.60
   7   1  -5    1.80    0.50
   7   1  -5    1.10    0.70
   7   1  -5    1.90    0.60
   7   1  -5    1.40    0.50
   7   1  -5    2.70    0.70
   7   1  -5    2.20    0.50
   7   1  -5    1.30    0.50
   6   1  -5   73.29    2.90
   6   1  -5   73.69    3.10
   6   1  -5   75.29    3.10
   6   1  -5   69.29    2.90
   6   1  -5   70.29    2.90
   6   1  -5   66.49    3.40
   6   1  -5   73.79    3.00
   6   1  -5   71.09    3.20
   5   1  -5  255.27    8.30
   5   1  -5  246.78    8.40
   5   1  -5  254.97    8.30
   5   1  -5  256.67    8.50
   5   1  -5  249.97    8.30
   5   1  -5  247.68    8.20
   5   1  -5  251.47    8.40
   4   1  -5   44.20    5.80
   4   1  -5   36.40    4.70
   4   1  -5   38.50    4.10
  -4  -1   5   36.20    4.30
  -4  -1   5   41.30    4.80
  -4  -1   5   41.10    4.90
   3   1  -5 1238.88   40.20
   3   1  -5 1182.58   41.30
   3   1  -5 1196.18   39.90
   3   1  -5 1207.78   39.80
  -3  -1   5 1245.58   39.80
  -3  -1   5 1215.08   40.30
   2   1  -5   50.89    3.40
   2   1  -5   46.90    4.20
   2   1  -5   48.90    3.30
   2   1  -5   41.80    3.70
  -2  -1   5   56.79    3.90
  -2  -1   5   53.19    3.50
  -2  -1   5   55.79    3.20
   1   1  -5  407.46   13.40
   1   1  -5  392.66   14.30
   1   1  -5  385.56   13.80
   1   1  -5  382.96   13.10
   1   1  -5  394.86   13.80
   1   1  -5  405.26   14.60
  -1  -1   5  389.76   13.30
  -1  -1   5  388.96   13.60
   0   1  -5  285.07   10.80
   0   1  -5  286.27   10.20
   0   1  -5  281.07   10.20
   0   1  -5  284.37   10.40
   0   1  -5  277.27   10.10
   0  -1   5  281.07    9.60
   0  -1   5  284.47    9.90
   0  -1   5  279.77   10.20
   0  -1   5  291.57   10.10
  -1   1  -5  742.53   23.70
  -1   1  -5  745.43   24.50
  -1   1  -5  729.83   23.70
  -1   1  -5  725.33   23.70
   1  -1   5  704.23   23.50
   1  -1   5  716.73   23.00
   1  -1   5  714.03   23.80
   1  -1   5  710.13   23.20
  -2   1  -5   47.60    4.40
  -2   1  -5   48.20    3.40
  -2   1  -5   43.00    3.70
   2  -1   5   44.10    3.00
   2  -1   5   43.80    3.30
   2  -1   5   43.70    3.80
  -3   1  -5  138.39    7.90
  -3   1  -5  139.19    7.40
  -3   1  -5  148.29    7.10
   3  -1   5  139.99    7.30
   3  -1   5  131.29    7.20
   3  -1   5  139.29    6.70
  -4   1  -5 1184.18   40.90
  -4   1  -5 1166.48   39.60
  -4   1  -5 1137.09   38.50
   4  -1   5 1142.19   39.30
   4  -1   5 1218.28   40.20
  -5   1  -5    3.20    0.70
  -5   1  -5    4.80    2.70
  -5   1  -5    3.50    2.20
  -5   1  -5    2.40    0.80
   5  -1   5    6.80    2.50
   5  -1   5    2.80    0.80
   5  -1   5    3.10    0.90
  -6   1  -5    4.80    1.00
  -6   1  -5    4.30    0.80
   6  -1   5    4.70    0.90
   6  -1   5    5.30    1.00
  -7   1  -5   11.80    1.20
  -7   1  -5   10.90    1.30
   7  -1   5   10.00    1.20
   7  -1   5    9.80    1.30
  -8   1  -5   49.30    2.20
  -8   1  -5   49.40    2.10
   8  -1   5   42.80    2.20
   8  -1   5   50.19    2.20
   8   0  -5   16.70    1.10
   8   0  -5   18.70    0.90
   8   0  -5   19.00    1.10
  -8   0   5   18.90    1.00
  -8   0   5   21.80    1.00
   7   0  -5   21.90    1.30
   7   0  -5   21.70    1.30
   7   0  -5   22.50    1.60
   7   0  -5   20.40    1.40
   7   0  -5   25.00    1.50
  -7   0   5   20.50    1.40
   6   0  -5    3.50    0.90
   6   0  -5    4.00    0.70
   6   0  -5    4.00    0.70
   6   0  -5    4.10    0.70
   6   0  -5    3.50    0.70
   6   0  -5    3.20    0.80
   6   0  -5    4.20    0.70
   6   0  -5    3.40    0.70
   5   0  -5   10.20    1.00
   5   0  -5    9.60    1.00
   5   0  -5    8.80    1.10
   5   0  -5    9.60    1.00
   5   0  -5    9.20    0.90
   5   0  -5    8.40    0.90
   5   0  -5    8.60    0.90
   4   0  -5 2007.70   63.49
   4   0  -5 1851.41   60.89
   4   0  -5 1907.41   61.89
  -4   0   5 1833.82   60.59
  -4   0   5 1784.92   60.79
   3   0  -5  365.96   15.60
   3   0  -5  366.96   14.50
   3   0  -5  360.96   14.70
  -3   0   5  358.16   14.30
  -3   0   5  367.46   14.10
  -3   0   5  358.86   14.20
   2   0  -5  143.39    7.40
   2   0  -5  142.59    6.70
   2   0  -5  134.49    6.50
   2   0  -5  141.99    6.80
  -2   0   5  143.29    6.50
  -2   0   5  139.89    6.50
   1   0  -5   69.99    3.70
   1   0  -5   67.59    3.20
   1   0  -5   66.19    3.90
   1   0  -5   70.99    3.70
   1   0  -5   67.79    4.20
  -1   0   5   67.79    3.70
   0   0  -5  291.97   10.40
   0   0  -5  309.37   10.90
   0   0  -5  299.07   10.40
   0   0  -5  304.97   10.70
   0   0  -5  306.27   10.40
   0   0  -5  291.37   10.40
   0   0  -5  317.27   10.90
   0   0  -5  305.27   10.90
   0   0  -5  301.47   10.80
  -1   0  -5 2342.17   71.39
  -1   0  -5 2351.86   70.99
  -1   0  -5 2444.86   71.39
  -1   0  -5 2263.27   70.59
   1   0   5 2264.87   70.69
   1   0   5 2280.57   71.29
  -2   0  -5  989.60   30.80
  -2   0  -5  939.61   30.50
  -2   0  -5  958.50   31.50
  -2   0  -5  978.60   30.90
   2   0   5  952.50   30.50
   2   0   5  953.40   31.00
   2   0   5  940.51   30.30
   2   0   5  965.30   30.20
   2   0   5  935.81   31.20
  -3   0  -5  274.47   10.60
  -3   0  -5  262.87   10.40
  -3   0  -5  261.17   11.40
  -3   0  -5  271.47   10.50
   3   0   5  253.07   10.10
   3   0   5  269.57   11.20
   3   0   5  267.37   11.00
  -4   0  -5   18.40    3.50
  -4   0  -5   16.50    2.60
  -4   0  -5   21.20    3.50
   4   0   5   18.30    3.40
   4   0   5   19.00    2.70
   4   0   5   19.40    3.30
   4   0   5   19.00    2.70
  -5   0  -5   14.20    3.50
  -5   0  -5   14.60    2.80
   5   0   5   17.30    2.80
   5   0   5   15.60    3.70
  -6   0  -5  305.77   10.40
  -6   0  -5  300.87   10.00
   6   0   5  292.47    9.90
   6   0   5  297.07   10.20
   6   0   5  291.77   10.20
  -7   0  -5  164.98    5.90
  -7   0  -5  159.88    6.20
   7   0   5  156.68    6.10
   7   0   5  162.68    5.80
   7   0   5  164.38    6.10
  -8   0  -5   49.60    2.20
  -8   0  -5   45.10    2.30
   8   0   5   49.50    2.40
   8   0   5   43.60    2.20
   8  -1  -5    0.00    0.30
   8  -1  -5   -0.20    0.30
  -8   1   5   -0.20    0.30
   7  -1  -5   21.90    1.60
   7  -1  -5   21.90    1.20
   7  -1  -5   21.90    1.30
   7  -1  -5   22.10    1.40
  -7   1   5   23.10    1.40
   6  -1  -5  116.09    4.10
   6  -1  -5  109.29    4.20
   6  -1  -5  110.99    4.30
   6  -1  -5  108.19    4.00
   6  -1  -5  111.49    4.20
   6  -1  -5  113.99    4.70
   6  -1  -5  115.09    4.40
  -6   1   5  114.29    4.30
   5  -1  -5   21.00    1.50
   5  -1  -5   20.60    1.40
   5  -1  -5   22.10    1.90
   5  -1  -5   21.60    1.50
   5  -1  -5   22.00    1.30
   5  -1  -5   20.80    1.30
   5  -1  -5   21.70    1.30
   5  -1  -5   21.20    1.50
   4  -1  -5  293.57   14.60
   4  -1  -5  307.67   15.00
   4  -1  -5  319.67   13.70
  -4   1   5  285.37   13.60
  -4   1   5  301.27   13.30
   3  -1  -5  544.65   21.10
   3  -1  -5  568.04   21.90
   3  -1  -5  561.24   20.40
  -3   1   5  541.35   19.80
  -3   1   5  546.05   20.20
   2  -1  -5   56.09    4.50
   2  -1  -5   45.10    3.30
   2  -1  -5   57.69    4.10
   2  -1  -5   51.29    3.50
  -2   1   5   54.39    3.70
  -2   1   5   50.09    3.40
   1  -1  -5   12.80    2.20
   1  -1  -5   12.40    1.80
   1  -1  -5   15.00    1.60
   1  -1  -5   13.00    1.90
   1  -1  -5   14.40    2.10
  -1   1   5   15.50    1.90
  -1   1   5   11.80    1.50
   0  -1  -5  876.71   27.30
   0  -1  -5  920.61   28.40
   0  -1  -5  885.01   28.40
   0  -1  -5  870.71   27.90
   0   1   5  853.41   27.40
   0   1   5  845.22   28.50
  -1  -1  -5 1088.59   33.90
  -1  -1  -5 1100.19   33.70
  -1  -1  -5 1063.99   33.20
  -1  -1  -5 1067.79   33.30
   1   1   5 1051.19   33.90
   1   1   5 1052.89   33.50
   1   1   5 1004.90   33.40
  -2  -1  -5   30.70    2.80
  -2  -1  -5   32.20    3.10
  -2  -1  -5   29.80    2.90
   2   1   5   30.70    2.80
   2   1   5   29.10    3.00
  -3  -1  -5  389.46   15.10
  -3  -1  -5  378.96   14.20
  -3  -1  -5  396.06   14.10
   3   1   5  382.96   14.20
   3   1   5  371.96   13.60
   3   1   5  389.96   13.30
   3   1   5  374.26   14.10
   3   1   5  394.66   14.70
  -4  -1  -5   15.30    2.00
  -4  -1  -5   10.50    2.10
  -4  -1  -5   12.30    2.20
  -4  -1  -5   10.90    3.10
   4   1   5   17.10    3.10
   4   1   5   17.10    3.10
   4   1   5    9.10    2.10
  -5  -1  -5  262.17   12.80
  -5  -1  -5  245.88   11.70
   5   1   5  289.17   12.30
   5   1   5  286.77   13.70
  -6  -1  -5  253.57    8.60
  -6  -1  -5  255.47    9.00
  -6  -1  -5  265.87    9.00
   6   1   5  238.28    8.80
   6   1   5  255.87    8.60
   6   1   5  247.18    8.90
  -7  -1  -5    6.20    1.00
  -7  -1  -5    8.00    1.20
   7   1   5    6.50    1.10
   7   1   5    6.40    1.10
   7   1   5    7.20    1.00
  -8  -1  -5    6.50    0.80
  -8  -1  -5    4.60    0.90
   8   1   5    4.50    0.80
   8   1   5    5.50    0.70
   7  -2  -5   83.19    3.10
   7  -2  -5   78.59    3.00
   7  -2  -5   79.09    3.30
  -7   2   5   78.99    3.00
  -7   2   5   74.99    2.90
   6  -2  -5   82.99    3.50
   6  -2  -5   87.09    3.40
   6  -2  -5   80.29    3.80
   6  -2  -5   91.09    3.30
   6  -2  -5   86.19    3.60
   6  -2  -5   84.19    3.90
   6  -2  -5   92.49    3.40
  -6   2   5   85.19    3.40
   5  -2  -5   47.10    2.40
   5  -2  -5   49.30    2.20
   5  -2  -5   48.40    2.40
   5  -2  -5   47.20    2.20
   5  -2  -5   47.40    2.30
   5  -2  -5   50.49    2.80
   5  -2  -5   50.39    2.70
   5  -2  -5   43.80    2.10
  -5   2   5   47.80    2.30
   4  -2  -5   90.99    8.60
   4  -2  -5  104.39    7.20
  -4   2   5   98.19    6.60
  -4   2   5   87.19    7.50
  -4   2   5   78.69    9.00
   3  -2  -5    3.20    2.10
   3  -2  -5    4.40    1.60
   3  -2  -5    3.70    1.80
  -3   2   5    0.10    2.80
  -3   2   5    2.80    1.50
   2  -2  -5  687.93   23.90
   2  -2  -5  695.53   24.00
   2  -2  -5  705.93   24.60
  -2   2   5  699.03   24.00
  -2   2   5  688.93   25.50
  -2   2   5  647.94   23.10
   1  -2  -5   48.60    3.50
   1  -2  -5   49.60    3.40
   1  -2  -5   49.30    3.40
   1  -2  -5   48.50    2.90
  -1   2   5   50.69    2.90
  -1   2   5   46.20    4.10
  -1   2   5   44.90    3.20
   0  -2  -5  901.61   27.70
   0  -2  -5  858.41   28.10
   0  -2  -5  869.51   28.00
   0  -2  -5  833.12   27.70
   0   2   5  806.82   27.10
   0   2   5  860.61   28.80
  -1  -2  -5   15.30    1.80
  -1  -2  -5   13.00    1.90
  -1  -2  -5   13.20    1.90
  -1  -2  -5   15.90    2.10
   1   2   5   11.60    1.80
   1   2   5   12.80    2.00
  -2  -2  -5  744.13   23.80
  -2  -2  -5  741.93   23.90
  -2  -2  -5  697.13   23.90
  -2  -2  -5  722.63   24.00
   2   2   5  709.03   24.30
   2   2   5  687.83   24.20
   2   2   5  740.63   24.20
  -3  -2  -5  210.38    8.90
  -3  -2  -5  223.08    9.10
  -3  -2  -5  221.18    9.70
   3   2   5  212.08    9.00
   3   2   5  199.38    8.20
   3   2   5  205.88    9.30
   3   2   5  206.48    8.70
   3   2   5  198.68    7.90
   3   2   5  202.08    8.80
  -4  -2  -5   10.50    2.20
  -4  -2  -5    9.80    2.90
  -4  -2  -5    7.00    1.90
   4   2   5    9.70    1.60
   4   2   5    9.00    2.20
   4   2   5    7.10    1.50
   4   2   5    6.90    2.30
   4   2   5    5.70    1.70
  -5  -2  -5  762.22   29.90
  -5  -2  -5  792.02   28.00
   5   2   5  848.82   28.50
   5   2   5  747.23   28.80
  -6  -2  -5   65.59    3.30
  -6  -2  -5   70.69    3.10
  -6  -2  -5   77.49    3.70
   6   2   5   73.59    3.10
   6   2   5   72.99    3.30
  -7  -2  -5    0.20    0.60
  -7  -2  -5   -0.30    0.70
  -7  -2  -5    0.60    0.70
   7   2   5    0.60    0.50
   7   2   5    0.70    0.50
  -8  -2  -5   49.99    2.50
  -8  -2  -5   47.10    2.20
   8   2   5   47.60    2.40
   8   2   5   49.50    2.20
  -9  -2  -5    0.10    0.40
   9   2   5    0.30    0.40
   9   2   5    0.90    0.30
   7  -3  -5   59.79    2.30
   7  -3  -5   58.99    2.60
  -7   3   5   61.29    2.40
  -7   3   5   63.89    2.30
   6  -3  -5    1.20    0.50
   6  -3  -5    0.50    0.50
   6  -3  -5    0.60    0.50
   6  -3  -5    0.80    0.60
   6  -3  -5    0.00    0.60
  -6   3   5    1.10    0.50
   5  -3  -5  313.27   10.90
   5  -3  -5  317.97   10.50
   5  -3  -5  320.07   11.10
   5  -3  -5  320.57   10.60
   5  -3  -5  315.97   10.40
   4  -3  -5   20.40    1.50
   4  -3  -5   21.10    1.90
   4  -3  -5   17.50    1.20
   4  -3  -5   19.50    1.30
   4  -3  -5   19.90    1.40
   4  -3  -5   19.80    1.30
   4  -3  -5   22.40    1.30
   4  -3  -5   18.50    1.50
   3  -3  -5   11.20    2.90
   3  -3  -5   11.30    2.70
   3  -3  -5    9.40    2.90
  -3   3   5    8.30    0.90
  -3   3   5   13.10    3.90
  -3   3   5   11.90    2.60
   2  -3  -5  317.67   12.90
   2  -3  -5  332.67   14.00
   2  -3  -5  314.77   13.50
  -2   3   5  316.57   15.10
  -2   3   5  338.97   13.50
  -2   3   5  300.37   12.30
   1  -3  -5  642.24   23.00
   1  -3  -5  676.53   22.80
   1  -3  -5  651.63   22.00
   1  -3  -5  670.03   23.40
  -1   3   5  654.23   22.60
  -1   3   5  634.14   24.30
  -1   3   5  639.24   21.40
   0  -3  -5  116.29    5.70
   0  -3  -5  119.59    5.90
   0  -3  -5  112.49    5.90
   0   3   5  102.09    5.20
   0   3   5  104.99    5.70
   0   3   5  116.09    6.80
  -1  -3  -5   83.09    4.80
  -1  -3  -5   83.09    4.60
  -1  -3  -5   85.29    4.20
  -1  -3  -5   81.29    4.50
   1   3   5   75.99    3.80
   1   3   5   78.59    5.20
   1   3   5   78.29    4.60
  -2  -3  -5  389.66   14.00
  -2  -3  -5  398.46   13.60
  -2  -3  -5  396.06   14.30
  -2  -3  -5  385.16   14.30
   2   3   5  383.56   14.30
   2   3   5  360.76   14.40
   2   3   5  362.16   14.90
  -3  -3  -5 1154.88   38.50
  -3  -3  -5 1214.98   38.80
  -3  -3  -5 1210.18   39.00
  -3  -3  -5 1186.28   37.90
   3   3   5 1177.08   38.90
   3   3   5 1179.38   38.90
   3   3   5 1179.98   39.60
  -4  -3  -5  251.47   11.90
  -4  -3  -5  265.47   11.30
  -4  -3  -5  255.77   10.80
   4   3   5  253.37   11.40
   4   3   5  261.67   11.40
   4   3   5  251.37   11.80
  -5  -3  -5  264.97   12.10
  -5  -3  -5  238.88   13.20
   5   3   5  253.87   12.80
   5   3   5  294.17   12.80
  -6  -3  -5   11.20    1.50
  -6  -3  -5   13.00    1.40
   6   3   5    9.90    1.20
   6   3   5   10.00    1.00
   6   3   5    9.60    1.10
  -7  -3  -5   79.29    3.80
  -7  -3  -5   87.39    4.10
   7   3   5   87.19    3.80
   7   3   5   88.39    3.60
  -8  -3  -5   23.20    1.50
  -8  -3  -5   26.70    1.90
  -8  -3  -5   25.60    1.80
   8   3   5   31.70    1.60
   8   3   5   23.70    1.60
  -9  -3  -5   30.20    1.50
   9   3   5   29.50    1.30
   9   3   5   22.90    1.30
   6  -4  -5   47.60    2.50
   6  -4  -5   57.49    2.60
  -6   4   5   53.89    2.20
  -6   4   5   56.99    2.40
   5  -4  -5   18.00    1.70
   5  -4  -5   20.20    1.40
   5  -4  -5   19.70    1.40
   5  -4  -5   19.20    1.60
   5  -4  -5   17.30    1.80
  -5   4   5   20.60    1.30
   4  -4  -5   15.00    1.60
   4  -4  -5   15.20    1.40
   4  -4  -5   12.60    2.20
   4  -4  -5   14.10    1.30
   4  -4  -5   16.20    1.70
   4  -4  -5   14.20    1.30
  -4   4   5   14.10    1.20
   3  -4  -5  105.59    7.30
   3  -4  -5  102.79    7.90
   3  -4  -5  102.09    8.50
  -3   4   5  103.49    5.90
  -3   4   5   92.79    9.60
   2  -4  -5  118.49    7.70
   2  -4  -5  119.39    6.90
   2  -4  -5  103.49    7.30
  -2   4   5  118.69    7.20
  -2   4   5  108.49    8.80
   1  -4  -5   55.29    4.00
   1  -4  -5   52.59    5.30
   1  -4  -5   52.19    5.00
  -1   4   5   54.79    4.90
  -1   4   5   55.09    6.20
   0  -4  -5   55.39    4.80
   0  -4  -5   59.79    5.20
   0  -4  -5   55.49    4.20
   0   4   5   66.09    4.80
   0   4   5   53.09    4.90
   0   4   5   47.00    4.20
  -1  -4  -5   31.90    3.70
  -1  -4  -5   33.90    3.60
  -1  -4  -5   37.70    3.80
  -1  -4  -5   39.30    3.40
   1   4   5   42.00    4.00
   1   4   5   37.00    4.50
   1   4   5   32.30    3.00
  -2  -4  -5  332.87   13.00
  -2  -4  -5  321.97   12.90
  -2  -4  -5  333.27   13.20
   2   4   5  328.57   14.40
   2   4   5  317.97   12.80
   2   4   5  329.77   13.30
  -3  -4  -5  183.88    8.90
  -3  -4  -5  192.58    8.50
  -3  -4  -5  186.48    8.90
  -3  -4  -5  182.28    8.30
   3   4   5  189.98    8.90
   3   4   5  187.78    9.90
   3   4   5  193.48    9.30
  -4  -4  -5  952.50   33.60
  -4  -4  -5  983.90   33.00
  -4  -4  -5  982.20   33.50
   4   4   5  970.40   33.50
   4   4   5  969.70   33.10
   4   4   5  977.70   34.70
  -5  -4  -5   39.20    5.30
  -5  -4  -5   37.70    4.70
   5   4   5   35.70    4.60
   5   4   5   36.00    3.70
  -6  -4  -5    9.10    1.20
  -6  -4  -5    8.80    1.40
  -6  -4  -5    8.00    1.20
   6   4   5    9.00    1.10
   6   4   5    9.00    1.00
   6   4   5    8.60    1.10
  -7  -4  -5  269.47    9.50
  -7  -4  -5  259.87    9.20
   7   4   5  261.67    9.00
   7   4   5  269.87    8.60
   7   4   5  246.28    8.90
  -8  -4  -5    1.80    0.70
  -8  -4  -5    2.20    0.80
   8   4   5    1.50    0.60
   8   4   5    1.50    0.60
   8   4   5    2.50    0.50
  -9  -4  -5    6.30    0.80
   9   4   5    6.80    0.70
   6  -5  -5   27.90    1.60
   6  -5  -5   27.80    1.50
  -6   5   5   28.20    1.40
  -6   5   5   29.10    1.30
   5  -5  -5   15.80    1.50
   5  -5  -5   15.10    1.50
   5  -5  -5   14.60    1.20
  -5   5   5   12.40    1.30
  -5   5   5   12.70    1.00
   4  -5  -5   13.90    1.60
   4  -5  -5   14.50    1.50
   4  -5  -5   14.60    2.20
   4  -5  -5   16.30    1.40
  -4   5   5   14.90    1.20
   3  -5  -5   67.69    3.20
   3  -5  -5   59.49    2.70
   3  -5  -5   71.69    3.10
   3  -5  -5   72.29    3.50
   3  -5  -5   67.69    4.40
   3  -5  -5   66.19    2.90
  -3   5   5   64.99    2.70
   2  -5  -5    5.50    2.60
   2  -5  -5    4.00    2.70
  -2   5   5    1.10    2.10
  -2   5   5    3.60    3.40
   1  -5  -5  116.99    7.10
   1  -5  -5  113.09    6.80
   1  -5  -5  130.09    7.70
  -1   5   5  112.79    7.20
  -1   5   5  123.59    9.80
  -1   5   5  109.59    6.70
   0  -5  -5   46.90    4.90
   0  -5  -5   52.99    5.20
   0  -5  -5   47.70    4.90
   0   5   5   52.49    5.10
   0   5   5   49.80    4.80
   0   5   5   49.30    6.50
  -1  -5  -5   51.29    4.70
  -1  -5  -5   52.49    5.00
  -1  -5  -5   49.70    4.70
  -1  -5  -5   52.69    3.30
   1   5   5   49.10    4.40
   1   5   5   56.29    5.00
   1   5   5   51.39    6.20
  -2  -5  -5   89.19    5.40
  -2  -5  -5   78.99    5.00
  -2  -5  -5   91.19    5.80
   2   5   5   80.59    5.50
   2   5   5   90.69    6.90
   2   5   5   80.29    5.30
   2   5   5   84.39    5.90
  -3  -5  -5  148.39    8.30
  -3  -5  -5  153.88    8.20
   3   5   5  149.49    9.20
   3   5   5  154.28    9.50
   3   5   5  142.09    8.40
  -4  -5  -5 1078.79   35.70
  -4  -5  -5  981.60   35.80
   4   5   5 1030.40   36.20
   4   5   5 1093.09   38.10
  -5  -5  -5   56.69    6.10
  -5  -5  -5   56.69    3.20
   5   5   5   54.49    6.90
   5   5   5   53.79    2.50
  -6  -5  -5   79.99    3.60
  -6  -5  -5   76.99    3.50
  -6  -5  -5   83.99    4.00
   6   5   5   78.19    3.20
   6   5   5   79.19    3.40
  -7  -5  -5    0.30    0.70
  -7  -5  -5    0.00    0.60
   7   5   5    0.50    0.40
   7   5   5    0.50    0.50
  -8  -5  -5   14.90    1.40
  -8  -5  -5   16.10    1.60
   8   5   5   16.30    1.00
   8   5   5   16.80    1.20
  -9  -5  -5   36.90    1.70
  -9  -5  -5   36.40    1.80
   9   5   5   38.50    1.60
   5  -6  -5   27.80    2.20
   5  -6  -5   31.20    1.80
   5  -6  -5   31.20    1.70
  -5   6   5   32.50    1.70
  -5   6   5   30.00    1.40
  -5   6   5   29.40    1.80
   4  -6  -5   37.20    2.30
   4  -6  -5   39.00    3.00
   4  -6  -5   39.40    2.00
   4  -6  -5   38.10    2.20
  -4   6   5   38.30    1.80
  -4   6   5   38.10    2.10
   3  -6  -5   35.90    3.20
   3  -6  -5   36.00    2.30
   3  -6  -5   33.00    1.90
   3  -6  -5   34.20    2.10
  -3   6   5   36.80    2.10
   2  -6  -5    4.20    1.30
   2  -6  -5    4.90    1.00
   2  -6  -5    4.90    0.80
   2  -6  -5    4.70    1.40
   2  -6  -5    4.60    0.70
  -2   6   5    4.60    0.80
   1  -6  -5    5.10    1.70
   1  -6  -5    4.00    2.40
   1  -6  -5    4.50    1.00
  -1   6   5    4.90    2.60
  -1   6   5    5.10    2.40
   0  -6  -5  166.28    9.30
   0  -6  -5  172.18    9.40
   0   6   5  169.38    9.40
   0   6   5  170.48   12.10
  -1  -6  -5   85.49    7.50
  -1  -6  -5   96.39    6.30
   1   6   5   91.49    6.10
   1   6   5   79.19    8.60
   1   6   5   74.69    5.70
  -2  -6  -5  163.28    8.80
  -2  -6  -5  172.78    9.30
  -2  -6  -5  163.18    8.20
   2   6   5  172.28   11.10
   2   6   5  173.88    9.00
  -3  -6  -5   47.20    5.20
  -3  -6  -5   47.70    5.50
   3   6   5   52.09    5.90
   3   6   5   53.69    6.80
  -4  -6  -5   23.40    3.60
  -4  -6  -5   32.70    4.50
   4   6   5   32.70    5.30
   4   6   5   22.00    4.10
  -5  -6  -5  425.66   14.20
  -5  -6  -5  433.76   13.90
   5   6   5  427.06   13.40
   5   6   5  401.86   13.50
   5   6   5  411.76   13.30
  -6  -6  -5  187.58    7.20
  -6  -6  -5  176.98    6.70
   6   6   5  182.18    6.30
   6   6   5  179.78    6.50
  -7  -6  -5    1.30    0.80
  -7  -6  -5    1.00    0.70
  -7  -6  -5    2.20    0.70
   7   6   5    1.50    0.50
   7   6   5    1.60    0.60
  -8  -6  -5   50.99    2.70
  -8  -6  -5   48.80    2.40
   8   6   5   53.59    2.10
   8   6   5   49.60    2.20
   5  -7  -5    7.80    0.80
  -5   7   5    7.20    0.70
   4  -7  -5   80.79    3.40
   4  -7  -5   73.99    4.10
  -4   7   5   81.39    3.20
  -4   7   5   80.49    3.10
   3  -7  -5   60.99    4.10
   3  -7  -5   67.19    3.20
  -3   7   5   68.49    3.00
  -3   7   5   68.49    3.00
   2  -7  -5   57.29    4.10
   2  -7  -5   60.79    3.10
   2  -7  -5   60.29    3.80
   2  -7  -5   56.49    2.60
  -2   7   5   60.99    2.80
   1  -7  -5  100.49    3.90
   1  -7  -5  103.09    5.60
   1  -7  -5   98.89    4.30
   1  -7  -5   95.39    5.20
  -1   7   5   99.19    4.00
   0  -7  -5    0.80    0.50
   0  -7  -5    0.90    0.90
   0  -7  -5   -0.80    0.80
   0   7   5    1.30    0.50
   0   7   5    0.20    0.40
  -1  -7  -5   48.70    3.40
  -1  -7  -5   50.49    2.40
  -1  -7  -5   51.69    5.80
  -1  -7  -5   50.09    3.10
   1   7   5   51.39    5.70
   1   7   5   51.59    2.40
  -2  -7  -5  344.37   12.20
  -2  -7  -5  315.07   17.10
   2   7   5  343.27   11.10
   2   7   5  338.47   20.40
  -3  -7  -5   76.19    3.40
  -3  -7  -5   71.49    5.00
  -3  -7  -5   73.69    4.00
  -3  -7  -5   71.89    7.70
   3   7   5   80.59    3.10
  -4  -7  -5    0.10    0.50
  -4  -7  -5   -0.10    0.70
   4   7   5    0.10    0.40
   4   7   5    0.10    0.50
  -5  -7  -5   38.70    2.50
  -5  -7  -5   39.30    2.70
  -5  -7  -5   41.60    2.40
   5   7   5   35.10    2.00
   5   7   5   43.20    2.10
   5   7   5   43.30    2.00
  -6  -7  -5  355.96   12.20
  -6  -7  -5  365.76   12.50
   6   7   5  365.56   11.70
   6   7   5  341.67   11.70
   6   7   5  384.06   11.60
  -7  -7  -5   76.39    3.30
  -7  -7  -5   74.79    3.60
   7   7   5   78.99    3.00
   7   7   5   72.49    3.10
  -8  -7  -5   10.40    1.20
   8   7   5    9.50    0.80
   8   7   5    8.40    0.80
   4  -8  -5  115.89    4.00
   4  -8  -5  105.69    4.60
  -4   8   5  111.79    3.90
   3  -8  -5    1.90    0.70
   3  -8  -5    0.50    0.80
  -3   8   5   -0.70    0.40
  -3   8   5    0.40    0.50
   2  -8  -5   95.49    4.90
   2  -8  -5   99.99    5.40
   2  -8  -5  101.49    4.20
  -2   8   5   97.39    3.90
  -2   8   5  101.29    3.90
   1  -8  -5   61.39    4.20
   1  -8  -5   61.59    2.70
   1  -8  -5   59.99    3.90
  -1   8   5   64.59    2.90
  -1   8   5   60.29    2.80
   0  -8  -5   24.10    2.70
   0  -8  -5   21.60    2.20
   0  -8  -5   22.70    2.80
   0   8   5   26.40    1.70
   0   8   5   22.80    1.60
  -1  -8  -5  893.21   29.40
  -1  -8  -5  904.51   30.30
  -1  -8  -5  908.01   30.30
   1   8   5  952.90   28.40
   1   8   5  924.31   28.40
  -2  -8  -5    2.60    1.00
  -2  -8  -5    2.80    0.70
  -2  -8  -5    2.80    1.10
   2   8   5    2.70    0.70
   2   8   5    2.50    0.60
  -3  -8  -5    1.10    0.80
  -3  -8  -5    0.80    0.60
  -3  -8  -5    1.20    1.10
   3   8   5    1.50    0.60
   3   8   5    1.30    0.60
   3   8   5    0.70    0.50
  -4  -8  -5   25.60    2.30
  -4  -8  -5   23.80    2.00
   4   8   5   27.90    1.60
   4   8   5   22.70    1.50
  -5  -8  -5   83.09    3.70
  -5  -8  -5   78.59    4.10
  -5  -8  -5   76.59    3.70
   5   8   5   79.59    3.30
   5   8   5   81.19    3.20
  -6  -8  -5   65.69    3.10
  -6  -8  -5   62.59    3.20
   6   8   5   67.89    2.70
   6   8   5   64.39    2.70
  -7  -8  -5  223.98    7.60
  -7  -8  -5  221.28    7.90
   7   8   5  223.08    7.10
   7   8   5  216.88    7.30
  -8  -8  -5    0.90    0.50
   8   8   5    0.50    0.30
   3  -9  -5    1.20    0.70
  -3   9   5    1.50    0.40
   2  -9  -5  128.59    5.70
   2  -9  -5  115.99    5.10
  -2   9   5  115.89    4.30
  -2   9   5  122.89    4.40
   1  -9  -5    8.00    1.40
   1  -9  -5    8.80    1.70
  -1   9   5    9.20    1.00
  -1   9   5    8.10    1.00
   0  -9  -5  113.59    5.30
   0  -9  -5  135.49    6.30
   0  -9  -5  132.79    6.40
   0   9   5  134.89    4.90
   0   9   5  135.49    4.80
   0   9   5  138.19    5.00
  -1  -9  -5   61.99    3.50
  -1  -9  -5   67.09    4.50
  -1  -9  -5   66.29    4.10
   1   9   5   67.39    3.00
   1   9   5   65.09    2.80
  -2  -9  -5    5.30    1.20
  -2  -9  -5    4.40    1.30
   2   9   5    3.90    0.80
   2   9   5    4.30    0.80
  -3  -9  -5  229.88    9.20
  -3  -9  -5  208.48    7.80
  -3  -9  -5  233.28    8.80
   3   9   5  204.58    7.40
   3   9   5  229.48    7.60
   3   9   5  229.58    7.60
  -4  -9  -5  291.77   10.30
  -4  -9  -5  307.87   11.20
   4   9   5  314.87    9.90
   4   9   5  292.17    9.90
   4   9   5  311.07   10.00
  -5  -9  -5    2.70    0.80
  -5  -9  -5    3.30    1.00
   5   9   5    3.00    0.60
   5   9   5    4.20    0.70
  -6  -9  -5    9.40    1.10
  -6  -9  -5   10.20    1.10
   6   9   5    8.50    0.80
   6   9   5    8.50    0.80
  -7  -9  -5   10.40    1.00
  -7  -9  -5   10.90    1.00
   7   9   5   11.30    0.70
   7   9   5    9.50    0.80
   1 -10  -5   70.19    3.50
   1 -10  -5   76.89    3.80
  -1  10   5   69.69    2.80
  -1  10   5   76.89    2.80
   0 -10  -5    0.00    0.70
   0 -10  -5    0.60    0.90
   0  10   5    1.50    0.50
   0  10   5    0.30    0.50
   0  10   5    0.70    0.50
  -1 -10  -5    3.30    1.10
  -1 -10  -5    2.30    0.80
   1  10   5    2.40    0.60
   1  10   5    2.20    0.50
  -2 -10  -5   83.09    4.00
  -2 -10  -5   80.39    4.40
   2  10   5   83.09    3.20
   2  10   5   84.29    3.30
  -3 -10  -5  103.49    5.00
  -3 -10  -5   97.09    3.90
  -3 -10  -5  107.09    4.80
   3  10   5  109.59    3.90
   3  10   5  102.49    3.90
  -4 -10  -5   -0.40    0.40
  -4 -10  -5    0.20    0.70
   4  10   5    0.40    0.40
   4  10   5   -0.10    0.40
  -5 -10  -5   67.49    3.40
  -5 -10  -5   70.29    3.00
   5  10   5   75.79    2.70
   5  10   5   66.29    2.60
  -6 -10  -5   14.20    1.20
   6  10   5   14.30    0.90
   6  10   5   14.80    0.90
  -1 -11  -5   11.10    1.30
  -1 -11  -5    8.50    0.90
  -2 -11  -5    4.70    1.00
  -2 -11  -5    3.30    0.70
   2  11   5    3.90    0.60
   2  11   5    4.30    0.50
  -3 -11  -5   35.80    2.10
  -3 -11  -5   32.90    2.30
   3  11   5   36.30    1.50
   3  11   5   38.00    1.60
  -4 -11  -5   33.60    2.00
  -4 -11  -5   29.10    1.50
   4  11   5   30.10    1.40
   4  11   5   30.20    1.30
  -5 -11  -5   66.59    2.60
  -5 -11  -5   66.79    2.90
   5  11   5   69.89    2.40
   4  10  -6   44.50    1.70
   4  10  -6   41.80    1.70
  -4 -10   6   47.10    1.90
  -4 -10   6   41.90    2.00
   3  10  -6    8.60    0.80
   3  10  -6   10.20    0.80
   3  10  -6   10.80    1.00
  -3 -10   6    9.80    1.10
  -3 -10   6    9.80    0.90
   2  10  -6    5.30    0.70
   2  10  -6    5.30    0.60
   2  10  -6    5.70    0.50
  -2 -10   6    4.60    0.70
  -2 -10   6    6.10    0.90
   1  10  -6    8.00    0.60
   1  10  -6    7.80    0.80
  -1 -10   6    9.40    0.80
  -1 -10   6    9.60    1.10
   0  10  -6   58.59    2.30
   0  10  -6   58.99    2.10
   0 -10   6   61.49    2.70
   0 -10   6   60.89    2.80
   5   9  -6   15.30    0.90
   5   9  -6   12.40    0.80
   5   9  -6   14.10    1.00
   5   9  -6   14.00    0.90
  -5  -9   6   12.90    1.00
   4   9  -6   26.00    1.70
   4   9  -6   25.80    1.40
   4   9  -6   26.70    1.40
   4   9  -6   22.80    1.40
   4   9  -6   24.30    1.20
  -4  -9   6   26.00    1.60
   3   9  -6   56.79    2.20
   3   9  -6   54.89    2.40
   3   9  -6   56.69    2.50
   3   9  -6   53.99    2.70
   2   9  -6  341.47   10.90
   2   9  -6  323.17   10.50
   2   9  -6  338.07   10.90
   2   9  -6  323.97   10.70
   2   9  -6  320.97   11.00
  -2  -9   6  331.27   11.50
   1   9  -6  122.09    4.50
   1   9  -6  115.49    4.30
   1   9  -6  120.29    4.50
   1   9  -6  116.69    4.20
  -1  -9   6  120.59    5.10
  -1  -9   6  112.99    5.20
   0   9  -6   20.20    1.40
   0   9  -6   24.30    1.30
   0   9  -6   22.00    1.50
   0  -9   6   21.40    1.80
   0  -9   6   23.10    2.00
  -1   9  -6   65.19    2.60
  -1   9  -6   62.69    2.70
   1  -9   6   63.49    3.10
   1  -9   6   72.19    3.60
  -2   9  -6   -0.20    0.30
  -2   9  -6   -0.40    0.40
   2  -9   6    0.00    0.60
   6   8  -6   33.50    1.50
   6   8  -6   34.40    1.50
   6   8  -6   31.40    1.40
   6   8  -6   34.50    1.70
   6   8  -6   31.40    1.50
  -6  -8   6   36.40    1.90
   5   8  -6  225.58    7.60
   5   8  -6  234.58    7.90
   5   8  -6  222.58    7.50
   5   8  -6  224.48    7.40
   5   8  -6  235.68    7.70
   5   8  -6  231.88    7.50
   5   8  -6  231.88    8.20
  -5  -8   6  229.68    7.80
   4   8  -6    8.60    0.90
   4   8  -6    8.80    0.90
   4   8  -6    8.40    1.00
   4   8  -6    7.30    1.00
   4   8  -6    8.20    0.80
   4   8  -6    8.90    1.20
   4   8  -6    7.90    1.00
   3   8  -6    2.50    0.70
   3   8  -6    2.00    0.70
   3   8  -6    3.60    0.80
   3   8  -6    2.20    0.70
   3   8  -6    2.40    0.60
   3   8  -6    2.80    0.70
   3   8  -6    3.40    0.60
  -3  -8   6    3.80    1.00
   2   8  -6  158.08    5.60
   2   8  -6  163.68    6.00
   2   8  -6  158.88    5.60
   2   8  -6  160.68    6.20
   2   8  -6  167.48    6.00
   2   8  -6  154.08    5.80
   2   8  -6  153.38    5.70
   1   8  -6   21.30    1.90
   1   8  -6   20.90    1.70
   1   8  -6   20.70    1.50
   1   8  -6   20.40    1.60
   1   8  -6   22.10    2.30
   1   8  -6   20.00    1.60
   1   8  -6   22.00    1.60
  -1  -8   6   23.50    2.20
   0   8  -6  469.75   15.60
   0   8  -6  464.95   14.40
   0   8  -6  455.75   14.60
   0   8  -6  420.86   14.30
   0   8  -6  440.26   14.70
   0  -8   6  450.35   15.90
  -1   8  -6    0.80    0.60
  -1   8  -6    0.50    0.50
  -1   8  -6    1.40    0.60
  -1   8  -6    1.40    0.80
   1  -8   6    1.60    0.90
  -2   8  -6    1.80    0.50
  -2   8  -6    2.40    0.60
  -2   8  -6    2.20    0.60
   2  -8   6    2.00    0.70
   2  -8   6    2.60    1.00
   2  -8   6    2.00    1.00
  -3   8  -6   44.90    2.10
  -3   8  -6   51.69    2.10
   3  -8   6   50.19    2.90
   3  -8   6   51.29    2.80
   7   7  -6   53.09    2.10
   7   7  -6   58.39    2.10
   7   7  -6   57.09    2.10
  -7  -7   6   57.69    2.40
   6   7  -6   65.69    2.70
   6   7  -6   69.89    2.90
   6   7  -6   67.49    2.70
   6   7  -6   64.69    2.50
   6   7  -6   62.19    2.60
   6   7  -6   62.69    2.60
  -6  -7   6   69.99    3.20
   5   7  -6    0.50    0.40
   5   7  -6    0.40    0.40
   5   7  -6    1.10    0.50
   5   7  -6    0.60    0.60
   5   7  -6    0.50    0.40
   5   7  -6    0.60    0.50
   5   7  -6    0.70    0.40
  -5  -7   6    0.30    0.60
   4   7  -6   28.10    1.60
   4   7  -6   26.10    1.70
   4   7  -6   27.20    2.00
   4   7  -6   26.30    1.70
   4   7  -6   25.90    1.70
   4   7  -6   27.70    1.50
   4   7  -6   24.70    1.70
   4   7  -6   24.70    1.50
   3   7  -6  358.46   12.50
   3   7  -6  377.96   13.00
   3   7  -6  367.16   12.40
   3   7  -6  377.56   12.60
   3   7  -6  386.56   12.10
   3   7  -6  381.76   12.20
   3   7  -6  388.66   12.50
  -3  -7   6  402.86   14.60
   2   7  -6  320.47   10.50
   2   7  -6  303.47   10.70
   2   7  -6  309.67   10.00
   2   7  -6  305.57   11.10
   2   7  -6  315.17   10.30
   2   7  -6  298.27   10.40
   2   7  -6  295.17   10.00
   2   7  -6  303.77   10.40
   1   7  -6  367.96   11.90
   1   7  -6  371.56   12.30
   1   7  -6  389.86   13.20
   1   7  -6  376.66   12.30
   1   7  -6  370.86   12.50
   1   7  -6  360.26   12.00
   1   7  -6  365.56   11.90
   1   7  -6  345.17   12.10
  -1  -7   6  359.26   13.30
   0   7  -6   23.50    1.70
   0   7  -6   24.30    1.60
   0   7  -6   18.70    2.20
   0   7  -6   22.70    1.90
   0   7  -6   21.00    2.00
   0   7  -6   22.00    1.70
   0  -7   6   22.90    2.30
  -1   7  -6    3.10    1.00
  -1   7  -6    1.00    0.50
  -1   7  -6    1.20    0.60
  -1   7  -6    1.50    0.60
  -1   7  -6   -2.00    0.50
  -2   7  -6  205.78    7.00
  -2   7  -6  205.38    7.00
  -2   7  -6  202.88    7.90
  -2   7  -6  196.58    7.20
   2  -7   6  195.78    8.40
   2  -7   6  196.68    8.40
  -3   7  -6   52.19    2.50
  -3   7  -6   50.09    2.40
  -3   7  -6   53.29    2.40
   3  -7   6   52.49    3.30
   3  -7   6   52.49    3.50
  -4   7  -6    0.40    0.40
  -4   7  -6    0.90    0.40
   4  -7   6    0.80    0.70
   4  -7   6    0.50    0.70
   7   6  -6   39.80    1.90
   7   6  -6   38.70    1.70
   7   6  -6   35.50    1.60
   7   6  -6   38.80    1.70
   7   6  -6   36.40    1.60
   7   6  -6   39.00    1.70
   7   6  -6   36.80    1.60
  -7  -6   6   36.90    1.90
   6   6  -6    2.30    0.60
   6   6  -6    2.40    0.60
   6   6  -6    2.40    0.60
   6   6  -6    2.10    0.50
   6   6  -6    2.40    0.70
   6   6  -6    2.10    0.50
   6   6  -6    2.40    0.50
   5   6  -6    3.60    0.60
   5   6  -6    5.00    0.70
   5   6  -6    3.10    0.70
   5   6  -6    4.20    0.80
   5   6  -6    3.80    0.80
   5   6  -6    3.20    0.70
   5   6  -6    3.30    0.90
   4   6  -6  618.14   19.50
   4   6  -6  593.34   18.60
   4   6  -6  598.74   18.70
   4   6  -6  572.24   19.00
   4   6  -6  592.64   18.70
   4   6  -6  600.44   18.90
   4   6  -6  607.94   18.90
   4   6  -6  598.54   19.10
   3   6  -6   16.60    1.30
   3   6  -6   15.60    1.50
   3   6  -6   15.80    1.40
   3   6  -6   15.60    1.50
   3   6  -6   17.90    1.50
   3   6  -6   16.40    1.30
   3   6  -6   17.20    1.80
   3   6  -6   15.40    1.30
   2   6  -6   76.19    3.60
   2   6  -6   77.69    3.30
   2   6  -6   73.39    3.00
   2   6  -6   74.89    3.40
   2   6  -6   75.09    3.10
   2   6  -6   77.49    3.90
   2   6  -6   80.39    3.40
   2   6  -6   74.39    3.30
   1   6  -6  203.18    7.20
   1   6  -6  201.28    6.80
   1   6  -6  191.88    7.40
   1   6  -6  200.78    7.10
   1   6  -6  215.88    8.00
   1   6  -6  195.08    7.10
   1   6  -6  194.28    6.80
   1   6  -6  189.48    7.10
   0   6  -6    2.00    0.90
   0   6  -6    0.60    0.80
   0   6  -6    0.50    0.50
   0   6  -6    0.20    0.60
   0   6  -6    0.30    0.50
   0   6  -6    1.60    0.80
   0   6  -6    0.90    0.50
   0   6  -6    1.60    0.60
  -1   6  -6  495.25   15.90
  -1   6  -6  506.15   15.80
  -1   6  -6  471.75   16.00
  -1   6  -6  480.45   16.00
  -1   6  -6  498.25   17.00
  -1   6  -6  537.25   17.90
  -1   6  -6  488.75   16.10
  -2   6  -6   37.20    3.30
  -2   6  -6   32.90    1.90
  -2   6  -6   33.40    2.10
  -2   6  -6   34.80    2.60
  -2   6  -6   35.80    2.00
   2  -6   6   34.60    3.00
  -3   6  -6  127.49    5.00
  -3   6  -6  123.09    5.10
  -3   6  -6  138.19    5.00
   3  -6   6  139.79    6.60
  -4   6  -6    4.30    0.70
  -4   6  -6    3.20    0.70
   4  -6   6    3.60    1.20
   4  -6   6    2.80    1.00
  -5   6  -6   40.60    1.90
  -5   6  -6   43.20    2.00
   5  -6   6   44.10    2.80
   5  -6   6   40.10    2.00
   8   5  -6  232.28    7.00
   8   5  -6  215.18    7.00
  -8  -5   6  223.08    7.20
   7   5  -6    0.60    0.40
   7   5  -6    0.20    0.40
   7   5  -6    0.40    0.40
   7   5  -6    0.60    0.40
   7   5  -6    0.90    0.40
   7   5  -6    0.40    0.40
   6   5  -6   15.60    1.30
   6   5  -6   14.50    1.40
   6   5  -6   14.50    1.10
   6   5  -6   15.40    1.30
   6   5  -6   16.70    1.30
   6   5  -6   15.50    1.20
   6   5  -6   17.20    1.30
   5   5  -6  594.64   18.40
   5   5  -6  571.14   18.80
   5   5  -6  605.64   18.60
   5   5  -6  579.84   19.00
   5   5  -6  606.74   18.30
   5   5  -6  578.94   18.40
   5   5  -6  577.44   18.40
   5   5  -6  580.24   18.50
   4   5  -6    9.00    1.00
   4   5  -6   13.40    1.20
   4   5  -6   10.90    1.40
   4   5  -6    9.80    1.10
   4   5  -6   12.40    1.10
   4   5  -6    8.60    0.90
   4   5  -6   10.50    1.20
   3   5  -6  169.68    9.40
   3   5  -6  165.38   11.30
   3   5  -6  154.18    9.10
  -3  -5   6  165.98    9.50
  -3  -5   6  153.68   10.30
   2   5  -6   53.49    6.40
   2   5  -6   53.69    5.70
   2   5  -6   51.59    6.50
  -2  -5   6   47.80    5.00
  -2  -5   6   54.69    6.00
  -2  -5   6   57.69    6.70
   1   5  -6  184.58   10.90
   1   5  -6  184.98    9.80
  -1  -5   6  166.08    8.80
  -1  -5   6  180.98    9.50
   0   5  -6   43.30    5.30
   0   5  -6   49.99    5.70
   0   5  -6   43.40    5.70
   0  -5   6   44.50    5.70
   0  -5   6   43.60    5.10
  -1   5  -6  184.48   10.40
  -1   5  -6  181.18   10.40
  -1   5  -6  196.58   11.00
   1  -5   6  181.88    9.70
   1  -5   6  171.28    9.20
   1  -5   6  179.78   10.10
  -2   5  -6  374.86   12.70
  -2   5  -6  370.36   12.60
  -2   5  -6  444.76   14.90
  -2   5  -6  400.16   13.60
  -2   5  -6  361.86   12.80
  -2   5  -6  377.36   12.50
  -3   5  -6    0.90    0.50
  -3   5  -6    1.20    0.60
  -3   5  -6    0.40    0.80
  -3   5  -6    0.80    1.00
   3  -5   6    2.00    1.10
  -4   5  -6   23.30    2.90
  -4   5  -6   18.50    1.60
  -4   5  -6   20.50    1.50
   4  -5   6   21.20    1.90
   4  -5   6   20.20    2.60
  -5   5  -6   64.89    2.90
  -5   5  -6   66.69    2.80
   5  -5   6   65.89    3.10
   5  -5   6   66.69    4.00
  -6   5  -6   49.50    2.00
  -6   5  -6   52.49    2.10
   6  -5   6   49.50    2.30
   6  -5   6   48.10    2.80
   8   4  -6    0.70    0.30
   8   4  -6    1.20    0.30
   8   4  -6    1.20    0.30
  -8  -4   6    0.70    0.40
   7   4  -6   78.09    3.00
   7   4  -6   77.79    2.90
   7   4  -6   74.89    3.00
   7   4  -6   72.99    2.90
   7   4  -6   74.29    3.00
   7   4  -6   77.09    2.90
   6   4  -6  834.82   25.80
   6   4  -6  825.22   25.70
   6   4  -6  828.42   25.70
   6   4  -6  830.42   26.10
   6   4  -6  849.61   25.80
   6   4  -6  836.62   25.80
   6   4  -6  825.62   25.60
   5   4  -6    3.00    0.60
   5   4  -6    4.00    0.70
   5   4  -6    3.90    0.80
   5   4  -6    3.70    0.70
   5   4  -6    3.00    0.70
   5   4  -6    3.40    0.70
   5   4  -6    4.80    1.00
   5   4  -6    4.50    0.60
   4   4  -6    1.80    0.60
   4   4  -6    1.30    3.00
   4   4  -6    2.50    0.60
   4   4  -6    1.60    0.50
   4   4  -6    0.90    0.60
   4   4  -6    2.30    0.70
   4   4  -6    1.80    2.10
   4   4  -6    2.40    0.50
  -4  -4   6    3.10    2.40
  -4  -4   6    3.90    2.40
   3   4  -6    3.70    0.80
   3   4  -6    0.40    1.40
   3   4  -6    1.80    2.50
  -3  -4   6    1.40    1.40
  -3  -4   6    0.00    1.30
   2   4  -6  293.67   13.90
   2   4  -6  319.07   13.00
   2   4  -6  288.57   13.30
  -2  -4   6  304.67   12.90
  -2  -4   6  252.47   11.70
  -2  -4   6  288.17   13.30
   1   4  -6  428.06   17.20
   1   4  -6  414.66   16.70
   1   4  -6  436.46   17.70
  -1  -4   6  414.56   16.60
  -1  -4   6  415.36   16.30
   0   4  -6    7.50    1.70
   0   4  -6    5.90    2.40
   0   4  -6    7.20    2.20
   0  -4   6    6.20    2.60
   0  -4   6    6.10    2.00
   0  -4   6    6.00    1.80
  -1   4  -6   37.60    4.30
  -1   4  -6   47.80    5.70
  -1   4  -6   37.70    4.40
   1  -4   6   42.70    4.60
   1  -4   6   38.10    4.10
   1  -4   6   38.30    4.70
  -2   4  -6   76.69    7.60
  -2   4  -6   81.69    7.90
   2  -4   6   79.39    5.30
   2  -4   6   75.39    7.20
   2  -4   6   83.19    6.00
  -3   4  -6   69.99    4.50
  -3   4  -6   76.29    4.90
  -3   4  -6   65.29    3.20
  -3   4  -6   69.19    3.00
  -3   4  -6   66.49    9.70
  -3   4  -6   72.09    3.00
   3  -4   6   60.39    3.60
   3  -4   6   71.39    7.10
  -4   4  -6  317.67   12.10
  -4   4  -6  304.77   10.40
  -4   4  -6  317.87   10.30
  -4   4  -6  304.97   10.60
   4  -4   6  313.17   10.70
  -5   4  -6   73.29    3.10
  -5   4  -6   71.99    3.40
  -5   4  -6   73.79    3.20
   5  -4   6   74.19    3.50
   5  -4   6   71.39    4.30
  -6   4  -6    6.00    0.90
  -6   4  -6    5.20    0.70
   6  -4   6    5.70    0.90
   6  -4   6    4.80    1.20
  -7   4  -6   30.80    1.40
   7  -4   6   30.20    1.50
   8   3  -6   26.70    1.20
   8   3  -6   27.50    1.20
   8   3  -6   26.70    1.20
   8   3  -6   22.50    1.20
  -8  -3   6   26.70    1.30
   7   3  -6  519.05   16.70
   7   3  -6  542.95   16.50
   7   3  -6  501.25   16.70
   7   3  -6  530.65   16.70
   7   3  -6  540.65   16.60
   7   3  -6  547.95   16.60
   7   3  -6  544.55   16.50
  -7  -3   6  532.95   16.90
   6   3  -6    3.90    0.70
   6   3  -6    5.20    0.90
   6   3  -6    3.40    0.60
   6   3  -6    3.00    0.60
   6   3  -6    3.00    0.70
   6   3  -6    3.00    0.80
   6   3  -6    5.40    0.70
   6   3  -6    3.30    0.70
   5   3  -6   25.00    1.50
   5   3  -6   23.20    1.40
   5   3  -6   24.60    1.50
   5   3  -6   27.60    1.80
   5   3  -6   23.10    1.40
   5   3  -6   24.80    1.50
   5   3  -6   24.80    1.50
   4   3  -6   26.50    4.20
   4   3  -6   21.00    2.40
   4   3  -6   27.00    6.00
  -4  -3   6   23.10    3.30
  -4  -3   6   19.00    4.10
   3   3  -6  903.71   31.70
   3   3  -6  926.81   34.20
  -3  -3   6  893.61   31.20
  -3  -3   6  877.91   30.80
  -3  -3   6  931.31   32.60
   2   3  -6   -1.00    1.90
   2   3  -6   -1.50    1.20
   2   3  -6    1.30    0.40
  -2  -3   6    1.90    1.10
  -2  -3   6    0.00    1.00
  -2  -3   6    0.10    1.20
   1   3  -6  455.65   17.40
   1   3  -6  443.76   16.70
   1   3  -6  447.56   17.00
   1   3  -6  424.96   16.90
  -1  -3   6  449.76   16.70
  -1  -3   6  442.76   16.30
   0   3  -6  103.99    6.50
   0   3  -6  105.39    6.00
   0   3  -6  100.79    6.30
   0  -3   6  110.59    6.00
   0  -3   6  110.19    5.60
   0  -3   6   97.69    5.30
  -1   3  -6  499.35   19.60
  -1   3  -6  501.25   19.00
  -1   3  -6  504.45   18.60
  -1   3  -6  511.55   18.50
   1  -3   6  502.15   18.60
   1  -3   6  498.05   18.40
  -2   3  -6  318.87   14.10
  -2   3  -6  333.27   13.40
  -2   3  -6  327.47   14.70
   2  -3   6  342.77   13.90
   2  -3   6  305.57   13.60
  -3   3  -6  233.28   12.50
  -3   3  -6  253.57   12.00
  -3   3  -6  252.67   12.90
   3  -3   6  238.38   11.70
   3  -3   6  228.28   11.60
  -4   3  -6  282.77   11.30
  -4   3  -6  242.48    8.90
  -4   3  -6  253.57    8.60
  -4   3  -6  248.38   10.40
  -4   3  -6  259.67    8.80
   4  -3   6  260.37    9.00
  -5   3  -6    3.40    0.80
  -5   3  -6    2.10    0.90
  -5   3  -6    4.30    0.80
   5  -3   6    3.00    1.10
   5  -3   6    3.30    0.90
  -6   3  -6   58.89    2.70
  -6   3  -6   53.29    2.70
  -6   3  -6   53.89    2.40
   6  -3   6   50.39    3.40
   6  -3   6   50.49    2.80
   6  -3   6   57.29    2.90
  -7   3  -6   25.50    1.50
   7  -3   6   23.70    1.60
   8   2  -6    3.20    0.40
   8   2  -6    2.80    0.50
   8   2  -6    2.80    0.40
   8   2  -6    1.70    0.50
  -8  -2   6    2.20    0.50
   7   2  -6  131.49    4.60
   7   2  -6  122.19    4.50
   7   2  -6  125.19    4.60
   7   2  -6  128.39    4.70
   7   2  -6  134.19    4.70
   7   2  -6  136.19    4.60
   7   2  -6  132.79    4.80
   6   2  -6  736.63   22.80
   6   2  -6  736.33   22.80
   6   2  -6  730.03   22.60
   6   2  -6  718.33   23.00
   6   2  -6  739.73   22.60
   6   2  -6  715.73   22.60
   6   2  -6  718.53   22.90
   6   2  -6  755.42   22.70
   5   2  -6  366.06   11.80
   5   2  -6  361.16   11.80
   5   2  -6  378.06   12.10
   5   2  -6  371.56   11.90
   5   2  -6  366.36   11.90
   5   2  -6  379.96   12.00
   5   2  -6  362.16   12.20
   5   2  -6  370.96   11.90
   4   2  -6  188.88    9.70
   4   2  -6  189.18    9.60
   4   2  -6  173.08    9.90
  -4  -2   6  179.68   10.10
  -4  -2   6  184.48    9.50
   3   2  -6    1.60    2.30
   3   2  -6   -0.10    0.30
   3   2  -6    1.30    1.60
  -3  -2   6   -0.30    1.20
  -3  -2   6    1.00    1.50
  -3  -2   6    0.00    1.10
   2   2  -6  300.17   13.50
   2   2  -6  304.47   12.60
   2   2  -6  308.47   12.40
   2   2  -6  310.07   11.70
  -2  -2   6  306.17   12.90
  -2  -2   6  306.77   12.00
   1   2  -6 2153.88   68.49
   1   2  -6 2223.18   68.59
   1   2  -6 2166.88   67.89
   1   2  -6 2171.98   67.99
  -1  -2   6 2149.08   67.29
  -1  -2   6 2181.08   67.79
   0   2  -6  115.69    5.70
   0   2  -6  114.99    6.20
   0   2  -6  121.09    6.10
   0   2  -6  131.29    5.80
   0  -2   6  117.49    5.00
   0  -2   6  114.19    5.20
   0  -2   6  119.89    5.60
   0  -2   6  118.79    5.80
  -1   2  -6 1148.29   37.30
  -1   2  -6 1196.68   38.50
  -1   2  -6 1155.08   37.60
   1  -2   6 1126.69   37.30
   1  -2   6 1157.18   37.50
   1  -2   6 1129.39   36.60
  -2   2  -6  180.48    8.40
  -2   2  -6  172.98    9.20
  -2   2  -6  184.48    9.00
   2  -2   6  173.38    8.30
   2  -2   6  174.28    8.10
   2  -2   6  195.28    8.80
  -3   2  -6   33.60    4.80
  -3   2  -6   31.90    3.80
  -3   2  -6   26.80    4.00
   3  -2   6   31.40    3.80
   3  -2   6   26.10    3.30
   3  -2   6   26.90    3.70
  -4   2  -6  139.39    8.80
  -4   2  -6  163.88   10.20
   4  -2   6  144.49    9.50
   4  -2   6  170.48    9.50
  -5   2  -6  145.99    5.80
  -5   2  -6  143.89    5.60
  -5   2  -6  168.78    7.90
  -5   2  -6  145.59    5.30
   5  -2   6  146.29    5.70
   5  -2   6  149.29    5.90
  -6   2  -6  115.49    4.60
  -6   2  -6  127.79    4.80
  -6   2  -6  121.39    5.00
   6  -2   6  120.79    4.80
   6  -2   6  127.19    5.10
   6  -2   6  112.49    5.70
  -7   2  -6    2.50    0.70
  -7   2  -6    2.20    0.70
   7  -2   6    3.60    0.70
   7  -2   6    2.40    0.80
  -8   2  -6   10.50    0.80
   8  -2   6    9.60    0.80
   8   1  -6   21.10    1.10
   8   1  -6   21.90    1.00
   8   1  -6   20.90    1.10
  -8  -1   6   22.70    1.10
   7   1  -6  293.97    9.60
   7   1  -6  294.97    9.80
   7   1  -6  302.97    9.60
   7   1  -6  303.27    9.70
   7   1  -6  293.27    9.90
   7   1  -6  311.97    9.70
   6   1  -6   12.00    1.10
   6   1  -6   10.10    1.20
   6   1  -6   11.20    1.00
   6   1  -6    9.90    1.20
   6   1  -6   10.20    1.10
   6   1  -6   10.60    1.10
   6   1  -6   10.00    1.00
   5   1  -6   11.80    1.00
   5   1  -6   12.20    1.10
   5   1  -6   13.40    1.30
   5   1  -6   10.80    1.10
   5   1  -6   11.20    1.10
   5   1  -6   11.90    1.10
   5   1  -6   14.70    1.20
   4   1  -6  203.68   10.70
   4   1  -6  214.18   12.00
  -4  -1   6  203.28   10.60
  -4  -1   6  201.18   10.10
  -4  -1   6  190.18   10.30
   3   1  -6   37.10    4.50
   3   1  -6   26.10    3.80
   3   1  -6   26.00    3.00
   3   1  -6   22.20    2.60
  -3  -1   6   21.50    3.30
  -3  -1   6   21.00    3.10
   2   1  -6 3106.69   96.19
   2   1  -6 3114.99   96.59
   2   1  -6 3097.89   97.89
  -2  -1   6 3193.48   95.69
  -2  -1   6 3117.49   96.99
  -2  -1   6 3165.18   96.39
   1   1  -6  104.29    5.00
   1   1  -6  105.99    5.70
   1   1  -6  107.69    5.80
   1   1  -6  111.49    5.50
   1   1  -6  114.09    5.40
   1   1  -6  113.99    5.10
  -1  -1   6  108.69    4.90
  -1  -1   6  102.09    5.10
   0   1  -6   23.30    2.90
   0   1  -6   25.00    2.30
   0   1  -6   22.50    2.50
   0   1  -6   21.10    2.40
   0   1  -6   27.80    2.60
   0  -1   6   21.70    2.30
   0  -1   6   24.10    2.20
   0  -1   6   22.50    2.00
   0  -1   6   20.40    2.30
  -1   1  -6  180.08    8.30
  -1   1  -6  175.78    7.50
  -1   1  -6  183.08    7.70
  -1   1  -6  181.28    7.60
   1  -1   6  185.58    7.30
   1  -1   6  180.68    7.70
   1  -1   6  182.18    7.60
   1  -1   6  180.98    7.00
  -2   1  -6    1.60    1.10
  -2   1  -6    0.70    1.10
   2  -1   6    0.80    1.00
   2  -1   6    2.00    1.10
   2  -1   6    0.70    0.90
   2  -1   6    0.20    0.80
  -3   1  -6  642.64   22.60
  -3   1  -6  620.94   22.40
  -3   1  -6  653.13   23.90
   3  -1   6  617.84   22.70
   3  -1   6  642.24   22.40
   3  -1   6  631.24   22.90
  -4   1  -6  526.85   19.60
  -4   1  -6  524.35   21.60
  -4   1  -6  541.65   20.80
   4  -1   6  523.35   21.80
   4  -1   6  530.35   20.70
   4  -1   6  491.35   20.20
  -5   1  -6  133.79    6.50
  -5   1  -6  117.79    4.90
  -5   1  -6  116.69    4.60
   5  -1   6  120.19    4.80
  -6   1  -6    2.50    0.80
  -6   1  -6    3.90    0.80
   6  -1   6    1.90    0.80
   6  -1   6    1.40    0.70
  -7   1  -6   37.30    2.00
  -7   1  -6   34.60    2.10
   7  -1   6   36.90    2.20
   7  -1   6   36.40    2.10
  -8   1  -6   71.19    2.90
  -8   1  -6   71.19    2.80
   8  -1   6   68.49    2.90
   8  -1   6   73.39    2.90
   8   0  -6  130.99    4.30
  -8   0   6  120.39    4.30
  -8   0   6  126.99    4.10
   7   0  -6    1.50    0.60
   7   0  -6    1.50    0.40
   7   0  -6    0.50    0.40
   7   0  -6    0.00    0.50
   7   0  -6    1.00    0.40
   7   0  -6    0.50    0.40
   7   0  -6    0.30    0.50
  -7   0   6    1.00    0.50
   6   0  -6    3.30    0.70
   6   0  -6    3.50    0.60
   6   0  -6    4.40    0.80
   6   0  -6    3.50    0.80
   6   0  -6    2.60    0.60
   6   0  -6    3.80    0.70
   6   0  -6    4.30    0.70
   6   0  -6    2.10    0.80
   5   0  -6   55.79    2.50
   5   0  -6   55.69    2.50
   5   0  -6   58.39    2.50
   5   0  -6   59.19    2.70
   5   0  -6   57.29    2.90
   5   0  -6   55.59    2.60
   5   0  -6   57.89    2.40
   5   0  -6   57.19    2.50
   4   0  -6  398.76   17.10
   4   0  -6  423.16   18.90
   4   0  -6  413.66   17.40
  -4   0   6  393.86   17.10
  -4   0   6  407.16   16.70
   3   0  -6  824.12   29.50
   3   0  -6  856.51   30.80
   3   0  -6  828.32   29.10
  -3   0   6  847.32   28.70
  -3   0   6  865.51   29.20
  -3   0   6  807.42   28.60
   2   0  -6   48.90    4.40
   2   0  -6   50.59    4.50
   2   0  -6   52.19    3.90
  -2   0   6   58.99    3.80
  -2   0   6   52.89    3.60
   1   0  -6  412.36   14.60
   1   0  -6  420.76   14.50
   1   0  -6  398.66   13.60
   1   0  -6  406.06   14.40
   1   0  -6  387.46   13.60
   1   0  -6  393.66   15.10
  -1   0   6  407.86   14.40
   0   0  -6  106.89    5.20
   0   0  -6  112.19    4.90
   0   0  -6  104.89    5.00
   0   0  -6  107.39    4.70
   0   0  -6  109.09    4.80
   0   0  -6  115.59    5.10
   0   0  -6  106.89    5.20
   0   0  -6  104.29    5.20
  -1   0  -6 1905.51   57.29
  -1   0  -6 1848.22   57.49
  -1   0  -6 1781.92   56.39
  -1   0  -6 1875.21   57.09
   1   0   6 1806.72   57.29
   1   0   6 1822.72   56.49
  -2   0  -6 1250.17   38.60
  -2   0  -6 1224.98   38.70
  -2   0  -6 1203.68   38.10
  -2   0  -6 1196.78   39.30
   2   0   6 1201.38   37.80
   2   0   6 1192.88   38.10
   2   0   6 1207.88   39.00
   2   0   6 1173.08   38.70
   2   0   6 1194.58   37.90
  -3   0  -6  764.12   27.50
  -3   0  -6  787.42   26.10
  -3   0  -6  758.82   26.10
  -3   0  -6  757.32   26.20
   3   0   6  745.93   25.40
   3   0   6  793.62   26.60
   3   0   6  775.12   25.30
   3   0   6  793.62   26.90
   3   0   6  772.82   25.70
  -4   0  -6   10.40    1.70
  -4   0  -6   12.50    2.50
  -4   0  -6   17.60    2.80
   4   0   6   12.50    2.80
   4   0   6   12.90    2.80
   4   0   6   13.50    1.40
  -5   0  -6    0.50    2.70
   5   0   6   -1.90    2.00
  -6   0  -6   67.79    3.50
  -6   0  -6   72.59    3.50
  -6   0  -6   74.09    3.20
   6   0   6   74.69    3.40
   6   0   6   69.79    3.40
  -7   0  -6  198.28    6.70
  -7   0  -6  184.28    7.00
   7   0   6  192.48    6.90
   7   0   6  182.28    6.90
  -8   0  -6   11.00    1.20
  -8   0  -6   10.20    1.00
   8   0   6   11.30    1.10
   8   0   6    9.40    1.00
   7  -1  -6   98.39    4.00
   7  -1  -6  105.09    3.80
   7  -1  -6   98.99    3.60
   7  -1  -6  107.49    3.80
  -7   1   6   94.39    3.60
   6  -1  -6   42.50    2.50
   6  -1  -6   43.80    2.10
   6  -1  -6   47.20    2.10
   6  -1  -6   42.00    2.20
   6  -1  -6   45.70    2.10
   6  -1  -6   44.10    2.00
   6  -1  -6   45.10    2.30
  -6   1   6   45.20    2.20
   5  -1  -6    6.20    1.10
   5  -1  -6    8.30    0.90
   5  -1  -6    6.60    0.90
   5  -1  -6    7.90    1.00
   5  -1  -6    8.10    0.90
   5  -1  -6    8.60    1.00
   5  -1  -6    8.00    0.90
   5  -1  -6    8.00    0.90
   4  -1  -6  475.75   20.80
   4  -1  -6  479.05   19.20
   4  -1  -6  483.85   20.10
  -4   1   6  458.55   18.70
  -4   1   6  464.55   19.40
   3  -1  -6   13.10    3.20
   3  -1  -6    8.80    2.10
   3  -1  -6    8.00    2.50
  -3   1   6   13.80    2.70
  -3   1   6    6.90    1.80
   2  -1  -6   -1.50    1.10
   2  -1  -6   -0.90    1.20
   2  -1  -6    0.20    0.30
  -2   1   6    0.70    1.00
  -2   1   6    0.90    1.00
   1  -1  -6   20.60    2.60
   1  -1  -6   19.40    2.40
   1  -1  -6   21.00    2.50
   1  -1  -6   19.70    3.00
  -1   1   6   20.00    2.40
  -1   1   6   23.20    2.30
   0  -1  -6 1243.88   39.30
   0  -1  -6 1285.77   38.60
   0  -1  -6 1282.07   39.30
   0  -1  -6 1236.58   39.80
   0   1   6 1213.58   38.60
   0   1   6 1199.58   40.00
  -1  -1  -6 2069.99   62.99
  -1  -1  -6 2095.79   63.09
  -1  -1  -6 2075.29   62.39
  -1  -1  -6 2035.70   62.49
   1   1   6 2000.30   63.19
   1   1   6 1942.01   62.49
   1   1   6 1973.10   62.59
  -2  -1  -6  148.69    6.40
  -2  -1  -6  149.49    7.00
  -2  -1  -6  144.19    7.00
   2   1   6  149.39    7.10
   2   1   6  144.09    6.50
  -3  -1  -6   25.80    3.60
  -3  -1  -6   17.90    2.50
  -3  -1  -6   18.00    2.50
   3   1   6   17.00    2.30
   3   1   6   17.90    2.90
   3   1   6   17.80    2.80
   3   1   6   18.60    2.70
   3   1   6   16.00    2.40
  -4  -1  -6  237.28   12.40
  -4  -1  -6  268.07   11.30
   4   1   6  262.47   11.60
   4   1   6  254.27   11.10
   4   1   6  271.57   11.60
  -5  -1  -6  397.36   16.10
  -5  -1  -6  367.76   17.80
   5   1   6  416.66   16.30
   5   1   6  394.66   17.40
  -6  -1  -6  190.88    7.30
  -6  -1  -6  189.08    6.70
  -6  -1  -6  197.08    7.20
   6   1   6  192.18    7.00
   6   1   6  188.08    6.70
  -7  -1  -6   36.50    2.30
  -7  -1  -6   32.90    1.90
  -7  -1  -6   33.00    2.30
   7   1   6   33.70    2.20
   7   1   6   33.10    2.10
   7   1   6   36.40    1.90
  -8  -1  -6   20.90    1.30
  -8  -1  -6   22.40    1.60
   8   1   6   22.10    1.50
   8   1   6   19.00    1.20
   7  -2  -6   10.30    1.00
   7  -2  -6    9.20    0.90
   7  -2  -6   10.20    0.90
  -7   2   6    9.90    0.80
   6  -2  -6   25.90    1.60
   6  -2  -6   25.00    1.40
   6  -2  -6   25.40    1.40
   6  -2  -6   24.30    1.60
   6  -2  -6   25.20    1.50
   6  -2  -6   23.00    1.30
   6  -2  -6   24.90    1.80
   5  -2  -6  323.57   10.90
   5  -2  -6  330.27   10.80
   5  -2  -6  341.27   11.50
   5  -2  -6  350.06   10.90
   5  -2  -6  343.97   11.10
   5  -2  -6  318.67   10.70
   5  -2  -6  336.87   11.10
   5  -2  -6  337.17   11.60
   4  -2  -6  102.19    3.70
   4  -2  -6   98.99    4.20
   4  -2  -6   96.99    3.70
   4  -2  -6   99.09    3.90
   4  -2  -6  108.19   11.10
   4  -2  -6   97.59    3.90
   4  -2  -6   96.39    3.80
   4  -2  -6  100.59    3.80
  -4   2   6  105.79    6.90
  -4   2   6  103.59    8.90
   3  -2  -6  126.89    8.40
   3  -2  -6  128.29    7.50
   3  -2  -6  116.49    6.50
  -3   2   6  124.09    7.50
  -3   2   6  118.79    6.80
  -3   2   6  122.59    9.00
   2  -2  -6  231.28   11.40
   2  -2  -6  242.38   10.70
   2  -2  -6  254.67   10.90
  -2   2   6  254.47   10.80
  -2   2   6  248.18   11.80
  -2   2   6  241.28    9.90
   1  -2  -6   12.70    2.20
   1  -2  -6   10.60    1.80
   1  -2  -6   11.60    2.50
   1  -2  -6   12.30    1.80
  -1   2   6    9.90    1.70
  -1   2   6   11.70    1.60
  -1   2   6    9.90    2.40
   0  -2  -6  244.08    9.80
   0  -2  -6  229.38    8.40
   0  -2  -6  248.38    9.40
   0  -2  -6  244.78    9.90
   0   2   6  234.48    8.90
   0   2   6  232.88   10.40
  -1  -2  -6  154.78    7.20
  -1  -2  -6  162.68    7.00
  -1  -2  -6  157.68    6.50
  -1  -2  -6  153.28    7.20
   1   2   6  149.29    7.30
   1   2   6  153.28    6.90
  -2  -2  -6 1125.29   35.80
  -2  -2  -6 1097.29   35.60
  -2  -2  -6 1106.79   35.40
  -2  -2  -6 1115.99   35.40
   2   2   6 1070.79   35.90
   2   2   6 1075.89   35.80
   2   2   6 1099.49   35.70
  -3  -2  -6 2344.07   71.69
  -3  -2  -6 2313.57   71.89
  -3  -2  -6 2288.57   71.29
   3   2   6 2206.38   71.09
   3   2   6 2250.27   71.19
   3   2   6 2261.67   70.09
   3   2   6 2270.17   70.49
   3   2   6 2324.87   71.99
  -4  -2  -6   72.79    6.90
  -4  -2  -6   80.89    5.40
  -4  -2  -6   69.29    4.90
   4   2   6   83.39    4.40
   4   2   6   77.19    5.00
   4   2   6   78.49    5.40
   4   2   6   72.59    5.50
   4   2   6   78.89    4.60
  -5  -2  -6  127.49    7.40
  -5  -2  -6  101.89    9.20
   5   2   6  131.39    7.60
   5   2   6  114.39    8.10
  -6  -2  -6  140.49    5.70
  -6  -2  -6  139.49    5.40
   6   2   6  126.49    5.20
   6   2   6  131.89    5.00
  -7  -2  -6   46.80    2.80
  -7  -2  -6   47.00    2.30
  -7  -2  -6   42.20    2.60
   7   2   6   46.30    2.50
   7   2   6   45.90    2.30
  -8  -2  -6   30.70    1.90
  -8  -2  -6   26.70    1.50
  -8  -2  -6   25.30    1.80
   8   2   6   28.20    1.70
   8   2   6   28.10    1.60
  -9  -2  -6    0.50    0.40
   9   2   6    0.20    0.40
   7  -3  -6   18.70    1.00
   7  -3  -6   16.40    1.10
  -7   3   6   18.60    1.00
  -7   3   6   19.00    1.00
   6  -3  -6   48.70    2.20
   6  -3  -6   47.90    2.10
   6  -3  -6   42.10    2.40
   6  -3  -6   46.50    2.20
   6  -3  -6   50.69    2.50
  -6   3   6   47.60    2.10
   5  -3  -6   18.60    1.40
   5  -3  -6   17.90    1.50
   5  -3  -6   19.50    1.90
   5  -3  -6   18.50    1.80
   5  -3  -6   20.30    1.50
   5  -3  -6   19.30    1.30
   5  -3  -6   18.80    1.30
   4  -3  -6   51.49    2.50
   4  -3  -6   50.09    2.30
   4  -3  -6   51.19    2.30
   4  -3  -6   52.19    2.80
   4  -3  -6   56.09    3.00
   4  -3  -6   56.99    2.30
   4  -3  -6   54.59    2.50
   4  -3  -6   50.19    2.40
   3  -3  -6   57.59    4.30
   3  -3  -6   48.60    5.20
   3  -3  -6   51.09    5.30
  -3   3   6   51.59    7.10
  -3   3   6   49.30    5.50
  -3   3   6   54.19    5.10
   2  -3  -6   64.09    5.70
   2  -3  -6   57.39    5.90
   2  -3  -6   58.49    5.40
  -2   3   6   56.79    5.30
  -2   3   6   50.19    4.30
  -2   3   6   59.89    6.80
   1  -3  -6   18.40    2.60
   1  -3  -6   14.50    2.00
   1  -3  -6   15.30    2.80
   1  -3  -6   20.60    2.80
  -1   3   6   19.60    2.70
  -1   3   6   19.50    3.00
   0  -3  -6 1067.79   35.10
   0  -3  -6 1069.69   34.40
   0  -3  -6 1053.79   34.60
   0   3   6 1054.19   36.00
   0   3   6 1017.30   33.80
   0   3   6 1027.90   34.40
  -1  -3  -6  130.99    5.70
  -1  -3  -6  129.59    6.40
  -1  -3  -6  125.99    6.40
  -1  -3  -6  127.39    6.50
   1   3   6  120.89    6.00
   1   3   6  115.69    5.20
   1   3   6  116.29    6.80
  -2  -3  -6 2664.23   81.89
  -2  -3  -6 2651.14   82.29
  -2  -3  -6 2749.52   82.29
   2   3   6 2621.84   83.29
   2   3   6 2523.25   82.29
   2   3   6 2689.83   82.49
  -3  -3  -6   -0.10    0.40
  -3  -3  -6    3.60    1.40
  -3  -3  -6    0.90    1.00
  -3  -3  -6   -0.10    1.20
   3   3   6    1.60    1.10
   3   3   6    0.60    1.30
   3   3   6   -2.00    1.80
  -4  -3  -6  152.58    8.10
  -4  -3  -6  145.09    8.50
  -4  -3  -6  146.49    7.90
   4   3   6  151.28    8.40
   4   3   6  155.48    8.20
   4   3   6  130.49    6.10
   4   3   6  158.98    7.10
   4   3   6  161.58    6.60
  -5  -3  -6 1105.49   37.70
  -5  -3  -6 1026.90   38.70
   5   3   6 1071.69   37.90
   5   3   6 1162.88   38.00
  -6  -3  -6    0.30    0.70
  -6  -3  -6    1.20    0.80
   6   3   6    1.20    0.60
   6   3   6   -0.10    0.40
  -7  -3  -6    9.30    1.40
  -7  -3  -6    8.80    1.20
   7   3   6   11.30    1.20
   7   3   6    9.20    1.20
  -8  -3  -6   36.90    2.30
  -8  -3  -6   40.00    2.20
   8   3   6   43.40    2.00
   8   3   6   36.50    2.00
  -9  -3  -6   26.30    1.40
   9   3   6   22.40    1.20
   9   3   6   25.30    1.20
   6  -4  -6    7.10    0.90
   6  -4  -6    6.30    0.70
   6  -4  -6    6.80    0.90
   6  -4  -6    6.80    0.70
  -6   4   6    7.80    0.70
  -6   4   6    8.50    0.90
   5  -4  -6   75.19    3.20
   5  -4  -6   75.39    3.60
   5  -4  -6   75.39    3.40
   5  -4  -6   74.99    3.10
   5  -4  -6   72.99    3.10
  -5   4   6   72.99    2.90
   4  -4  -6    0.20    0.50
   4  -4  -6    2.20    0.90
   4  -4  -6    0.50    0.60
   4  -4  -6    0.40    0.50
   4  -4  -6    0.50    0.50
   4  -4  -6    0.00    0.50
   4  -4  -6    0.40    0.50
  -4   4   6    0.80    0.50
   3  -4  -6    4.40    0.70
   3  -4  -6    5.00    1.00
   3  -4  -6    4.80    0.80
   3  -4  -6    3.90    0.80
   3  -4  -6    7.60    3.90
   3  -4  -6    4.90    0.70
   3  -4  -6    4.50    0.90
   3  -4  -6    3.90    0.80
   3  -4  -6    5.10    1.50
   2  -4  -6  103.39    8.60
   2  -4  -6  113.69    7.90
   2  -4  -6  111.39    7.10
  -2   4   6  109.29    7.20
  -2   4   6  113.89    9.50
   1  -4  -6  687.63   23.90
   1  -4  -6  682.33   24.90
   1  -4  -6  713.43   25.30
  -1   4   6  657.53   24.20
  -1   4   6  664.03   26.70
   0  -4  -6   44.10    4.50
   0  -4  -6   51.59    5.00
   0  -4  -6   46.90    4.40
   0   4   6   41.90    5.30
   0   4   6   43.30    4.60
   0   4   6   40.20    3.90
  -1  -4  -6    2.70    1.40
  -1  -4  -6    4.60    1.80
  -1  -4  -6    9.20    2.40
  -1  -4  -6    4.90    0.90
   1   4   6    4.60    1.30
   1   4   6    3.10    1.70
   1   4   6    3.20    1.50
  -2  -4  -6   14.80    2.60
  -2  -4  -6   16.60    2.70
  -2  -4  -6   15.30    2.20
   2   4   6   14.30    2.80
   2   4   6   16.30    2.70
   2   4   6   13.30    2.80
  -3  -4  -6  847.02   28.80
  -3  -4  -6  865.91   29.20
  -3  -4  -6  851.61   29.40
   3   4   6  835.72   30.60
   3   4   6  845.62   29.50
   3   4   6  834.02   29.20
  -4  -4  -6 2545.35   83.39
  -4  -4  -6 2684.43   83.89
  -4  -4  -6 2721.73   84.09
   4   4   6 2553.74   84.59
   4   4   6 2725.93   84.19
   4   4   6 2696.43   83.89
  -5  -4  -6  144.69    8.50
  -5  -4  -6  148.59    8.70
   5   4   6  136.89    8.20
   5   4   6  143.49    8.60
  -6  -4  -6    7.30    1.10
  -6  -4  -6    4.90    1.00
  -6  -4  -6    5.80    1.20
   6   4   6    7.00    1.00
   6   4   6    5.20    0.90
   6   4   6    5.50    0.80
  -7  -4  -6  155.98    6.10
  -7  -4  -6  168.58    6.60
   7   4   6  164.98    5.90
   7   4   6  149.69    5.90
   7   4   6  166.88    5.60
  -8  -4  -6   22.00    1.60
  -8  -4  -6   16.90    1.60
   8   4   6   21.10    1.40
   8   4   6   17.90    1.30
  -9  -4  -6    1.90    0.60
  -9  -4  -6    1.30    0.50
   9   4   6    2.70    0.40
   6  -5  -6   82.29    3.20
   6  -5  -6   89.89    3.20
  -6   5   6   84.19    3.10
  -6   5   6   81.79    2.90
   5  -5  -6    0.40    0.50
   5  -5  -6    0.30    0.50
   5  -5  -6    0.00    0.40
  -5   5   6    0.30    0.50
  -5   5   6   -0.10    0.40
   4  -5  -6    2.10    1.00
   4  -5  -6    4.80    1.40
   4  -5  -6    3.00    0.70
   4  -5  -6    3.30    0.80
   4  -5  -6    2.60    0.90
   4  -5  -6    2.40    1.00
   4  -5  -6    2.20    0.80
  -4   5   6    3.80    0.70
   3  -5  -6  100.29    5.60
   3  -5  -6  100.29    4.00
   3  -5  -6  105.19    4.60
   3  -5  -6   99.89    4.10
   3  -5  -6   98.69    3.80
   3  -5  -6  102.69    4.10
   3  -5  -6  105.89    4.40
   2  -5  -6   51.99    2.80
   2  -5  -6   50.79    2.50
   2  -5  -6   55.69    6.50
   2  -5  -6   57.79    4.00
   2  -5  -6   57.39    6.80
   2  -5  -6   55.09    2.70
  -2   5   6   56.89    7.10
  -2   5   6   60.99    4.10
  -2   5   6   52.89    7.00
   1  -5  -6    8.70    1.70
   1  -5  -6    4.20    2.50
   1  -5  -6    5.50    2.50
  -1   5   6    5.30    3.90
  -1   5   6    5.30    2.00
  -1   5   6    4.10    2.00
   0  -5  -6   14.20    2.80
   0  -5  -6   13.80    2.90
   0  -5  -6    5.20    2.40
   0   5   6   13.90    2.60
   0   5   6   16.20    2.70
   0   5   6   10.00    2.20
  -1  -5  -6  233.48   10.70
  -1  -5  -6  221.78   10.80
  -1  -5  -6  237.68   10.80
   1   5   6  239.68   11.10
   1   5   6  210.38    9.80
   1   5   6  230.18   12.30
  -2  -5  -6   81.79    5.70
  -2  -5  -6   92.69    5.90
  -2  -5  -6   81.99    5.80
   2   5   6   79.49    6.90
   2   5   6   82.19    6.90
   2   5   6   78.89    5.50
  -3  -5  -6  121.09    7.10
  -3  -5  -6  124.69    7.50
  -3  -5  -6  131.99    8.00
   3   5   6  129.59    7.50
   3   5   6  137.49    9.00
   3   5   6  134.59    7.00
  -4  -5  -6  432.76   17.60
  -4  -5  -6  420.56   17.80
   4   5   6  417.86   18.00
   4   5   6  465.75   19.60
  -5  -5  -6  269.57    9.60
  -5  -5  -6  274.47    9.40
   5   5   6  267.07    8.80
   5   5   6  265.17    9.00
  -6  -5  -6   45.80    2.80
  -6  -5  -6   44.40    2.50
  -6  -5  -6   44.10    2.40
   6   5   6   47.60    2.20
   6   5   6   46.50    2.30
  -7  -5  -6    5.20    1.10
  -7  -5  -6    5.60    0.90
  -7  -5  -6    5.20    1.00
   7   5   6    5.30    0.80
   7   5   6    6.30    0.90
   7   5   6    5.50    1.00
  -8  -5  -6    0.10    0.50
  -8  -5  -6    1.60    0.70
   8   5   6   -0.10    0.40
   8   5   6    0.50    0.50
  -9  -5  -6   75.19    2.80
  -9  -5  -6   72.59    2.90
   9   5   6   73.79    2.70
   5  -6  -6    9.30    1.00
   5  -6  -6    9.20    0.90
  -5   6   6    7.20    0.90
  -5   6   6    9.70    0.90
  -5   6   6    8.20    0.70
   4  -6  -6  120.29    5.00
   4  -6  -6  118.39    5.90
   4  -6  -6  121.39    4.50
   4  -6  -6  127.79    4.80
  -4   6   6  125.09    4.70
  -4   6   6  117.99    4.30
   3  -6  -6   10.40    1.00
   3  -6  -6   10.60    1.40
   3  -6  -6   10.60    2.00
   3  -6  -6   12.20    1.40
   3  -6  -6    9.10    1.10
  -3   6   6   10.40    1.20
   2  -6  -6   25.10    1.90
   2  -6  -6   22.40    1.80
   2  -6  -6   24.10    1.60
   2  -6  -6   23.20    2.60
   2  -6  -6   22.60    2.60
   2  -6  -6   23.60    1.50
  -2   6   6   22.10    1.50
   1  -6  -6  175.88    7.60
   1  -6  -6  176.48    7.90
   1  -6  -6  176.68    6.10
   1  -6  -6  170.78    6.50
   1  -6  -6  168.68    6.00
   1  -6  -6  191.88   10.80
  -1   6   6  163.18    6.10
   0  -6  -6   -1.10    3.50
   0  -6  -6    1.50    1.90
   0  -6  -6    2.30    2.50
   0   6   6    0.40    2.60
   0   6   6    1.10    1.40
   0   6   6    2.10    1.90
  -1  -6  -6  279.97   13.50
  -1  -6  -6  309.47   13.50
   1   6   6  286.27   12.80
   1   6   6  298.67   15.20
   1   6   6  279.97   13.20
  -2  -6  -6   62.59    4.20
  -2  -6  -6   62.99    6.20
  -2  -6  -6   71.79    6.40
   2   6   6   74.79    7.20
   2   6   6   60.09    7.40
  -3  -6  -6   38.90    4.50
  -3  -6  -6   44.00    5.30
   3   6   6   43.00    6.30
   3   6   6   45.40    5.30
  -4  -6  -6  111.69    7.50
  -4  -6  -6  101.79    8.50
  -4  -6  -6  128.59    5.40
   4   6   6  109.79    8.40
   4   6   6  112.19    4.70
   4   6   6  119.69    9.20
  -5  -6  -6  125.79    5.20
  -5  -6  -6  125.39    5.50
  -5  -6  -6  125.89    5.00
   5   6   6  117.09    4.60
   5   6   6  123.09    4.50
   5   6   6  115.09    4.40
  -6  -6  -6  233.88    8.00
  -6  -6  -6  212.68    8.30
   6   6   6  219.78    7.40
   6   6   6  212.98    7.60
  -7  -6  -6    0.00    0.60
  -7  -6  -6   -0.10    0.70
  -7  -6  -6    1.10    0.70
   7   6   6    0.40    0.40
   7   6   6   -0.10    0.40
  -8  -6  -6   25.60    1.80
  -8  -6  -6   26.10    1.60
   8   6   6   29.60    1.40
   8   6   6   27.00    1.50
   4  -7  -6   89.79    3.70
   4  -7  -6   86.59    4.40
  -4   7   6   89.29    3.30
  -4   7   6   87.39    3.40
   3  -7  -6    1.10    1.00
   3  -7  -6    1.20    0.70
  -3   7   6    0.80    0.50
   2  -7  -6   60.29    4.20
   2  -7  -6   63.39    3.20
   2  -7  -6   64.49    4.00
   2  -7  -6   63.19    2.90
   2  -7  -6   64.29    2.70
  -2   7   6   65.89    2.90
   1  -7  -6    5.80    1.50
   1  -7  -6    6.40    1.20
   1  -7  -6    5.80    1.50
   1  -7  -6    6.50    0.90
  -1   7   6    7.50    1.00
   0  -7  -6   86.89    3.50
   0  -7  -6   85.69    4.80
   0  -7  -6   82.79    4.90
   0   7   6   85.69    3.50
  -1  -7  -6  126.29    6.10
  -1  -7  -6  116.59    4.50
  -1  -7  -6  127.59    6.30
  -1  -7  -6  122.39    5.50
  -1  -7  -6  128.89    4.60
   1   7   6  118.39    4.60
  -2  -7  -6   67.69    4.00
  -2  -7  -6   63.09    3.60
  -2  -7  -6   64.29    2.80
   2   7   6   59.29    2.70
  -3  -7  -6  234.68    9.60
  -3  -7  -6  240.68    8.10
  -3  -7  -6  234.28    8.40
  -3  -7  -6  240.08    9.10
   3   7   6  241.58    8.00
  -4  -7  -6   81.09    4.30
  -4  -7  -6   82.29    3.70
   4   7   6   81.09    3.30
   4   7   6   82.79    3.30
  -5  -7  -6  313.77   10.50
  -5  -7  -6  288.57   10.60
  -5  -7  -6  311.77   11.20
   5   7   6  314.27   10.00
   5   7   6  288.17   10.00
   5   7   6  308.07    9.90
  -6  -7  -6   81.39    3.70
  -6  -7  -6   78.79    3.90
   6   7   6   81.49    3.30
   6   7   6   82.29    3.10
   6   7   6   77.69    3.30
  -7  -7  -6   11.80    1.30
  -7  -7  -6   14.70    1.60
   7   7   6   14.50    1.20
   7   7   6   13.50    1.10
  -8  -7  -6   34.10    2.00
   8   7   6   33.70    1.60
   8   7   6   40.50    1.60
   3  -8  -6  187.38    6.50
   3  -8  -6  182.38    7.60
  -3   8   6  187.28    6.40
  -3   8   6  186.38    6.30
   2  -8  -6   13.30    1.80
   2  -8  -6   13.80    1.40
   2  -8  -6   13.80    2.10
  -2   8   6   12.30    1.20
  -2   8   6   14.40    1.30
   1  -8  -6   21.90    2.70
   1  -8  -6   21.50    1.60
   1  -8  -6   24.70    2.40
   1  -8  -6   22.60    1.80
  -1   8   6   22.10    1.50
  -1   8   6   22.00    1.80
   0  -8  -6   52.29    3.80
   0  -8  -6   48.60    2.40
   0  -8  -6   51.39    3.60
   0   8   6   53.09    2.80
   0   8   6   52.79    2.60
  -1  -8  -6   43.10    3.50
  -1  -8  -6   40.20    2.80
  -1  -8  -6   45.10    3.40
   1   8   6   39.60    2.20
  -2  -8  -6  360.86   13.40
  -2  -8  -6  343.67   12.70
  -2  -8  -6  359.16   11.60
   2   8   6  346.87   11.60
   2   8   6  368.06   11.70
  -3  -8  -6    1.10    1.10
  -3  -8  -6    2.30    0.80
  -3  -8  -6    0.80    0.80
   3   8   6    1.10    0.50
   3   8   6    1.50    0.60
   3   8   6    0.80    0.60
  -4  -8  -6  112.59    5.30
  -4  -8  -6  109.09    4.60
   4   8   6  106.59    4.20
   4   8   6  114.29    4.20
  -5  -8  -6   93.19    4.60
  -5  -8  -6   96.59    4.10
  -5  -8  -6   87.49    4.10
   5   8   6   91.49    3.60
   5   8   6   95.99    3.70
  -6  -8  -6   99.29    4.30
  -6  -8  -6  103.19    4.30
   6   8   6  103.69    3.80
   6   8   6   91.09    4.50
   6   8   6  106.89    3.70
  -7  -8  -6  299.47    9.50
  -7  -8  -6  274.27    9.70
   7   8   6  266.07    9.10
   7   8   6  306.07    9.20
  -8  -8  -6    1.30    0.40
  -8  -8  -6    1.40    0.50
   8   8   6    1.20    0.30
   2  -9  -6   19.90    2.00
   2  -9  -6   18.90    1.70
  -2   9   6   16.00    1.10
  -2   9   6   17.80    1.10
   1  -9  -6  133.19    6.20
   1  -9  -6  128.59    5.80
  -1   9   6  125.19    4.50
  -1   9   6  126.09    4.70
  -1   9   6  136.59    4.80
   0  -9  -6    1.50    1.10
   0  -9  -6    2.40    1.00
   0   9   6    1.50    0.50
   0   9   6    1.60    0.60
  -1  -9  -6  257.37   10.00
  -1  -9  -6  251.07   10.10
  -1  -9  -6  226.68    9.00
   1   9   6  237.18    8.30
   1   9   6  246.88    8.20
  -2  -9  -6   21.50    2.00
  -2  -9  -6   23.80    2.40
   2   9   6   21.10    1.50
   2   9   6   25.10    1.60
  -3  -9  -6   47.90    3.50
  -3  -9  -6   43.30    2.40
  -3  -9  -6   41.60    3.00
   3   9   6   47.90    2.20
   3   9   6   46.10    2.20
   3   9   6   45.80    2.20
  -4  -9  -6   57.09    3.30
  -4  -9  -6   52.09    2.70
   4   9   6   57.79    2.50
   4   9   6   49.40    2.40
  -5  -9  -6   92.29    4.40
  -5  -9  -6   88.39    3.80
   5   9   6   87.19    3.40
   5   9   6   92.09    3.40
  -6  -9  -6   64.79    2.90
  -6  -9  -6   59.39    2.80
  -6  -9  -6   48.30    3.40
   6   9   6   63.29    2.50
   6   9   6   65.39    2.40
  -7  -9  -6   51.79    2.20
  -7  -9  -6   44.70    2.20
   7   9   6   49.60    1.90
   7   9   6   49.70    1.80
   1 -10  -6   40.20    2.40
   1 -10  -6   43.20    2.70
  -1  10   6   40.10    1.80
  -1  10   6   40.10    1.70
   0 -10  -6   71.89    4.00
   0 -10  -6   73.99    3.80
   0  10   6   75.89    3.00
   0  10   6   68.59    2.70
  -1 -10  -6   27.00    2.30
  -1 -10  -6   23.40    1.80
   1  10   6   25.00    1.40
   1  10   6   26.20    1.50
  -2 -10  -6   35.10    2.70
  -2 -10  -6   35.40    2.30
   2  10   6   35.70    1.80
   2  10   6   36.40    1.70
  -3 -10  -6  189.98    7.40
  -3 -10  -6  184.08    7.70
   3  10   6  194.98    6.50
   3  10   6  188.58    6.40
  -4 -10  -6   38.00    2.00
  -4 -10  -6   41.10    2.60
   4  10   6   36.00    1.70
   4  10   6   39.10    1.80
   4  10   6   38.00    2.00
  -5 -10  -6   61.69    2.70
  -5 -10  -6   60.19    3.10
   5  10   6   66.09    2.50
   5  10   6   58.39    2.40
  -6 -10  -6   70.09    2.80
   6  10   6   63.59    2.50
   6  10   6   72.49    2.50
  -1 -11  -6   40.70    2.40
   1  11   6   40.40    1.70
  -2 -11  -6   38.60    2.10
  -2 -11  -6   42.10    2.50
   2  11   6   39.60    1.60
   2  11   6   40.50    1.70
  -3 -11  -6   32.50    1.90
  -3 -11  -6   29.40    2.10
   3  11   6   33.40    1.40
   3  11   6   31.40    1.40
  -4 -11  -6    5.80    0.90
   4  11   6    6.80    0.60
  -5 -11  -6   36.10    1.70
  -5 -11  -6   36.70    1.90
   5  11   6   36.30    1.50
   3  10  -7    0.20    0.30
  -3 -10   7    0.10    0.40
   2  10  -7    7.80    0.70
   2  10  -7    7.60    0.60
  -2 -10   7    7.70    0.80
  -2 -10   7    9.30    1.00
   1  10  -7   26.30    1.20
   1  10  -7   26.50    1.30
  -1 -10   7   28.70    1.60
  -1 -10   7   27.10    1.60
   5   9  -7  100.29    3.50
   5   9  -7   92.29    3.30
   5   9  -7   98.09    3.40
  -5  -9   7   96.89    3.50
   4   9  -7  120.09    4.40
   4   9  -7  126.69    4.50
   4   9  -7  131.89    4.80
   4   9  -7  125.49    4.40
   4   9  -7  119.69    4.20
  -4  -9   7  132.59    4.60
   3   9  -7    2.70    0.60
   3   9  -7    2.60    0.50
   3   9  -7    3.30    0.60
   3   9  -7    3.70    0.70
   3   9  -7    2.40    0.70
  -3  -9   7    2.60    0.80
   2   9  -7  331.97   10.40
   2   9  -7  321.77   10.90
   2   9  -7  319.17   10.50
   2   9  -7  330.47   10.80
   2   9  -7  335.37   10.80
  -2  -9   7  340.17   11.40
   1   9  -7    3.30    0.70
   1   9  -7    1.80    0.60
   1   9  -7    2.90    0.50
  -1  -9   7    3.00    0.90
   0   9  -7   65.59    2.90
   0   9  -7   71.79    2.70
   0   9  -7   70.79    2.90
   0  -9   7   69.79    3.50
   0  -9   7   73.29    3.40
  -1   9  -7    9.30    0.90
  -1   9  -7    8.50    0.80
   1  -9   7    8.10    1.10
   1  -9   7    8.90    1.20
  -2   9  -7    0.10    0.30
   2  -9   7    0.40    0.60
   6   8  -7   18.40    1.00
   6   8  -7   17.90    1.10
   6   8  -7   19.30    1.00
   6   8  -7   19.80    1.00
   6   8  -7   17.40    0.90
  -6  -8   7   18.80    1.30
   5   8  -7   46.60    2.00
   5   8  -7   45.40    1.80
   5   8  -7   45.10    1.90
   5   8  -7   45.30    1.90
   5   8  -7   46.30    2.20
   5   8  -7   45.60    2.00
   5   8  -7   49.80    2.50
  -5  -8   7   44.10    2.10
   4   8  -7   49.80    2.70
   4   8  -7   49.10    2.30
   4   8  -7   48.10    2.40
   4   8  -7   49.20    2.00
   4   8  -7   45.40    2.20
   4   8  -7   49.70    2.10
   3   8  -7    0.40    0.50
   3   8  -7    0.60    0.40
   3   8  -7   -0.30    0.50
   3   8  -7    0.50    0.50
   3   8  -7    0.20    0.50
   3   8  -7    0.10    0.50
   3   8  -7    0.50    0.50
  -3  -8   7   -0.10    0.70
   2   8  -7  114.19    4.50
   2   8  -7  117.59    4.60
   2   8  -7  120.89    4.80
   2   8  -7  110.39    4.30
   2   8  -7  119.19    4.60
   2   8  -7  106.49    4.10
   2   8  -7  109.09    4.20
   1   8  -7  327.87   10.70
   1   8  -7  333.17   11.90
   1   8  -7  339.47   11.30
   1   8  -7  291.77   11.80
   1   8  -7  335.47   10.70
   1   8  -7  334.27   10.90
   1   8  -7  337.47   11.10
   1   8  -7  336.17   11.10
   0   8  -7   13.80    1.80
   0   8  -7   15.80    1.50
   0   8  -7   14.70    1.30
   0   8  -7   13.10    1.40
   0   8  -7   13.70    1.20
   0  -8   7   14.30    1.90
  -1   8  -7   55.89    2.70
  -1   8  -7   58.99    2.50
  -1   8  -7   61.89    2.60
  -1   8  -7   60.79    3.30
  -1   8  -7   52.89    3.40
   1  -8   7   58.99    3.50
  -2   8  -7    4.40    0.70
  -2   8  -7    2.90    0.70
  -2   8  -7    3.20    0.60
   2  -8   7    3.60    1.10
   2  -8   7    3.20    1.00
  -3   8  -7   43.20    1.80
  -3   8  -7   41.80    1.80
   3  -8   7   44.40    2.50
   3  -8   7   44.50    2.50
   7   7  -7   82.79    2.90
   7   7  -7   87.39    3.00
   7   7  -7   86.39    3.00
  -7  -7   7   91.99    3.20
   6   7  -7   88.59    3.30
   6   7  -7   92.39    3.30
   6   7  -7   95.59    3.60
   6   7  -7   91.49    3.30
   6   7  -7   91.49    3.20
   6   7  -7   86.49    3.30
  -6  -7   7   88.59    3.70
   5   7  -7   59.89    2.30
   5   7  -7   55.29    2.50
   5   7  -7   57.79    2.40
   5   7  -7   55.89    2.90
   5   7  -7   62.69    2.80
   5   7  -7   55.89    2.40
   5   7  -7   56.49    2.50
   4   7  -7    4.50    0.90
   4   7  -7    4.30    0.80
   4   7  -7    5.10    0.80
   4   7  -7    5.20    0.80
   4   7  -7    5.00    0.80
   4   7  -7    6.20    1.10
   4   7  -7    5.10    0.70
   4   7  -7    4.80    0.70
   3   7  -7   70.49    3.00
   3   7  -7   78.79    3.70
   3   7  -7   71.69    3.30
   3   7  -7   76.59    3.20
   3   7  -7   72.59    3.00
   3   7  -7   73.99    3.40
   3   7  -7   72.49    3.30
   2   7  -7  239.08    8.30
   2   7  -7  231.98    8.20
   2   7  -7  234.78    7.90
   2   7  -7  222.38    8.80
   2   7  -7  246.58    8.30
   2   7  -7  238.78    8.10
   2   7  -7  225.38    8.60
   2   7  -7  234.18    8.00
   1   7  -7    1.60    0.80
   1   7  -7    1.10    0.70
   1   7  -7    1.80    0.80
   1   7  -7    2.30    0.70
   1   7  -7    2.30    0.70
   1   7  -7    2.90    0.80
   1   7  -7    2.00    0.60
   1   7  -7    2.40    0.60
   0   7  -7   80.19    3.60
   0   7  -7   84.29    3.40
   0   7  -7   76.29    3.80
   0   7  -7   90.49    3.80
   0   7  -7   83.49    4.40
   0   7  -7   86.49    3.70
   0   7  -7   81.89    3.50
  -1   7  -7   -0.10    0.50
  -1   7  -7    0.60    0.50
  -1   7  -7   -0.50    0.70
  -1   7  -7   -0.10    0.50
  -1   7  -7    1.20    0.70
  -2   7  -7   31.90    2.00
  -2   7  -7   30.30    1.80
  -2   7  -7   30.10    2.30
  -2   7  -7   30.40    1.80
   2  -7   7   31.80    2.70
   2  -7   7   32.80    2.70
  -3   7  -7  155.38    5.60
  -3   7  -7  162.98    5.60
   3  -7   7  161.78    6.80
   3  -7   7  162.08    6.90
  -4   7  -7    1.00    0.50
  -4   7  -7    0.80    0.40
   4  -7   7    0.90    0.70
   4  -7   7    0.20    0.60
   7   6  -7   12.90    0.80
   7   6  -7   11.90    0.80
   7   6  -7    9.90    0.80
   7   6  -7   11.40    0.70
   7   6  -7   13.30    0.80
   7   6  -7   12.50    0.80
   6   6  -7    0.70    0.50
   6   6  -7    0.10    0.40
   6   6  -7    0.20    0.40
   6   6  -7    0.50    0.40
   6   6  -7    0.70    0.30
   6   6  -7    0.10    0.40
   5   6  -7    0.20    0.40
   5   6  -7    0.00    0.40
   5   6  -7    0.30    0.60
   5   6  -7    0.00    0.40
   5   6  -7    0.10    0.40
   5   6  -7    0.10    0.50
   5   6  -7    1.60    0.50
   4   6  -7   96.19    4.00
   4   6  -7   89.79    3.70
   4   6  -7   93.99    3.50
   4   6  -7   92.29    3.70
   4   6  -7   86.69    3.80
   4   6  -7   94.39    3.60
   4   6  -7   96.59    4.20
   4   6  -7   93.39    3.80
   3   6  -7 1224.58   37.10
   3   6  -7 1186.08   37.50
   3   6  -7 1223.28   37.00
   3   6  -7 1213.88   37.20
   3   6  -7 1208.78   37.90
   3   6  -7 1212.78   37.40
   3   6  -7 1233.08   37.40
   2   6  -7  138.39    5.30
   2   6  -7  134.89    5.10
   2   6  -7  140.79    5.30
   2   6  -7  140.19    4.90
   2   6  -7  130.09    5.20
   2   6  -7  137.09    5.00
   2   6  -7  131.09    5.80
   2   6  -7  133.39    5.50
   1   6  -7  131.39    5.30
   1   6  -7  141.09    6.10
   1   6  -7  144.19    5.40
   1   6  -7  145.99    5.10
   1   6  -7  140.39    5.30
   1   6  -7  140.59    5.70
   1   6  -7  131.59    5.30
   1   6  -7  140.29    5.10
   0   6  -7   88.79    3.90
   0   6  -7   87.89    3.70
   0   6  -7   96.29    4.00
   0   6  -7   94.79    3.80
   0   6  -7   95.49    4.70
   0   6  -7  102.69    5.20
   0   6  -7   95.39    4.00
   0   6  -7   87.49    4.20
  -1   6  -7   31.40    2.00
  -1   6  -7   30.20    2.10
  -1   6  -7   29.60    1.80
  -1   6  -7   29.80    2.00
  -1   6  -7   30.10    2.00
  -1   6  -7   29.00    1.80
  -1   6  -7   29.80    2.50
  -1   6  -7   31.10    2.80
  -2   6  -7  453.15   15.70
  -2   6  -7  457.75   14.60
  -2   6  -7  448.46   14.80
  -2   6  -7  444.86   14.70
  -2   6  -7  454.05   14.80
  -2   6  -7  468.25   16.70
   2  -6   7  449.36   16.20
  -3   6  -7    8.90    1.90
  -3   6  -7    6.30    1.00
  -3   6  -7    7.70    1.40
  -3   6  -7    8.20    1.00
   3  -6   7    8.00    1.70
  -4   6  -7    8.70    1.00
  -4   6  -7    8.10    0.90
   4  -6   7    8.50    1.50
   4  -6   7    9.00    1.60
  -5   6  -7    8.10    0.80
  -5   6  -7   10.00    0.90
   5  -6   7    9.10    1.50
   7   5  -7    6.10    0.70
   7   5  -7    6.30    0.70
   7   5  -7    5.70    0.60
   7   5  -7    5.20    0.70
   7   5  -7    5.10    0.60
   7   5  -7    6.60    0.60
   6   5  -7  107.49    3.90
   6   5  -7  102.19    3.90
   6   5  -7  103.69    3.80
   6   5  -7   91.89    3.80
   6   5  -7  105.39    4.20
   6   5  -7  103.49    3.90
   6   5  -7  106.99    4.00
  -6  -5   7  108.19    4.30
   5   5  -7  179.88    6.00
   5   5  -7  167.18    5.90
   5   5  -7  169.48    6.10
   5   5  -7  168.98    6.00
   5   5  -7  172.88    6.40
   5   5  -7  175.58    6.10
   5   5  -7  178.88    6.20
   5   5  -7  166.98    6.50
   4   5  -7  214.78    7.60
   4   5  -7  209.68    7.30
   4   5  -7  204.78    7.20
   4   5  -7  214.18    7.20
   4   5  -7  208.18    7.00
   4   5  -7  208.08    7.20
   4   5  -7  215.38    7.80
   3   5  -7    6.10    0.90
   3   5  -7    8.80    1.20
   3   5  -7    7.50    1.00
   3   5  -7    5.90    0.90
   3   5  -7    5.80    0.80
   3   5  -7    5.70    0.90
   3   5  -7    6.30    0.90
   3   5  -7    8.80    1.10
   2   5  -7  112.39    9.40
   2   5  -7  111.29    7.60
  -2  -5   7  106.59    7.50
  -2  -5   7  112.59   10.30
   1   5  -7    1.30    1.90
   1   5  -7    0.70    2.20
  -1  -5   7    3.80    1.90
  -1  -5   7    3.80    0.80
   0   5  -7    4.60    2.20
   0   5  -7    6.60    2.60
   0   5  -7    3.30    2.40
   0  -5   7    2.20    2.10
   0  -5   7   12.00    3.70
  -1   5  -7  563.34   17.90
  -1   5  -7  591.84   20.10
  -1   5  -7  555.54   19.40
  -1   5  -7  575.14   17.80
  -1   5  -7  539.45   19.00
  -1   5  -7  588.84   23.90
   1  -5   7  560.24   21.90
   1  -5   7  542.75   22.10
  -2   5  -7   87.79    3.90
  -2   5  -7   91.19    3.60
  -2   5  -7   88.09    4.60
  -2   5  -7   99.29    5.90
  -2   5  -7   84.19    3.80
  -2   5  -7   95.69    3.80
  -2   5  -7   90.69    5.40
  -3   5  -7    1.10    0.60
  -3   5  -7    0.80    0.60
  -3   5  -7    0.50    1.00
  -3   5  -7    0.60    0.80
  -3   5  -7    0.80    0.70
   3  -5   7    0.10    0.80
  -4   5  -7   40.60    2.20
  -4   5  -7   39.70    2.40
  -4   5  -7   38.20    2.10
  -4   5  -7   38.90    3.20
   4  -5   7   40.30    2.40
   4  -5   7   42.00    3.20
  -5   5  -7   16.00    1.30
  -5   5  -7   16.90    1.40
   5  -5   7   19.50    2.10
   5  -5   7   17.50    2.00
   5  -5   7   18.10    1.50
  -6   5  -7   66.09    2.50
  -6   5  -7   59.89    2.30
   6  -5   7   64.09    2.60
   6  -5   7   63.09    3.10
   8   4  -7    0.90    0.30
   8   4  -7    0.30    0.30
  -8  -4   7    0.30    0.30
   7   4  -7  372.66   11.50
   7   4  -7  351.16   11.30
   7   4  -7  354.96   11.50
   7   4  -7  354.16   11.40
   7   4  -7  365.16   11.40
   7   4  -7  375.36   11.40
  -7  -4   7  357.06   11.70
   6   4  -7   26.20    1.50
   6   4  -7   26.70    1.60
   6   4  -7   28.10    1.80
   6   4  -7   25.50    1.60
   6   4  -7   26.30    1.50
   6   4  -7   26.10    1.50
   6   4  -7   28.60    1.60
   5   4  -7  197.38    6.70
   5   4  -7  197.08    6.60
   5   4  -7  181.18    7.00
   5   4  -7  195.48    6.60
   5   4  -7  187.88    6.60
   5   4  -7  194.98    6.90
   5   4  -7  184.88    6.70
   5   4  -7  193.28    6.50
   4   4  -7    7.70    0.80
   4   4  -7    9.60    1.00
   4   4  -7    9.40    1.00
   4   4  -7   10.20    1.00
   4   4  -7    9.40    1.30
   4   4  -7    9.50    1.20
   4   4  -7    7.90    1.00
   3   4  -7  163.08    9.70
   3   4  -7  175.68   11.70
  -3  -4   7  164.88    9.10
  -3  -4   7  160.48    9.90
   2   4  -7   13.00    2.90
   2   4  -7    7.40    3.10
   2   4  -7   12.10    2.40
  -2  -4   7   11.10    2.70
  -2  -4   7   10.50    2.90
   1   4  -7  468.25   18.80
   1   4  -7  493.05   20.20
   1   4  -7  500.75   19.60
  -1  -4   7  506.55   19.20
  -1  -4   7  485.75   18.70
   0   4  -7  128.79    8.60
   0   4  -7  149.79    7.80
   0   4  -7  149.39    8.80
   0  -4   7  145.09    8.00
   0  -4   7  136.39    8.20
  -1   4  -7   37.40    5.70
  -1   4  -7   39.50    4.10
  -1   4  -7   44.20    5.20
   1  -4   7   37.20    4.70
   1  -4   7   30.80    5.00
   1  -4   7   34.20    4.20
  -2   4  -7  211.88   12.10
  -2   4  -7  211.08   12.00
   2  -4   7  216.78   11.00
   2  -4   7  196.58   11.40
   2  -4   7  229.68   11.00
  -3   4  -7  107.39    5.80
  -3   4  -7  100.69    4.90
  -3   4  -7  100.29    4.00
  -3   4  -7  100.49    4.10
  -3   4  -7  118.79    6.40
  -3   4  -7   99.99    4.40
   3  -4   7  102.99    4.30
  -4   4  -7  156.98    6.00
  -4   4  -7  166.38    7.40
  -4   4  -7  152.18    5.60
  -4   4  -7  149.88    5.80
   4  -4   7  156.38    6.00
  -5   4  -7   14.20    1.40
  -5   4  -7   17.40    1.30
  -5   4  -7   16.10    1.60
   5  -4   7   14.90    2.10
   5  -4   7   14.00    1.50
  -6   4  -7    6.10    0.80
  -6   4  -7    8.20    1.00
   6  -4   7    7.40    1.40
   6  -4   7    8.70    1.10
   8   3  -7  101.19    3.40
   8   3  -7  102.19    3.30
   8   3  -7   98.89    3.30
  -8  -3   7   99.69    3.40
   7   3  -7   16.50    1.10
   7   3  -7   16.80    1.30
   7   3  -7   18.00    1.20
   7   3  -7   16.20    1.10
   7   3  -7   18.40    1.10
   7   3  -7   17.20    1.10
   7   3  -7   16.20    1.20
  -7  -3   7   16.50    1.20
   6   3  -7  181.58    6.70
   6   3  -7  184.08    6.40
   6   3  -7  190.88    6.50
   6   3  -7  194.38    6.60
   6   3  -7  190.48    6.50
   6   3  -7  192.08    6.80
   6   3  -7  196.38    6.60
   6   3  -7  187.58    6.60
   5   3  -7   -0.20    0.40
   5   3  -7    1.90    0.60
   5   3  -7    0.20    0.40
   5   3  -7    0.20    0.40
   5   3  -7    0.20    0.40
   5   3  -7    0.40    0.40
   5   3  -7    0.20    0.50
   4   3  -7  147.79    5.30
   4   3  -7  155.58   11.40
   4   3  -7  137.79    5.20
   4   3  -7  135.59    5.10
   4   3  -7  157.98    9.80
   4   3  -7  144.49    5.10
   4   3  -7  134.69    4.90
  -4  -3   7  157.28    9.60
  -4  -3   7  145.09    9.40
   3   3  -7   60.19    6.90
   3   3  -7   47.50    5.60
  -3  -3   7   52.09    5.50
  -3  -3   7   57.89    5.40
  -3  -3   7   54.09    6.10
   2   3  -7  116.09    6.80
   2   3  -7  119.39    8.00
   2   3  -7  111.59    6.90
  -2  -3   7  111.59    6.60
  -2  -3   7  107.59    7.20
   1   3  -7 1072.79   35.80
   1   3  -7 1049.20   35.70
   1   3  -7 1046.10   36.50
   1   3  -7 1052.39   35.90
  -1  -3   7 1069.19   35.60
  -1  -3   7 1061.19   35.10
   0   3  -7  192.98    9.20
   0   3  -7  195.58    9.90
   0   3  -7  174.68    9.20
   0  -3   7  199.58    9.10
   0  -3   7  181.08    8.30
   0  -3   7  188.98    9.00
  -1   3  -7  473.95   17.80
  -1   3  -7  488.25   19.20
  -1   3  -7  451.45   18.00
  -1   3  -7  441.16   17.20
   1  -3   7  472.65   18.10
   1  -3   7  470.35   17.60
  -2   3  -7  299.87   12.90
  -2   3  -7  287.67   13.70
  -2   3  -7  305.67   14.50
   2  -3   7  288.77   13.00
   2  -3   7  297.07   13.10
  -3   3  -7  134.29    9.40
  -3   3  -7  148.29    8.40
  -3   3  -7  135.99    9.50
   3  -3   7  141.39    8.90
   3  -3   7  129.59    8.30
  -4   3  -7   72.49    3.20
  -4   3  -7   75.09    4.70
  -4   3  -7   73.79    3.30
  -4   3  -7   72.39    3.50
  -4   3  -7   88.59    5.30
   4  -3   7   76.39    3.50
  -5   3  -7    4.50    1.00
  -5   3  -7    5.80    1.00
  -5   3  -7    4.60    0.90
   5  -3   7    3.90    0.90
  -6   3  -7   15.70    1.50
  -6   3  -7   14.40    1.20
  -6   3  -7   16.20    1.40
   6  -3   7   16.50    1.60
   6  -3   7   14.40    1.90
  -7   3  -7   89.39    4.00
  -7   3  -7   89.99    3.40
   7  -3   7   92.69    3.70
   8   2  -7    3.50    0.50
   8   2  -7    3.70    0.40
   8   2  -7    3.10    0.50
   8   2  -7    3.20    0.40
  -8  -2   7    3.80    0.50
   7   2  -7    8.20    0.90
   7   2  -7    8.10    0.90
   7   2  -7    9.00    0.90
   7   2  -7    8.20    0.80
   7   2  -7    8.80    0.80
   7   2  -7    7.20    0.80
   7   2  -7    7.40    1.00
   6   2  -7   92.09    3.60
   6   2  -7   93.29    3.50
   6   2  -7   87.09    3.70
   6   2  -7   91.99    3.60
   6   2  -7   95.29    3.80
   6   2  -7   91.59    3.60
   6   2  -7   97.49    3.60
   6   2  -7   81.49    3.70
   5   2  -7  122.29    4.40
   5   2  -7  115.79    4.40
   5   2  -7  117.49    4.70
   5   2  -7  119.29    4.40
   5   2  -7  117.09    4.50
   5   2  -7  119.79    4.40
   5   2  -7  122.29    4.30
   5   2  -7  116.49    4.60
   4   2  -7  264.97   12.50
   4   2  -7  252.07   12.30
   4   2  -7  248.28   14.40
  -4  -2   7  255.17   12.90
  -4  -2   7  251.47   12.10
   3   2  -7    9.30    1.80
   3   2  -7   11.90    2.90
   3   2  -7   11.30    3.60
  -3  -2   7   11.70    2.80
  -3  -2   7    8.50    2.30
   2   2  -7    9.00    2.50
   2   2  -7   13.90    2.60
   2   2  -7   10.00    2.30
   2   2  -7   12.30    1.60
  -2  -2   7   12.80    2.60
  -2  -2   7   11.40    2.20
   1   2  -7    1.50    1.40
   1   2  -7    3.20    1.10
   1   2  -7    1.20    1.20
   1   2  -7    3.10    1.50
  -1  -2   7    1.20    1.00
  -1  -2   7    1.70    1.10
   0   2  -7 2401.96   75.39
   0   2  -7 2418.36   75.09
   0   2  -7 2311.97   75.19
   0   2  -7 2449.85   76.39
   0  -2   7 2427.66   73.79
   0  -2   7 2423.36   74.79
   0  -2   7 2447.76   75.19
   0  -2   7 2446.06   74.19
  -1   2  -7  594.64   21.00
  -1   2  -7  620.04   22.10
  -1   2  -7  634.24   21.90
  -1   2  -7  636.44   23.00
   1  -2   7  605.94   20.90
   1  -2   7  617.14   21.90
   1  -2   7  625.54   21.80
  -2   2  -7  118.09    7.50
  -2   2  -7  115.79    6.90
  -2   2  -7  110.99    6.40
   2  -2   7  102.99    6.00
   2  -2   7  105.29    6.50
   2  -2   7  116.89    6.60
  -3   2  -7  283.47   12.70
  -3   2  -7  259.17   13.40
  -3   2  -7  274.47   12.20
   3  -2   7  282.07   12.40
   3  -2   7  274.07   12.30
   3  -2   7  268.07   12.10
  -4   2  -7  369.96   17.30
  -4   2  -7  370.96   18.00
   4  -2   7  376.26   16.40
   4  -2   7  400.66   17.00
  -5   2  -7   48.70    4.00
  -5   2  -7   49.70    2.80
  -5   2  -7   51.79    2.50
   5  -2   7   47.40    2.70
   5  -2   7   47.10    2.50
  -6   2  -7   53.89    2.70
  -6   2  -7   57.19    3.00
   6  -2   7   56.69    3.60
   6  -2   7   56.79    2.80
   6  -2   7   60.09    3.00
  -7   2  -7   51.39    2.30
  -7   2  -7   51.99    2.50
   7  -2   7   49.90    2.40
   7  -2   7   53.29    2.60
   8   1  -7    9.80    0.70
   8   1  -7   11.20    0.60
  -8  -1   7   11.40    0.70
  -8  -1   7   11.30    0.90
   7   1  -7   35.20    1.70
   7   1  -7   38.40    1.70
   7   1  -7   36.40    1.90
   7   1  -7   37.20    1.70
   7   1  -7   38.20    1.80
   7   1  -7   38.20    1.90
   6   1  -7  215.78    7.70
   6   1  -7  214.38    7.50
   6   1  -7  222.58    7.80
   6   1  -7  225.98    7.50
   6   1  -7  227.38    7.40
   6   1  -7  221.78    7.60
   6   1  -7  229.88    7.50
   5   1  -7    1.20    0.50
   5   1  -7    0.40    0.50
   5   1  -7   -0.10    0.40
   5   1  -7    0.10    0.40
   5   1  -7   -0.20    0.50
   5   1  -7    0.00    0.40
   4   1  -7   25.70    4.30
   4   1  -7   23.70    4.60
  -4  -1   7   28.00    3.60
  -4  -1   7   21.20    3.50
   3   1  -7    9.50    3.00
   3   1  -7   10.50    2.70
   3   1  -7    8.40    2.50
  -3  -1   7    9.40    2.20
  -3  -1   7    7.50    2.30
   2   1  -7  886.91   29.50
   2   1  -7  821.42   29.30
   2   1  -7  893.01   31.40
   2   1  -7  898.11   30.10
  -2  -1   7  896.01   29.70
  -2  -1   7  909.71   29.00
  -2  -1   7  887.11   30.40
   1   1  -7 1824.22   57.79
   1   1  -7 1885.11   57.99
   1   1  -7 1832.72   58.69
   1   1  -7 1818.72   58.59
   1   1  -7 1809.32   57.49
  -1  -1   7 1851.91   57.59
  -1  -1   7 1885.41   57.29
   0   1  -7   22.30    2.60
   0   1  -7   23.40    2.80
   0   1  -7   16.60    2.30
   0   1  -7   23.40    3.30
   0   1  -7   22.10    2.30
   0  -1   7   20.30    2.50
   0  -1   7   27.00    2.30
   0  -1   7   20.10    2.50
   0  -1   7   20.90    2.30
  -1   1  -7    7.70    1.70
  -1   1  -7    6.40    2.10
  -1   1  -7    6.40    1.30
  -1   1  -7    6.30    1.40
   1  -1   7    6.80    1.60
   1  -1   7    5.90    1.30
   1  -1   7    7.60    1.40
   1  -1   7    8.70    1.80
  -2   1  -7  234.48   10.10
  -2   1  -7  238.78   10.20
  -2   1  -7  237.38   11.20
   2  -1   7  226.58   10.10
   2  -1   7  245.78    9.40
   2  -1   7  254.47    9.90
   2  -1   7  249.78   10.50
  -3   1  -7 1409.76   45.70
  -3   1  -7 1412.16   46.00
  -3   1  -7 1372.36   47.10
   3  -1   7 1409.06   45.70
   3  -1   7 1388.36   46.10
   3  -1   7 1394.06   46.10
  -4   1  -7  162.38    8.70
  -4   1  -7  152.88    9.80
   4  -1   7  162.38    9.30
   4  -1   7  157.28    9.60
   4  -1   7  157.68    7.70
  -5   1  -7  213.18    7.70
  -5   1  -7  229.38    9.70
  -5   1  -7  211.48    8.30
  -5   1  -7  212.08    7.40
  -5   1  -7  208.08    7.90
   5  -1   7  206.78    7.50
  -6   1  -7    4.90    1.70
  -6   1  -7    4.50    0.90
  -6   1  -7    6.70    1.20
   6  -1   7    4.80    1.00
   6  -1   7    4.30    1.00
  -7   1  -7   10.70    1.30
  -7   1  -7   10.80    1.10
   7  -1   7   10.20    1.20
  -8   1  -7   44.70    2.00
  -8   1  -7   44.20    1.90
   8  -1   7   45.90    2.00
   8  -1   7   41.30    2.00
   7   0  -7  281.17   10.00
   7   0  -7  317.37    9.70
   7   0  -7  313.67    9.90
   7   0  -7  318.07    9.70
   7   0  -7  304.17    9.60
   7   0  -7  292.17    9.60
   7   0  -7  308.37    9.80
  -7   0   7  297.17    9.70
   6   0  -7  167.08    5.90
   6   0  -7  164.98    5.80
   6   0  -7  158.78    5.60
   6   0  -7  161.68    5.50
   6   0  -7  162.88    5.60
   6   0  -7  148.69    6.00
   6   0  -7  157.68    5.60
   6   0  -7  154.58    5.50
   5   0  -7    8.80    1.00
   5   0  -7    8.00    0.90
   5   0  -7    6.70    0.90
   5   0  -7    6.30    1.20
   5   0  -7    7.20    0.80
   5   0  -7    6.60    0.90
   5   0  -7    8.10    0.90
   4   0  -7  515.25   22.30
   4   0  -7  496.45   20.70
   4   0  -7  516.85   20.80
  -4   0   7  509.35   20.10
  -4   0   7  521.55   20.30
   3   0  -7  114.89    7.30
   3   0  -7  124.69    7.70
   3   0  -7  115.29    7.70
  -3   0   7  118.19    6.70
  -3   0   7  126.49    7.10
   2   0  -7  590.84   21.50
   2   0  -7  586.64   22.60
   2   0  -7  582.14   21.30
  -2   0   7  586.54   20.70
  -2   0   7  611.14   21.00
   1   0  -7  703.93   23.40
   1   0  -7  696.43   22.60
   1   0  -7  690.33   22.80
   1   0  -7  690.03   23.40
   1   0  -7  687.63   23.80
   1   0  -7  699.13   24.70
  -1   0   7  694.83   23.60
   0   0  -7   43.60    2.80
   0   0  -7   49.40    3.40
   0   0  -7   46.50    3.20
   0   0  -7   46.20    3.00
   0   0  -7   41.10    2.90
   0   0  -7   47.00    3.30
   0   0  -7   43.60    3.10
   0   0  -7   45.00    3.30
  -1   0  -7 2028.50   63.19
  -1   0  -7 2022.30   62.49
  -1   0  -7 2074.99   63.39
  -1   0  -7 2017.00   63.69
   1   0   7 1982.00   63.39
   1   0   7 2046.00   62.49
  -2   0  -7 1142.99   36.40
  -2   0  -7 1095.19   37.00
  -2   0  -7 1081.29   35.50
  -2   0  -7 1131.09   36.40
   2   0   7 1100.09   35.40
   2   0   7 1117.99   35.80
   2   0   7 1136.89   35.50
   2   0   7 1122.99   36.50
   2   0   7 1085.69   36.60
  -3   0  -7  424.96   17.60
  -3   0  -7  438.86   16.40
  -3   0  -7  429.66   15.90
  -3   0  -7  443.96   16.40
   3   0   7  420.36   15.90
   3   0   7  439.96   17.70
   3   0   7  426.56   15.50
   3   0   7  446.36   16.90
   3   0   7  408.66   16.60
  -4   0  -7   68.39    6.70
  -4   0  -7   63.79    5.80
   4   0   7   60.59    5.90
   4   0   7   71.99    4.90
   4   0   7   70.69    6.60
  -5   0  -7   28.40    2.00
  -5   0  -7   30.90    2.50
  -5   0  -7   30.00    2.30
   5   0   7   37.50    4.60
   5   0   7   31.30    1.90
  -6   0  -7   57.59    3.20
  -6   0  -7   59.59    3.10
  -6   0  -7   58.79    2.80
   6   0   7   65.69    3.20
   6   0   7   63.29    3.10
  -7   0  -7   27.60    1.90
  -7   0  -7   29.20    1.80
   7   0   7   26.80    1.90
   7   0   7   27.90    1.80
  -8   0  -7    1.20    0.50
  -8   0  -7    1.30    0.60
   8   0   7    0.60    0.50
   8   0   7    1.30    0.50
   7  -1  -7   13.60    1.00
   7  -1  -7   13.90    1.20
   7  -1  -7   15.00    1.10
   7  -1  -7   14.60    1.00
   7  -1  -7   12.90    1.00
   7  -1  -7   13.50    0.90
  -7   1   7   14.00    1.10
   6  -1  -7   11.30    1.00
   6  -1  -7   10.70    1.00
   6  -1  -7   11.20    1.20
   6  -1  -7   12.10    1.00
   6  -1  -7   12.10    1.20
   6  -1  -7   12.40    1.10
   6  -1  -7   12.90    1.50
  -6   1   7   11.60    1.10
   5  -1  -7  399.16   12.80
   5  -1  -7  398.06   13.00
   5  -1  -7  398.46   12.70
   5  -1  -7  398.76   13.40
   5  -1  -7  394.26   12.60
   5  -1  -7  403.76   13.00
   5  -1  -7  395.36   12.70
   5  -1  -7  394.96   12.70
   4  -1  -7   11.60    4.50
   4  -1  -7   12.60    1.10
   4  -1  -7   14.40    1.30
   4  -1  -7   13.30    1.30
   4  -1  -7   15.40    1.30
   4  -1  -7   18.40    4.50
   4  -1  -7   14.50    1.30
  -4   1   7   16.80    3.30
  -4   1   7   20.40    2.50
   3  -1  -7    2.00    2.50
   3  -1  -7   -0.40    0.50
   3  -1  -7    2.30    1.80
  -3   1   7    2.90    1.50
  -3   1   7    3.00    1.70
   2  -1  -7   36.60    4.80
   2  -1  -7   36.60    3.50
   2  -1  -7   39.20    4.10
   2  -1  -7   38.50    5.00
  -2   1   7   36.40    3.50
  -2   1   7   44.20    4.20
   1  -1  -7    1.80    1.70
   1  -1  -7    5.20    1.20
   1  -1  -7    2.90    1.70
   1  -1  -7    2.10    1.50
   1  -1  -7    2.30    1.40
  -1   1   7    2.60    1.10
  -1   1   7    6.80    1.40
   0  -1  -7 2758.32   85.89
   0  -1  -7 2800.42   87.19
   0  -1  -7 2796.92   87.09
   0  -1  -7 2922.11   85.89
   0   1   7 2845.92   85.79
   0   1   7 2778.22   87.49
  -1  -1  -7  896.81   29.70
  -1  -1  -7  903.01   29.10
  -1  -1  -7  917.01   29.00
  -1  -1  -7  899.51   29.40
   1   1   7  901.71   29.80
   1   1   7  875.21   29.00
   1   1   7  843.82   29.00
  -2  -1  -7   96.49    5.40
  -2  -1  -7   93.19    5.30
  -2  -1  -7   93.49    5.00
   2   1   7   92.69    5.40
   2   1   7   85.19    4.90
  -3  -1  -7  153.08    7.50
  -3  -1  -7  156.28    7.60
  -3  -1  -7  150.38    8.60
   3   1   7  147.99    6.80
   3   1   7  154.18    7.80
   3   1   7  138.09    7.00
   3   1   7  156.68    8.00
   3   1   7  154.08    7.30
  -4  -1  -7    9.00    2.20
  -4  -1  -7    5.90    1.90
  -4  -1  -7   13.50    3.80
   4   1   7   11.20    1.70
   4   1   7   11.30    2.70
   4   1   7   10.00    2.10
   4   1   7   11.70    2.00
   4   1   7   10.90    2.20
  -5  -1  -7  487.55   22.10
  -5  -1  -7  492.75   19.90
   5   1   7  531.55   20.50
   5   1   7  509.95   19.40
  -6  -1  -7   92.19    4.40
  -6  -1  -7   84.79    3.60
  -6  -1  -7   86.99    4.10
  -6  -1  -7   88.19    4.00
   6   1   7   84.29    3.80
   6   1   7   84.59    3.50
  -7  -1  -7  147.59    5.60
  -7  -1  -7  137.89    5.60
  -7  -1  -7  131.39    5.00
   7   1   7  128.79    5.30
   7   1   7  141.79    5.00
   7   1   7  138.19    5.40
  -8  -1  -7   16.90    1.40
  -8  -1  -7   18.00    1.20
   8   1   7   13.50    1.20
   8   1   7   15.40    1.20
   7  -2  -7    0.80    0.40
   7  -2  -7    0.80    0.40
   7  -2  -7    0.80    0.40
   7  -2  -7    1.30    0.40
  -7   2   7    1.00    0.40
   6  -2  -7  124.79    4.40
   6  -2  -7  121.99    4.40
   6  -2  -7  122.89    4.40
   6  -2  -7  130.99    5.00
   6  -2  -7  126.69    4.70
   6  -2  -7  129.49    4.70
   6  -2  -7  121.79    4.50
   5  -2  -7   13.10    1.10
   5  -2  -7   12.20    1.20
   5  -2  -7   11.80    1.20
   5  -2  -7   12.10    1.10
   5  -2  -7   12.30    1.10
   5  -2  -7   12.00    1.20
   5  -2  -7   15.30    1.70
   5  -2  -7   12.20    1.50
   4  -2  -7   11.30    1.20
   4  -2  -7    8.90    1.10
   4  -2  -7    9.00    0.90
   4  -2  -7    7.30    1.20
   4  -2  -7   12.10    1.50
   4  -2  -7    9.60    1.00
   4  -2  -7    9.00    0.90
   4  -2  -7    9.30    0.90
   3  -2  -7   72.99    7.80
   3  -2  -7   71.19    6.40
  -3   2   7   64.89    5.50
  -3   2   7   68.09    8.10
  -3   2   7   61.39    5.90
   2  -2  -7   -0.90    2.10
   2  -2  -7    3.00    1.60
   2  -2  -7    2.80    2.50
  -2   2   7    1.40    1.20
  -2   2   7    2.20    1.30
  -2   2   7    2.40    1.80
   1  -2  -7   85.79    4.60
   1  -2  -7   78.69    5.70
   1  -2  -7   89.09    5.00
   1  -2  -7   80.19    5.30
  -1   2   7   85.59    4.90
  -1   2   7   83.09    6.10
  -1   2   7   84.89    4.30
   0  -2  -7    5.40    1.10
   0  -2  -7    5.10    1.80
   0  -2  -7    4.40    1.60
   0  -2  -7    9.00    1.40
   0   2   7    3.40    1.50
  -1  -2  -7    4.30    1.70
  -1  -2  -7    1.00    0.50
  -1  -2  -7    2.50    1.00
  -1  -2  -7    3.80    1.40
   1   2   7    1.50    1.10
   1   2   7    4.20    1.30
  -2  -2  -7 6410.26  195.38
  -2  -2  -7 6456.75  195.28
  -2  -2  -7 6488.55  195.58
  -2  -2  -7 6515.75  195.88
   2   2   7 6402.46  195.68
   2   2   7 6467.15  195.68
   2   2   7 6504.75  196.28
  -3  -2  -7   -0.30    1.20
  -3  -2  -7    0.80    1.00
  -3  -2  -7   -1.00    0.50
   3   2   7    3.10    1.80
   3   2   7    2.90    1.90
   3   2   7    2.50    1.30
   3   2   7   -0.20    2.00
   3   2   7    2.80    0.90
  -4  -2  -7  302.97   14.00
  -4  -2  -7  291.17   12.80
  -4  -2  -7  314.87   13.20
   4   2   7  315.27   12.00
   4   2   7  306.27   13.80
   4   2   7  323.97   13.20
   4   2   7  311.57   13.20
   4   2   7  312.07   12.40
  -5  -2  -7   31.50    4.30
  -5  -2  -7   24.70    5.90
   5   2   7   29.70    4.00
   5   2   7   23.20    3.50
  -6  -2  -7   24.00    2.20
  -6  -2  -7   23.80    1.90
  -6  -2  -7   20.80    1.90
   6   2   7   21.40    1.50
   6   2   7   21.70    1.60
  -7  -2  -7  158.58    6.10
  -7  -2  -7  152.98    6.30
   7   2   7  159.98    5.70
   7   2   7  163.28    6.00
   7   2   7  149.59    5.80
  -8  -2  -7   10.00    1.20
   8   2   7    7.60    1.00
   8   2   7    9.70    0.90
   6  -3  -7   36.10    1.80
   6  -3  -7   36.10    1.70
   6  -3  -7   37.20    2.10
   6  -3  -7   39.50    1.90
   6  -3  -7   40.30    1.90
   6  -3  -7   41.10    2.20
  -6   3   7   37.20    1.70
   5  -3  -7  141.29    4.90
   5  -3  -7  133.89    5.00
   5  -3  -7  139.79    4.90
   5  -3  -7  144.09    5.60
   5  -3  -7  139.59    5.20
   5  -3  -7  142.99    5.20
   5  -3  -7  133.79    5.60
   4  -3  -7   37.40    2.40
   4  -3  -7   36.90    2.00
   4  -3  -7   36.90    1.90
   4  -3  -7   34.70    1.80
   4  -3  -7   38.40    2.50
   4  -3  -7   35.70    1.80
   4  -3  -7   36.00    1.80
   4  -3  -7   36.70    2.00
   3  -3  -7   33.50    4.60
   3  -3  -7   20.70    4.20
  -3   3   7   22.40    3.80
  -3   3   7   30.20    6.60
   2  -3  -7   59.99    5.70
   2  -3  -7   55.89    5.30
   2  -3  -7   56.49    4.10
  -2   3   7   61.99    5.70
  -2   3   7   51.59    6.90
   1  -3  -7   -0.60    1.10
   1  -3  -7    1.70    2.10
   1  -3  -7    0.10    1.20
   1  -3  -7   -0.10    0.40
  -1   3   7    0.50    1.10
  -1   3   7   -0.50    1.20
   0  -3  -7  120.79    6.40
   0  -3  -7  118.79    6.90
   0  -3  -7  119.09    6.60
   0   3   7  124.69    5.90
   0   3   7  117.79    7.40
   0   3   7  120.29    6.10
  -1  -3  -7 1612.54   51.99
  -1  -3  -7 1628.84   52.49
  -1  -3  -7 1640.04   52.79
  -1  -3  -7 1656.73   51.09
   1   3   7 1564.94   53.09
   1   3   7 1681.93   52.39
  -2  -3  -7  106.19    6.10
  -2  -3  -7  105.49    6.00
  -2  -3  -7  108.39    6.20
   2   3   7   98.89    5.90
   2   3   7  101.99    6.40
   2   3   7  105.99    6.50
  -3  -3  -7  233.28   10.10
  -3  -3  -7  216.18    9.60
  -3  -3  -7  204.78    9.40
  -3  -3  -7  208.88    9.70
   3   3   7  205.18    9.80
   3   3   7  210.38   10.30
   3   3   7  204.18   10.00
  -4  -3  -7  152.28    8.40
  -4  -3  -7  144.59    8.50
  -4  -3  -7  163.88    9.00
   4   3   7  164.28    7.20
   4   3   7  169.58    7.50
   4   3   7  157.58    8.00
   4   3   7  166.58    8.60
   4   3   7  147.59    9.20
  -5  -3  -7   33.10    6.20
  -5  -3  -7   25.20    3.90
   5   3   7   29.90    4.70
   5   3   7   34.90    4.70
  -6  -3  -7  529.45   17.50
  -6  -3  -7  550.64   17.90
  -6  -3  -7  530.15   17.30
   6   3   7  534.45   17.30
   6   3   7  547.05   17.10
  -7  -3  -7    0.60    0.70
  -7  -3  -7   -0.20    0.70
   7   3   7    0.30    0.60
   7   3   7   -0.10    0.50
  -8  -3  -7   68.19    3.20
  -8  -3  -7   69.59    3.20
   8   3   7   67.49    3.00
   8   3   7   72.19    2.90
  -9  -3  -7   10.80    0.90
   9   3   7   11.20    0.70
   9   3   7    9.00    0.80
   6  -4  -7   44.80    1.90
   6  -4  -7   44.70    2.20
   6  -4  -7   45.00    1.90
   6  -4  -7   46.20    2.20
  -6   4   7   44.30    1.80
  -6   4   7   46.80    2.00
   5  -4  -7    2.20    0.60
   5  -4  -7    2.70    0.70
   5  -4  -7    2.00    0.50
   5  -4  -7    2.10    0.60
   5  -4  -7    1.80    0.70
   5  -4  -7    1.30    0.80
   5  -4  -7    2.30    0.70
  -5   4   7    1.10    0.50
   4  -4  -7    6.80    1.20
   4  -4  -7    6.90    0.80
   4  -4  -7    6.40    0.90
   4  -4  -7    6.70    1.00
   4  -4  -7    6.60    1.00
   4  -4  -7    7.10    0.90
   4  -4  -7    5.70    1.00
  -4   4   7    7.90    0.80
   3  -4  -7   23.10    1.50
   3  -4  -7   21.50    1.30
   3  -4  -7   23.40    2.90
   3  -4  -7   26.00    1.90
   3  -4  -7   21.20    1.50
   3  -4  -7   21.30    1.40
   3  -4  -7   20.90    1.70
   3  -4  -7   19.60    1.30
   2  -4  -7   25.90    4.40
   2  -4  -7   39.60    5.30
   2  -4  -7   39.80    4.80
  -2   4   7   44.10    5.10
  -2   4   7   33.30    5.40
   1  -4  -7  554.34   21.00
   1  -4  -7  512.85   20.50
  -1   4   7  524.65   19.90
  -1   4   7  515.95   22.20
   0  -4  -7  545.65   20.40
   0  -4  -7  549.65   20.10
   0  -4  -7  552.04   20.90
   0   4   7  523.45   19.50
   0   4   7  518.45   20.20
   0   4   7  559.54   22.30
  -1  -4  -7  571.44   19.60
  -1  -4  -7  580.74   21.30
  -1  -4  -7  586.64   21.20
  -1  -4  -7  577.34   21.20
   1   4   7  566.74   22.50
   1   4   7  569.54   21.10
   1   4   7  562.34   21.70
  -2  -4  -7   46.50    4.30
  -2  -4  -7   44.20    4.70
  -2  -4  -7   50.69    4.80
   2   4   7   41.90    4.60
   2   4   7   51.69    3.90
   2   4   7   48.80    5.60
  -3  -4  -7 1755.02   56.69
  -3  -4  -7 1762.92   56.89
  -3  -4  -7 1758.02   56.19
   3   4   7 1711.43   57.89
   3   4   7 1738.03   56.79
   3   4   7 1803.52   57.09
  -4  -4  -7  679.83   25.10
  -4  -4  -7  673.23   25.10
   4   4   7  678.93   25.50
   4   4   7  713.33   25.50
  -5  -4  -7  239.38   11.80
  -5  -4  -7  241.78   12.10
   5   4   7  255.97   12.40
   5   4   7  240.78   11.70
  -6  -4  -7   74.29    3.80
  -6  -4  -7   75.29    3.40
  -6  -4  -7   71.69    3.40
   6   4   7   72.79    3.20
   6   4   7   70.09    2.90
  -7  -4  -7    6.10    1.10
  -7  -4  -7    8.80    1.40
   7   4   7    8.50    1.00
   7   4   7    7.60    1.10
  -8  -4  -7   15.20    1.40
  -8  -4  -7   14.00    1.40
   8   4   7   10.80    1.10
  -9  -4  -7  181.68    6.20
   9   4   7  194.18    6.10
   6  -5  -7   17.90    1.10
   6  -5  -7   18.80    1.10
  -6   5   7   19.70    1.10
   5  -5  -7    1.60    0.60
   5  -5  -7    3.10    0.70
   5  -5  -7    2.90    0.60
   5  -5  -7    4.40    0.70
  -5   5   7    3.00    0.50
  -5   5   7    2.30    0.60
   4  -5  -7   27.50    1.90
   4  -5  -7   25.00    2.70
   4  -5  -7   27.50    1.50
   4  -5  -7   29.50    1.70
   4  -5  -7   26.50    1.70
   4  -5  -7   25.60    1.60
   4  -5  -7   26.10    2.00
  -4   5   7   26.60    1.50
   3  -5  -7   94.29    3.80
   3  -5  -7   96.19    3.80
   3  -5  -7   91.59    3.60
   3  -5  -7   92.79    4.10
   3  -5  -7   97.79    5.50
   3  -5  -7   96.49    3.90
   3  -5  -7   99.79    4.40
   3  -5  -7   86.19    3.60
   2  -5  -7   72.69    3.10
   2  -5  -7   68.29    2.90
   2  -5  -7   78.39    4.70
   2  -5  -7   73.39    3.50
   2  -5  -7   67.19    2.90
   2  -5  -7   73.29    3.10
   2  -5  -7   73.69    3.10
   2  -5  -7   71.39    3.40
   1  -5  -7  135.89    8.70
   1  -5  -7  129.09    8.70
  -1   5   7  115.59    8.90
  -1   5   7  123.69    7.80
  -1   5   7  126.19   10.30
   0  -5  -7  180.98   10.10
   0  -5  -7  171.28    9.50
   0  -5  -7  190.78   10.10
   0   5   7  177.48    9.00
   0   5   7  171.38    9.30
   0   5   7  180.38   11.00
  -1  -5  -7  625.04   23.10
  -1  -5  -7  598.84   23.10
  -1  -5  -7  627.64   23.00
   1   5   7  621.84   25.00
   1   5   7  593.64   23.20
  -2  -5  -7  247.68   10.50
  -2  -5  -7  250.77   11.70
  -2  -5  -7  231.68   11.10
   2   5   7  228.58   11.50
   2   5   7  231.78   11.50
   2   5   7  245.78   13.00
  -3  -5  -7   38.00    4.60
  -3  -5  -7   37.70    4.30
  -3  -5  -7   36.20    4.40
   3   5   7   36.80    4.90
   3   5   7   42.20    5.70
   3   5   7   37.20    3.70
  -4  -5  -7  416.56   17.30
  -4  -5  -7  389.66   17.10
   4   5   7  430.06   18.80
   4   5   7  413.56   16.50
   4   5   7  397.96   17.00
  -5  -5  -7    1.30    0.90
  -5  -5  -7    1.70    0.80
  -5  -5  -7    1.70    0.80
  -5  -5  -7    1.90    1.00
   5   5   7    2.30    0.60
  -6  -5  -7   57.79    3.20
  -6  -5  -7   55.59    3.40
  -6  -5  -7   56.89    2.90
   6   5   7   54.39    2.60
   6   5   7   55.89    2.50
  -7  -5  -7   75.29    3.30
  -7  -5  -7   74.79    3.80
  -7  -5  -7   71.59    3.30
   7   5   7   68.79    3.20
   7   5   7   78.69    3.00
   7   5   7   73.99    3.20
  -8  -5  -7   13.10    1.20
  -8  -5  -7   13.20    1.40
   8   5   7   14.00    1.10
   8   5   7   16.40    1.20
   8   5   7   14.40    0.90
  -9  -5  -7    7.20    0.80
   9   5   7    8.20    0.60
   5  -6  -7   15.70    1.10
   5  -6  -7   14.50    1.20
  -5   6   7   16.30    1.00
  -5   6   7   15.10    1.00
   4  -6  -7  142.09    6.60
   4  -6  -7  140.09    5.60
   4  -6  -7  146.39    5.20
   4  -6  -7  147.89    5.40
  -4   6   7  145.79    5.30
   3  -6  -7    7.50    0.90
   3  -6  -7    8.30    1.20
   3  -6  -7    6.70    1.10
   3  -6  -7    5.10    1.60
   3  -6  -7    5.80    0.90
  -3   6   7    6.00    0.90
   2  -6  -7   56.29    4.10
   2  -6  -7   56.49    2.90
   2  -6  -7   56.39    2.50
   2  -6  -7   57.39    3.00
   2  -6  -7   57.69    2.70
   2  -6  -7   52.19    2.50
  -2   6   7   59.09    2.70
   1  -6  -7   38.30    3.30
   1  -6  -7   36.30    2.00
   1  -6  -7   41.80    2.40
   1  -6  -7   38.90    2.30
   1  -6  -7   40.30    3.10
   1  -6  -7   35.30    1.90
   1  -6  -7   39.00    1.90
  -1   6   7   38.00    2.00
   0  -6  -7  156.18    9.50
   0  -6  -7  148.79    9.20
   0  -6  -7  175.48   10.00
   0   6   7  155.48   11.60
   0   6   7  140.29    8.70
   0   6   7  152.48    8.90
  -1  -6  -7  197.88   10.70
  -1  -6  -7  200.48   10.50
  -1  -6  -7  195.78   11.20
   1   6   7  178.38   10.60
   1   6   7  188.08   12.50
  -2  -6  -7  123.69    8.10
  -2  -6  -7  115.29    6.60
   2   6   7  120.49    9.30
   2   6   7  106.29    7.60
  -3  -6  -7    1.50    2.60
  -3  -6  -7    9.20    2.60
   3   6   7    4.60    2.80
   3   6   7    8.30    3.40
  -4  -6  -7    0.60    0.70
  -4  -6  -7    1.20    0.80
  -4  -6  -7    0.60    0.60
   4   6   7    0.80    0.50
   4   6   7    3.40    3.70
   4   6   7    1.20    0.60
  -5  -6  -7  534.25   17.80
  -5  -6  -7  526.35   18.20
  -5  -6  -7  561.74   17.60
   5   6   7  541.15   17.00
  -6  -6  -7   12.80    1.60
  -6  -6  -7   13.00    1.40
   6   6   7   13.00    1.20
   6   6   7   12.00    1.10
  -7  -6  -7    4.50    0.90
  -7  -6  -7    3.10    0.90
   7   6   7    2.70    0.60
   7   6   7    2.80    0.70
  -8  -6  -7    3.80    0.80
  -8  -6  -7    2.30    0.60
   8   6   7    3.00    0.50
   8   6   7    2.80    0.60
   4  -7  -7    1.90    0.60
   4  -7  -7    0.70    0.80
  -4   7   7    1.40    0.50
  -4   7   7    1.00    0.40
   3  -7  -7   73.99    3.00
   3  -7  -7   77.49    4.50
   3  -7  -7   74.29    3.70
   3  -7  -7   78.09    3.50
  -3   7   7   78.09    3.20
   2  -7  -7   53.29    3.60
   2  -7  -7   54.79    2.50
   2  -7  -7   53.99    4.00
   2  -7  -7   58.39    2.70
   2  -7  -7   54.09    2.90
  -2   7   7   60.29    2.70
   1  -7  -7   16.30    2.20
   1  -7  -7   15.50    2.40
   1  -7  -7   15.40    1.40
   1  -7  -7   16.40    1.70
   1  -7  -7   15.50    1.30
  -1   7   7   14.30    1.30
   0  -7  -7   13.20    2.10
   0  -7  -7   12.00    2.10
   0  -7  -7   13.40    1.20
   0  -7  -7   13.30    1.30
   0  -7  -7   13.30    1.50
  -1  -7  -7  175.78    7.20
  -1  -7  -7  173.68    6.20
  -1  -7  -7  174.28    8.00
  -1  -7  -7  178.78    7.90
  -1  -7  -7  176.78    6.20
   1   7   7  177.88    6.20
  -2  -7  -7  197.58    8.40
  -2  -7  -7  199.18    7.80
  -2  -7  -7  194.88    6.80
  -2  -7  -7  187.98    8.60
   2   7   7  189.48    6.70
  -3  -7  -7    4.60    1.40
  -3  -7  -7    2.70    1.10
  -3  -7  -7    2.40    0.80
  -3  -7  -7    2.80    0.70
   3   7   7    3.70    0.70
  -4  -7  -7  328.17   11.70
  -4  -7  -7  317.27   10.90
  -4  -7  -7  315.27   10.60
   4   7   7  317.57   10.30
   4   7   7  311.07   10.40
  -5  -7  -7   66.69    3.30
  -5  -7  -7   67.29    3.80
  -5  -7  -7   63.99    3.40
   5   7   7   65.79    2.80
   5   7   7   70.49    2.90
   5   7   7   66.29    3.00
  -6  -7  -7   68.39    3.60
  -6  -7  -7   75.39    3.50
   6   7   7   77.49    3.10
   6   7   7   74.89    3.10
  -7  -7  -7   11.10    1.20
  -7  -7  -7   10.30    1.30
   7   7   7    8.90    0.90
   7   7   7   10.30    0.90
  -8  -7  -7   28.50    1.70
  -8  -7  -7   26.90    1.50
   8   7   7   30.30    1.30
   3  -8  -7   65.29    2.80
   3  -8  -7   58.09    3.50
  -3   8   7   60.49    2.50
  -3   8   7   60.49    2.50
   2  -8  -7   35.60    2.10
   2  -8  -7   33.30    1.70
   2  -8  -7   32.60    2.90
   2  -8  -7   32.30    2.50
  -2   8   7   32.90    1.80
  -2   8   7   31.90    1.80
   1  -8  -7   -0.40    0.70
   1  -8  -7   -0.10    0.80
   1  -8  -7    0.60    0.70
   1  -8  -7    0.60    0.50
  -1   8   7    0.80    0.50
  -1   8   7    0.90    0.50
   0  -8  -7  133.69    6.70
   0  -8  -7  128.99    6.40
   0  -8  -7  134.39    4.90
   0   8   7  131.39    5.00
  -1  -8  -7  115.09    5.90
  -1  -8  -7  114.89    6.20
  -1  -8  -7  119.29    4.40
  -1  -8  -7  112.09    5.30
   1   8   7  113.89    4.40
  -2  -8  -7    5.30    1.40
  -2  -8  -7    4.00    1.10
  -2  -8  -7    6.10    0.90
   2   8   7    4.50    0.80
   2   8   7    4.10    0.80
  -3  -8  -7 1045.60   33.60
  -3  -8  -7 1042.30   34.10
  -3  -8  -7 1040.40   32.50
   3   8   7 1060.09   32.20
  -4  -8  -7  167.48    6.50
  -4  -8  -7  178.38    7.30
   4   8   7  174.58    6.10
   4   8   7  182.28    6.20
  -5  -8  -7    8.10    1.10
  -5  -8  -7    5.30    1.20
   5   8   7    3.90    0.70
   5   8   7    4.30    0.80
   5   8   7    4.40    0.70
  -6  -8  -7  189.78    7.40
  -6  -8  -7  195.58    7.00
  -6  -8  -7  188.48    7.00
   6   8   7  197.88    6.60
   6   8   7  186.68    6.60
   6   8   7  197.68    6.40
  -7  -8  -7    1.70    0.70
  -7  -8  -7    3.10    0.70
   7   8   7    2.50    0.60
   7   8   7    2.40    0.50
  -8  -8  -7   14.10    1.20
  -8  -8  -7   14.20    1.10
   8   8   7   16.80    0.80
   2  -9  -7    8.50    1.20
   2  -9  -7   11.00    1.60
  -2   9   7    9.10    0.80
  -2   9   7    9.80    0.90
   1  -9  -7   31.50    2.50
   1  -9  -7   32.10    2.80
  -1   9   7   31.00    1.60
  -1   9   7   29.00    1.60
  -1   9   7   32.80    1.70
   0  -9  -7  165.08    7.50
   0  -9  -7  158.78    7.10
   0   9   7  165.48    5.80
   0   9   7  160.58    5.70
  -1  -9  -7   24.40    2.10
  -1  -9  -7   25.60    2.60
  -1  -9  -7   27.60    2.90
   1   9   7   28.50    1.60
   1   9   7   29.10    1.70
  -2  -9  -7  290.47   11.80
  -2  -9  -7  301.67   11.20
   2   9   7  313.37   10.20
   2   9   7  324.27   10.20
  -3  -9  -7   67.29    3.70
  -3  -9  -7   63.99    4.00
  -3  -9  -7   56.39    2.80
   3   9   7   66.79    2.70
   3   9   7   60.99    2.70
   3   9   7   65.09    2.80
  -4  -9  -7    6.30    1.30
  -4  -9  -7    7.90    1.10
   4   9   7    5.40    0.80
   4   9   7    5.80    0.90
  -5  -9  -7  496.55   16.50
  -5  -9  -7  516.55   17.30
   5   9   7  525.15   16.10
   5   9   7  527.95   16.20
  -6  -9  -7   29.70    1.70
  -6  -9  -7   22.00    1.80
   6   9   7   27.80    1.30
   6   9   7   28.30    1.40
  -7  -9  -7   13.30    1.10
  -7  -9  -7   15.30    1.10
   7   9   7   14.80    0.90
   1 -10  -7  267.07    9.00
   1 -10  -7  239.68    8.60
  -1  10   7  230.88    7.80
   0 -10  -7   13.90    1.70
   0 -10  -7   13.60    1.80
   0  10   7   15.80    1.10
   0  10   7   13.30    0.90
  -1 -10  -7   39.00    3.10
  -1 -10  -7   39.80    2.80
  -1 -10  -7   35.50    2.20
   1  10   7   40.80    1.90
   1  10   7   40.30    1.80
  -2 -10  -7    0.40    0.70
  -2 -10  -7    0.60    0.80
   2  10   7    0.30    0.40
   2  10   7    0.40    0.50
  -3 -10  -7   34.80    2.70
  -3 -10  -7   34.00    2.30
   3  10   7   34.90    1.70
   3  10   7   33.60    1.60
   3  10   7   36.40    1.70
  -4 -10  -7  306.27   10.40
  -4 -10  -7  322.07   11.20
   4  10   7  336.77   10.20
   4  10   7  310.67   10.10
  -5 -10  -7    6.00    1.10
  -5 -10  -7    5.00    0.80
   5  10   7    7.00    0.70
   5  10   7    6.00    0.60
  -6 -10  -7   11.50    1.20
   6  10   7   14.60    0.80
   6  10   7   12.70    0.80
  -1 -11  -7   16.10    1.50
   1  11   7   17.20    0.90
  -2 -11  -7  135.69    5.10
  -2 -11  -7  145.79    5.70
   2  11   7  135.39    4.60
   2  11   7  147.69    4.70
  -3 -11  -7   27.50    1.70
  -3 -11  -7   26.60    2.00
   3  11   7   27.00    1.30
   3  11   7   29.90    1.30
  -4 -11  -7   11.70    1.20
   4  11   7   11.60    0.70
   4   9  -8    6.70    0.70
   4   9  -8    8.50    0.80
   4   9  -8    8.40    0.60
   4   9  -8    8.00    0.70
   4   9  -8    9.80    1.00
   4   9  -8    8.40    0.70
  -4  -9   8    8.20    0.80
   3   9  -8   42.60    1.90
   3   9  -8   49.70    2.30
   3   9  -8   43.90    1.80
   3   9  -8   42.20    1.90
   3   9  -8   42.60    1.80
   3   9  -8   46.10    2.00
   2   9  -8   19.90    1.40
   2   9  -8   18.60    1.10
   2   9  -8   19.20    1.40
   2   9  -8   21.50    1.30
   2   9  -8   19.00    1.10
   2   9  -8   19.70    1.30
  -2  -9   8   20.40    1.60
   1   9  -8   69.19    2.90
   1   9  -8   68.19    2.60
   1   9  -8   67.69    2.60
   1   9  -8   65.49    2.80
   1   9  -8   66.49    3.10
  -1  -9   8   74.39    3.30
   0   9  -8   33.10    1.60
   0   9  -8   29.60    1.40
   0   9  -8   27.60    1.50
   0   9  -8   25.50    1.50
   0  -9   8   28.50    2.00
   0  -9   8   31.80    2.00
  -1   9  -8  101.89    3.70
  -1   9  -8  107.39    3.70
   1  -9   8  109.19    4.20
   1  -9   8  115.79    4.50
   5   8  -8   21.40    1.50
   5   8  -8   21.20    1.20
   5   8  -8   22.70    1.20
   5   8  -8   20.90    1.20
   5   8  -8   22.00    1.30
   5   8  -8   21.20    1.10
   4   8  -8  124.79    4.50
   4   8  -8  120.69    4.20
   4   8  -8  119.39    4.30
   4   8  -8  121.89    4.90
   4   8  -8  127.39    4.60
   4   8  -8  119.89    4.40
   3   8  -8  164.38    6.10
   3   8  -8  158.68    5.70
   3   8  -8  146.79    5.40
   3   8  -8  163.08    5.40
   3   8  -8  149.19    5.50
   3   8  -8  155.38    5.70
   3   8  -8  160.88    5.80
   2   8  -8  128.29    4.70
   2   8  -8  120.59    4.70
   2   8  -8  119.59    4.50
   2   8  -8  117.09    4.50
   2   8  -8  123.09    4.80
   2   8  -8  121.99    5.00
   2   8  -8  125.29    4.40
   1   8  -8   44.40    2.20
   1   8  -8   47.00    2.40
   1   8  -8   39.00    2.70
   1   8  -8   42.40    2.20
   1   8  -8   42.30    2.10
   1   8  -8   42.60    2.40
   1   8  -8   41.60    2.00
   0   8  -8   42.70    2.80
   0   8  -8   41.80    2.00
   0   8  -8   35.50    2.10
   0   8  -8   44.00    2.40
   0   8  -8   42.90    2.20
   0   8  -8   43.20    2.10
   0  -8   8   46.50    2.90
  -1   8  -8    0.00    0.50
  -1   8  -8    0.70    0.50
  -1   8  -8    0.30    0.50
  -1   8  -8    0.30    0.60
  -1   8  -8    0.00    0.40
   1  -8   8    0.40    0.60
  -2   8  -8   35.50    1.70
  -2   8  -8   37.50    1.70
  -2   8  -8   35.50    1.70
   2  -8   8   37.90    2.50
  -3   8  -8   20.50    1.10
   3  -8   8   22.30    1.60
   6   7  -8   19.80    1.10
   6   7  -8   18.70    1.10
   6   7  -8   21.20    1.00
   6   7  -8   20.30    1.30
   6   7  -8   20.10    1.10
   6   7  -8   18.70    1.00
  -6  -7   8   17.80    1.30
   5   7  -8  120.29    4.10
   5   7  -8  116.59    4.50
   5   7  -8  113.99    4.10
   5   7  -8  112.99    4.70
   5   7  -8  116.19    4.30
   5   7  -8  116.59    4.30
   5   7  -8  123.39    4.20
   4   7  -8    9.00    1.00
   4   7  -8    7.50    1.00
   4   7  -8    8.10    1.10
   4   7  -8    7.20    0.80
   4   7  -8    7.70    1.20
   4   7  -8    7.90    1.00
   4   7  -8    7.10    0.90
   3   7  -8    1.60    0.80
   3   7  -8    0.00    0.40
   3   7  -8    0.50    0.50
   3   7  -8    0.70    0.50
   3   7  -8    0.70    0.50
   3   7  -8   -0.20    0.50
   3   7  -8    0.10    0.40
   2   7  -8    5.10    0.80
   2   7  -8    4.50    1.10
   2   7  -8    5.50    0.90
   2   7  -8    6.60    1.00
   2   7  -8    5.30    1.00
   2   7  -8    3.10    0.70
   2   7  -8    3.30    0.70
   2   7  -8    4.90    1.10
   1   7  -8  138.29    5.40
   1   7  -8  138.49    5.10
   1   7  -8  145.49    5.50
   1   7  -8  140.09    5.40
   1   7  -8  143.29    5.70
   1   7  -8  133.99    5.10
   1   7  -8  138.29    6.10
   0   7  -8   53.39    2.70
   0   7  -8   67.19    3.70
   0   7  -8   60.59    2.90
   0   7  -8   57.19    2.90
   0   7  -8   60.49    3.20
   0   7  -8   57.69    2.90
   0   7  -8   57.39    2.70
  -1   7  -8    4.20    1.20
  -1   7  -8    4.50    0.80
  -1   7  -8    5.10    0.80
  -1   7  -8    5.30    1.00
  -1   7  -8    6.40    1.00
  -1   7  -8    5.20    0.90
  -2   7  -8   45.40    2.40
  -2   7  -8   50.49    2.30
  -2   7  -8   50.89    3.00
  -2   7  -8   49.60    2.40
   2  -7   8   47.90    3.20
   2  -7   8   51.39    3.30
  -3   7  -8    1.40    0.50
  -3   7  -8    0.70    0.50
  -3   7  -8    0.30    0.60
   3  -7   8    1.10    0.90
   3  -7   8    0.80    0.80
  -4   7  -8  140.69    4.70
  -4   7  -8  133.39    4.60
   4  -7   8  131.69    5.30
   4  -7   8  142.59    5.60
   7   6  -8   44.60    1.80
   7   6  -8   44.20    1.70
   7   6  -8   44.90    1.80
   7   6  -8   45.20    1.70
   7   6  -8   42.10    1.70
  -7  -6   8   44.50    1.90
   6   6  -8    4.20    0.60
   6   6  -8    5.60    0.70
   6   6  -8    4.30    0.60
   6   6  -8    4.50    0.70
   6   6  -8    4.80    0.60
   6   6  -8    6.00    0.70
  -6  -6   8    4.90    0.80
   5   6  -8    0.10    0.50
   5   6  -8   -0.10    0.40
   5   6  -8   -0.10    0.40
   5   6  -8    0.10    0.30
   5   6  -8    0.50    0.40
   5   6  -8    0.80    0.50
   5   6  -8    0.20    0.40
   4   6  -8    1.20    0.60
   4   6  -8    2.10    0.70
   4   6  -8    1.80    0.70
   4   6  -8    0.80    0.60
   4   6  -8    1.40    0.50
   4   6  -8    1.80    0.60
   4   6  -8    1.70    0.50
   4   6  -8    1.30    0.60
   3   6  -8  473.55   15.10
   3   6  -8  449.95   14.60
   3   6  -8  460.85   15.00
   3   6  -8  476.55   14.90
   3   6  -8  470.65   15.50
   3   6  -8  455.95   15.10
   3   6  -8  449.26   14.70
   2   6  -8  260.87    8.40
   2   6  -8  241.78    8.70
   2   6  -8  246.78    8.40
   2   6  -8  249.48    9.30
   2   6  -8  243.68    8.70
   2   6  -8  253.47    8.70
   2   6  -8  246.28    9.00
   2   6  -8  251.27    8.50
   1   6  -8  106.19    4.20
   1   6  -8  104.69    4.70
   1   6  -8  107.49    4.40
   1   6  -8  105.49    4.40
   1   6  -8  103.39    5.00
   1   6  -8  106.29    4.40
   1   6  -8  106.89    4.10
   0   6  -8   15.80    2.00
   0   6  -8   15.00    1.40
   0   6  -8   15.60    1.80
   0   6  -8   18.40    1.40
   0   6  -8   16.80    1.60
   0   6  -8   15.70    1.50
   0   6  -8   16.00    2.30
   0   6  -8   15.60    1.60
  -1   6  -8   53.39    3.00
  -1   6  -8   54.69    2.80
  -1   6  -8   55.29    3.40
  -1   6  -8   55.89    2.90
  -1   6  -8   50.59    2.70
  -1   6  -8   61.29    4.00
  -1   6  -8   56.89    2.70
  -1   6  -8   56.19    2.60
  -2   6  -8  193.18    6.90
  -2   6  -8  194.18    6.90
  -2   6  -8  188.48    8.70
  -2   6  -8  189.38    7.00
  -2   6  -8  186.18    6.70
  -2   6  -8  191.38    7.80
   2  -6   8  192.78    8.20
  -3   6  -8  155.08    5.90
  -3   6  -8  159.88    5.70
  -3   6  -8  159.48    5.80
  -3   6  -8  159.28    6.50
  -3   6  -8  156.88    7.40
   3  -6   8  160.88    7.20
  -4   6  -8    4.30    0.80
  -4   6  -8    4.40    0.70
   4  -6   8    3.40    1.10
   4  -6   8    3.80    1.10
  -5   6  -8   -0.20    0.40
  -5   6  -8    0.60    0.40
   5  -6   8    0.50    0.60
   7   5  -8    7.20    0.70
   7   5  -8    7.40    0.70
   7   5  -8    9.00    0.70
   7   5  -8    6.80    0.60
   7   5  -8    6.00    0.60
   7   5  -8    6.80    0.60
  -7  -5   8    7.80    0.80
   6   5  -8   89.39    3.30
   6   5  -8   87.09    3.40
   6   5  -8   87.69    3.30
   6   5  -8   86.69    3.40
   6   5  -8   80.59    3.50
   6   5  -8   82.99    3.20
   6   5  -8   85.69    3.20
   5   5  -8  129.89    4.90
   5   5  -8  134.39    4.70
   5   5  -8  125.59    5.20
   5   5  -8  133.59    4.80
   5   5  -8  130.39    4.80
   5   5  -8  130.49    5.10
   5   5  -8  126.19    4.60
   4   5  -8    9.70    1.20
   4   5  -8   11.00    1.10
   4   5  -8    9.00    1.10
   4   5  -8   11.40    1.10
   4   5  -8    9.40    1.10
   4   5  -8    9.40    1.00
   4   5  -8   11.10    1.40
   3   5  -8  595.44   19.20
   3   5  -8  590.84   19.00
   3   5  -8  633.24   19.70
   3   5  -8  628.64   18.90
   3   5  -8  598.24   19.00
   3   5  -8  596.64   19.20
   3   5  -8  597.14   19.30
   2   5  -8  220.38    7.50
   2   5  -8  225.68    7.60
   2   5  -8  223.68    7.80
   2   5  -8  219.68    7.60
   2   5  -8  214.88    7.90
   2   5  -8  230.48    7.90
   2   5  -8  229.08    8.20
   1   5  -8   61.59    2.80
   1   5  -8   58.19    2.90
   1   5  -8   65.79    3.00
   1   5  -8   63.09    3.70
   1   5  -8   64.49    2.70
   1   5  -8   63.09    3.20
   1   5  -8   74.39    7.70
   1   5  -8   61.29    3.00
  -1  -5   8   77.49    7.10
   0   5  -8  305.77   11.00
   0   5  -8  313.47   10.60
   0   5  -8  350.06   12.90
   0   5  -8  337.47   10.80
   0   5  -8  326.97   11.20
   0   5  -8  302.47   10.90
   0   5  -8  336.07   12.00
   0   5  -8  336.17   15.00
   0   5  -8  338.27   11.10
  -1   5  -8  225.68    9.10
  -1   5  -8  237.38    9.90
  -1   5  -8  228.88    8.00
  -1   5  -8  230.38    8.40
  -1   5  -8  227.58    8.10
  -1   5  -8  233.28    7.80
  -1   5  -8  229.18    7.90
  -1   5  -8  222.58    8.10
  -2   5  -8  150.48    6.10
  -2   5  -8  156.38    5.90
  -2   5  -8  155.68    5.60
  -2   5  -8  142.79    7.50
  -2   5  -8  164.48    8.10
  -2   5  -8  161.78    6.10
  -2   5  -8  162.48    5.80
  -2   5  -8  150.68    6.80
  -3   5  -8    4.90    1.50
  -3   5  -8    5.10    0.90
  -3   5  -8    3.30    0.90
  -3   5  -8    4.30    0.80
  -3   5  -8    5.10    1.30
   3  -5   8    3.80    1.30
  -4   5  -8   26.20    1.90
  -4   5  -8   26.50    1.70
  -4   5  -8   26.00    1.70
  -4   5  -8   27.70    2.70
   4  -5   8   27.40    2.60
   4  -5   8   28.90    1.90
  -5   5  -8   35.80    1.90
   5  -5   8   36.20    2.70
   5  -5   8   32.70    1.90
   5  -5   8   34.20    2.30
  -6   5  -8   29.10    1.40
   6  -5   8   27.80    1.80
   6  -5   8   25.40    1.50
   7   4  -8   25.20    1.30
   7   4  -8   25.30    1.20
   7   4  -8   24.90    1.30
   7   4  -8   23.80    1.30
   7   4  -8   25.40    1.30
   7   4  -8   24.40    1.30
  -7  -4   8   23.10    1.40
   6   4  -8  126.29    4.70
   6   4  -8  132.89    4.70
   6   4  -8  124.09    5.00
   6   4  -8  138.39    4.70
   6   4  -8  139.59    4.80
   6   4  -8  134.19    4.90
   6   4  -8  131.99    4.80
   5   4  -8    2.70    0.70
   5   4  -8    2.80    0.70
   5   4  -8    2.40    0.60
   5   4  -8    3.20    0.70
   5   4  -8    2.30    0.60
   5   4  -8    3.30    0.70
   5   4  -8    1.50    0.60
   4   4  -8  289.77    9.90
   4   4  -8  288.17    9.40
   4   4  -8  292.67    9.50
   4   4  -8  282.67    9.60
   4   4  -8  287.17   10.00
   4   4  -8  287.57    9.60
   4   4  -8  298.67    9.70
   3   4  -8  109.09    4.40
   3   4  -8  110.99    4.10
   3   4  -8  109.49    4.20
   3   4  -8  109.79    4.60
   3   4  -8  104.09    4.10
   3   4  -8  112.79    4.00
  -3  -4   8  120.79    7.60
   2   4  -8  124.29    8.90
   2   4  -8  127.49    7.20
  -2  -4   8  126.49    7.80
  -2  -4   8  128.39    8.60
   1   4  -8 1380.86   47.70
   1   4  -8 1440.56   48.80
   1   4  -8 1404.86   47.70
  -1  -4   8 1444.76   47.50
  -1  -4   8 1402.56   46.90
   0   4  -8   53.79    6.50
   0   4  -8   60.09    6.50
   0   4  -8   48.80    5.40
   0  -4   8   59.39    5.50
   0  -4   8   62.29    6.00
  -1   4  -8  412.46   18.20
  -1   4  -8  438.16   19.20
   1  -4   8  438.16   17.30
   1  -4   8  419.66   17.80
   1  -4   8  403.56   17.70
  -2   4  -8   49.20    3.50
  -2   4  -8   53.79    3.70
  -2   4  -8   58.29    2.70
  -2   4  -8   56.49    3.30
  -2   4  -8   56.49    2.90
  -2   4  -8   56.09    4.20
  -2   4  -8   61.79    2.70
   2  -4   8   50.69    5.90
   2  -4   8   46.50    5.90
  -3   4  -8  115.69    4.60
  -3   4  -8  112.39    5.40
  -3   4  -8  123.79    6.70
  -3   4  -8  116.99    6.30
  -3   4  -8  113.89    5.00
  -3   4  -8  119.89    4.90
  -3   4  -8  122.49    4.50
  -4   4  -8  106.79    4.60
  -4   4  -8  113.39    6.80
  -4   4  -8  106.79    4.40
  -4   4  -8  105.29    4.20
  -4   4  -8  115.79    6.00
   4  -4   8  104.89    4.50
  -5   4  -8    1.30    0.70
  -5   4  -8    0.40    1.00
  -5   4  -8    1.20    0.60
  -5   4  -8    0.90    0.60
   5  -4   8    0.90    0.70
   5  -4   8    0.00    0.80
  -6   4  -8   23.20    1.50
  -6   4  -8   23.70    1.50
  -6   4  -8   21.60    1.20
   6  -4   8   24.10    1.60
   6  -4   8   23.70    2.00
   7   3  -8   28.70    1.50
   7   3  -8   28.00    1.40
   7   3  -8   29.30    1.40
   7   3  -8   28.00    1.40
   7   3  -8   28.80    1.50
   7   3  -8   28.70    1.40
   6   3  -8   14.80    1.20
   6   3  -8   12.70    1.10
   6   3  -8    9.20    1.00
   6   3  -8   11.40    1.10
   6   3  -8   10.60    1.20
   6   3  -8   11.20    1.00
   6   3  -8   12.80    1.10
   5   3  -8   43.50    2.20
   5   3  -8   41.20    2.00
   5   3  -8   37.60    1.90
   5   3  -8   38.50    2.10
   5   3  -8   41.80    2.00
   5   3  -8   37.60    1.90
   5   3  -8   39.90    2.10
   4   3  -8  162.88    5.60
   4   3  -8  161.38    5.90
   4   3  -8  160.38    5.60
   4   3  -8  151.78    5.70
   4   3  -8  164.08    5.60
   4   3  -8  158.38    5.70
   4   3  -8  159.38    5.50
   3   3  -8    8.60    3.10
   3   3  -8    4.20    3.20
  -3  -3   8    2.40    1.80
  -3  -3   8    1.70    1.70
   2   3  -8  345.87   14.70
   2   3  -8  320.87   15.10
   2   3  -8  320.27   14.70
  -2  -3   8  343.77   14.20
  -2  -3   8  352.66   15.40
   1   3  -8    9.20    2.10
   1   3  -8    7.30    2.20
   1   3  -8    4.20    1.60
  -1  -3   8    3.50    1.50
  -1  -3   8    3.60    1.60
   0   3  -8  462.45   18.90
   0   3  -8  473.85   17.70
   0   3  -8  463.65   18.40
   0  -3   8  470.85   18.00
   0  -3   8  437.36   17.00
   0  -3   8  475.45   18.10
  -1   3  -8  505.95   20.50
  -1   3  -8  522.45   21.30
   1  -3   8  523.75   20.10
   1  -3   8  515.45   19.40
  -2   3  -8  305.67   13.30
  -2   3  -8  279.47   13.70
  -2   3  -8  298.67   14.70
   2  -3   8  275.87   13.30
   2  -3   8  294.27   13.20
  -3   3  -8  254.47   12.80
  -3   3  -8  234.38    8.70
  -3   3  -8  231.28   10.60
  -3   3  -8  270.97   12.50
  -3   3  -8  243.88   14.20
  -3   3  -8  250.37    8.40
   3  -3   8  261.57   14.90
   3  -3   8  238.98   11.80
  -4   3  -8   10.90    2.30
  -4   3  -8    6.70    1.00
  -4   3  -8    7.20    1.30
  -4   3  -8    7.00    1.00
  -4   3  -8    6.90    1.20
  -4   3  -8    7.10    1.90
   4  -3   8    7.30    1.20
  -5   3  -8    0.20    0.50
  -5   3  -8    0.60    0.70
  -5   3  -8    0.60    0.60
   5  -3   8    1.60    0.70
  -6   3  -8   95.19    4.00
  -6   3  -8  100.29    3.90
   6  -3   8   93.69    4.80
   6  -3   8  101.09    4.20
  -7   3  -8    0.10    0.50
  -7   3  -8   -0.10    0.40
   7  -3   8    0.10    0.50
   7  -3   8   -0.20    0.60
   7   2  -8   10.30    0.90
   7   2  -8   12.00    1.00
   7   2  -8   10.30    0.90
   7   2  -8   10.30    0.90
   7   2  -8   10.00    1.00
   7   2  -8   11.00    0.90
   7   2  -8   10.60    0.90
   6   2  -8    0.50    0.60
   6   2  -8    1.90    0.60
   6   2  -8    0.20    0.40
   6   2  -8    0.70    0.50
   6   2  -8    0.30    0.50
   6   2  -8    0.90    0.50
   6   2  -8    0.70    0.40
   5   2  -8   27.10    1.80
   5   2  -8   28.50    1.60
   5   2  -8   27.20    1.60
   5   2  -8   26.70    1.60
   5   2  -8   29.40    1.70
   5   2  -8   28.70    1.60
   5   2  -8   27.50    1.70
   4   2  -8   74.69    5.10
   4   2  -8   64.09    2.60
   4   2  -8   63.69    2.60
   4   2  -8   62.49    2.70
   4   2  -8   62.69    2.70
   4   2  -8   65.69    2.80
   4   2  -8   59.69    3.30
   4   2  -8   62.79    2.70
  -4  -2   8   74.29    7.50
   3   2  -8   25.60    4.80
   3   2  -8   21.10    2.60
   3   2  -8   27.00    4.30
  -3  -2   8   20.70    3.80
  -3  -2   8   34.60    4.40
   2   2  -8   75.09    7.30
   2   2  -8   70.09    6.10
   2   2  -8   69.89    6.30
  -2  -2   8   66.99    5.40
  -2  -2   8   66.89    4.70
   1   2  -8   75.19    6.10
   1   2  -8   80.69    7.00
   1   2  -8   77.49    5.10
   1   2  -8   79.29    5.00
  -1  -2   8   82.19    5.20
  -1  -2   8   77.69    4.80
   0   2  -8  622.34   22.30
   0   2  -8  649.34   22.90
   0   2  -8  664.03   23.10
   0   2  -8  633.74   23.80
   0  -2   8  674.13   22.80
   0  -2   8  639.34   22.40
   0  -2   8  654.43   21.30
   0  -2   8  629.14   21.60
  -1   2  -8  642.44   23.10
  -1   2  -8  612.04   24.20
  -1   2  -8  673.03   23.20
   1  -2   8  634.34   22.90
   1  -2   8  633.34   22.70
  -2   2  -8   74.09    5.20
  -2   2  -8   79.59    5.50
  -2   2  -8   71.79    5.20
   2  -2   8   76.89    5.40
   2  -2   8   71.69    5.10
   2  -2   8   69.09    6.10
  -3   2  -8  149.09    9.80
  -3   2  -8  171.08   10.50
  -3   2  -8  161.28    8.80
   3  -2   8  158.18    8.80
   3  -2   8  172.88    9.20
   3  -2   8  153.08    8.80
  -4   2  -8  166.88    7.50
  -4   2  -8  186.68    7.10
  -4   2  -8  181.28    7.00
  -4   2  -8  180.38    6.50
  -4   2  -8  179.38    6.80
  -4   2  -8  195.18    8.90
  -5   2  -8  331.97   11.90
  -5   2  -8  347.77   11.80
  -5   2  -8  360.96   14.00
  -5   2  -8  337.37   11.40
   5  -2   8  343.07   11.70
  -6   2  -8   77.99    3.60
  -6   2  -8   78.39    3.40
   6  -2   8   75.19    4.30
   6  -2   8   80.99    3.70
   6  -2   8   80.59    3.40
  -7   2  -8    7.50    0.90
  -7   2  -8    6.00    0.90
   7  -2   8    6.70    1.00
   7  -2   8    6.80    0.80
   7   1  -8    5.70    0.70
   7   1  -8    5.00    0.70
   7   1  -8    6.00    0.60
   7   1  -8    5.50    0.80
   7   1  -8    5.50    0.70
   7   1  -8    6.40    0.70
  -7  -1   8    5.00    0.70
   6   1  -8   37.90    1.90
   6   1  -8   38.70    2.00
   6   1  -8   34.30    2.10
   6   1  -8   38.50    1.90
   6   1  -8   39.30    1.90
   6   1  -8   36.90    1.90
   6   1  -8   37.80    1.90
   5   1  -8   37.90    1.90
   5   1  -8   37.80    1.90
   5   1  -8   37.40    1.90
   5   1  -8   38.30    1.90
   5   1  -8   37.90    2.00
   5   1  -8   37.20    2.10
   5   1  -8   39.20    1.90
   4   1  -8   91.19    8.50
   4   1  -8   76.59    3.20
   4   1  -8   79.89    3.10
   4   1  -8   79.69    3.10
   4   1  -8   81.29    3.10
   4   1  -8   77.49    3.10
   4   1  -8   79.49    3.50
   3   1  -8   35.20    4.90
   3   1  -8   28.60    5.10
  -3  -1   8   35.20    4.10
  -3  -1   8   31.80    4.30
   2   1  -8  589.64   20.80
   2   1  -8  555.14   22.20
   2   1  -8  568.44   21.20
  -2  -1   8  576.44   20.80
  -2  -1   8  586.14   21.50
   1   1  -8  130.99    7.50
   1   1  -8  136.99    7.40
   1   1  -8  133.79    6.90
   1   1  -8  135.49    6.40
   1   1  -8  135.49    6.60
   1   1  -8  146.79    6.60
  -1  -1   8  147.39    6.50
  -1  -1   8  140.69    5.80
  -1  -1   8  131.59    6.60
  -1  -1   8  139.49    6.50
  -1  -1   8  129.19    5.90
   0   1  -8  707.43   25.50
   0   1  -8  744.13   24.70
   0   1  -8  706.73   24.10
   0   1  -8  687.13   24.60
   0  -1   8  739.43   24.70
   0  -1   8  732.83   23.70
   0  -1   8  754.22   24.60
   0  -1   8  726.53   24.00
  -1   1  -8   13.90    2.80
  -1   1  -8   11.20    2.60
  -1   1  -8   16.60    2.80
   1  -1   8   11.40    1.90
   1  -1   8   13.00    1.90
   1  -1   8   13.50    2.30
   1  -1   8   10.50    2.10
  -2   1  -8  136.29    6.90
  -2   1  -8  127.19    6.90
  -2   1  -8  120.39    7.90
   2  -1   8  131.09    6.20
   2  -1   8  125.09    7.10
   2  -1   8  134.19    7.20
   2  -1   8  127.29    6.50
   2  -1   8  122.69    6.80
  -3   1  -8 1090.79   37.40
  -3   1  -8 1071.19   39.10
  -3   1  -8 1132.09   37.60
   3  -1   8 1134.59   37.90
   3  -1   8 1099.59   37.50
   3  -1   8 1114.39   37.70
  -4   1  -8  551.44   20.80
  -4   1  -8  516.95   22.60
   4  -1   8  541.05   21.50
   4  -1   8  536.85   21.40
   4  -1   8  521.05   20.40
  -5   1  -8    5.50    1.00
  -5   1  -8    7.00    1.50
  -5   1  -8    4.40    1.10
  -5   1  -8    4.40    0.90
  -5   1  -8    4.80    2.00
   5  -1   8    5.20    1.00
  -6   1  -8    8.70    1.10
  -6   1  -8    9.20    2.00
  -6   1  -8    5.10    1.10
  -6   1  -8    6.10    1.20
   6  -1   8    7.20    1.20
   6  -1   8    6.80    1.10
  -7   1  -8    1.90    0.70
  -7   1  -8    0.80    0.50
   7  -1   8    0.80    0.60
   7  -1   8    1.30    0.60
  -8   1  -8    3.20    0.50
  -8   1  -8    4.00    0.70
   8  -1   8    3.10    0.60
   8  -1   8    4.10    0.60
   7   0  -8  220.68    7.00
   7   0  -8  214.48    7.00
   7   0  -8  223.48    7.10
   7   0  -8  216.28    6.90
   7   0  -8  209.78    6.90
   7   0  -8  212.18    7.10
  -7   0   8  205.68    6.90
   6   0  -8    0.80    0.70
   6   0  -8    0.60    0.50
   6   0  -8    0.00    0.40
   6   0  -8   -0.30    0.40
   6   0  -8    0.30    0.40
   6   0  -8    0.10    0.40
   6   0  -8    1.00    0.40
   6   0  -8    0.50    0.50
   5   0  -8   52.59    2.50
   5   0  -8   50.39    2.30
   5   0  -8   50.69    2.20
   5   0  -8   44.60    2.70
   5   0  -8   51.19    2.30
   5   0  -8   53.09    2.30
   5   0  -8   51.19    2.50
   5   0  -8   48.90    2.30
   4   0  -8    7.80    0.90
   4   0  -8    7.90    0.90
   4   0  -8    8.10    0.90
   4   0  -8    7.20    0.80
   4   0  -8    8.60    1.00
   4   0  -8    6.80    0.80
   3   0  -8  480.85   19.30
   3   0  -8  447.86   20.10
   3   0  -8  472.75   18.70
  -3   0   8  484.65   18.70
  -3   0   8  467.95   18.10
   2   0  -8  158.18    9.20
   2   0  -8  158.98    8.40
   2   0  -8  152.78    8.00
  -2   0   8  155.28    7.80
  -2   0   8  152.58    7.80
  -2   0   8  155.98    7.60
   1   0  -8    1.00    2.20
   1   0  -8    4.20    1.40
   1   0  -8   -0.10    0.60
   1   0  -8    2.70    0.90
   1   0  -8    0.10    0.90
   1   0  -8    2.00    1.30
  -1   0   8    1.50    1.20
  -1   0   8    5.10    1.40
   0   0  -8   46.40    3.00
   0   0  -8   48.90    4.20
   0   0  -8   44.50    3.10
   0   0  -8   42.20    3.90
   0   0  -8   43.60    3.80
   0   0  -8   47.70    4.50
   0   0   8   45.90    3.30
  -1   0  -8  205.48    8.90
  -1   0  -8  190.68    8.00
  -1   0  -8  201.48    8.60
  -1   0  -8  196.28    9.10
   1   0   8  188.38    8.70
   1   0   8  184.78    8.10
   1   0   8  200.68    8.00
   1   0   8  195.68    8.90
   1   0   8  203.48    8.10
  -2   0  -8 1242.48   41.60
  -2   0  -8 1285.77   41.00
  -2   0  -8 1248.98   40.60
  -2   0  -8 1209.48   39.60
   2   0   8 1258.27   41.00
   2   0   8 1200.68   39.60
   2   0   8 1264.17   39.70
   2   0   8 1252.67   40.10
   2   0   8 1242.48   41.00
  -3   0  -8  630.74   22.90
  -3   0  -8  620.84   24.10
  -3   0  -8  655.23   22.90
   3   0   8  647.04   23.40
   3   0   8  607.14   21.70
   3   0   8  624.34   23.20
   3   0   8  628.74   22.30
  -4   0  -8    3.10    2.00
  -4   0  -8    5.10    3.60
   4   0   8    0.60    3.30
   4   0   8    0.70    1.90
   4   0   8    3.20    2.40
  -5   0  -8  301.67   10.60
  -5   0  -8  294.07   10.00
  -5   0  -8  299.77   11.90
  -5   0  -8  309.57   10.70
  -5   0  -8  295.97   10.40
   5   0   8  301.67   10.20
  -6   0  -8   56.59    2.70
  -6   0  -8   56.09    3.00
  -6   0  -8   56.89    3.20
   6   0   8   56.59    2.80
  -7   0  -8   -0.10    0.50
  -7   0  -8    0.20    0.70
  -7   0  -8    0.00    0.60
   7   0   8    1.00    0.60
   7   0   8    0.80    0.60
  -8   0  -8    0.50    0.40
  -8   0  -8    0.00    0.50
   8   0   8    0.00    0.50
   8   0   8    0.10    0.40
   7  -1  -8   15.80    1.20
   7  -1  -8   19.10    1.20
   7  -1  -8   20.20    1.10
   7  -1  -8   20.30    1.00
   7  -1  -8   20.70    1.10
  -7   1   8   20.60    1.10
   6  -1  -8   21.20    1.30
   6  -1  -8   20.30    1.30
   6  -1  -8   20.30    1.50
   6  -1  -8   20.50    1.30
   6  -1  -8   18.90    1.40
   6  -1  -8   19.90    1.30
   6  -1  -8   21.00    1.60
   5  -1  -8  101.89    4.20
   5  -1  -8  102.29    4.10
   5  -1  -8  105.49    3.90
   5  -1  -8  101.59    3.90
   5  -1  -8  102.29    3.80
   5  -1  -8  102.89    3.80
   5  -1  -8  100.79    4.50
   4  -1  -8   68.19    3.30
   4  -1  -8   67.29    2.90
   4  -1  -8   62.39    2.70
   4  -1  -8   64.59    2.90
   4  -1  -8   67.19    2.80
   4  -1  -8   63.39    2.60
   4  -1  -8   62.89    2.60
   3  -1  -8   24.90    5.30
   3  -1  -8   22.60    3.90
  -3   1   8   22.50    3.30
  -3   1   8   24.00    3.60
   2  -1  -8    1.80    0.80
   2  -1  -8    3.40    1.80
   2  -1  -8    0.90    2.10
   2  -1  -8    3.80    2.20
  -2   1   8    4.50    1.60
  -2   1   8    2.20    1.20
   1  -1  -8  200.68    8.20
   1  -1  -8  195.28    9.90
   1  -1  -8  211.08    9.40
   1  -1  -8  199.38    9.40
  -1   1   8  201.28    8.70
  -1   1   8  207.08    8.30
   0  -1  -8  973.30   32.20
   0  -1  -8  984.70   31.60
   0  -1  -8  953.90   32.30
   0  -1  -8  931.91   30.70
   0   1   8  932.31   32.40
   0   1   8  957.60   30.60
  -1  -1  -8  324.07   12.50
  -1  -1  -8  327.67   13.00
  -1  -1  -8  326.27   12.90
  -1  -1  -8  334.47   12.60
   1   1   8  342.37   13.30
   1   1   8  325.37   12.70
   1   1   8  315.37   12.40
  -2  -1  -8  739.53   25.50
  -2  -1  -8  729.83   26.00
  -2  -1  -8  744.13   25.90
   2   1   8  750.62   25.30
   2   1   8  756.42   26.10
  -3  -1  -8   11.30    2.40
  -3  -1  -8   13.40    3.00
  -3  -1  -8   11.10    2.30
   3   1   8   10.30    2.20
   3   1   8    8.80    2.00
   3   1   8    8.40    2.30
   3   1   8    8.00    1.90
   3   1   8    9.20    2.30
  -4  -1  -8  353.36   15.20
  -4  -1  -8  343.77   16.90
   4   1   8  363.76   15.80
   4   1   8  360.66   14.40
   4   1   8  378.56   15.50
   4   1   8  371.26   16.00
   4   1   8  369.46   14.00
  -5  -1  -8   23.50    1.90
  -5  -1  -8   22.30    1.80
  -5  -1  -8   30.00    4.30
  -5  -1  -8   24.00    1.90
  -5  -1  -8   22.50    1.70
   5   1   8   19.60    2.60
  -6  -1  -8  154.58    6.20
  -6  -1  -8  147.89    6.10
  -6  -1  -8  142.09    5.40
  -6  -1  -8  145.69    5.90
   6   1   8  149.59    5.70
   6   1   8  147.19    5.50
  -7  -1  -8  101.89    4.30
  -7  -1  -8  100.09    4.40
  -7  -1  -8   91.39    3.80
   7   1   8  103.49    4.20
   7   1   8   94.79    4.10
  -8  -1  -8    4.60    0.70
  -8  -1  -8    7.80    1.00
   8   1   8    4.50    0.70
   8   1   8    3.70    0.80
   7  -2  -8   12.60    0.90
   7  -2  -8   14.00    0.90
   7  -2  -8   14.30    0.90
   7  -2  -8   13.30    0.90
  -7   2   8   14.60    0.80
   6  -2  -8   21.50    1.30
   6  -2  -8   23.80    1.50
   6  -2  -8   21.70    1.30
   6  -2  -8   21.30    1.40
   6  -2  -8   21.90    1.60
   6  -2  -8   21.20    1.20
   5  -2  -8   59.79    3.10
   5  -2  -8   65.59    2.90
   5  -2  -8   56.49    2.50
   5  -2  -8   60.99    2.60
   5  -2  -8   64.49    2.90
   5  -2  -8   62.39    2.60
   5  -2  -8   60.99    2.70
   4  -2  -8    0.60    0.50
   4  -2  -8    1.10    0.50
   4  -2  -8    1.20    0.50
   4  -2  -8   -0.10    0.50
   4  -2  -8    1.10    0.50
   4  -2  -8    1.10    0.70
   4  -2  -8    0.90    0.50
   4  -2  -8    1.00    0.80
   3  -2  -8  165.38   11.10
   3  -2  -8  159.38    8.90
  -3   2   8  142.79    8.80
  -3   2   8  148.29   10.90
   2  -2  -8   34.10    3.60
   2  -2  -8   35.20    5.00
   2  -2  -8   33.90    3.50
  -2   2   8   36.10    4.10
  -2   2   8   42.80    5.90
   1  -2  -8  133.19    7.40
   1  -2  -8  136.69    7.50
   1  -2  -8  121.49    7.80
  -1   2   8  127.59    6.60
  -1   2   8  135.99    8.40
   0  -2  -8  315.97   13.30
   0  -2  -8  318.27   11.60
   0  -2  -8  291.27   13.00
   0  -2  -8  322.27   12.50
   0   2   8  327.07   12.80
   0   2   8  320.47   13.80
   0   2   8  316.67   11.70
  -1  -2  -8 1495.75   48.40
  -1  -2  -8 1467.65   48.00
  -1  -2  -8 1519.75   47.00
   1   2   8 1510.65   47.90
   1   2   8 1459.65   48.40
  -2  -2  -8 1341.27   42.40
  -2  -2  -8 1336.67   42.90
  -2  -2  -8 1303.37   42.40
  -2  -2  -8 1267.07   43.20
   2   2   8 1358.66   43.50
   2   2   8 1310.87   42.70
   2   2   8 1273.17   43.80
  -3  -2  -8   77.79    5.60
  -3  -2  -8   74.09    4.60
  -3  -2  -8   80.09    6.20
   3   2   8   80.79    5.30
   3   2   8   83.69    5.00
   3   2   8   77.89    5.40
   3   2   8   78.99    5.20
   3   2   8   73.09    6.30
  -4  -2  -8   38.50    4.80
  -4  -2  -8   41.70    4.60
  -4  -2  -8   43.00    4.70
   4   2   8   44.40    4.80
   4   2   8   44.10    5.30
   4   2   8   39.60    4.40
   4   2   8   43.20    4.60
   4   2   8   42.60    4.90
  -5  -2  -8  138.29    8.40
  -5  -2  -8  124.79    5.70
  -5  -2  -8  138.79   10.00
  -5  -2  -8  132.09    5.80
   5   2   8  126.99    9.40
   5   2   8  125.69    8.00
  -6  -2  -8    4.80    1.10
  -6  -2  -8    4.30    1.10
  -6  -2  -8    5.30    1.00
   6   2   8    4.80    0.80
   6   2   8    5.90    1.00
  -7  -2  -8   57.49    3.10
  -7  -2  -8   53.59    2.90
   7   2   8   50.49    2.70
   7   2   8   58.89    2.60
   7   2   8   53.69    2.80
  -8  -2  -8  219.98    8.00
  -8  -2  -8  243.28    8.00
   8   2   8  228.28    7.50
   8   2   8  231.88    7.80
   6  -3  -8   62.89    2.50
   6  -3  -8   62.79    2.60
   6  -3  -8   69.59    2.70
   6  -3  -8   61.59    2.40
   6  -3  -8   69.29    3.00
   6  -3  -8   73.69    2.70
  -6   3   8   64.19    2.50
   5  -3  -8  178.58    6.40
   5  -3  -8  183.38    6.50
   5  -3  -8  183.68    6.50
   5  -3  -8  181.78    6.20
   5  -3  -8  189.18    6.90
   5  -3  -8  180.08    6.20
   5  -3  -8  185.18    6.90
   4  -3  -8   88.69    4.10
   4  -3  -8   86.79    3.50
   4  -3  -8   91.59    3.50
   4  -3  -8   89.79    3.70
   4  -3  -8   93.79    3.70
   4  -3  -8   90.29    3.80
   4  -3  -8   91.59    3.50
   4  -3  -8   97.99    4.30
   3  -3  -8   11.10    1.00
   3  -3  -8    9.90    1.30
   3  -3  -8   12.70    1.10
   3  -3  -8   10.90    1.50
   3  -3  -8   11.70    1.20
   3  -3  -8    9.90    1.10
   3  -3  -8    9.60    1.10
   2  -3  -8   61.49    6.70
   2  -3  -8   65.29    6.30
   2  -3  -8   70.59    6.50
  -2   3   8   66.49    6.00
  -2   3   8   59.19    4.80
   1  -3  -8  121.29    7.10
   1  -3  -8  116.79    7.90
   1  -3  -8  112.59    6.70
  -1   3   8  122.59    8.40
  -1   3   8  108.89    6.50
   0  -3  -8  668.93   24.10
   0  -3  -8  725.23   25.40
   0  -3  -8  689.73   25.00
   0   3   8  688.13   26.10
   0   3   8  698.63   24.60
   0   3   8  677.13   23.50
  -1  -3  -8  233.78   10.70
  -1  -3  -8  223.28   10.70
  -1  -3  -8  218.58   10.10
  -1  -3  -8  226.88    9.20
   1   3   8  216.68   10.90
   1   3   8  242.58   10.40
  -2  -3  -8  269.77   12.20
  -2  -3  -8  292.27   12.60
  -2  -3  -8  281.97   11.70
   2   3   8  284.57   12.60
   2   3   8  301.77   12.40
   2   3   8  284.87   12.80
  -3  -3  -8   74.89    6.20
  -3  -3  -8   79.49    5.50
  -3  -3  -8   76.29    5.40
  -3  -3  -8   75.69    5.60
   3   3   8   78.89    5.50
   3   3   8   82.29    6.10
  -4  -3  -8   45.00    5.10
  -4  -3  -8   48.10    5.20
  -4  -3  -8   38.60    5.00
   4   3   8   50.29    5.80
   4   3   8   54.59    5.40
   4   3   8   47.20    4.10
   4   3   8   55.89    5.40
   4   3   8   48.80    4.40
  -5  -3  -8   22.80    4.40
  -5  -3  -8   21.40    1.70
  -5  -3  -8   24.30    3.90
  -5  -3  -8   24.90    2.00
   5   3   8   20.90    4.70
   5   3   8   22.80    3.90
   5   3   8   24.40    2.00
  -6  -3  -8   64.99    3.20
  -6  -3  -8   61.59    3.10
  -6  -3  -8   63.99    3.40
   6   3   8   64.59    2.90
  -7  -3  -8  444.76   14.30
  -7  -3  -8  420.96   14.60
   7   3   8  430.96   13.90
   7   3   8  430.56   14.10
  -8  -3  -8   83.19    3.60
  -8  -3  -8   89.19    3.80
   8   3   8   87.49    3.60
   8   3   8   93.19    3.40
   6  -4  -8  129.29    4.30
   6  -4  -8  129.59    4.60
   6  -4  -8  130.99    4.30
   6  -4  -8  120.89    4.50
  -6   4   8  124.19    4.20
  -6   4   8  128.69    4.40
   5  -4  -8    6.10    0.80
   5  -4  -8    6.70    0.80
   5  -4  -8    6.50    0.70
   5  -4  -8    6.20    1.00
   5  -4  -8    5.20    1.00
   5  -4  -8    6.10    0.70
   5  -4  -8    5.10    0.80
  -5   4   8    5.40    0.70
   4  -4  -8    2.20    0.60
   4  -4  -8    2.70    0.80
   4  -4  -8    3.20    0.60
   4  -4  -8    1.30    0.60
   4  -4  -8    1.50    0.70
   4  -4  -8    1.70    0.60
   4  -4  -8    2.80    0.60
  -4   4   8    1.90    0.60
   3  -4  -8   30.40    1.80
   3  -4  -8   31.10    1.80
   3  -4  -8   28.90    1.70
   3  -4  -8   29.50    1.60
   3  -4  -8   31.80    2.10
   3  -4  -8   29.00    3.40
   3  -4  -8   30.20    2.20
   3  -4  -8   29.10    1.60
   2  -4  -8   87.59    7.60
   2  -4  -8   72.79    7.60
   2  -4  -8   80.49    7.30
  -2   4   8   78.79    9.50
  -2   4   8   76.69    6.90
   1  -4  -8  587.44   23.50
   1  -4  -8  624.54   24.00
  -1   4   8  607.94   23.30
  -1   4   8  608.44   22.60
  -1   4   8  615.74   25.70
   0  -4  -8  407.36   16.20
   0  -4  -8  382.86   15.80
   0  -4  -8  405.16   16.80
   0   4   8  392.56   17.90
   0   4   8  370.76   15.10
   0   4   8  408.86   16.60
  -1  -4  -8   26.20    3.90
  -1  -4  -8   27.90    3.90
  -1  -4  -8   23.90    3.80
   1   4   8   29.30    4.50
   1   4   8   25.00    2.80
  -2  -4  -8  418.46   16.70
  -2  -4  -8  397.06   16.20
  -2  -4  -8  419.56   15.80
   2   4   8  403.66   16.90
   2   4   8  406.46   16.50
   2   4   8  405.36   17.70
  -3  -4  -8  506.95   18.60
  -3  -4  -8  476.05   18.80
  -3  -4  -8  474.55   19.00
   3   4   8  470.85   19.10
   3   4   8  454.85   19.50
   3   4   8  514.05   19.20
  -4  -4  -8  717.13   26.50
  -4  -4  -8  685.93   26.30
   4   4   8  725.13   26.40
   4   4   8  707.73   25.40
   4   4   8  678.83   26.30
   4   4   8  733.53   24.60
   4   4   8  728.33   24.10
  -5  -4  -8   28.20    2.00
  -5  -4  -8   27.20    2.90
  -5  -4  -8   35.90    2.30
  -5  -4  -8   26.70    1.90
   5   4   8   28.70    1.60
  -6  -4  -8  188.68    7.40
  -6  -4  -8  187.48    6.90
  -6  -4  -8  193.28    7.00
   6   4   8  183.48    6.50
   6   4   8  184.18    6.60
  -7  -4  -8  316.27   11.20
  -7  -4  -8  313.77   10.70
  -7  -4  -8  319.77   10.80
   7   4   8  319.57   10.70
   7   4   8  326.07   10.60
  -8  -4  -8   49.10    2.40
  -8  -4  -8   48.10    2.60
   8   4   8   50.99    2.20
   8   4   8   46.00    2.30
   5  -5  -8    0.20    0.40
   5  -5  -8    0.30    0.50
   5  -5  -8    0.00    0.40
   5  -5  -8    0.50    0.50
  -5   5   8   -0.10    0.40
   4  -5  -8  194.58    7.50
   4  -5  -8  196.58    6.70
   4  -5  -8  199.28    6.80
   4  -5  -8  206.68    7.40
   4  -5  -8  202.08   11.00
   4  -5  -8  211.58    7.00
   4  -5  -8  203.18    7.10
   4  -5  -8  204.58    7.00
   3  -5  -8   34.00    2.30
   3  -5  -8   28.70    1.70
   3  -5  -8   32.10    1.70
   3  -5  -8   30.00    1.90
   3  -5  -8   32.30    1.90
   3  -5  -8   31.80    3.10
   3  -5  -8   31.10    2.10
   3  -5  -8   33.40    1.90
   2  -5  -8  184.88    6.40
   2  -5  -8  178.88    6.40
   2  -5  -8  172.28    6.20
   2  -5  -8  181.88    6.90
   2  -5  -8  179.48    6.20
   2  -5  -8  182.68    6.80
   2  -5  -8  183.08    8.40
   2  -5  -8  181.88    6.40
   1  -5  -8   -2.30    3.30
   1  -5  -8   10.30    3.30
  -1   5   8   10.30    2.80
  -1   5   8    6.90    2.30
  -1   5   8    8.10    4.00
   0  -5  -8  117.49    7.90
   0  -5  -8  112.39    8.00
   0  -5  -8  123.19    7.70
   0   5   8  125.69    9.30
   0   5   8  124.19    8.60
   0   5   8  120.99    7.20
  -1  -5  -8   24.60    4.00
  -1  -5  -8   21.40    4.50
  -1  -5  -8   22.00    3.90
   1   5   8   17.30    3.90
   1   5   8   21.60    4.30
  -2  -5  -8  420.06   17.30
  -2  -5  -8  460.35   18.10
  -2  -5  -8  419.96   16.20
   2   5   8  406.06   17.60
   2   5   8  435.96   19.40
   2   5   8  410.96   17.60
  -3  -5  -8  414.56   17.00
  -3  -5  -8  408.86   17.30
  -3  -5  -8  423.46   16.70
   3   5   8  415.36   18.60
   3   5   8  402.56   17.00
   3   5   8  380.46   17.00
  -4  -5  -8    1.10    2.10
  -4  -5  -8    1.80    3.20
   4   5   8   -0.80    0.70
   4   5   8   12.50    2.80
  -5  -5  -8    5.80    1.30
  -5  -5  -8    5.60    0.90
  -5  -5  -8    5.40    1.00
  -5  -5  -8    4.90    1.00
  -5  -5  -8    5.60    1.20
   5   5   8    5.00    0.80
  -6  -5  -8   16.50    1.70
  -6  -5  -8   13.20    1.40
  -6  -5  -8   14.00    1.70
   6   5   8   14.30    1.30
   6   5   8   15.70    1.20
  -7  -5  -8  129.49    5.00
  -7  -5  -8  129.49    5.50
  -7  -5  -8  121.39    4.90
   7   5   8  133.89    4.60
   7   5   8  128.89    4.90
   7   5   8  132.79    4.80
  -8  -5  -8  107.59    4.20
  -8  -5  -8  116.09    4.60
   8   5   8  119.19    4.10
   8   5   8  110.19    4.20
   5  -6  -8   85.39    3.50
   5  -6  -8   96.29    3.40
  -5   6   8   90.49    3.20
  -5   6   8   90.09    3.30
   4  -6  -8    6.30    1.00
   4  -6  -8    5.60    1.40
   4  -6  -8    6.70    1.00
   4  -6  -8    4.90    0.70
   4  -6  -8    5.60    0.80
  -4   6   8    4.80    0.80
   3  -6  -8    7.20    1.10
   3  -6  -8    8.20    1.30
   3  -6  -8    8.30    1.00
   3  -6  -8    7.60    1.00
   3  -6  -8    6.90    1.70
   3  -6  -8    7.80    0.90
  -3   6   8    7.10    1.00
   2  -6  -8   81.59    3.90
   2  -6  -8   85.89    3.80
   2  -6  -8   79.29    3.30
   2  -6  -8   85.49    3.50
   2  -6  -8   81.59    3.30
   2  -6  -8   83.89    5.10
   2  -6  -8   79.49    3.40
  -2   6   8   79.79    3.40
   1  -6  -8  148.89    6.90
   1  -6  -8  143.49    5.20
   1  -6  -8  136.39    5.10
   1  -6  -8  149.29    7.20
   1  -6  -8  146.89    5.80
   1  -6  -8  148.69    5.30
   1  -6  -8  138.59    5.30
   1  -6  -8  145.19    5.70
   0  -6  -8    1.10    0.80
   0  -6  -8    1.00    2.10
   0  -6  -8    1.00    0.70
   0  -6  -8    1.90    0.70
   0  -6  -8    1.00    1.00
   0  -6  -8    2.20    0.60
   0  -6  -8    0.10    0.90
   0  -6  -8    2.10    0.70
   0  -6  -8    1.40    3.20
   0  -6  -8    0.60    0.50
  -1  -6  -8  826.12   31.80
  -1  -6  -8  890.31   31.90
  -1  -6  -8  893.11   32.20
   1   6   8  877.41   31.90
   1   6   8  858.81   34.90
  -2  -6  -8  272.07   13.60
  -2  -6  -8  274.57   13.80
   2   6   8  265.67   13.70
   2   6   8  293.87   15.80
   2   6   8  277.67   12.80
  -3  -6  -8  344.27   15.80
  -3  -6  -8  359.36   12.80
  -3  -6  -8  364.36   11.80
  -3  -6  -8  347.97   15.10
   3   6   8  364.36   18.20
   3   6   8  346.17   16.80
  -4  -6  -8  234.68    8.20
  -4  -6  -8  221.08    7.90
  -4  -6  -8  220.28    8.80
   4   6   8  232.18    7.60
  -5  -6  -8   98.79    4.50
  -5  -6  -8   94.79    4.80
  -5  -6  -8  102.79    4.40
   5   6   8   98.29    3.80
  -6  -6  -8   66.49    3.20
  -6  -6  -8   64.09    3.40
   6   6   8   67.49    2.80
   6   6   8   63.59    2.90
  -7  -6  -8   12.00    1.50
  -7  -6  -8   10.80    1.20
   7   6   8   11.80    1.10
   7   6   8   12.30    1.00
  -8  -6  -8    0.10    0.50
   8   6   8    0.90    0.40
   8   6   8    0.40    0.30
   4  -7  -8    5.00    0.70
   4  -7  -8    4.70    1.10
   4  -7  -8    4.40    0.80
  -4   7   8    4.50    0.60
   3  -7  -8  118.39    5.80
   3  -7  -8  117.59    4.70
   3  -7  -8  113.89    4.20
   3  -7  -8  115.39    4.50
  -3   7   8  117.09    4.40
   2  -7  -8  122.79    6.50
   2  -7  -8  128.29    4.90
   2  -7  -8  120.29    5.10
   2  -7  -8  135.39    5.10
   2  -7  -8  122.49    4.60
  -2   7   8  125.79    4.70
   1  -7  -8   36.10    2.00
   1  -7  -8   38.20    2.10
   1  -7  -8   37.90    3.40
   1  -7  -8   36.70    3.00
   1  -7  -8   35.40    1.90
   1  -7  -8   38.70    2.40
  -1   7   8   33.30    2.00
   0  -7  -8   50.59    2.40
   0  -7  -8   50.19    3.80
   0  -7  -8   47.60    3.60
   0  -7  -8   45.90    2.30
   0  -7  -8   51.69    2.90
  -1  -7  -8   70.59    3.10
  -1  -7  -8   71.09    3.10
  -1  -7  -8   71.39    4.70
  -1  -7  -8   77.79    4.60
  -1  -7  -8   71.59    3.90
   1   7   8   70.39    3.10
  -2  -7  -8    3.10    1.10
  -2  -7  -8    3.00    0.70
  -2  -7  -8    3.50    0.80
  -2  -7  -8    4.20    1.30
  -2  -7  -8    3.80    0.80
  -3  -7  -8 1313.07   41.10
  -3  -7  -8 1360.76   43.00
  -3  -7  -8 1340.67   41.30
  -3  -7  -8 1283.17   42.20
  -3  -7  -8 1374.86   41.10
   3   7   8 1377.06   40.90
  -4  -7  -8    1.90    0.70
  -4  -7  -8    1.30    0.90
  -4  -7  -8    0.80    1.20
  -4  -7  -8    0.90    0.60
   4   7   8    1.70    0.60
   4   7   8    2.50    0.60
  -5  -7  -8    1.40    0.80
  -5  -7  -8    0.40    0.90
  -5  -7  -8    1.10    0.80
   5   7   8    0.70    0.50
   5   7   8    1.50    0.60
  -6  -7  -8   16.30    1.90
  -6  -7  -8   19.80    1.70
  -6  -7  -8   18.10    1.70
   6   7   8   17.50    1.30
   6   7   8   19.60    1.30
  -7  -7  -8   18.20    1.40
  -7  -7  -8   16.50    1.60
   7   7   8   19.10    1.10
   7   7   8   16.80    1.20
  -8  -7  -8   51.99    2.20
  -8  -7  -8   50.39    2.40
   8   7   8   53.79    2.00
   8   7   8   49.40    2.10
   3  -8  -8   30.80    2.50
   3  -8  -8   33.60    1.80
  -3   8   8   29.90    1.50
  -3   8   8   29.90    1.50
   2  -8  -8   44.60    3.30
   2  -8  -8   40.40    1.90
   2  -8  -8   42.30    2.40
  -2   8   8   41.70    2.00
  -2   8   8   42.20    2.10
   1  -8  -8   11.70    1.80
   1  -8  -8   10.40    1.10
   1  -8  -8   11.50    1.40
   1  -8  -8    9.80    1.90
  -1   8   8   10.90    1.20
  -1   8   8   11.30    1.40
   0  -8  -8  177.28    6.60
   0  -8  -8  163.88    8.00
   0  -8  -8  177.88    6.20
   0  -8  -8  172.78    7.70
   0  -8  -8  171.68    6.10
   0   8   8  173.48    6.20
  -1  -8  -8   15.80    2.30
  -1  -8  -8   17.50    2.60
  -1  -8  -8   17.20    1.40
  -1  -8  -8   16.80    1.90
  -1  -8  -8   18.20    1.50
   1   8   8   17.10    1.40
  -2  -8  -8  404.06   14.40
  -2  -8  -8  415.96   13.30
  -2  -8  -8  409.16   15.50
  -2  -8  -8  397.96   15.10
   2   8   8  420.06   13.30
   2   8   8  406.76   13.20
  -3  -8  -8   61.49    3.70
  -3  -8  -8   63.89    4.10
  -3  -8  -8   58.19    2.90
  -3  -8  -8   65.19    2.90
   3   8   8   57.59    2.70
  -4  -8  -8    6.90    1.40
  -4  -8  -8    7.30    1.10
  -4  -8  -8   10.20    1.90
  -4  -8  -8    6.80    1.70
   4   8   8    8.10    1.00
   4   8   8    7.40    0.90
  -5  -8  -8   27.10    2.30
  -5  -8  -8   24.70    1.80
   5   8   8   24.80    1.60
   5   8   8   24.00    1.50
   5   8   8   27.20    1.50
  -6  -8  -8   19.90    1.70
  -6  -8  -8   24.30    1.70
  -6  -8  -8   17.30    1.90
   6   8   8   23.90    1.20
   6   8   8   22.10    1.30
   6   8   8   20.80    1.40
  -7  -8  -8   32.40    1.90
  -7  -8  -8   36.90    1.90
   7   8   8   35.80    1.70
   7   8   8   39.80    1.70
  -8  -8  -8    5.40    0.70
   8   8   8    5.60    0.50
   2  -9  -8   24.90    2.10
   2  -9  -8   24.50    1.40
  -2   9   8   20.20    1.10
  -2   9   8   21.00    1.20
   1  -9  -8   38.20    3.00
   1  -9  -8   35.30    2.50
  -1   9   8   36.20    1.80
  -1   9   8   37.00    1.70
   0  -9  -8  209.18    9.10
   0  -9  -8  209.48    8.60
   0   9   8  214.48    7.30
   0   9   8  217.78    7.20
  -1  -9  -8   76.59    4.00
  -1  -9  -8   89.49    3.60
  -1  -9  -8   81.99    4.80
  -1  -9  -8   89.59    5.00
   1   9   8   84.89    3.40
   1   9   8   86.89    3.40
  -2  -9  -8    3.30    1.20
  -2  -9  -8    1.70    0.90
   2   9   8    2.90    0.70
   2   9   8    2.50    0.60
  -3  -9  -8   28.00    2.70
  -3  -9  -8   29.00    2.40
   3   9   8   28.00    1.60
   3   9   8   33.50    1.70
  -4  -9  -8   45.80    3.40
  -4  -9  -8   48.40    3.10
  -4  -9  -8   49.99    2.50
   4   9   8   55.29    2.40
   4   9   8   53.19    2.30
  -5  -9  -8   60.89    3.40
  -5  -9  -8   58.99    2.80
   5   9   8   63.99    2.50
   5   9   8   64.49    2.60
  -6  -9  -8   27.40    1.70
  -6  -9  -8   26.00    2.00
   6   9   8   29.00    1.30
   6   9   8   29.80    1.40
  -7  -9  -8   -0.50    0.40
  -7  -9  -8    0.60    0.40
   7   9   8    0.10    0.30
   1 -10  -8   62.39    3.10
  -1  10   8   54.59    2.20
   0 -10  -8  108.99    4.90
   0 -10  -8  119.29    5.30
   0  10   8  113.69    4.00
   0  10   8  116.99    4.10
  -1 -10  -8    2.20    0.70
  -1 -10  -8    3.00    1.20
  -1 -10  -8    2.60    1.00
   1  10   8    3.00    0.60
   1  10   8    3.80    0.60
  -2 -10  -8  182.28    7.10
  -2 -10  -8  200.58    7.80
   2  10   8  186.58    6.30
   2  10   8  191.58    6.40
  -3 -10  -8   57.79    3.10
  -3 -10  -8   53.59    3.40
   3  10   8   52.69    2.20
   3  10   8   54.29    2.40
   3  10   8   58.59    2.40
  -4 -10  -8  111.79    4.20
  -4 -10  -8  116.49    4.90
   4  10   8  119.49    4.10
   4  10   8  112.29    4.00
  -5 -10  -8  155.88    5.90
  -5 -10  -8  147.99    5.30
   5  10   8  158.18    5.10
   5  10   8  144.49    5.00
  -6 -10  -8    1.80    0.50
  -6 -10  -8    2.30    0.70
   6  10   8    1.90    0.30
   6  10   8    1.80    0.40
  -2 -11  -8    6.70    0.90
  -2 -11  -8    7.00    1.10
   2  11   8    7.10    0.60
   2  11   8    6.10    0.60
  -3 -11  -8   44.70    2.50
  -3 -11  -8   41.80    2.10
   3  11   8   42.50    1.70
  -4 -11  -8  117.89    4.40
   4  11   8  114.79    3.90
   4   9  -9   36.10    1.80
   4   9  -9   36.10    1.50
  -4  -9   9   38.50    1.80
   3   9  -9    1.40    0.40
   3   9  -9    1.60    0.50
   3   9  -9    0.70    0.30
   3   9  -9    0.90    0.30
   3   9  -9    1.10    0.30
   3   9  -9    1.00    0.40
  -3  -9   9    1.40    0.40
   2   9  -9    4.10    0.50
   2   9  -9    3.80    0.70
   2   9  -9    3.90    0.70
   2   9  -9    3.70    0.60
   2   9  -9    4.00    0.50
   2   9  -9    4.30    0.60
  -2  -9   9    3.70    0.70
   1   9  -9   11.50    1.00
   1   9  -9   12.00    0.90
   1   9  -9   11.60    0.80
   1   9  -9   12.40    1.00
   1   9  -9   13.10    1.00
  -1  -9   9   11.70    1.20
   0   9  -9  319.27    9.70
   0   9  -9  326.27    9.80
   0   9  -9  308.37    9.70
   0   9  -9  283.27    9.80
   0  -9   9  308.87   10.70
   0  -9   9  312.97   10.30
   5   8  -9  132.09    4.20
   5   8  -9  127.79    4.50
   5   8  -9  131.39    4.30
   5   8  -9  129.99    4.40
   5   8  -9  128.59    4.70
   5   8  -9  121.59    4.30
   4   8  -9    5.90    0.70
   4   8  -9    4.90    0.60
   4   8  -9    5.30    0.80
   4   8  -9    6.00    0.70
   4   8  -9    6.40    0.90
   4   8  -9    6.10    0.70
  -4  -8   9    5.90    0.80
   3   8  -9    5.00    0.70
   3   8  -9    4.30    0.60
   3   8  -9    5.00    0.90
   3   8  -9    4.70    0.80
   3   8  -9    5.30    0.70
   3   8  -9    4.10    0.70
   3   8  -9    4.10    0.70
   2   8  -9   52.99    2.50
   2   8  -9   49.30    2.70
   2   8  -9   54.89    2.30
   2   8  -9   53.49    2.30
   2   8  -9   51.59    2.50
   2   8  -9   53.49    2.50
  -2  -8   9   49.50    2.80
   1   8  -9  121.69    4.50
   1   8  -9  124.69    4.70
   1   8  -9  123.69    4.70
   1   8  -9  128.69    4.50
   1   8  -9  130.99    5.00
   1   8  -9  127.99    5.40
   1   8  -9  126.09    4.80
   0   8  -9   15.20    1.70
   0   8  -9   16.40    1.40
   0   8  -9   15.80    1.20
   0   8  -9   13.90    1.20
   0   8  -9   15.50    1.30
   0   8  -9   16.40    1.30
   0   8  -9   18.00    1.30
   0  -8   9   15.50    1.80
  -1   8  -9   12.50    1.50
  -1   8  -9   10.10    0.90
  -1   8  -9    9.80    1.00
  -1   8  -9    8.20    0.90
  -1   8  -9   10.30    1.00
   1  -8   9   10.40    1.40
  -2   8  -9   33.90    1.60
  -2   8  -9   33.40    1.60
   2  -8   9   36.70    2.30
   6   7  -9    0.60    0.30
   6   7  -9   -0.30    0.30
   6   7  -9    0.60    0.30
   6   7  -9    0.20    0.30
   6   7  -9    0.50    0.40
   6   7  -9    0.20    0.30
  -6  -7   9    0.30    0.40
   5   7  -9    7.40    0.90
   5   7  -9    7.60    0.80
   5   7  -9    6.20    0.70
   5   7  -9    7.30    0.70
   5   7  -9    7.60    0.80
   5   7  -9    6.30    0.90
   5   7  -9    8.10    0.80
   4   7  -9  136.89    4.80
   4   7  -9  130.69    4.90
   4   7  -9  140.49    5.00
   4   7  -9  147.79    4.90
   4   7  -9  128.09    5.00
   4   7  -9  137.59    5.40
   4   7  -9  141.09    5.20
   3   7  -9   52.69    2.60
   3   7  -9   53.99    2.60
   3   7  -9   52.49    2.90
   3   7  -9   55.79    2.30
   3   7  -9   53.59    2.40
   3   7  -9   50.69    2.60
   3   7  -9   55.59    2.50
   2   7  -9    0.80    0.50
   2   7  -9    0.70    0.60
   2   7  -9    0.20    0.50
   2   7  -9    0.80    0.50
   2   7  -9    1.00    0.70
   2   7  -9    0.30    0.40
   2   7  -9    0.30    0.40
   2   7  -9    0.30    0.60
   1   7  -9  152.48    6.20
   1   7  -9  165.18    6.00
   1   7  -9  150.38    5.90
   1   7  -9  153.88    5.70
   1   7  -9  167.38    5.70
   1   7  -9  157.38    6.60
   1   7  -9  156.98    5.90
   0   7  -9   37.30    2.70
   0   7  -9   34.00    2.10
   0   7  -9   32.90    2.10
   0   7  -9   32.30    1.90
   0   7  -9   34.70    2.30
   0   7  -9   35.90    1.90
   0   7  -9   30.70    2.00
  -1   7  -9   33.20    1.80
  -1   7  -9   35.60    2.20
  -1   7  -9   35.00    2.10
  -1   7  -9   35.00    2.50
  -1   7  -9   29.80    1.80
  -1   7  -9   36.90    2.00
  -1   7  -9   33.80    2.00
  -2   7  -9   81.59    3.90
  -2   7  -9   78.19    3.20
  -2   7  -9   80.09    3.30
  -2   7  -9   76.29    3.30
   2  -7   9   78.69    4.70
   2  -7   9   81.89    4.20
  -3   7  -9    8.70    0.90
  -3   7  -9    7.90    1.10
  -3   7  -9    7.20    0.80
   3  -7   9    7.90    1.30
   3  -7   9    7.80    1.30
  -4   7  -9   21.60    1.10
  -4   7  -9   21.50    1.10
   4  -7   9   20.10    1.50
   4  -7   9   21.80    1.60
   6   6  -9   82.49    3.00
   6   6  -9   75.69    3.10
   6   6  -9   83.69    3.00
   6   6  -9   78.69    2.90
   6   6  -9   77.39    2.90
   6   6  -9   83.29    3.00
  -6  -6   9   75.89    3.30
   5   6  -9    6.90    0.80
   5   6  -9    6.80    0.70
   5   6  -9    5.80    0.70
   5   6  -9    5.10    0.70
   5   6  -9    6.30    1.00
   5   6  -9    4.80    0.80
   5   6  -9    5.70    0.80
   4   6  -9   24.10    1.50
   4   6  -9   23.50    1.80
   4   6  -9   24.60    1.40
   4   6  -9   25.00    1.50
   4   6  -9   26.70    1.80
   4   6  -9   26.30    1.70
   4   6  -9   24.40    1.40
   3   6  -9  207.48    7.20
   3   6  -9  200.88    7.70
   3   6  -9  200.68    7.10
   3   6  -9  216.88    7.00
   3   6  -9  202.38    7.30
   3   6  -9  207.48    7.50
   3   6  -9  206.78    7.30
   2   6  -9  294.77    9.50
   2   6  -9  289.17    9.80
   2   6  -9  285.87    9.60
   2   6  -9  282.87    9.90
   2   6  -9  304.07   10.30
   2   6  -9  283.07    9.90
   2   6  -9  283.37    9.60
   2   6  -9  277.27   10.40
   1   6  -9  261.67    8.70
   1   6  -9  259.87    9.00
   1   6  -9  263.97    9.10
   1   6  -9  247.18    9.70
   1   6  -9  253.67    8.80
   1   6  -9  268.07    9.10
   1   6  -9  263.67    9.40
   0   6  -9   12.90    1.20
   0   6  -9   10.40    1.90
   0   6  -9    9.20    1.40
   0   6  -9   10.80    1.30
   0   6  -9   11.40    1.20
   0   6  -9   11.60    1.30
   0   6  -9   10.30    1.30
   0   6  -9   11.50    1.80
  -1   6  -9   44.10    2.40
  -1   6  -9   45.30    2.50
  -1   6  -9   46.70    2.30
  -1   6  -9   43.10    2.40
  -1   6  -9   45.10    2.70
  -1   6  -9   47.80    3.50
  -1   6  -9   43.80    2.40
  -1   6  -9   45.30    3.10
  -2   6  -9   99.39    4.20
  -2   6  -9   90.09    5.30
  -2   6  -9   95.99    4.80
  -2   6  -9   94.59    4.00
  -2   6  -9   95.29    3.90
  -2   6  -9   99.89    4.30
  -2   6  -9  104.59    4.10
   2  -6   9  103.09    5.20
  -3   6  -9   80.29    4.70
  -3   6  -9   81.89    3.30
  -3   6  -9   86.99    3.60
  -3   6  -9   82.09    3.40
  -3   6  -9   83.59    4.10
   3  -6   9   77.79    4.40
  -4   6  -9   64.49    2.60
  -4   6  -9   66.49    2.70
   4  -6   9   60.19    3.30
   4  -6   9   64.49    3.60
  -5   6  -9    3.30    0.50
   5  -6   9    3.00    0.80
   7   5  -9    0.40    0.30
   7   5  -9    0.60    0.30
   7   5  -9    0.60    0.30
   7   5  -9    0.90    0.30
   7   5  -9    0.60    0.30
  -7  -5   9    0.90    0.40
   6   5  -9   27.90    1.50
   6   5  -9   27.80    1.40
   6   5  -9   25.50    1.50
   6   5  -9   26.30    1.60
   6   5  -9   25.80    1.40
   6   5  -9   26.60    1.40
   5   5  -9   12.80    1.40
   5   5  -9   15.40    1.20
   5   5  -9   11.00    1.20
   5   5  -9   13.20    1.10
   5   5  -9   13.80    1.20
   5   5  -9   13.50    1.10
   5   5  -9   13.80    1.30
   4   5  -9  136.69    5.00
   4   5  -9  138.09    4.90
   4   5  -9  135.79    5.00
   4   5  -9  137.09    4.90
   4   5  -9  141.49    5.30
   4   5  -9  129.99    5.40
   4   5  -9  135.79    5.10
   3   5  -9  232.78    8.10
   3   5  -9  234.18    7.80
   3   5  -9  216.48    7.70
   3   5  -9  224.78    7.90
   3   5  -9  220.98    7.60
   3   5  -9  235.78    7.90
   3   5  -9  225.08    8.30
   2   5  -9   53.49    2.50
   2   5  -9   51.99    2.40
   2   5  -9   55.49    2.80
   2   5  -9   49.30    2.70
   2   5  -9   52.29    2.90
   2   5  -9   57.99    2.40
   2   5  -9   56.89    2.70
   1   5  -9    7.40    0.90
   1   5  -9    9.40    1.20
   1   5  -9   10.10    1.60
   1   5  -9    6.80    1.20
   1   5  -9    7.80    1.10
   1   5  -9    9.50    1.10
   1   5  -9    5.30    1.00
   0   5  -9  236.78    9.70
   0   5  -9  233.28    7.90
   0   5  -9  228.38    9.00
   0   5  -9  230.28    8.00
   0   5  -9  219.88    8.10
   0   5  -9  215.88    8.30
   0   5  -9  231.08    7.70
   0   5  -9  222.88    8.10
  -1   5  -9  488.85   16.30
  -1   5  -9  505.25   16.20
  -1   5  -9  505.95   18.10
  -1   5  -9  493.95   15.70
  -1   5  -9  498.55   16.10
  -1   5  -9  457.25   17.00
  -1   5  -9  491.65   15.80
  -2   5  -9   40.40    2.10
  -2   5  -9   39.10    3.00
  -2   5  -9   38.30    2.50
  -2   5  -9   42.10    2.50
  -2   5  -9   42.40    3.70
  -2   5  -9   37.20    3.70
  -2   5  -9   41.80    2.30
  -2   5  -9   42.90    2.40
  -3   5  -9   85.89    4.90
  -3   5  -9   76.39    3.70
  -3   5  -9   82.79    4.20
  -3   5  -9   76.99    3.50
  -3   5  -9   76.59    3.30
  -3   5  -9   77.89    4.20
  -4   5  -9    0.60    0.60
  -4   5  -9    0.20    0.90
  -4   5  -9    0.60    0.50
  -4   5  -9   -0.10    0.60
   4  -5   9    0.60    0.80
  -5   5  -9    8.80    0.80
  -5   5  -9    7.20    0.90
  -5   5  -9    5.80    0.80
   5  -5   9    7.00    1.20
   5  -5   9    6.30    0.90
   5  -5   9    7.70    1.40
   7   4  -9    5.80    0.60
   7   4  -9    6.30    0.60
   7   4  -9    6.10    0.60
   7   4  -9    6.00    0.60
   7   4  -9    5.90    0.60
   7   4  -9    7.00    0.60
  -7  -4   9    6.90    0.70
   6   4  -9   55.09    2.30
   6   4  -9   51.79    2.50
   6   4  -9   58.39    2.30
   6   4  -9   56.69    2.40
   6   4  -9   55.19    2.30
   6   4  -9   54.49    2.40
   6   4  -9   54.49    2.40
   5   4  -9  186.98    6.70
   5   4  -9  186.28    6.40
   5   4  -9  189.58    6.50
   5   4  -9  188.28    6.60
   5   4  -9  186.48    6.40
   5   4  -9  179.08    6.40
   5   4  -9  189.78    6.50
   4   4  -9   31.30    1.80
   4   4  -9   34.70    2.00
   4   4  -9   32.00    1.80
   4   4  -9   30.80    2.10
   4   4  -9   33.20    1.70
   4   4  -9   33.70    1.70
   4   4  -9   30.90    1.90
   3   4  -9   63.19    3.10
   3   4  -9   65.09    2.80
   3   4  -9   64.69    2.80
   3   4  -9   67.59    2.70
   3   4  -9   67.59    2.90
   3   4  -9   59.29    3.00
   3   4  -9   65.09    3.00
   2   4  -9   71.09    3.20
   2   4  -9   68.49    2.80
   2   4  -9   68.29    3.00
   2   4  -9   71.59    7.10
   2   4  -9   67.79    2.90
   2   4  -9   65.19    3.30
  -2  -4   9   74.89    7.10
   1   4  -9  486.05   20.30
   1   4  -9  489.25   20.10
  -1  -4   9  512.05   19.70
  -1  -4   9  485.85   19.90
   0   4  -9  418.66   19.10
   0   4  -9  409.86   18.30
   0  -4   9  396.36   17.40
   0  -4   9  436.46   17.60
  -1   4  -9  130.59   10.20
  -1   4  -9  109.49    4.70
  -1   4  -9  109.49    5.00
  -1   4  -9  112.59    4.50
  -1   4  -9  119.79   10.30
  -1   4  -9  121.29    4.80
  -1   4  -9  113.79    6.40
   1  -4   9  114.19    7.90
   1  -4   9  118.09    8.60
   1  -4   9  130.59    9.20
  -2   4  -9  121.89    6.00
  -2   4  -9  115.99    4.50
  -2   4  -9  130.59    6.70
  -2   4  -9  118.29    5.00
  -2   4  -9  117.69    4.70
  -2   4  -9  117.59    5.40
  -2   4  -9  113.69    4.60
  -2   4  -9  119.59    5.10
  -3   4  -9   59.09    3.30
  -3   4  -9   56.39    2.90
  -3   4  -9   61.09    4.30
  -3   4  -9   60.69    3.10
  -3   4  -9   61.69    2.90
  -3   4  -9   61.69    3.70
  -3   4  -9   57.39    2.70
  -3   4  -9   65.89    4.70
  -4   4  -9   20.70    1.90
  -4   4  -9   16.50    2.60
  -4   4  -9   18.60    1.50
  -4   4  -9   22.00    1.80
  -4   4  -9   22.50    3.40
   4  -4   9   23.80    1.70
  -5   4  -9    4.40    0.90
  -5   4  -9    4.90    0.70
  -5   4  -9    4.40    0.90
  -5   4  -9    5.80    1.50
   5  -4   9    5.00    1.00
  -6   4  -9   90.09    3.40
  -6   4  -9   91.19    3.50
   6  -4   9   88.49    4.20
   6  -4   9   92.79    3.60
   7   3  -9   19.40    1.10
   7   3  -9   18.70    1.10
   7   3  -9   21.00    1.20
   7   3  -9   18.20    1.10
   7   3  -9   21.30    1.10
   7   3  -9   20.50    1.10
   6   3  -9    0.30    0.40
   6   3  -9    0.70    0.40
   6   3  -9    0.40    0.40
   6   3  -9    0.60    0.40
   6   3  -9    0.40    0.40
   6   3  -9    0.10    0.40
   6   3  -9    1.00    0.50
   5   3  -9   18.10    1.40
   5   3  -9   17.40    1.30
   5   3  -9   16.60    1.40
   5   3  -9   16.70    1.40
   5   3  -9   19.30    1.40
   5   3  -9   15.00    1.20
   5   3  -9   19.40    1.50
   4   3  -9  166.38    5.90
   4   3  -9  170.08    6.00
   4   3  -9  171.88    5.90
   4   3  -9  170.88    6.00
   4   3  -9  176.38    5.90
   4   3  -9  163.38    6.20
   4   3  -9  170.08    6.10
   3   3  -9    4.80    0.70
   3   3  -9    4.10    0.70
   3   3  -9    3.90    0.70
   3   3  -9    5.10    0.80
   3   3  -9    5.80    0.90
   3   3  -9    2.60    1.80
  -3  -3   9    5.70    2.50
   2   3  -9   20.10    3.60
   2   3  -9   18.80    4.10
  -2  -3   9   22.00    4.20
  -2  -3   9   23.30    3.70
   1   3  -9  165.68    9.60
   1   3  -9  151.78    9.30
   1   3  -9  154.58    8.60
  -1  -3   9  161.98    8.70
  -1  -3   9  174.78    8.60
   0   3  -9  208.78   10.70
   0   3  -9  186.48    9.70
   0   3  -9  197.88   11.40
   0  -3   9  209.98   10.10
   0  -3   9  188.58    9.90
  -1   3  -9  673.13   26.70
  -1   3  -9  700.23   26.00
   1  -3   9  694.53   25.70
   1  -3   9  682.33   24.90
  -2   3  -9  216.38   12.80
  -2   3  -9  227.98   11.60
  -2   3  -9  229.78   11.50
   2  -3   9  215.08   11.70
   2  -3   9  227.88   11.40
  -3   3  -9  137.69    5.30
  -3   3  -9  144.79    5.80
  -3   3  -9  140.49    7.60
  -3   3  -9  143.79    5.90
  -3   3  -9  141.39    5.60
  -3   3  -9  134.59    5.10
  -4   3  -9    4.50    1.10
  -4   3  -9    6.60    1.00
  -4   3  -9    5.60    1.70
  -4   3  -9    6.40    1.90
  -4   3  -9    6.10    1.20
   4  -3   9    5.40    1.10
  -5   3  -9   50.29    3.60
  -5   3  -9   39.00    2.50
  -5   3  -9   39.50    3.90
  -5   3  -9   42.30    2.30
   5  -3   9   39.50    2.40
  -6   3  -9    0.60    0.50
  -6   3  -9   -0.10    0.60
   6  -3   9   -0.20    0.70
   6  -3   9    0.30    0.60
  -7   3  -9   36.60    1.90
  -7   3  -9   38.80    1.70
   7  -3   9   39.90    1.80
   7   2  -9   23.50    1.40
   7   2  -9   25.30    1.30
   7   2  -9   25.00    1.30
   7   2  -9   27.60    1.30
   7   2  -9   26.50    1.30
   7   2  -9   24.70    1.30
   7   2  -9   26.50    1.40
   6   2  -9    2.20    0.50
   6   2  -9    1.80    0.50
   6   2  -9    0.60    0.60
   6   2  -9    2.00    0.60
   6   2  -9    2.60    0.60
   6   2  -9    2.10    0.60
   6   2  -9    1.40    0.50
   5   2  -9   16.80    1.40
   5   2  -9   23.20    1.90
   5   2  -9   18.40    1.50
   5   2  -9   20.70    1.30
   5   2  -9   19.10    1.40
   5   2  -9   17.50    1.40
   5   2  -9   20.20    1.30
   4   2  -9   22.90    1.40
   4   2  -9   22.40    1.30
   4   2  -9   24.90    1.50
   4   2  -9   25.20    1.50
   4   2  -9   23.00    1.40
   4   2  -9   26.50    1.50
   4   2  -9   28.20    1.90
   3   2  -9    3.40    1.60
   3   2  -9    1.40    1.90
  -3  -2   9    0.10    1.70
  -3  -2   9    0.70    1.60
   2   2  -9  203.08   10.90
   2   2  -9  217.08   10.50
  -2  -2   9  213.78   11.00
  -2  -2   9  208.48    9.80
   1   2  -9   75.09    6.20
   1   2  -9   67.59    6.00
   1   2  -9   71.89    6.80
  -1  -2   9   65.99    4.80
   0   2  -9  509.15   18.60
   0   2  -9  492.75   19.60
   0   2  -9  444.86   17.30
   0   2  -9  473.05   18.20
   0  -2   9  479.95   17.00
   0  -2   9  469.25   16.60
   0  -2   9  457.45   17.60
   0  -2   9  517.75   18.30
  -1   2  -9  376.86   15.60
  -1   2  -9  417.96   16.40
  -1   2  -9  394.46   17.40
   1  -2   9  398.06   15.90
   1  -2   9  399.96   15.80
  -2   2  -9  110.19    8.10
  -2   2  -9  115.99    7.20
  -2   2  -9  121.69    7.60
   2  -2   9  120.09    7.30
   2  -2   9  109.89    6.60
  -3   2  -9  133.19    8.20
  -3   2  -9  112.39    7.90
  -3   2  -9  130.89    9.30
   3  -2   9  141.09    8.40
   3  -2   9  124.59    8.60
  -4   2  -9  163.48    6.70
  -4   2  -9  170.08    6.50
  -4   2  -9  168.88    6.30
  -4   2  -9  172.78    6.20
  -4   2  -9  170.48    6.80
  -5   2  -9   59.29    3.30
  -5   2  -9   65.59    4.70
  -5   2  -9   60.99    4.20
  -5   2  -9   57.39    3.10
  -5   2  -9   59.39    2.80
   5  -2   9   59.29    3.10
  -6   2  -9    0.60    0.70
  -6   2  -9    0.20    0.60
   6  -2   9    0.40    0.60
  -7   2  -9   20.70    1.40
  -7   2  -9   22.30    1.30
   7  -2   9   16.70    1.60
   7  -2   9   20.30    1.40
   7   1  -9   38.10    1.60
   7   1  -9   37.80    1.70
   7   1  -9   39.00    1.70
   7   1  -9   40.10    1.60
   7   1  -9   35.50    1.80
   7   1  -9   39.40    1.80
  -7  -1   9   36.90    1.60
   6   1  -9   20.40    1.30
   6   1  -9   21.50    1.30
   6   1  -9   21.90    1.50
   6   1  -9   21.40    1.30
   6   1  -9   22.80    1.40
   6   1  -9   22.20    1.40
   6   1  -9   23.10    1.30
   5   1  -9   22.20    1.40
   5   1  -9   21.80    1.40
   5   1  -9   24.10    1.40
   5   1  -9   21.90    1.60
   5   1  -9   22.40    1.50
   5   1  -9   22.20    1.40
   5   1  -9   26.30    1.60
   4   1  -9    0.60    0.40
   4   1  -9    0.80    0.40
   4   1  -9    0.80    0.50
   4   1  -9    0.30    0.60
   4   1  -9    1.30    0.50
   4   1  -9    0.20    0.50
   4   1  -9    0.40    0.40
   3   1  -9  163.08    8.50
   3   1  -9  144.89   10.90
  -3  -1   9  146.79    8.60
  -3  -1   9  147.89    8.30
   2   1  -9  290.57   13.90
   2   1  -9  285.07   12.10
   2   1  -9  285.37   12.60
  -2  -1   9  295.47   12.40
  -2  -1   9  293.47   13.00
   1   1  -9    0.20    1.80
   1   1  -9    2.40    0.90
   1   1  -9   -0.40    0.90
   1   1  -9    3.10    2.20
  -1  -1   9   -0.20    1.00
  -1  -1   9    1.00    1.10
   0   1  -9  490.45   18.50
   0   1  -9  433.56   16.50
   0   1  -9  484.65   17.70
   0   1  -9  463.45   17.50
   0  -1   9  464.85   16.30
   0  -1   9  466.35   17.40
   0  -1   9  467.05   16.70
   0  -1   9  476.35   17.50
   0  -1   9  491.95   17.40
  -1   1  -9   97.59    5.70
  -1   1  -9   98.29    6.40
  -1   1  -9   91.89    7.30
   1  -1   9  108.19    5.60
   1  -1   9  106.49    6.10
   1  -1   9  101.69    5.20
   1  -1   9   99.09    5.90
  -2   1  -9  158.58    7.90
  -2   1  -9  156.28    9.50
  -2   1  -9  154.88    8.30
   2  -1   9  151.38    8.00
   2  -1   9  164.68    7.40
   2  -1   9  165.78    8.60
   2  -1   9  150.58    8.10
   2  -1   9  160.78    7.80
  -3   1  -9  342.87   14.80
  -3   1  -9  334.67   16.60
   3  -1   9  338.27   15.10
   3  -1   9  338.37   14.80
   3  -1   9  359.66   15.20
  -4   1  -9  156.08    6.10
  -4   1  -9  158.28    9.40
  -4   1  -9  154.18    6.20
  -4   1  -9  153.38    6.00
  -4   1  -9  142.19    7.00
   4  -1   9  168.78    9.60
   4  -1   9  164.68    8.40
  -5   1  -9  241.28   11.20
  -5   1  -9  255.17    8.70
  -5   1  -9  260.47    9.20
  -5   1  -9  253.87    9.50
  -5   1  -9  265.07    9.50
   5  -1   9  256.47    8.80
  -6   1  -9   12.60    1.30
  -6   1  -9   17.80    1.80
  -6   1  -9   17.80    2.80
  -6   1  -9   15.80    1.70
   6  -1   9   16.40    1.60
   6  -1   9   19.20    1.70
  -7   1  -9   -0.50    0.50
  -7   1  -9    0.80    0.60
   7  -1   9    0.20    0.40
   7  -1   9    0.30    0.50
  -8   1  -9   27.40    1.40
   8  -1   9   25.30    1.30
   7   0  -9    6.20    0.70
   7   0  -9    8.30    0.80
   7   0  -9    7.60    0.70
   7   0  -9    7.30    0.60
   7   0  -9    6.70    0.60
   7   0  -9    6.50    0.60
   6   0  -9  109.99    3.90
   6   0  -9  111.79    4.20
   6   0  -9  106.29    4.00
   6   0  -9  102.29    3.90
   6   0  -9  102.59    4.20
   6   0  -9  113.89    4.00
   5   0  -9   24.40    1.50
   5   0  -9   23.80    1.60
   5   0  -9   24.70    1.40
   5   0  -9   25.40    1.50
   5   0  -9   24.20    2.10
   5   0  -9   21.60    1.40
   5   0  -9   24.20    1.50
   5   0  -9   23.10    1.60
   4   0  -9   77.79    3.00
   4   0  -9   76.89    3.10
   4   0  -9   76.39    3.30
   4   0  -9   77.19    3.00
   4   0  -9   79.39    3.20
   4   0  -9   72.29    3.10
   3   0  -9  377.46   17.80
   3   0  -9  358.26   16.20
  -3   0   9  388.06   15.50
  -3   0   9  372.56   16.00
   2   0  -9   56.19    4.30
   2   0  -9   59.19    6.50
   2   0  -9   49.99    5.30
  -2   0   9   59.79    5.00
  -2   0   9   59.09    5.40
   1   0  -9  181.78    9.00
   1   0  -9  170.88    8.00
   1   0  -9  188.28    8.80
   1   0  -9  180.28    9.50
  -1   0   9  185.68    8.70
  -1   0   9  170.28    8.00
   0   0  -9  583.54   20.50
   0   0  -9  618.64   20.90
   0   0  -9  608.74   21.20
   0   0  -9  605.54   21.50
   0   0  -9  585.44   21.50
   0   0   9  586.54   20.70
   0   0   9  610.74   21.70
   0   0   9  595.94   21.60
  -1   0  -9  180.48    8.30
  -1   0  -9  165.78    7.30
  -1   0  -9  175.98    8.70
  -1   0  -9  179.78    8.70
   1   0   9  167.58    7.40
   1   0   9  164.58    8.40
   1   0   9  179.38    7.80
   1   0   9  174.08    7.80
   1   0   9  170.38    8.40
  -2   0  -9  631.64   22.60
  -2   0  -9  600.14   22.20
  -2   0  -9  598.64   23.20
   2   0   9  636.14   21.30
   2   0   9  621.84   22.70
   2   0   9  606.44   21.70
   2   0   9  636.74   22.70
  -3   0  -9  316.07   15.60
  -3   0  -9  335.57   14.10
  -3   0  -9  307.67   14.20
   3   0   9  337.77   14.40
   3   0   9  330.77   12.70
   3   0   9  331.07   13.90
   3   0   9  331.97   13.00
  -4   0  -9  135.19    8.70
  -4   0  -9  130.79    9.90
   4   0   9  153.68    9.20
   4   0   9  145.29    9.30
   4   0   9  155.68    8.90
  -5   0  -9   -0.20    0.60
  -5   0  -9    7.50    1.30
  -5   0  -9    1.00    0.80
  -5   0  -9    1.60    0.90
  -5   0  -9   -1.00    1.30
  -5   0  -9    0.60    0.70
   5   0   9    1.20    0.60
  -6   0  -9  263.07    9.30
  -6   0  -9  267.17   10.80
  -6   0  -9  259.37    9.50
  -6   0  -9  249.68    8.80
   6   0   9  255.97    9.00
  -7   0  -9    6.30    1.10
  -7   0  -9    7.80    1.20
  -7   0  -9    5.30    0.80
   7   0   9    6.70    1.00
  -8   0  -9    4.70    0.70
  -8   0  -9    3.80    0.60
   8   0   9    3.30    0.60
   8   0   9    4.40    0.70
   7  -1  -9   64.59    3.00
   7  -1  -9   82.79    2.80
   7  -1  -9   81.59    2.80
   7  -1  -9   85.99    2.80
   7  -1  -9   82.89    3.00
   7  -1  -9   85.09    2.90
  -7   1   9   83.69    2.80
   6  -1  -9   37.20    1.90
   6  -1  -9   37.30    1.70
   6  -1  -9   33.40    1.60
   6  -1  -9   32.30    1.60
   6  -1  -9   33.50    2.10
   6  -1  -9   31.80    1.80
   6  -1  -9   34.30    1.70
   5  -1  -9   13.90    1.60
   5  -1  -9    9.70    1.10
   5  -1  -9   11.40    1.00
   5  -1  -9    9.70    1.10
   5  -1  -9   11.70    1.10
   5  -1  -9   11.60    1.00
   5  -1  -9   12.50    1.10
   4  -1  -9   97.49    3.90
   4  -1  -9   98.19    3.90
   4  -1  -9   99.19    3.60
   4  -1  -9  101.49    3.70
   4  -1  -9   88.39    4.10
   4  -1  -9   93.39    3.70
   4  -1  -9   98.09    3.80
   3  -1  -9  176.68    9.80
   3  -1  -9  171.18   10.60
  -3   1   9  177.98    9.20
  -3   1   9  192.68   12.00
  -3   1   9  192.28   10.10
   2  -1  -9   18.50    3.20
   2  -1  -9   13.60    3.20
  -2   1   9   13.80    2.70
  -2   1   9   11.40    2.30
   1  -1  -9  662.03   22.80
   1  -1  -9  602.44   22.70
   1  -1  -9  581.34   23.00
  -1   1   9  618.34   22.00
  -1   1   9  671.23   24.40
   0  -1  -9  121.29    7.60
   0  -1  -9  131.09    6.00
   0  -1  -9  117.69    7.00
   0  -1  -9  122.99    6.40
   0   1   9  130.59    6.00
   0   1   9  128.99    6.60
   0   1   9  127.49    7.40
  -1  -1  -9  775.62   27.70
  -1  -1  -9  828.82   28.00
  -1  -1  -9  824.22   27.60
  -1  -1  -9  811.52   27.50
   1   1   9  784.62   27.30
   1   1   9  830.02   28.50
  -2  -1  -9  550.44   20.60
  -2  -1  -9  580.04   21.30
  -2  -1  -9  530.05   20.90
   2   1   9  590.04   20.20
   2   1   9  588.34   21.10
   2   1   9  564.54   19.70
   2   1   9  544.35   20.20
   2   1   9  584.14   21.30
  -3  -1  -9   60.69    5.50
  -3  -1  -9   68.39    5.90
  -3  -1  -9   71.59    5.40
   3   1   9   62.19    6.00
   3   1   9   62.49    4.60
   3   1   9   61.59    6.00
   3   1   9   69.09    5.60
   3   1   9   61.09    5.00
  -4  -1  -9    1.60    2.00
  -4  -1  -9    2.20    2.00
  -4  -1  -9   -4.20    1.40
   4   1   9    0.60    2.50
   4   1   9   -0.60    1.70
   4   1   9    0.10    1.90
   4   1   9    3.40    2.30
  -5  -1  -9  154.98    6.10
  -5  -1  -9  154.78    5.90
  -5  -1  -9  148.29    5.80
  -5  -1  -9  152.98    6.00
  -5  -1  -9  153.28    6.20
  -5  -1  -9  148.29    6.90
  -6  -1  -9   19.40    2.00
  -6  -1  -9   17.50    1.80
  -6  -1  -9   16.50    1.70
   6   1   9   17.90    1.60
  -7  -1  -9    7.40    1.20
  -7  -1  -9    4.50    1.10
   7   1   9    4.90    0.90
   7   1   9    4.80    0.90
  -8  -1  -9  100.89    4.50
  -8  -1  -9  119.89    4.40
   8   1   9  114.89    4.20
   8   1   9  112.69    4.10
   6  -2  -9   11.60    1.10
   6  -2  -9   10.20    1.20
   6  -2  -9   11.10    0.90
   6  -2  -9   10.30    0.90
   6  -2  -9   10.20    1.00
   6  -2  -9   12.00    1.00
   5  -2  -9   58.49    2.50
   5  -2  -9   53.39    2.50
   5  -2  -9   60.39    2.70
   5  -2  -9   54.09    2.40
   5  -2  -9   57.59    2.70
   5  -2  -9   58.79    3.00
   5  -2  -9   56.89    2.40
   4  -2  -9   83.59    3.30
   4  -2  -9   78.19    3.10
   4  -2  -9   76.39    3.10
   4  -2  -9   80.29    3.40
   4  -2  -9   81.89    3.40
   4  -2  -9   80.29    3.70
   4  -2  -9   82.29    3.10
   4  -2  -9   67.59    3.70
   3  -2  -9   38.10    1.90
   3  -2  -9   39.40    1.90
   3  -2  -9   38.40    2.10
   3  -2  -9   40.00    2.40
   3  -2  -9   39.40    1.90
   3  -2  -9   43.00    2.10
   2  -2  -9  268.67   13.00
   2  -2  -9  315.97   14.20
   2  -2  -9  310.37   15.00
  -2   2   9  309.87   13.40
  -2   2   9  334.87   16.10
   1  -2  -9   29.30    3.70
   1  -2  -9   27.90    4.10
   1  -2  -9   24.20    4.30
  -1   2   9   27.90    3.30
  -1   2   9   39.30    5.40
   0  -2  -9    6.40    2.30
   0  -2  -9    7.90    2.70
   0  -2  -9    4.90    2.40
   0   2   9    6.20    1.90
   0   2   9    6.30    2.00
   0   2   9    5.00    2.10
  -1  -2  -9  812.82   26.80
  -1  -2  -9  746.83   28.00
  -1  -2  -9  783.62   28.10
   1   2   9  802.72   28.10
   1   2   9  835.52   27.60
   1   2   9  778.12   28.00
  -2  -2  -9  274.87   12.30
  -2  -2  -9  293.67   12.70
  -2  -2  -9  274.57   11.90
  -2  -2  -9  288.17   12.10
   2   2   9  312.47   13.10
   2   2   9  293.67   12.20
  -3  -2  -9   10.20    2.30
  -3  -2  -9    9.10    2.40
  -3  -2  -9    7.40    2.50
   3   2   9    9.90    2.50
   3   2   9    6.10    2.60
   3   2   9    6.90    2.00
   3   2   9    6.10    2.10
   3   2   9    5.30    2.20
  -4  -2  -9  235.38   11.70
  -4  -2  -9  239.78   11.70
  -4  -2  -9  238.18   12.80
   4   2   9  242.38   11.40
   4   2   9  234.28   10.10
   4   2   9  251.47   10.70
   4   2   9  252.77   11.50
   4   2   9  251.77   11.50
  -5  -2  -9    4.90    1.10
  -5  -2  -9    6.40    1.10
  -5  -2  -9    4.90    1.00
  -5  -2  -9    6.10    1.00
  -5  -2  -9    4.20    1.00
   5   2   9    4.90    0.80
  -6  -2  -9   10.90    1.50
  -6  -2  -9   11.90    1.60
  -6  -2  -9   11.60    1.40
  -6  -2  -9   12.50    1.50
   6   2   9   10.70    1.30
   6   2   9    9.80    1.10
  -7  -2  -9  638.04   20.60
  -7  -2  -9  633.54   20.90
   7   2   9  672.73   20.10
   7   2   9  609.24   20.40
   7   2   9  667.13   20.50
  -8  -2  -9    1.70    0.60
  -8  -2  -9    1.60    0.70
   8   2   9    1.40    0.40
   8   2   9    1.80    0.50
   8   2   9    1.00    0.70
   6  -3  -9   31.10    1.40
   6  -3  -9   31.10    1.60
   6  -3  -9   32.70    1.60
   6  -3  -9   29.80    1.70
   6  -3  -9   30.00    1.40
   6  -3  -9   30.80    1.50
  -6   3   9   29.00    1.40
   5  -3  -9  105.29    3.90
   5  -3  -9  106.69    4.40
   5  -3  -9  100.09    3.80
   5  -3  -9  107.39    4.10
   5  -3  -9  106.19    4.40
   5  -3  -9  107.09    4.10
   5  -3  -9   98.99    3.90
   4  -3  -9  137.69    5.00
   4  -3  -9  136.39    5.20
   4  -3  -9  140.19    5.10
   4  -3  -9  142.79    5.10
   4  -3  -9  147.59    5.40
   4  -3  -9  145.69    5.30
   4  -3  -9  146.99    5.80
   4  -3  -9  147.59    5.90
   3  -3  -9    6.30    0.90
   3  -3  -9    3.20    1.00
   3  -3  -9    4.80    0.80
   3  -3  -9    5.50    0.70
   3  -3  -9    4.60    0.70
   3  -3  -9    4.70    0.80
   3  -3  -9    4.40    1.00
   2  -3  -9    6.50    1.60
   2  -3  -9    0.50    3.60
   2  -3  -9    1.70    2.00
  -2   3   9    2.50    2.00
  -2   3   9    0.80    2.10
   1  -3  -9  475.65   19.70
   1  -3  -9  487.45   19.70
  -1   3   9  471.45   18.40
  -1   3   9  511.75   21.50
   0  -3  -9  684.13   25.20
   0  -3  -9  727.33   26.70
   0  -3  -9  716.63   26.40
   0   3   9  718.53   27.50
   0   3   9  715.43   25.80
  -1  -3  -9  136.79    7.60
  -1  -3  -9  134.79    7.70
  -1  -3  -9  129.39    6.20
   1   3   9  135.29    7.60
   1   3   9  132.99    8.20
  -2  -3  -9  119.99    7.40
  -2  -3  -9  121.39    6.60
  -2  -3  -9  118.99    6.70
   2   3   9  130.39    7.30
   2   3   9  113.29    7.40
   2   3   9  138.79    7.40
  -3  -3  -9    2.80    2.00
  -3  -3  -9    2.90    2.00
  -3  -3  -9    6.50    2.60
   3   3   9    4.30    1.80
   3   3   9    5.40    2.00
  -4  -3  -9    0.30    1.90
  -4  -3  -9    2.60    0.80
   4   3   9    0.00    2.40
   4   3   9    3.20    2.00
   4   3   9    1.50    1.80
   4   3   9    0.20    2.30
   4   3   9    1.60    1.80
  -5  -3  -9   46.30    2.50
  -5  -3  -9   49.10    2.60
  -5  -3  -9   51.19    2.90
  -5  -3  -9   47.70    2.60
  -5  -3  -9   47.00    2.60
  -5  -3  -9   39.80    3.30
  -6  -3  -9  252.47    9.40
  -6  -3  -9  261.77    9.30
  -6  -3  -9  264.77    9.30
  -6  -3  -9  279.27    9.80
   6   3   9  270.97    9.00
  -7  -3  -9   33.30    2.20
  -7  -3  -9   34.00    2.40
   7   3   9   32.00    2.00
   7   3   9   37.00    1.90
  -8  -3  -9   28.50    1.90
  -8  -3  -9   26.20    1.70
   8   3   9   30.40    1.70
   8   3   9   28.30    1.50
   6  -4  -9   79.09    2.80
   6  -4  -9   81.19    2.80
   6  -4  -9   77.79    3.10
  -6   4   9   81.79    2.90
   5  -4  -9   13.50    1.10
   5  -4  -9   11.10    1.10
   5  -4  -9   13.00    1.10
   5  -4  -9   10.70    1.20
   5  -4  -9   11.00    0.90
   5  -4  -9   12.60    1.00
   5  -4  -9   11.90    1.30
  -5   4   9    9.90    0.80
   4  -4  -9    0.60    0.50
   4  -4  -9    0.60    0.50
   4  -4  -9    0.70    0.70
   4  -4  -9   -0.10    0.40
   4  -4  -9   -0.30    0.40
   4  -4  -9    0.00    0.40
   4  -4  -9    0.10    0.70
   3  -4  -9    4.00    0.80
   3  -4  -9    4.60    1.00
   3  -4  -9    4.20    0.70
   3  -4  -9    5.00    0.70
   3  -4  -9    4.20    0.80
   3  -4  -9    5.80    1.10
   3  -4  -9    6.00    1.90
   3  -4  -9    4.80    0.90
   2  -4  -9  119.99    4.70
   2  -4  -9  126.89    6.50
   2  -4  -9  124.39    4.50
   2  -4  -9  132.19    5.30
   2  -4  -9  121.19    5.00
   2  -4  -9  127.69    4.60
   2  -4  -9  126.19    4.70
   2  -4  -9  122.79    4.50
   1  -4  -9  539.35   22.60
   1  -4  -9  568.14   22.80
  -1   4   9  526.95   20.90
  -1   4   9  571.94   24.40
  -1   4   9  555.84   22.00
   0  -4  -9  963.20   33.60
   0  -4  -9  899.91   34.40
   0  -4  -9 1005.10   34.90
   0   4   9  952.30   34.00
   0   4   9 1013.00   36.60
  -1  -4  -9    5.80    2.30
  -1  -4  -9    6.80    3.40
  -1  -4  -9    8.80    2.70
   1   4   9    8.10    2.00
   1   4   9   11.00    3.00
  -2  -4  -9   41.00    5.00
  -2  -4  -9   36.90    4.00
  -2  -4  -9   40.50    4.30
   2   4   9   40.90    5.30
   2   4   9   46.50    5.10
   2   4   9   37.30    5.20
  -3  -4  -9   39.70    4.80
  -3  -4  -9   40.50    5.00
  -3  -4  -9   46.70    4.90
   3   4   9   40.40    4.70
   3   4   9   42.30    5.70
  -4  -4  -9  252.17   13.00
  -4  -4  -9  237.18   12.90
   4   4   9  265.37   12.60
   4   4   9  258.27   11.40
   4   4   9  264.77   10.40
   4   4   9  261.37   12.80
   4   4   9  259.07   10.70
  -5  -4  -9   71.79    4.30
  -5  -4  -9   81.99    3.70
  -5  -4  -9   82.59    3.70
  -5  -4  -9   82.19    4.00
  -5  -4  -9   83.59    3.60
   5   4   9   79.39    3.20
  -6  -4  -9    9.00    1.30
  -6  -4  -9    9.00    1.20
  -6  -4  -9    8.30    1.30
  -6  -4  -9    8.60    1.20
   6   4   9    9.80    1.10
  -7  -4  -9    1.10    0.80
  -7  -4  -9    0.60    0.70
  -7  -4  -9    1.50    0.70
   7   4   9    0.80    0.50
   7   4   9    0.50    0.50
  -8  -4  -9    0.20    0.50
  -8  -4  -9    1.50    0.70
   8   4   9   -0.50    0.40
   8   4   9    0.80    0.40
   5  -5  -9    2.60    0.60
   5  -5  -9    3.10    0.60
   5  -5  -9    1.70    0.50
   5  -5  -9    3.10    0.50
   5  -5  -9    1.60    0.60
  -5   5   9    2.30    0.50
   4  -5  -9  113.89    4.20
   4  -5  -9  112.59    4.50
   4  -5  -9  110.39    4.20
   4  -5  -9  105.29    4.00
   4  -5  -9  110.69    4.20
   4  -5  -9  107.09    4.60
   3  -5  -9  144.59    5.80
   3  -5  -9  141.79    5.20
   3  -5  -9  141.49    5.20
   3  -5  -9  139.09    5.20
   3  -5  -9  133.69    5.00
   3  -5  -9  135.49    7.00
   3  -5  -9  137.79    5.60
   3  -5  -9  140.99    5.00
   2  -5  -9   60.29    2.70
   2  -5  -9   57.59    2.60
   2  -5  -9   54.69    3.10
   2  -5  -9   58.49    2.70
   2  -5  -9   54.49    2.50
   2  -5  -9   62.49    3.10
   2  -5  -9   57.89    2.60
   2  -5  -9   57.99    4.30
   1  -5  -9   85.19    3.90
   1  -5  -9   79.69    3.30
   1  -5  -9   82.89    3.30
   1  -5  -9   89.99    5.20
   1  -5  -9   87.79    5.00
   1  -5  -9   80.19    3.50
   1  -5  -9   85.59    3.40
   1  -5  -9   86.59    3.90
   0  -5  -9   13.40    3.20
   0  -5  -9   12.50    3.20
   0  -5  -9   14.00    1.50
   0   5   9   12.90    3.80
   0   5   9   10.20    3.20
  -1  -5  -9  742.93   27.40
  -1  -5  -9  736.23   27.70
  -1  -5  -9  696.53   26.70
   1   5   9  709.93   27.10
   1   5   9  688.13   28.60
  -2  -5  -9   68.09    7.00
  -2  -5  -9   84.39    7.50
   2   5   9   76.69    7.40
   2   5   9   69.79    7.80
   2   5   9   66.69    6.60
  -3  -5  -9  169.68    9.20
  -3  -5  -9  153.18    9.20
  -3  -5  -9  135.59    8.80
   3   5   9  144.69    9.60
   3   5   9  147.39    9.80
   3   5   9  137.89    7.70
  -4  -5  -9   28.50    1.80
  -4  -5  -9   31.00    2.50
  -4  -5  -9   27.50    1.90
  -4  -5  -9   29.70    1.90
  -5  -5  -9   46.10    3.20
  -5  -5  -9   49.40    3.00
  -5  -5  -9   49.40    2.70
  -5  -5  -9   51.89    2.80
   5   5   9   49.50    2.30
  -6  -5  -9  111.99    4.70
  -6  -5  -9  116.99    5.10
  -6  -5  -9  116.39    4.80
   6   5   9  111.19    4.20
   6   5   9  113.49    4.40
  -7  -5  -9    9.90    1.30
  -7  -5  -9   10.40    1.50
  -7  -5  -9   11.60    1.30
   7   5   9   11.30    1.00
   7   5   9   11.00    1.20
   7   5   9    9.90    1.00
  -8  -5  -9   88.39    3.60
  -8  -5  -9  100.89    4.10
   8   5   9   98.89    3.60
   8   5   9   99.09    3.60
   4  -6  -9   22.10    1.30
   4  -6  -9   26.80    1.60
   4  -6  -9   23.70    2.20
   4  -6  -9   25.80    1.40
   4  -6  -9   20.80    1.90
   4  -6  -9   24.40    1.70
  -4   6   9   26.30    1.50
   3  -6  -9    1.10    1.00
   3  -6  -9    0.20    0.50
   3  -6  -9    0.40    0.50
   3  -6  -9    1.10    0.50
   3  -6  -9    0.30    0.40
   3  -6  -9   -0.20    0.50
   3  -6  -9    0.50    0.60
  -3   6   9    0.10    0.50
   2  -6  -9  212.98    7.30
   2  -6  -9  212.68    8.00
   2  -6  -9  214.08    7.40
   2  -6  -9  218.78    9.60
   2  -6  -9  207.28    7.20
   2  -6  -9  212.88    7.40
   2  -6  -9  221.58    7.90
  -2   6   9  211.58    7.40
   1  -6  -9    0.40    0.50
   1  -6  -9    0.70    0.70
   1  -6  -9    1.20    1.10
   1  -6  -9    0.60    0.50
   1  -6  -9    1.00    0.90
   1  -6  -9    0.30    0.50
   1  -6  -9    0.10    0.70
   1  -6  -9    0.30    0.50
   0  -6  -9  140.19    5.40
   0  -6  -9  140.99    7.20
   0  -6  -9  141.79    5.20
   0  -6  -9  144.99    5.70
   0  -6  -9  136.19    5.20
   0  -6  -9  150.48    5.90
   0  -6  -9  151.68    7.00
   0  -6  -9  153.28    5.30
  -1  -6  -9  882.81   27.10
  -1  -6  -9  830.32   26.60
  -1  -6  -9  852.81   27.70
  -1  -6  -9  890.71   28.80
  -1  -6  -9  866.91   27.20
  -1  -6  -9  887.61   26.60
  -1  -6  -9  830.52   29.10
  -1  -6  -9  839.72   26.70
  -2  -6  -9    3.20    1.10
  -2  -6  -9    1.90    0.60
  -2  -6  -9    2.80    1.40
  -2  -6  -9    3.10    0.70
  -2  -6  -9    3.20    1.20
  -2  -6  -9    6.20    4.60
  -2  -6  -9    2.60    0.70
   2   6   9    2.20    1.10
  -3  -6  -9  130.19    5.70
  -3  -6  -9  122.49    4.60
  -3  -6  -9  115.69    4.80
  -3  -6  -9  121.69    4.90
  -3  -6  -9  118.09    7.10
  -3  -6  -9  122.09    4.70
  -3  -6  -9  118.49    6.20
   3   6   9  122.29    4.40
  -4  -6  -9   36.30    2.30
  -4  -6  -9   39.90    2.90
  -4  -6  -9   37.40    2.30
  -4  -6  -9   42.20    2.20
  -4  -6  -9   38.70    3.30
  -5  -6  -9  225.88    8.20
  -5  -6  -9  223.98    8.90
  -5  -6  -9  212.98    8.00
  -5  -6  -9  229.68    8.30
   5   6   9  232.08    7.60
  -6  -6  -9    6.80    1.50
  -6  -6  -9    7.10    1.10
  -6  -6  -9    7.10    1.20
  -6  -6  -9    6.50    1.10
   6   6   9    7.90    0.80
   6   6   9    7.80    1.00
  -7  -6  -9   75.59    3.50
  -7  -6  -9   71.09    3.20
   7   6   9   71.39    3.00
   7   6   9   68.89    3.00
   7   6   9   73.39    2.80
  -8  -6  -9    6.50    1.00
  -8  -6  -9    6.00    0.70
   8   6   9    7.80    0.70
   4  -7  -9    3.50    0.60
   4  -7  -9    2.60    0.60
  -4   7   9    2.90    0.50
  -4   7   9    3.00    0.50
   3  -7  -9   76.89    3.30
   3  -7  -9   75.49    4.40
   3  -7  -9   79.39    3.50
   3  -7  -9   73.79    2.90
  -3   7   9   74.59    3.00
   2  -7  -9  198.88    7.30
   2  -7  -9  207.98    8.90
   2  -7  -9  194.78    6.60
   2  -7  -9  188.78    6.80
   2  -7  -9  207.78    7.20
   2  -7  -9  188.48    6.70
  -2   7   9  186.88    6.70
   1  -7  -9   90.89    3.90
   1  -7  -9   84.39    3.50
   1  -7  -9   90.09    5.40
   1  -7  -9   87.39    4.90
   1  -7  -9   85.09    3.50
   1  -7  -9   81.79    4.00
   1  -7  -9   86.69    3.60
   0  -7  -9   90.89    5.60
   0  -7  -9   94.89    3.90
   0  -7  -9   95.09    3.80
   0  -7  -9   93.19    5.30
   0  -7  -9   94.69    3.80
   0  -7  -9  101.79    4.80
   0  -7  -9   97.79    4.40
  -1  -7  -9  201.98    8.80
  -1  -7  -9  203.58    6.90
  -1  -7  -9  195.58    7.40
  -1  -7  -9  196.58    6.90
  -1  -7  -9  195.68    7.90
  -1  -7  -9  187.18    6.90
  -1  -7  -9  193.88    9.10
   1   7   9  202.28    6.90
  -2  -7  -9  608.54   21.10
  -2  -7  -9  593.84   19.10
  -2  -7  -9  586.34   21.50
  -2  -7  -9  612.94   19.00
  -2  -7  -9  605.34   20.30
  -2  -7  -9  611.24   19.10
  -3  -7  -9  408.46   13.20
  -3  -7  -9  418.56   14.50
  -3  -7  -9  402.36   13.30
  -3  -7  -9  391.96   13.40
  -3  -7  -9  411.26   15.20
   3   7   9  403.66   13.00
  -4  -7  -9   27.20    2.40
  -4  -7  -9   25.50    1.80
  -4  -7  -9   27.50    2.00
  -4  -7  -9   26.60    3.00
   4   7   9   25.90    1.60
   4   7   9   26.20    1.50
  -5  -7  -9    3.30    1.10
  -5  -7  -9    2.40    0.80
   5   7   9    3.20    0.70
  -6  -7  -9   23.80    1.80
  -6  -7  -9   24.50    1.80
  -6  -7  -9   23.00    2.20
   6   7   9   26.30    1.50
   6   7   9   25.80    1.60
  -7  -7  -9    7.10    1.00
  -7  -7  -9    6.70    0.90
   7   7   9    6.90    0.70
   7   7   9    7.00    0.80
  -8  -7  -9    8.20    0.80
  -8  -7  -9    8.00    0.90
   8   7   9    6.80    0.70
   8   7   9    8.00    0.60
   3  -8  -9   67.59    2.70
   3  -8  -9   60.39    3.30
  -3   8   9   62.89    2.40
  -3   8   9   58.99    2.30
   2  -8  -9   16.30    1.20
   2  -8  -9   14.70    2.10
   2  -8  -9   17.20    1.50
  -2   8   9   14.90    1.20
  -2   8   9   17.40    1.20
   1  -8  -9   15.50    1.60
   1  -8  -9   16.00    2.10
   1  -8  -9   13.40    2.20
   1  -8  -9   14.50    1.20
  -1   8   9   15.80    1.40
   0  -8  -9   57.39    2.50
   0  -8  -9   51.49    4.10
   0  -8  -9   54.49    3.80
   0  -8  -9   58.89    3.00
   0  -8  -9   57.49    2.60
   0   8   9   55.09    2.60
  -1  -8  -9   66.79    3.80
  -1  -8  -9   71.19    4.50
  -1  -8  -9   81.39    3.30
  -1  -8  -9   76.39    4.90
  -1  -8  -9   76.19    3.20
   1   8   9   79.59    3.20
  -2  -8  -9  367.16   13.90
  -2  -8  -9  373.16   13.20
  -2  -8  -9  371.66   14.50
  -2  -8  -9  365.26   12.00
   2   8   9  363.06   11.90
   2   8   9  364.86   12.00
  -3  -8  -9    3.30    1.10
  -3  -8  -9    4.40    0.90
  -3  -8  -9    3.30    1.30
  -3  -8  -9    3.70    0.80
  -3  -8  -9    4.00    0.80
   3   8   9    4.00    0.70
  -4  -8  -9   18.40    2.10
  -4  -8  -9   16.70    1.50
  -4  -8  -9   16.20    1.50
  -4  -8  -9   18.70    2.50
   4   8   9   17.60    1.40
   4   8   9   16.50    1.30
  -5  -8  -9    9.30    1.50
  -5  -8  -9   12.80    1.30
   5   8   9   10.70    1.10
   5   8   9    9.90    0.90
   5   8   9   12.60    1.10
  -6  -8  -9    4.20    0.90
  -6  -8  -9    4.90    0.90
  -6  -8  -9    4.00    1.10
   6   8   9    4.90    0.70
   6   8   9    5.70    0.70
  -7  -8  -9   57.09    2.60
  -7  -8  -9   60.69    2.60
   7   8   9   62.99    2.30
   7   8   9   60.39    2.40
   2  -9  -9    1.60    0.80
  -2   9   9    2.10    0.40
   1  -9  -9  144.59    5.20
   1  -9  -9  141.39    6.30
   1  -9  -9  136.89    5.80
  -1   9   9  140.49    4.90
  -1   9   9  136.49    4.80
   0  -9  -9  138.09    6.20
   0  -9  -9  145.09    6.60
   0   9   9  137.09    4.90
   0   9   9  135.59    5.00
  -1  -9  -9   29.00    2.10
  -1  -9  -9   31.10    2.80
  -1  -9  -9   35.90    1.80
  -1  -9  -9   34.80    3.10
   1   9   9   33.20    1.80
   1   9   9   34.00    1.80
  -2  -9  -9   -0.20    0.50
  -2  -9  -9    0.30    0.70
  -2  -9  -9    0.50    1.20
  -2  -9  -9    0.20    0.80
   2   9   9    0.60    0.40
   2   9   9    0.70    0.50
  -3  -9  -9   -0.70    0.80
  -3  -9  -9    0.20    0.70
   3   9   9    0.60    0.50
   3   9   9   -0.40    0.30
  -4  -9  -9  266.97    9.40
  -4  -9  -9  312.27   10.50
  -4  -9  -9  275.57   10.80
   4   9   9  269.17    9.10
   4   9   9  282.27    9.20
  -5  -9  -9    5.30    0.80
  -5  -9  -9    6.20    1.20
   5   9   9    4.80    0.60
   5   9   9    4.50    0.70
  -6  -9  -9   45.90    2.20
  -6  -9  -9   41.20    2.50
   6   9   9   47.60    1.90
   6   9   9   44.50    1.90
  -7  -9  -9    9.60    0.80
   7   9   9   10.30    0.70
   0 -10  -9    7.50    1.20
   0 -10  -9    9.70    1.60
   0  10   9    8.40    0.70
   0  10   9    9.90    0.80
  -1 -10  -9  210.08    8.20
  -1 -10  -9  191.68    7.70
   1  10   9  190.78    6.40
   1  10   9  188.98    6.40
  -2 -10  -9    0.20    0.70
  -2 -10  -9    0.40    0.50
   2  10   9    1.40    0.40
   2  10   9    1.20    0.40
   2  10   9    0.40    0.40
  -3 -10  -9   17.30    1.60
  -3 -10  -9   18.90    2.20
   3  10   9   19.00    1.10
   3  10   9   18.50    1.10
  -4 -10  -9    2.40    0.80
  -4 -10  -9    3.40    1.00
   4  10   9    2.80    0.50
   4  10   9    2.80    0.50
  -5 -10  -9   25.20    1.80
  -5 -10  -9   24.40    1.30
   5  10   9   26.20    1.20
   5  10   9   24.70    1.20
  -6 -10  -9   79.79    3.00
   6  10   9   81.99    2.80
  -3 -11  -9   12.60    1.00
   3  11   9   12.10    0.70
   2   9 -10   14.30    0.80
   2   9 -10   15.60    0.90
   2   9 -10   13.30    0.90
   2   9 -10   15.10    1.00
   1   9 -10   17.40    0.90
   1   9 -10   20.30    1.10
   1   9 -10   17.40    1.10
   1   9 -10   16.30    1.00
  -1  -9  10   19.10    1.30
   4   8 -10    1.10    0.40
   4   8 -10    0.50    0.30
   4   8 -10    1.00    0.30
   4   8 -10    0.60    0.30
   4   8 -10    1.40    0.40
   4   8 -10    1.40    0.50
  -4  -8  10    0.80    0.40
   3   8 -10   80.69    3.20
   3   8 -10   84.79    3.00
   3   8 -10   81.49    3.50
   3   8 -10   81.29    3.00
   3   8 -10   76.09    2.90
   3   8 -10   76.99    3.20
   3   8 -10   85.99    3.30
   2   8 -10   19.40    1.20
   2   8 -10   20.70    1.40
   2   8 -10   20.80    1.30
   2   8 -10   21.80    1.20
   2   8 -10   22.30    1.40
   2   8 -10   21.50    1.50
  -2  -8  10   19.30    1.60
   1   8 -10   40.90    1.80
   1   8 -10   35.60    1.70
   1   8 -10   36.90    2.10
   1   8 -10   36.00    1.90
   1   8 -10   33.70    1.80
   1   8 -10   38.10    2.00
   0   8 -10  109.49    4.10
   0   8 -10  105.09    4.20
   0   8 -10  107.09    3.90
   0   8 -10  106.99    4.60
   0   8 -10  100.69    3.90
   0   8 -10  111.49    3.90
   0   8 -10  105.59    3.90
   0  -8  10  104.79    4.50
  -1   8 -10   57.69    2.40
  -1   8 -10   63.69    2.60
  -1   8 -10   65.69    3.10
  -1   8 -10   62.99    2.50
   1  -8  10   65.99    3.20
  -2   8 -10    2.70    0.50
  -2   8 -10    2.10    0.40
   2  -8  10    2.70    0.60
   2  -8  10    2.70    0.70
   5   7 -10    0.30    0.30
   5   7 -10    0.10    0.40
   5   7 -10    0.70    0.50
   5   7 -10    0.50    0.30
   5   7 -10    0.30    0.30
   5   7 -10    0.10    0.30
   4   7 -10   76.69    3.10
   4   7 -10   69.19    2.80
   4   7 -10   71.49    2.90
   4   7 -10   67.39    3.20
   4   7 -10   72.89    2.70
   4   7 -10   72.29    2.80
   3   7 -10  143.59    5.20
   3   7 -10  140.29    4.80
   3   7 -10  141.19    5.00
   3   7 -10  133.29    5.40
   3   7 -10  132.09    5.10
   3   7 -10  136.49    4.90
   3   7 -10  138.99    5.10
   2   7 -10   43.80    2.30
   2   7 -10   45.40    2.20
   2   7 -10   44.00    2.10
   2   7 -10   38.50    2.60
   2   7 -10   45.10    2.40
   2   7 -10   42.40    2.30
   2   7 -10   46.40    2.60
   1   7 -10  109.59    4.50
   1   7 -10  116.99    4.40
   1   7 -10  118.49    4.30
   1   7 -10  116.69    4.70
   1   7 -10  122.29    4.90
   1   7 -10  114.79    4.70
   1   7 -10  118.69    5.20
   0   7 -10    1.10    0.60
   0   7 -10    2.40    0.60
   0   7 -10    2.60    0.80
   0   7 -10    4.10    0.80
   0   7 -10    2.50    0.70
   0   7 -10    2.80    0.70
   0   7 -10    2.40    0.90
   0  -7  10    1.90    0.90
  -1   7 -10   60.39    2.80
  -1   7 -10   53.79    3.10
  -1   7 -10   60.49    2.80
  -1   7 -10   57.69    2.60
  -1   7 -10   62.59    2.70
  -1   7 -10   66.09    3.50
  -1   7 -10   62.69    3.00
  -2   7 -10  147.29    5.30
  -2   7 -10  152.28    6.00
  -2   7 -10  146.49    5.30
  -2   7 -10  141.49    5.20
  -2   7 -10  145.19    5.20
   2  -7  10  157.28    6.30
  -3   7 -10   11.80    1.20
  -3   7 -10   10.80    0.90
  -3   7 -10   11.50    0.90
   3  -7  10   13.20    1.50
   3  -7  10   11.90    1.40
   6   6 -10  107.19    3.60
   6   6 -10  100.29    3.60
   6   6 -10  104.79    3.80
   6   6 -10  114.69    3.70
   6   6 -10  111.19    3.80
   6   6 -10  103.19    3.70
   5   6 -10  115.19    4.70
   5   6 -10  126.29    4.30
   5   6 -10  127.09    4.70
   5   6 -10  121.69    4.40
   5   6 -10  129.19    4.50
   5   6 -10  123.19    4.30
   5   6 -10  131.19    4.60
   4   6 -10   22.90    1.50
   4   6 -10   21.90    1.30
   4   6 -10   21.30    1.50
   4   6 -10   23.30    1.40
   4   6 -10   21.10    1.70
   4   6 -10   21.10    1.40
   3   6 -10   50.49    2.40
   3   6 -10   48.10    2.30
   3   6 -10   53.79    2.70
   3   6 -10   56.59    2.30
   3   6 -10   51.19    2.50
   3   6 -10   48.40    2.80
   3   6 -10   48.00    2.50
   2   6 -10   78.99    3.20
   2   6 -10   65.79    3.80
   2   6 -10   78.49    3.90
   2   6 -10   76.89    3.40
   2   6 -10   72.79    3.40
   2   6 -10   76.69    3.40
   2   6 -10   76.89    3.20
   2   6 -10   76.59    3.70
   1   6 -10  519.65   16.80
   1   6 -10  529.55   16.70
   1   6 -10  507.75   16.80
   1   6 -10  481.25   17.00
   1   6 -10  538.55   17.60
   1   6 -10  512.55   16.40
   1   6 -10  527.15   16.50
   0   6 -10   66.99    4.10
   0   6 -10   64.19    3.20
   0   6 -10   66.59    2.90
   0   6 -10   60.89    3.00
   0   6 -10   64.49    3.80
   0   6 -10   64.69    3.20
   0   6 -10   65.29    3.40
   0   6 -10   69.69    3.00
  -1   6 -10    3.60    0.80
  -1   6 -10    5.60    1.10
  -1   6 -10    4.40    0.80
  -1   6 -10    4.10    0.90
  -1   6 -10    5.70    1.40
  -1   6 -10    3.60    0.90
  -1   6 -10    5.40    1.60
  -2   6 -10   32.20    2.10
  -2   6 -10   34.10    2.60
  -2   6 -10   33.50    1.90
  -2   6 -10   31.70    1.90
  -2   6 -10   30.40    2.10
  -2   6 -10   35.40    2.10
  -2   6 -10   31.50    2.90
   2  -6  10   34.60    2.70
  -3   6 -10   39.20    2.00
  -3   6 -10   41.80    2.10
  -3   6 -10   37.40    2.60
  -3   6 -10   37.50    3.00
  -3   6 -10   41.50    2.20
   3  -6  10   39.20    2.80
  -4   6 -10  109.59    3.90
  -4   6 -10   98.49    3.90
  -4   6 -10  101.89    3.70
   4  -6  10  105.99    4.60
   4  -6  10  112.49    4.80
   6   5 -10    0.10    0.40
   6   5 -10    0.40    0.40
   6   5 -10    0.10    0.40
   6   5 -10    0.40    0.30
   6   5 -10   -0.60    0.30
   6   5 -10   -0.10    0.40
   5   5 -10   19.80    1.20
   5   5 -10   20.00    1.40
   5   5 -10   20.30    1.30
   5   5 -10   19.90    1.50
   5   5 -10   19.80    1.30
   5   5 -10   21.80    1.40
   5   5 -10   19.30    1.20
   4   5 -10   16.80    1.60
   4   5 -10   17.80    1.70
   4   5 -10   15.10    1.30
   4   5 -10   17.70    1.20
   4   5 -10   18.90    1.50
   4   5 -10   18.70    1.30
   4   5 -10   19.00    1.40
   3   5 -10   45.00    2.60
   3   5 -10   44.00    2.40
   3   5 -10   44.10    2.20
   3   5 -10   39.90    2.20
   3   5 -10   41.00    2.10
   3   5 -10   42.90    2.10
   3   5 -10   43.60    2.30
   2   5 -10  707.83   22.50
   2   5 -10  691.93   21.90
   2   5 -10  666.23   21.70
   2   5 -10  704.73   21.70
   2   5 -10  688.13   22.10
   2   5 -10  705.83   21.80
   2   5 -10  715.23   22.10
   1   5 -10   26.00    1.50
   1   5 -10   23.50    1.80
   1   5 -10   25.30    2.00
   1   5 -10   22.70    1.60
   1   5 -10   24.40    2.10
   1   5 -10   24.00    1.90
   1   5 -10   24.00    1.80
   0   5 -10   24.70    1.70
   0   5 -10   26.20    2.40
   0   5 -10   22.70    1.80
   0   5 -10   25.50    1.90
   0   5 -10   24.40    1.70
   0   5 -10   28.80    3.30
   0   5 -10   24.80    1.80
   0   5 -10   22.80    1.90
  -1   5 -10  271.77   11.50
  -1   5 -10  277.97    9.30
  -1   5 -10  279.67   10.70
  -1   5 -10  271.87    9.70
  -1   5 -10  265.37    9.90
  -1   5 -10  281.17    9.80
  -1   5 -10  286.77    9.50
  -2   5 -10  153.88    5.40
  -2   5 -10  146.59    5.60
  -2   5 -10  115.09    6.80
  -2   5 -10  127.19    6.30
  -2   5 -10  147.89    5.20
  -2   5 -10  128.99    7.20
  -2   5 -10  149.19    5.80
  -2   5 -10  136.29    5.50
  -3   5 -10  204.18    8.70
  -3   5 -10  194.28    7.00
  -3   5 -10  198.38    7.10
  -3   5 -10  196.98    6.80
  -3   5 -10  200.58    7.90
  -3   5 -10  189.78    7.30
   3  -5  10  194.68    8.30
  -4   5 -10   12.10    2.00
  -4   5 -10   11.00    1.10
  -4   5 -10   12.80    1.30
   4  -5  10   14.10    1.90
  -5   5 -10   20.40    1.30
  -5   5 -10   17.50    1.30
  -5   5 -10   17.40    1.30
   5  -5  10   20.60    1.90
   5  -5  10   18.80    1.60
   7   4 -10    8.70    0.70
   7   4 -10    8.90    0.70
   7   4 -10   10.30    0.70
   7   4 -10   10.20    0.60
   7   4 -10   10.30    0.70
   6   4 -10    0.50    0.40
   6   4 -10    0.30    0.30
   6   4 -10    0.10    0.30
   6   4 -10    0.70    0.50
   6   4 -10   -0.40    0.30
   6   4 -10    0.20    0.40
   6   4 -10    0.40    0.40
   5   4 -10  310.07   10.30
   5   4 -10  315.67   10.10
   5   4 -10  309.37   10.00
   5   4 -10  314.27   10.40
   5   4 -10  301.87   10.10
   5   4 -10  311.47   10.20
   4   4 -10   19.80    1.30
   4   4 -10   20.10    1.30
   4   4 -10   20.30    1.30
   4   4 -10   19.40    1.60
   4   4 -10   19.60    1.40
   4   4 -10   18.80    1.50
   4   4 -10   21.00    1.60
   3   4 -10    1.60    0.50
   3   4 -10    0.30    0.50
   3   4 -10    1.60    0.60
   3   4 -10    1.60    0.70
   3   4 -10    0.30    0.40
   3   4 -10    0.80    0.40
   2   4 -10    1.80    0.60
   2   4 -10    1.60    0.70
   2   4 -10    2.30    0.60
   2   4 -10    2.20    0.70
   2   4 -10    3.50    0.70
   2   4 -10    2.50    0.80
   2   4 -10    2.30    0.60
   1   4 -10    4.50    0.90
   1   4 -10    4.70    0.80
   1   4 -10    4.50    0.90
   1   4 -10    2.60    0.60
   1   4 -10    3.10    0.90
   1   4 -10    3.90    1.20
   1   4 -10    4.40    0.80
   0   4 -10  968.80   29.20
   0   4 -10  911.41   29.50
   0   4 -10  966.10   29.30
   0   4 -10  901.91   29.90
   0   4 -10  961.00   29.70
   0   4 -10  948.71   30.30
   0   4 -10  984.70   30.80
  -1   4 -10  432.86   13.70
  -1   4 -10  440.96   15.40
  -1   4 -10  435.56   14.20
  -1   4 -10  414.16   14.00
  -1   4 -10  441.66   13.90
  -1   4 -10  421.16   14.40
  -1   4 -10  406.96   14.70
  -2   4 -10   -0.20    0.50
  -2   4 -10   -0.50    1.10
  -2   4 -10   -1.20    1.30
  -2   4 -10    0.00    0.70
  -2   4 -10    0.20    0.60
  -2   4 -10   -0.30    0.40
  -2   4 -10    1.10    0.90
  -2   4 -10   -0.30    0.60
  -3   4 -10   73.19    4.10
  -3   4 -10   72.39    4.80
  -3   4 -10   66.59    3.20
  -3   4 -10   71.79    3.70
  -3   4 -10   68.89    3.30
  -3   4 -10   68.59    3.00
  -3   4 -10   72.79    3.60
  -3   4 -10   73.79    5.10
  -4   4 -10   30.70    2.10
  -4   4 -10   30.60    2.10
  -4   4 -10   31.50    3.90
  -4   4 -10   32.00    1.90
  -4   4 -10   26.90    2.50
  -4   4 -10   23.10    3.00
  -4   4 -10   30.70    1.70
   4  -4  10   31.50    2.00
  -5   4 -10  181.18    6.10
  -5   4 -10  152.98    7.00
  -5   4 -10  173.78    6.30
   5  -4  10  171.08    6.20
   5  -4  10  172.68    7.20
  -6   4 -10   72.69    2.80
  -6   4 -10   67.69    2.80
   6  -4  10   69.19    3.40
   6  -4  10   74.39    2.90
   7   3 -10    0.80    0.30
   7   3 -10    0.70    0.30
   7   3 -10    0.50    0.30
   7   3 -10    0.40    0.30
   7   3 -10    0.80    0.30
   7   3 -10    0.80    0.30
   6   3 -10   13.60    1.00
   6   3 -10   10.10    0.90
   6   3 -10   11.70    1.00
   6   3 -10   11.60    1.00
   6   3 -10    9.90    1.00
   6   3 -10    9.40    0.90
   5   3 -10   59.79    2.60
   5   3 -10   58.99    2.70
   5   3 -10   61.69    2.80
   5   3 -10   61.89    2.90
   5   3 -10   61.39    2.60
   5   3 -10   66.09    2.70
   5   3 -10   67.19    2.60
   4   3 -10   30.50    1.80
   4   3 -10   31.70    1.80
   4   3 -10   32.30    1.70
   4   3 -10   31.40    1.60
   4   3 -10   30.30    1.70
   4   3 -10   30.90    1.90
   3   3 -10    1.40    0.50
   3   3 -10    2.20    0.50
   3   3 -10    0.50    0.40
   3   3 -10    1.00    0.40
   3   3 -10    0.00    0.40
   3   3 -10    0.30    0.60
   2   3 -10   47.10    6.00
   2   3 -10   49.10    6.20
   2   3 -10   44.80    2.60
   2   3 -10   43.20    2.70
  -2  -3  10   44.30    6.00
  -2  -3  10   48.30    5.50
   1   3 -10  298.57   13.80
   1   3 -10  299.67   13.00
  -1  -3  10  303.27   13.60
   0   3 -10  314.57   14.50
   0   3 -10  312.87   15.80
   0  -3  10  332.17   14.30
   0  -3  10  308.27   14.30
  -1   3 -10   22.00    5.40
  -1   3 -10   23.10    5.40
   1  -3  10   20.80    3.60
   1  -3  10   19.50    3.80
   1  -3  10   20.00    2.70
  -2   3 -10  174.98    8.00
  -2   3 -10  167.98    6.30
  -2   3 -10  172.78    6.20
  -2   3 -10  169.38    6.50
  -2   3 -10  172.28    6.70
  -3   3 -10   55.19    4.80
  -3   3 -10   54.09    3.10
  -3   3 -10   53.69    2.70
  -3   3 -10   54.99    3.30
  -3   3 -10   51.09    2.90
  -3   3 -10   56.39    2.80
  -3   3 -10   51.09    3.70
  -4   3 -10  133.39    5.50
  -4   3 -10  132.39    7.20
  -4   3 -10  131.09    5.30
  -4   3 -10  124.09    6.40
  -4   3 -10  119.29    5.50
  -4   3 -10  131.29    5.00
  -4   3 -10  118.89    4.90
   4  -3  10  125.99    5.10
  -5   3 -10   14.70    2.70
  -5   3 -10   15.00    1.40
  -5   3 -10   12.80    2.10
  -5   3 -10   15.60    1.60
  -5   3 -10   15.50    1.60
   5  -3  10   15.80    1.50
  -6   3 -10    0.40    0.50
  -6   3 -10    1.10    0.60
   6  -3  10    0.50    0.50
   6  -3  10    0.20    0.60
   7   2 -10   13.40    0.80
   7   2 -10   13.50    0.80
   7   2 -10   13.70    0.80
   7   2 -10   13.10    0.80
   7   2 -10   13.90    0.90
   6   2 -10   12.80    1.00
   6   2 -10   11.80    1.00
   6   2 -10   12.30    1.00
   6   2 -10   12.00    1.00
   6   2 -10   12.90    1.10
   6   2 -10   12.70    1.00
   6   2 -10   11.30    1.30
   5   2 -10   31.60    1.70
   5   2 -10   31.20    1.60
   5   2 -10   32.50    1.90
   5   2 -10   30.80    1.70
   5   2 -10   33.70    1.80
   5   2 -10   31.90    1.70
   4   2 -10   34.40    1.80
   4   2 -10   33.80    1.80
   4   2 -10   33.40    1.90
   4   2 -10   37.50    1.80
   4   2 -10   35.70    1.70
   4   2 -10   31.60    1.70
   3   2 -10   45.20    2.10
   3   2 -10   44.30    2.00
   3   2 -10   48.70    2.10
   3   2 -10   45.10    2.10
   3   2 -10   44.20    2.40
   3   2 -10   47.10    2.20
   2   2 -10   36.10    4.70
   2   2 -10   36.20    4.70
  -2  -2  10   36.90    4.60
  -2  -2  10   39.10    5.40
   1   2 -10   84.29    7.00
   1   2 -10   61.09    5.40
  -1  -2  10   62.89    5.90
   0   2 -10  411.06   16.50
   0   2 -10  393.56   17.70
   0  -2  10  389.86   16.00
  -1   2 -10  285.77   13.10
  -1   2 -10  280.37   14.70
  -1   2 -10  287.17   13.20
   1  -2  10  293.17   12.80
   1  -2  10  288.47   12.90
  -2   2 -10  117.19   10.20
  -2   2 -10  101.39    6.50
  -2   2 -10  113.59    7.50
   2  -2  10  112.59    7.30
   2  -2  10  101.69    5.90
  -3   2 -10   25.20    2.20
  -3   2 -10   23.90    1.90
  -3   2 -10   24.50    2.20
  -3   2 -10   26.40    1.80
  -3   2 -10   24.80    1.70
  -3   2 -10   25.80    2.70
  -3   2 -10   22.40    2.00
  -3   2 -10   23.10    2.20
  -4   2 -10   66.09    3.10
  -4   2 -10   68.89    5.20
  -4   2 -10   66.39    3.40
  -4   2 -10   62.89    3.10
  -4   2 -10   61.09    3.40
  -4   2 -10   65.29    3.60
  -5   2 -10   18.60    1.90
  -5   2 -10   19.00    3.00
  -5   2 -10   19.20    2.60
  -5   2 -10   17.70    1.80
  -5   2 -10   16.10    1.50
   5  -2  10   15.70    1.60
  -6   2 -10   22.60    1.50
  -6   2 -10   20.90    2.10
  -6   2 -10   21.10    1.80
   6  -2  10   25.10    1.70
  -7   2 -10   71.39    2.90
  -7   2 -10   67.79    2.70
   7  -2  10   75.69    3.00
   7  -2  10   64.09    3.20
   7   1 -10   50.89    2.00
   7   1 -10   42.60    1.90
   7   1 -10   53.49    1.90
   7   1 -10   52.59    1.90
   7   1 -10   48.50    1.90
   7   1 -10   48.20    1.90
  -7  -1  10   46.30    1.90
   6   1 -10    2.70    0.60
   6   1 -10    4.30    0.70
   6   1 -10    1.40    0.50
   6   1 -10    2.90    0.60
   6   1 -10    3.70    0.70
   6   1 -10    2.90    0.60
   6   1 -10    2.50    0.60
   5   1 -10    0.30    0.50
   5   1 -10    0.80    0.50
   5   1 -10    0.30    0.40
   5   1 -10   -0.20    0.40
   5   1 -10    0.50    0.50
   5   1 -10    1.10    0.50
   5   1 -10    1.70    0.50
   4   1 -10   37.30    1.90
   4   1 -10   40.30    1.90
   4   1 -10   34.80    2.10
   4   1 -10   37.10    1.90
   4   1 -10   34.30    1.90
   4   1 -10   37.60    2.00
   4   1 -10   40.00    1.90
   3   1 -10  254.17    8.40
   3   1 -10  286.77   13.80
   3   1 -10  249.28    8.40
   3   1 -10  252.67    8.40
   3   1 -10  259.17    8.60
  -3  -1  10  273.27   12.50
   2   1 -10   48.30    6.00
  -2  -1  10   50.19    5.10
   1   1 -10  132.69    7.20
   1   1 -10  134.99    7.40
  -1  -1  10  133.09    7.20
  -1  -1  10  133.39    7.90
   0   1 -10  122.49    7.40
   0   1 -10  152.78    9.00
   0   1 -10  143.69    7.30
   0  -1  10  147.59    7.60
   0  -1  10  150.48    7.00
   0  -1  10  147.89    6.70
   0  -1  10  142.09    7.50
  -1   1 -10  198.98    9.60
  -1   1 -10  201.48    8.90
  -1   1 -10  187.68   10.40
   1  -1  10  194.78    8.50
   1  -1  10  200.68    8.90
   1  -1  10  184.48   10.30
   1  -1  10  203.28    9.70
   1  -1  10  197.38    9.70
  -2   1 -10  189.68    9.30
  -2   1 -10  184.78   11.70
   2  -1  10  180.88    8.30
   2  -1  10  188.68    9.70
   2  -1  10  175.58    9.30
   2  -1  10  170.88    9.20
   2  -1  10  191.58    9.00
  -3   1 -10    1.70    3.40
  -3   1 -10    4.30    2.50
   3  -1  10   -6.70    2.60
   3  -1  10    2.00    2.00
   3  -1  10    3.50    2.30
  -4   1 -10   91.79    4.70
  -4   1 -10   91.99    3.90
  -4   1 -10   93.89    4.30
  -4   1 -10   89.89    5.20
  -4   1 -10   94.19    4.40
  -4   1 -10   90.59    4.10
  -4   1 -10   98.39    4.10
  -4   1 -10   95.49    4.60
  -5   1 -10  204.18    7.70
  -5   1 -10  204.78    7.40
  -5   1 -10  181.28    9.10
  -5   1 -10  172.78    7.10
  -5   1 -10  191.48    6.80
  -5   1 -10  194.78    7.40
   5  -1  10  178.48    6.80
  -6   1 -10   32.70    2.30
  -6   1 -10   34.30    3.30
  -6   1 -10   33.30    2.20
  -6   1 -10   29.40    1.90
   6  -1  10   33.40    2.10
   6  -1  10   29.00    1.90
  -7   1 -10    3.50    0.90
  -7   1 -10    4.60    0.70
   7  -1  10    3.40    0.80
   7  -1  10    4.20    0.70
   7  -1  10    2.80    0.90
   7   0 -10    7.30    0.70
   7   0 -10    7.70    0.60
   7   0 -10    7.30    0.60
   7   0 -10    7.50    0.70
   7   0 -10    7.90    0.60
   6   0 -10    5.20    0.70
   6   0 -10    3.20    0.70
   6   0 -10    4.00    0.60
   6   0 -10    5.00    0.60
   6   0 -10    4.10    0.70
   6   0 -10    4.60    0.70
   5   0 -10  177.08    6.20
   5   0 -10  171.18    5.90
   5   0 -10  168.18    6.20
   5   0 -10  176.78    6.00
   5   0 -10  177.08    6.00
   5   0 -10  162.58    5.90
   4   0 -10   48.90    2.50
   4   0 -10   48.30    2.20
   4   0 -10   48.00    2.30
   4   0 -10   49.10    2.40
   4   0 -10   50.29    2.30
   4   0 -10   50.19    2.20
   3   0 -10   20.00    4.60
   3   0 -10   20.50    2.30
   3   0 -10   18.70    1.20
   3   0 -10   18.70    1.30
   3   0 -10   19.90    1.30
   3   0 -10   20.30    1.30
  -3   0  10   15.70    3.20
   2   0 -10   78.29    6.20
   2   0 -10   94.89    6.50
  -2   0  10   75.39    5.30
  -2   0  10   75.99    5.50
   1   0 -10  614.14   21.50
   1   0 -10  618.54   21.90
   1   0 -10  588.54   22.50
  -1   0  10  572.64   21.10
  -1   0  10  618.54   21.70
   0   0 -10  223.68    9.90
   0   0 -10  220.98   10.20
   0   0 -10  208.18    9.70
   0   0  10  207.18   10.10
   0   0  10  217.58    9.60
  -1   0 -10    4.90    2.00
  -1   0 -10    7.00    2.70
  -1   0 -10    8.90    3.00
   1   0  10    8.80    2.00
   1   0  10    5.70    1.50
   1   0  10    3.60    1.70
   1   0  10    5.70    1.90
  -2   0 -10   37.10    4.50
  -2   0 -10   35.60    4.30
  -2   0 -10   39.60    4.90
   2   0  10   41.70    4.80
   2   0  10   41.90    4.70
   2   0  10   38.10    4.10
   2   0  10   35.70    3.70
  -3   0 -10  353.16   16.60
  -3   0 -10  326.67   15.10
  -3   0 -10  365.06   15.50
   3   0  10  362.86   13.60
   3   0  10  359.36   15.00
   3   0  10  356.36   14.10
   3   0  10  363.76   15.60
  -4   0 -10    4.40    1.70
  -4   0 -10    3.40    0.90
  -4   0 -10    6.90    1.20
  -4   0 -10    3.60    1.20
  -4   0 -10    3.80    1.10
  -4   0 -10    2.90    0.90
   4   0  10    1.90    2.80
   4   0  10    4.30    3.00
  -5   0 -10   89.79    4.20
  -5   0 -10  105.29    4.50
  -5   0 -10   99.69    4.60
  -5   0 -10  104.39    4.70
  -5   0 -10   97.29    5.60
   5   0  10  100.49    4.10
  -6   0 -10   19.10    2.00
  -6   0 -10   19.00    1.50
  -6   0 -10   23.20    2.90
  -6   0 -10   19.00    1.90
   6   0  10   20.80    1.60
  -7   0 -10   22.60    1.70
  -7   0 -10   17.60    1.40
  -7   0 -10   20.70    1.70
   7   0  10   20.30    1.50
   7   0  10   19.40    1.50
  -8   0 -10   26.70    1.50
   8   0  10   22.30    1.30
   8   0  10   24.50    1.30
   6  -1 -10  102.29    3.60
   6  -1 -10   91.19    3.40
   6  -1 -10   95.49    3.70
   6  -1 -10   84.19    3.80
   6  -1 -10   98.39    3.50
   6  -1 -10  104.29    3.50
   6  -1 -10  100.89    3.70
   5  -1 -10    3.10    0.60
   5  -1 -10    3.20    0.70
   5  -1 -10    3.70    0.70
   5  -1 -10    2.60    0.80
   5  -1 -10    2.30    0.70
   5  -1 -10    2.20    0.70
   5  -1 -10    1.30    0.40
   4  -1 -10   24.20    1.50
   4  -1 -10   21.80    1.50
   4  -1 -10   20.40    1.30
   4  -1 -10   22.60    1.40
   4  -1 -10   19.80    1.30
   4  -1 -10   20.50    1.40
   4  -1 -10   20.40    1.90
   3  -1 -10  532.15   16.60
   3  -1 -10  514.85   16.40
   3  -1 -10  529.35   16.40
   3  -1 -10  539.45   16.50
   3  -1 -10  524.65   16.70
   3  -1 -10  512.75   17.10
   2  -1 -10 1047.60   36.60
   2  -1 -10 1011.40   37.20
  -2   1  10 1023.80   35.80
  -2   1  10 1101.19   39.10
   1  -1 -10    2.30    1.90
   1  -1 -10    3.70    1.70
   1  -1 -10    0.80    1.00
  -1   1  10    3.80    2.20
  -1   1  10    2.60    1.40
   0  -1 -10    7.30    1.00
   0  -1 -10    1.90    2.30
   0  -1 -10    3.40    1.70
   0   1  10    3.70    1.90
   0   1  10    4.80    1.70
  -1  -1 -10   97.09    6.40
  -1  -1 -10   85.19    6.80
  -1  -1 -10   97.69    5.50
  -1  -1 -10   82.79    5.60
   1   1  10   88.79    5.60
   1   1  10  102.49    6.60
  -2  -1 -10  618.24   23.20
  -2  -1 -10  661.23   23.70
  -2  -1 -10  575.24   22.90
   2   1  10  655.23   23.90
   2   1  10  651.23   22.60
   2   1  10  648.84   23.60
   2   1  10  656.33   22.10
   2   1  10  608.14   22.50
  -3  -1 -10   82.59    5.60
  -3  -1 -10  102.29    6.80
  -3  -1 -10   94.59    8.50
   3   1  10   99.69    6.90
   3   1  10   97.79    6.40
   3   1  10   92.99    6.50
   3   1  10   95.69    7.10
  -4  -1 -10  103.79    9.20
  -4  -1 -10   92.59    7.90
  -4  -1 -10  103.09    7.20
   4   1  10   87.99    8.60
   4   1  10   93.49    7.20
   4   1  10   97.89    8.00
   4   1  10  102.09    7.40
  -5  -1 -10   23.60    2.00
  -5  -1 -10   20.90    2.00
  -5  -1 -10   22.60    2.50
  -5  -1 -10   22.00    2.10
  -5  -1 -10   23.80    2.00
  -5  -1 -10   23.90    2.10
  -6  -1 -10    4.50    0.90
  -6  -1 -10    5.20    1.20
  -6  -1 -10    3.20    1.00
  -6  -1 -10    4.70    2.70
  -6  -1 -10    4.50    1.20
   6   1  10    4.70    0.90
  -7  -1 -10  255.67    9.10
  -7  -1 -10  253.57    9.30
   7   1  10  269.97    9.00
   7   1  10  264.87    9.00
  -8  -1 -10    2.90    0.70
  -8  -1 -10    1.10    0.60
   8   1  10    1.50    0.50
   8   1  10    2.30    0.60
   6  -2 -10    8.10    0.70
   6  -2 -10    7.10    0.90
   6  -2 -10    7.90    0.80
   6  -2 -10    8.20    0.80
   6  -2 -10    7.40    0.80
   6  -2 -10    7.50    0.80
  -6   2  10    6.70    0.60
   5  -2 -10   -0.60    0.30
   5  -2 -10   -0.40    0.40
   5  -2 -10    0.30    0.60
   5  -2 -10    2.00    0.60
   5  -2 -10    0.20    0.40
   5  -2 -10   -0.30    0.50
   5  -2 -10    0.80    0.50
   4  -2 -10  280.97    9.50
   4  -2 -10  279.87    9.20
   4  -2 -10  270.67    9.80
   4  -2 -10  270.87    9.00
   4  -2 -10  283.67    9.40
   4  -2 -10  283.17    9.30
   4  -2 -10  276.57    9.10
   3  -2 -10  233.98    7.90
   3  -2 -10  243.58    8.50
   3  -2 -10  241.08    8.10
   3  -2 -10  227.08    8.50
   3  -2 -10  236.98    8.00
   3  -2 -10  235.48    7.80
   3  -2 -10  230.38    7.80
   2  -2 -10   42.30    5.40
   2  -2 -10   53.49    6.30
  -2   2  10   45.30    5.00
  -2   2  10   50.09    6.90
   1  -2 -10  183.38   10.70
   1  -2 -10  190.88   11.50
  -1   2  10  228.58   12.20
  -1   2  10  202.58    9.50
   0  -2 -10  118.99    7.90
   0  -2 -10  114.09    7.30
   0  -2 -10  116.99    9.00
   0   2  10  118.39    7.80
   0   2  10  132.49    7.30
  -1  -2 -10  245.78   10.20
  -1  -2 -10  225.68   11.00
  -1  -2 -10  225.18   11.40
   1   2  10  235.68   10.70
   1   2  10  208.58   11.80
   1   2  10  243.98   11.50
  -2  -2 -10  166.68    8.70
  -2  -2 -10  159.28    8.50
  -2  -2 -10  174.38    9.20
   2   2  10  169.88    8.70
   2   2  10  183.68    9.60
  -3  -2 -10   21.10    4.00
  -3  -2 -10   21.20    3.70
  -3  -2 -10   16.10    2.60
   3   2  10   24.70    3.60
   3   2  10   27.20    4.40
   3   2  10   19.50    3.60
   3   2  10   24.70    3.30
   3   2  10   20.60    3.30
  -4  -2 -10  159.48    9.60
  -4  -2 -10  138.39    8.90
  -4  -2 -10  143.29    9.00
   4   2  10  157.08    9.60
   4   2  10  178.18   10.90
   4   2  10  151.58    8.00
   4   2  10  162.08    9.40
  -5  -2 -10  181.88    6.60
  -5  -2 -10  174.88    7.60
  -5  -2 -10  171.08    6.60
  -5  -2 -10  172.08    6.70
  -5  -2 -10  170.68    7.50
  -5  -2 -10  178.68    7.00
  -5  -2 -10  178.28    6.70
   5   2  10  179.28    6.20
  -6  -2 -10  151.68    6.20
  -6  -2 -10  142.39    5.70
  -6  -2 -10  146.19    6.00
  -6  -2 -10  145.99    5.80
   6   2  10  146.09    5.70
   6   2  10  152.18    5.40
  -7  -2 -10   58.99    2.90
  -7  -2 -10   58.39    3.20
   7   2  10   58.79    2.80
   7   2  10   54.19    2.80
   7   2  10   53.59    2.40
  -8  -2 -10   27.50    1.80
  -8  -2 -10   28.50    1.70
   8   2  10   26.30    1.50
   8   2  10   30.30    1.60
   6  -3 -10   15.70    0.90
   6  -3 -10   17.40    1.00
   6  -3 -10   16.20    1.20
   6  -3 -10   16.40    0.90
   6  -3 -10   16.40    1.00
   6  -3 -10   18.40    1.10
  -6   3  10   15.90    0.90
   5  -3 -10   48.70    2.10
   5  -3 -10   45.50    2.00
   5  -3 -10   43.10    2.40
   5  -3 -10   44.70    2.00
   5  -3 -10   46.90    2.20
   5  -3 -10   45.10    2.10
   5  -3 -10   44.40    2.50
  -5   3  10   40.30    1.90
   4  -3 -10   97.29    3.70
   4  -3 -10   90.79    4.30
   4  -3 -10   90.99    4.20
   4  -3 -10   95.59    3.60
   4  -3 -10   96.69    3.80
   4  -3 -10   95.89    3.80
   4  -3 -10   97.59    3.90
   3  -3 -10    0.00    0.40
   3  -3 -10    0.50    0.70
   3  -3 -10    1.40    0.50
   3  -3 -10    0.40    0.40
   3  -3 -10    0.70    0.50
   3  -3 -10   -0.10    0.50
   3  -3 -10    0.40    0.60
   2  -3 -10   49.30    2.80
   2  -3 -10   49.10    2.20
   2  -3 -10   51.79    2.50
   2  -3 -10   51.89    2.80
   2  -3 -10   38.90    5.00
   2  -3 -10   52.99    2.40
   2  -3 -10   49.90    2.30
  -2   3  10   65.59    6.70
   1  -3 -10  834.12   31.20
   1  -3 -10  810.52   31.50
  -1   3  10  868.51   33.00
  -1   3  10  888.91   31.00
  -1   3  10  812.42   29.30
   0  -3 -10  285.77   13.60
   0  -3 -10  299.87   13.10
   0  -3 -10  277.67   14.30
   0   3  10  326.57   14.00
   0   3  10  309.07   15.10
  -1  -3 -10  295.37   13.50
  -1  -3 -10  286.27   13.70
   1   3  10  299.37   14.20
   1   3  10  323.37   13.70
  -2  -3 -10    6.10    2.80
  -2  -3 -10    6.80    2.40
  -2  -3 -10   11.60    2.90
   2   3  10    7.70    1.00
   2   3  10    4.70    2.00
  -3  -3 -10    6.70    2.40
  -3  -3 -10    6.60    3.60
   3   3  10    9.30    2.50
   3   3  10    9.10    1.60
  -4  -3 -10   17.10    4.20
  -4  -3 -10   17.80    3.70
   4   3  10    9.00    4.50
   4   3  10   25.10    3.80
   4   3  10   16.90    3.80
   4   3  10   18.10    3.90
   4   3  10   20.10    3.70
  -5  -3 -10  197.38    7.20
  -5  -3 -10  203.98    7.30
  -5  -3 -10  199.58    7.20
  -5  -3 -10  209.78    7.60
  -5  -3 -10  165.58    8.10
  -6  -3 -10   48.20    2.70
  -6  -3 -10   46.40    2.80
  -6  -3 -10   49.80    3.00
  -6  -3 -10   50.09    2.80
  -6  -3 -10   45.50    2.70
   6   3  10   49.99    2.40
  -7  -3 -10   67.49    3.50
  -7  -3 -10   62.49    3.00
  -7  -3 -10   66.09    3.10
   7   3  10   64.49    3.00
   7   3  10   63.09    2.80
  -8  -3 -10   70.69    3.20
  -8  -3 -10   67.79    3.00
   8   3  10   68.79    2.90
   8   3  10   68.99    2.60
   5  -4 -10   41.80    2.00
   5  -4 -10   42.70    1.90
   5  -4 -10   42.10    2.20
   5  -4 -10   40.60    1.80
   5  -4 -10   39.50    1.80
   5  -4 -10   41.80    1.90
   5  -4 -10   40.40    2.20
   4  -4 -10   50.99    2.40
   4  -4 -10   49.50    2.30
   4  -4 -10   47.20    2.40
   4  -4 -10   50.79    2.80
   4  -4 -10   45.60    2.60
   4  -4 -10   50.39    2.20
   4  -4 -10   47.00    2.20
   3  -4 -10   21.30    1.40
   3  -4 -10   22.30    1.80
   3  -4 -10   20.90    1.30
   3  -4 -10   20.40    1.60
   3  -4 -10   20.10    2.00
   3  -4 -10   20.00    1.50
   3  -4 -10   23.50    1.50
   2  -4 -10   33.80    1.80
   2  -4 -10   36.70    1.90
   2  -4 -10   38.30    2.40
   2  -4 -10   33.90    1.90
   2  -4 -10   32.60    1.70
   2  -4 -10   31.30    2.20
   2  -4 -10   35.40    2.00
   2  -4 -10   38.80    3.50
   1  -4 -10  858.91   27.30
   1  -4 -10  850.61   27.60
   1  -4 -10  874.51   28.10
   1  -4 -10  828.02   32.90
   1  -4 -10  935.31   28.00
   1  -4 -10  938.51   34.90
   1  -4 -10  866.51   27.20
  -1   4  10  930.11   35.50
  -1   4  10  921.81   33.50
   0  -4 -10  610.44   23.60
   0  -4 -10  663.23   25.50
   0  -4 -10  621.74   25.60
   0   4  10  643.64   26.70
   0   4  10  634.24   24.20
  -1  -4 -10   89.19    8.10
  -1  -4 -10   83.59    7.40
   1   4  10   78.49    7.00
   1   4  10   81.69    7.10
  -2  -4 -10   35.50    5.10
  -2  -4 -10   32.80    3.40
  -2  -4 -10   31.30    4.70
   2   4  10   20.50    4.00
   2   4  10   25.90    4.10
   2   4  10   35.40    5.20
  -3  -4 -10  126.69    7.50
  -3  -4 -10  141.49    8.20
  -3  -4 -10  116.89    8.20
   3   4  10  129.79    8.10
   3   4  10  122.09    8.90
  -4  -4 -10    1.60    0.60
  -4  -4 -10    3.00    3.10
  -4  -4 -10    1.40    0.70
  -4  -4 -10    0.70    0.60
  -4  -4 -10    1.10    0.90
   4   4  10   -2.10    1.90
   4   4  10   -3.60    2.00
   4   4  10    0.90    1.70
  -5  -4 -10  135.19    6.30
  -5  -4 -10  134.89    5.60
  -5  -4 -10  127.39    5.20
  -5  -4 -10  134.09    5.30
  -5  -4 -10  130.89    5.30
  -6  -4 -10   33.60    2.30
  -6  -4 -10   35.80    2.50
  -6  -4 -10   34.50    2.20
   6   4  10   36.20    2.00
  -7  -4 -10    4.60    1.10
  -7  -4 -10    3.60    0.90
  -7  -4 -10    3.20    0.80
   7   4  10    4.80    0.70
   7   4  10    3.90    0.80
  -8  -4 -10   42.60    2.10
  -8  -4 -10   44.70    2.40
   8   4  10   45.10    2.10
   8   4  10   45.30    1.90
   5  -5 -10   19.80    1.30
   5  -5 -10   18.30    1.30
   5  -5 -10   17.80    1.10
   5  -5 -10   19.50    1.10
   5  -5 -10   18.60    1.00
  -5   5  10   19.40    1.10
   4  -5 -10    0.30    0.60
   4  -5 -10    0.50    0.40
   4  -5 -10    0.50    0.60
   4  -5 -10    0.80    0.50
   4  -5 -10   -0.10    0.40
   4  -5 -10    0.10    0.40
   3  -5 -10  112.39    4.30
   3  -5 -10  120.99    5.00
   3  -5 -10  118.29    4.80
   3  -5 -10  108.59    4.20
   3  -5 -10  119.89    6.40
   3  -5 -10  114.39    4.40
   3  -5 -10  113.39    4.40
   3  -5 -10  114.99    4.40
   2  -5 -10  379.36   14.60
   2  -5 -10  376.46   12.10
   2  -5 -10  360.96   11.90
   2  -5 -10  369.66   12.20
   2  -5 -10  376.06   12.80
   2  -5 -10  363.16   12.00
   2  -5 -10  365.36   12.00
   2  -5 -10  374.16   12.60
   1  -5 -10   68.59    3.00
   1  -5 -10   66.29    2.80
   1  -5 -10   68.19    2.90
   1  -5 -10   73.59    4.80
   1  -5 -10   65.09    3.40
   1  -5 -10   66.79    3.40
   1  -5 -10   65.79    4.30
   1  -5 -10   66.09    2.80
   0  -5 -10  152.38    5.70
   0  -5 -10  163.78    6.40
   0  -5 -10  155.58    5.90
   0  -5 -10  164.38    6.30
   0  -5 -10  162.28    8.00
   0  -5 -10  171.78    7.50
   0  -5 -10  161.58    5.70
  -1  -5 -10 1072.29   38.50
  -1  -5 -10 1141.79   39.70
   1   5  10 1091.69   40.80
   1   5  10 1071.69   39.00
  -2  -5 -10   17.30    3.70
  -2  -5 -10   24.70    5.00
   2   5  10   20.60    3.60
   2   5  10   15.80    4.30
   2   5  10   15.40    1.80
  -3  -5 -10   18.80    2.90
  -3  -5 -10   16.80    1.60
  -3  -5 -10   15.00    2.00
  -3  -5 -10   15.70    1.40
  -3  -5 -10   14.70    3.60
  -3  -5 -10   15.90    2.50
   3   5  10   15.60    6.00
  -4  -5 -10    3.80    1.70
  -4  -5 -10    7.00    1.10
  -4  -5 -10    5.20    0.80
  -4  -5 -10    5.00    1.30
  -4  -5 -10    3.70    0.90
  -4  -5 -10    2.00    0.70
  -4  -5 -10    2.80    0.90
  -5  -5 -10  110.39    5.70
  -5  -5 -10  119.79    5.10
  -5  -5 -10  124.39    5.00
   5   5  10  117.49    4.40
  -6  -5 -10    1.00    0.80
  -6  -5 -10    0.10    0.60
  -6  -5 -10    0.10    0.70
  -6  -5 -10   -0.90    1.20
   6   5  10    0.30    0.50
   6   5  10    0.70    0.50
  -7  -5 -10  101.99    4.20
  -7  -5 -10  103.29    4.50
   7   5  10  110.49    4.00
  -8  -5 -10    7.50    1.00
   8   5  10    6.90    0.70
   8   5  10    5.40    0.70
   4  -6 -10   54.89    2.70
   4  -6 -10   57.09    2.30
   4  -6 -10   52.09    2.20
   4  -6 -10   58.89    2.60
   4  -6 -10   55.59    2.20
  -4   6  10   53.09    2.30
   3  -6 -10   51.89    2.80
   3  -6 -10   45.20    3.50
   3  -6 -10   46.40    2.10
   3  -6 -10   46.20    2.10
   3  -6 -10   47.00    2.50
   3  -6 -10   47.00    2.20
   3  -6 -10   47.20    2.30
  -3   6  10   43.00    2.20
   2  -6 -10   12.10    1.20
   2  -6 -10   10.20    1.00
   2  -6 -10   11.60    1.20
   2  -6 -10   10.30    1.00
   2  -6 -10   10.30    1.30
   2  -6 -10   11.40    1.50
   2  -6 -10   11.20    2.20
  -2   6  10   10.00    1.10
   1  -6 -10    0.60    0.70
   1  -6 -10    1.20    1.10
   1  -6 -10    2.50    1.20
   1  -6 -10    1.00    0.50
   1  -6 -10    1.90    0.70
   1  -6 -10    1.00    0.70
   1  -6 -10    1.10    0.50
   1  -6 -10    1.00    0.60
   0  -6 -10  671.23   21.80
   0  -6 -10  673.53   21.00
   0  -6 -10  675.13   21.20
   0  -6 -10  704.63   23.30
   0  -6 -10  704.53   21.70
   0  -6 -10  649.74   21.00
   0  -6 -10  682.23   21.10
   0  -6 -10  625.14   23.70
  -1  -6 -10   11.20    1.10
  -1  -6 -10   12.90    2.30
  -1  -6 -10   10.90    1.50
  -1  -6 -10   11.10    1.20
  -1  -6 -10   13.20    1.20
  -1  -6 -10   13.70    1.90
  -1  -6 -10   14.20    2.20
  -1  -6 -10   12.20    1.60
  -2  -6 -10  107.59    4.60
  -2  -6 -10  105.89    6.30
  -2  -6 -10  104.59    4.00
  -2  -6 -10  100.69    4.10
  -2  -6 -10  105.79    4.30
  -2  -6 -10  108.09    4.60
  -2  -6 -10   98.19    5.60
  -2  -6 -10  109.39    5.20
  -3  -6 -10  181.78    6.50
  -3  -6 -10  185.98    7.70
  -3  -6 -10  180.88    6.80
  -3  -6 -10  181.48    6.60
  -3  -6 -10  177.78    8.30
  -3  -6 -10  192.58    9.20
  -3  -6 -10  178.58    6.70
   3   6  10  177.98    6.20
  -4  -6 -10   24.30    1.70
  -4  -6 -10   24.30    3.00
  -4  -6 -10   24.60    1.80
  -4  -6 -10   24.90    1.80
  -4  -6 -10   25.70    2.40
  -5  -6 -10    5.40    1.10
  -5  -6 -10    7.50    1.00
  -5  -6 -10    6.90    1.50
  -5  -6 -10    7.80    1.20
  -5  -6 -10    5.30    1.00
   5   6  10    6.10    0.80
  -6  -6 -10   71.19    4.10
  -6  -6 -10   70.69    3.50
  -6  -6 -10   72.39    3.40
  -6  -6 -10   75.49    3.50
   6   6  10   76.59    3.20
   6   6  10   79.79    3.00
  -7  -6 -10   58.39    3.00
  -7  -6 -10   58.69    2.80
   7   6  10   56.79    2.30
   7   6  10   56.39    2.60
   7   6  10   63.49    2.60
  -8  -6 -10    1.80    0.70
  -8  -6 -10    2.00    0.50
   8   6  10    3.30    0.50
   3  -7 -10   43.30    2.30
   3  -7 -10   42.80    2.10
   3  -7 -10   40.20    2.80
   3  -7 -10   38.80    1.80
  -3   7  10   38.30    1.80
   2  -7 -10  213.88    7.10
   2  -7 -10  185.48    8.70
   2  -7 -10  199.88    6.70
   2  -7 -10  202.48    6.70
   2  -7 -10  196.98    7.40
   2  -7 -10  197.88    6.80
   2  -7 -10  187.98    6.70
  -2   7  10  186.18    6.80
   1  -7 -10  285.07   11.10
   1  -7 -10  270.97   10.10
   1  -7 -10  297.17    9.90
   1  -7 -10  294.07    9.50
   1  -7 -10  275.27    9.50
   1  -7 -10  284.87    9.50
   1  -7 -10  284.97   11.90
   1  -7 -10  277.97    9.40
   0  -7 -10   42.10    2.20
   0  -7 -10   43.60    2.60
   0  -7 -10   44.10    2.60
   0  -7 -10   42.70    2.30
   0  -7 -10   42.00    2.10
   0  -7 -10   43.90    3.40
   0  -7 -10   36.70    3.60
  -1  -7 -10   36.70    2.50
  -1  -7 -10   38.90    2.00
  -1  -7 -10   34.70    3.10
  -1  -7 -10   35.30    3.40
  -1  -7 -10   35.80    2.30
  -1  -7 -10   38.90    2.80
  -1  -7 -10   36.60    2.00
  -1  -7 -10   38.40    2.20
   1   7  10   37.30    2.00
  -2  -7 -10  786.42   25.40
  -2  -7 -10  738.63   26.80
  -2  -7 -10  783.42   23.90
  -2  -7 -10  764.52   26.10
  -2  -7 -10  778.82   24.00
  -2  -7 -10  753.02   24.10
  -2  -7 -10  759.82   25.20
  -3  -7 -10   59.09    2.80
  -3  -7 -10   61.09    3.70
  -3  -7 -10   56.39    4.10
  -3  -7 -10   54.99    2.90
  -3  -7 -10   57.69    4.70
  -3  -7 -10   56.59    2.80
   3   7  10   56.49    2.60
  -4  -7 -10   21.00    2.30
  -4  -7 -10   20.10    1.80
  -4  -7 -10   19.80    2.70
  -4  -7 -10   19.60    1.70
   4   7  10   21.30    1.30
  -5  -7 -10   72.69    3.40
  -5  -7 -10   71.49    4.00
   5   7  10   72.59    3.00
  -6  -7 -10    0.40    0.90
  -6  -7 -10    0.60    0.60
  -6  -7 -10   -0.40    0.60
   6   7  10    0.50    0.40
   6   7  10   -0.30    0.40
  -7  -7 -10    0.70    0.50
  -7  -7 -10    1.30    0.60
   7   7  10    0.20    0.40
   7   7  10    1.00    0.50
  -8  -7 -10   67.29    2.50
  -8  -7 -10   63.79    2.70
   8   7  10   67.89    2.40
   3  -8 -10   84.29    3.10
   3  -8 -10   83.39    5.00
  -3   8  10   76.19    2.90
   2  -8 -10   -0.30    0.80
   2  -8 -10   -0.30    0.40
   2  -8 -10    0.40    0.50
  -2   8  10   -0.10    0.40
   1  -8 -10   27.20    1.50
   1  -8 -10   25.30    1.80
   1  -8 -10   23.80    1.40
   1  -8 -10   24.30    2.40
   1  -8 -10   26.80    2.70
  -1   8  10   26.90    1.60
   0  -8 -10   16.60    2.40
   0  -8 -10   16.20    1.30
   0  -8 -10   20.40    1.80
   0  -8 -10   15.70    2.20
   0  -8 -10   17.20    1.40
   0   8  10   16.60    1.40
  -1  -8 -10   60.89    2.80
  -1  -8 -10   63.09    4.10
  -1  -8 -10   56.59    3.40
  -1  -8 -10   61.69    2.80
  -1  -8 -10   60.49    4.40
  -1  -8 -10   61.39    3.20
   1   8  10   61.49    2.70
  -2  -8 -10   88.99    5.10
  -2  -8 -10   86.19    3.60
  -2  -8 -10   86.29    3.60
  -2  -8 -10   87.09    4.50
  -2  -8 -10   90.89    5.80
   2   8  10   89.09    3.60
  -3  -8 -10   48.80    2.40
  -3  -8 -10   45.20    3.60
  -3  -8 -10   46.80    2.40
  -3  -8 -10   47.60    3.20
   3   8  10   45.50    2.20
  -4  -8 -10   55.29    3.40
  -4  -8 -10   52.39    3.90
  -4  -8 -10   50.89    2.60
  -4  -8 -10   56.69    2.70
   4   8  10   53.79    2.50
   4   8  10   54.69    2.40
  -5  -8 -10    3.10    0.80
  -5  -8 -10    5.30    1.20
   5   8  10    4.60    0.70
   5   8  10    3.70    0.70
   5   8  10    5.00    0.70
  -6  -8 -10    7.60    1.00
  -6  -8 -10    7.50    1.30
   6   8  10    7.70    0.80
   6   8  10    5.60    0.70
  -7  -8 -10  106.99    4.30
  -7  -8 -10  128.29    4.40
   7   8  10  125.09    4.10
   7   8  10  120.69    4.20
   1  -9 -10   96.79    3.60
   1  -9 -10   89.09    4.20
   1  -9 -10   96.59    4.80
  -1   9  10   88.59    3.30
  -1   9  10   86.19    3.30
   0  -9 -10   35.30    1.70
   0  -9 -10   36.00    2.70
   0  -9 -10   37.00    3.00
   0   9  10   35.00    1.70
   0   9  10   35.90    1.70
  -1  -9 -10   80.29    4.90
  -1  -9 -10   80.19    4.50
  -1  -9 -10   75.59    3.10
   1   9  10   78.59    3.10
   1   9  10   74.29    3.00
  -2  -9 -10    7.30    1.60
  -2  -9 -10    6.60    1.10
  -2  -9 -10    8.50    1.00
  -2  -9 -10    7.00    1.80
   2   9  10    6.90    0.80
  -3  -9 -10   -0.30    0.60
  -3  -9 -10    0.00    0.80
   3   9  10    0.20    0.40
   3   9  10    0.80    0.40
  -4  -9 -10   54.29    2.50
  -4  -9 -10   60.49    3.40
  -4  -9 -10   57.19    3.80
   4   9  10   58.29    2.40
   4   9  10   57.49    2.50
  -5  -9 -10   80.49    3.90
  -5  -9 -10   75.79    3.20
   5   9  10   78.79    2.90
   5   9  10   71.59    2.90
   5   9  10   82.99    3.00
  -6  -9 -10   14.60    1.10
  -6  -9 -10   14.50    1.50
   6   9  10   16.80    1.00
   6   9  10   13.40    0.90
   0 -10 -10   20.50    1.90
   0 -10 -10   19.30    1.60
   0  10  10   17.10    0.90
   0  10  10   17.80    1.00
  -1 -10 -10   46.10    3.00
  -1 -10 -10   38.50    2.60
   1  10  10   36.40    1.70
   1  10  10   40.70    1.70
  -2 -10 -10    0.20    0.50
  -2 -10 -10    0.10    0.70
   2  10  10    0.90    0.40
   2  10  10    0.30    0.30
  -3 -10 -10   32.90    2.10
  -3 -10 -10   37.30    2.60
   3  10  10   31.20    1.50
   3  10  10   33.40    1.50
  -4 -10 -10   23.00    1.70
  -4 -10 -10   21.90    2.10
   4  10  10   20.00    1.10
   4  10  10   20.20    1.10
  -5 -10 -10   10.00    1.20
  -5 -10 -10    8.00    0.80
   5  10  10    8.30    0.60
   5  10  10    9.00    0.70
   4   8 -11   55.89    2.00
   4   8 -11   55.29    2.20
   4   8 -11   57.69    2.00
   4   8 -11   51.79    2.30
   4   8 -11   53.89    2.10
   3   8 -11   30.30    1.30
   3   8 -11   29.80    1.40
   3   8 -11   31.10    1.70
   3   8 -11   30.80    1.50
   3   8 -11   30.80    1.50
   3   8 -11   29.10    1.50
   2   8 -11   84.09    3.30
   2   8 -11   83.49    3.00
   2   8 -11   84.29    3.10
   2   8 -11   89.89    3.50
   2   8 -11   79.29    3.10
   2   8 -11   86.29    3.30
  -2  -8  11   80.79    3.40
   1   8 -11    8.00    0.90
   1   8 -11    6.60    0.70
   1   8 -11    7.80    1.00
   1   8 -11    7.00    0.70
   1   8 -11    7.10    0.80
   1   8 -11    8.00    0.90
   0   8 -11   37.30    1.70
   0   8 -11   39.60    1.70
   0   8 -11   40.10    1.90
   0   8 -11   44.60    2.10
   0   8 -11   37.00    1.80
   0   8 -11   34.40    1.70
  -1   8 -11  138.59    4.70
  -1   8 -11  141.79    4.80
  -1   8 -11  135.89    4.70
   1  -8  11  145.99    5.30
   5   7 -11    0.70    0.30
   5   7 -11    1.00    0.30
   5   7 -11    0.80    0.40
   5   7 -11    1.00    0.30
   5   7 -11    0.80    0.30
   4   7 -11   52.69    2.20
   4   7 -11   52.39    2.30
   4   7 -11   57.29    2.20
   4   7 -11   56.19    2.10
   4   7 -11   48.80    2.50
   4   7 -11   57.89    2.50
   3   7 -11   65.19    2.70
   3   7 -11   74.99    2.90
   3   7 -11   70.19    2.90
   3   7 -11   67.79    3.20
   3   7 -11   68.29    2.70
   3   7 -11   71.19    2.90
   3   7 -11   74.59    3.10
   2   7 -11   83.69    4.00
   2   7 -11   93.29    3.80
   2   7 -11   92.69    3.50
   2   7 -11   99.89    4.20
   2   7 -11  101.19    3.70
   2   7 -11   92.09    3.70
   2   7 -11   96.99    3.90
   1   7 -11   36.60    2.40
   1   7 -11   37.10    2.00
   1   7 -11   34.40    2.00
   1   7 -11   40.00    2.30
   1   7 -11   38.70    1.90
   1   7 -11   35.50    1.80
   1   7 -11   34.60    2.10
   0   7 -11   29.20    1.60
   0   7 -11   32.10    1.70
   0   7 -11   32.20    1.90
   0   7 -11   31.70    1.90
   0   7 -11   30.30    1.70
   0   7 -11   32.60    2.00
   0   7 -11   31.80    2.30
   0  -7  11   30.00    2.20
  -1   7 -11   96.29    3.70
  -1   7 -11   95.59    4.10
  -1   7 -11   94.99    3.90
  -1   7 -11  101.29    3.90
  -1   7 -11   99.79    3.80
  -1   7 -11  106.19    4.60
   1  -7  11   99.29    4.60
  -2   7 -11   40.90    1.90
  -2   7 -11   45.60    2.10
  -2   7 -11   45.00    2.10
  -2   7 -11   42.60    2.10
  -2   7 -11   48.20    2.60
   2  -7  11   48.30    2.80
  -3   7 -11   12.00    0.80
  -3   7 -11   13.20    0.90
   3  -7  11   14.10    1.30
   5   6 -11   32.30    1.50
   5   6 -11   36.10    1.60
   5   6 -11   30.50    1.80
   5   6 -11   31.70    1.70
   5   6 -11   34.90    1.50
   5   6 -11   34.60    1.60
   4   6 -11   17.70    1.10
   4   6 -11   16.00    1.50
   4   6 -11   19.60    1.30
   4   6 -11   18.20    1.30
   4   6 -11   17.00    1.20
   4   6 -11   16.60    1.20
   3   6 -11   34.30    1.80
   3   6 -11   29.70    1.80
   3   6 -11   29.70    2.00
   3   6 -11   28.70    1.60
   3   6 -11   29.90    1.60
   3   6 -11   30.00    1.90
   3   6 -11   27.60    1.70
   2   6 -11   86.89    3.40
   2   6 -11   79.99    3.40
   2   6 -11   81.59    3.80
   2   6 -11   84.49    3.30
   2   6 -11   82.29    3.60
   2   6 -11   74.89    3.50
   1   6 -11  202.08    7.20
   1   6 -11  200.58    6.70
   1   6 -11  192.38    7.40
   1   6 -11  190.68    6.90
   1   6 -11  187.78    7.10
   1   6 -11  187.08    7.70
   1   6 -11  196.68    6.80
   0   6 -11  128.09    5.10
   0   6 -11  128.09    4.90
   0   6 -11  132.29    5.40
   0   6 -11  125.89    5.70
   0   6 -11  117.79    5.90
   0   6 -11  131.99    4.80
   0   6 -11  126.79    4.90
   0   6 -11  126.89    5.10
  -1   6 -11   14.30    1.90
  -1   6 -11   13.20    1.40
  -1   6 -11   16.00    2.30
  -1   6 -11   16.00    1.70
  -1   6 -11   14.30    1.30
  -1   6 -11   14.90    1.40
  -1   6 -11   14.50    1.50
  -2   6 -11    2.00    0.80
  -2   6 -11    3.20    1.10
  -2   6 -11    2.50    1.00
  -2   6 -11    2.70    0.70
  -2   6 -11    2.40    0.60
  -2   6 -11    3.20    0.80
  -2   6 -11    2.30    0.70
  -3   6 -11   69.39    3.00
  -3   6 -11   70.49    2.80
  -3   6 -11   67.49    3.40
  -3   6 -11   75.49    3.00
  -3   6 -11   69.09    4.00
   3  -6  11   71.69    3.70
  -4   6 -11   43.90    1.80
  -4   6 -11   47.30    2.00
  -4   6 -11   46.10    2.00
   4  -6  11   47.60    2.50
   4  -6  11   48.80    2.60
   6   5 -11    8.30    0.70
   6   5 -11    9.30    0.80
   6   5 -11    8.30    0.80
   6   5 -11    8.30    0.70
   6   5 -11    9.50    0.80
   6   5 -11    8.30    0.70
   5   5 -11    9.30    0.80
   5   5 -11    9.10    0.80
   5   5 -11    9.40    0.90
   5   5 -11    8.50    1.00
   5   5 -11    9.20    0.90
   5   5 -11    8.00    0.90
   4   5 -11   14.00    1.20
   4   5 -11   11.40    1.10
   4   5 -11   10.50    1.20
   4   5 -11   10.70    1.00
   4   5 -11   11.90    1.40
   4   5 -11   13.90    1.20
   3   5 -11  137.49    5.10
   3   5 -11  137.49    5.60
   3   5 -11  140.09    5.40
   3   5 -11  138.59    4.90
   3   5 -11  140.59    5.20
   3   5 -11  136.99    5.00
   2   5 -11  337.67   11.20
   2   5 -11  355.36   11.10
   2   5 -11  346.87   11.30
   2   5 -11  343.17   11.90
   2   5 -11  323.57   11.50
   2   5 -11  346.77   11.50
   1   5 -11  205.68    7.20
   1   5 -11  193.08    7.60
   1   5 -11  200.08    7.40
   1   5 -11  195.68    7.90
   1   5 -11  205.78    7.20
   1   5 -11  207.78    7.00
   1   5 -11  209.88    7.40
   0   5 -11   21.80    2.50
   0   5 -11   23.40    2.00
   0   5 -11   22.00    1.60
   0   5 -11   19.60    2.80
   0   5 -11   23.60    1.60
   0   5 -11   23.90    1.80
   0   5 -11   21.80    2.10
  -1   5 -11   12.60    2.30
  -1   5 -11    8.70    1.30
  -1   5 -11    9.30    1.30
  -1   5 -11   10.30    1.30
  -1   5 -11    9.70    1.10
  -1   5 -11   10.10    1.50
  -1   5 -11   10.60    1.80
  -2   5 -11  250.07    8.80
  -2   5 -11  254.67    8.10
  -2   5 -11  223.58    9.40
  -2   5 -11  217.88   10.30
  -2   5 -11  258.07    8.70
  -2   5 -11  216.38   10.10
  -2   5 -11  248.68    8.60
  -2   5 -11  244.58    8.40
  -3   5 -11  335.47   12.50
  -3   5 -11  309.27   10.70
  -3   5 -11  301.97   10.90
  -3   5 -11  312.07   11.00
  -3   5 -11  326.87   11.60
  -3   5 -11  339.17   10.70
  -3   5 -11  320.77   10.50
   3  -5  11  320.57   11.90
  -4   5 -11    1.90    1.00
  -4   5 -11    1.10    0.60
  -4   5 -11    0.10    0.70
  -4   5 -11    0.10    0.50
  -4   5 -11    0.50    0.50
   4  -5  11    1.20    0.80
  -5   5 -11    0.00    0.40
  -5   5 -11   -0.20    0.40
   5  -5  11    1.20    0.70
   5  -5  11    0.70    0.60
   6   4 -11    1.00    0.40
   6   4 -11    1.40    0.50
   6   4 -11    0.90    0.50
   6   4 -11    1.30    0.40
   6   4 -11    0.70    0.40
   6   4 -11    0.50    0.30
   5   4 -11   82.49    3.30
   5   4 -11   78.19    3.40
   5   4 -11   84.69    3.20
   5   4 -11   82.99    3.20
   5   4 -11   85.49    3.30
   5   4 -11   86.39    3.30
   4   4 -11  229.68    7.60
   4   4 -11  229.98    8.00
   4   4 -11  232.18    7.80
   4   4 -11  227.78    7.70
   4   4 -11  228.58    7.60
   4   4 -11  230.58    7.90
   3   4 -11    7.10    0.90
   3   4 -11    5.90    0.90
   3   4 -11    5.00    0.70
   3   4 -11    5.30    1.00
   3   4 -11    4.70    0.80
   3   4 -11    5.70    1.10
   2   4 -11   25.10    1.40
   2   4 -11   24.50    1.70
   2   4 -11   22.40    1.50
   2   4 -11   23.80    1.50
   2   4 -11   24.60    1.90
   2   4 -11   22.20    1.70
   1   4 -11    9.40    1.10
   1   4 -11    9.30    1.00
   1   4 -11   12.90    1.20
   1   4 -11    8.70    1.30
   1   4 -11   10.00    1.30
   1   4 -11    8.40    1.20
   1   4 -11    9.60    1.70
   0   4 -11  111.09    4.60
   0   4 -11  118.59    4.70
   0   4 -11  114.09    4.20
   0   4 -11  111.49    5.60
   0   4 -11  110.69    4.90
   0   4 -11   99.49    5.10
   0   4 -11  115.69    4.40
  -1   4 -11  703.93   22.30
  -1   4 -11  714.53   21.70
  -1   4 -11  698.33   22.50
  -1   4 -11  696.33   22.10
  -1   4 -11  671.83   23.40
  -1   4 -11  678.83   22.90
  -1   4 -11  705.43   22.00
  -2   4 -11   99.79    4.30
  -2   4 -11   99.29    4.60
  -2   4 -11  104.39    6.10
  -2   4 -11  107.49    5.10
  -2   4 -11  107.99    4.80
  -2   4 -11  105.49    5.70
  -2   4 -11  103.09    4.10
  -2   4 -11  105.89    4.30
  -3   4 -11   47.40    2.40
  -3   4 -11   53.39    2.70
  -3   4 -11   48.80    4.20
  -3   4 -11   52.09    3.00
  -3   4 -11   51.99    2.60
  -3   4 -11   50.09    3.30
  -3   4 -11   50.49    2.80
  -3   4 -11   49.10    4.00
  -4   4 -11    0.50    1.30
  -4   4 -11    0.70    0.70
  -4   4 -11    0.40    0.60
  -4   4 -11    0.00    0.70
  -4   4 -11    0.50    0.90
  -4   4 -11    0.20    1.00
  -5   4 -11   79.09    3.40
  -5   4 -11   80.29    3.30
  -5   4 -11   74.49    4.10
   5  -4  11   78.19    3.30
   5  -4  11   86.89    4.20
  -6   4 -11   86.79    3.10
   6  -4  11   85.39    3.70
   6   3 -11   20.00    1.20
   6   3 -11   19.80    1.10
   6   3 -11   18.40    1.10
   6   3 -11   21.60    1.30
   6   3 -11   21.50    1.10
   6   3 -11   20.50    1.20
   5   3 -11  289.27    9.50
   5   3 -11  288.37    9.40
   5   3 -11  288.57    9.60
   5   3 -11  299.37    9.40
   5   3 -11  283.67    9.70
   5   3 -11  294.87    9.50
   5   3 -11  287.97    9.40
   4   3 -11    1.20    0.60
   4   3 -11    2.20    0.50
   4   3 -11    1.30    0.60
   4   3 -11    1.40    0.50
   4   3 -11    2.50    0.60
   4   3 -11    1.60    0.40
   3   3 -11    0.60    0.50
   3   3 -11    0.90    0.50
   3   3 -11    0.50    0.50
   3   3 -11    1.10    0.50
   3   3 -11    1.00    0.50
   2   3 -11  110.99    4.30
   2   3 -11  119.69    4.60
   2   3 -11  116.09    4.40
   2   3 -11  114.49    4.20
   1   3 -11  168.58    6.30
   1   3 -11  181.98    6.20
   1   3 -11  169.98    6.40
   1   3 -11  178.68    6.60
   1   3 -11  170.38    5.90
   0   3 -11  638.64   20.00
   0   3 -11  625.94   20.20
   0   3 -11  621.64   20.30
   0   3 -11  639.04   20.80
   0   3 -11  633.94   20.60
   0   3 -11  669.43   25.70
   0  -3  11  688.33   25.60
  -1   3 -11    3.10    2.00
  -1   3 -11    5.70    1.00
  -1   3 -11    5.90    1.40
  -1   3 -11    9.80    1.40
  -1   3 -11    7.40    1.20
  -1   3 -11    6.00    1.20
  -1   3 -11    6.80    1.00
  -2   3 -11  120.79    5.10
  -2   3 -11  118.89    5.20
  -2   3 -11  119.59    4.70
  -2   3 -11  123.69    6.50
  -2   3 -11  116.79    4.80
  -3   3 -11  165.38    8.10
  -3   3 -11  212.28    8.00
  -3   3 -11  212.08    7.80
  -3   3 -11  212.78    9.00
  -3   3 -11  213.98    8.20
  -3   3 -11  221.78    7.60
  -3   3 -11  204.98   10.00
  -3   3 -11  216.18    7.50
  -4   3 -11  211.08    9.30
  -4   3 -11  215.48    7.60
  -4   3 -11  212.88    8.00
  -4   3 -11  212.98    8.40
  -4   3 -11  206.78    9.90
  -4   3 -11  214.38    8.10
   4  -3  11  232.88    7.80
  -5   3 -11    3.70    1.60
  -5   3 -11    4.20    1.00
  -5   3 -11    2.60    1.20
  -5   3 -11    3.90    0.90
  -5   3 -11    4.30    0.80
   5  -3  11    4.30    0.90
  -6   3 -11   10.70    1.00
  -6   3 -11   12.70    1.20
   6  -3  11   12.70    1.60
   6  -3  11   12.80    1.20
   6   2 -11   27.80    1.40
   6   2 -11   28.30    1.40
   6   2 -11   26.70    1.40
   6   2 -11   25.70    1.50
   6   2 -11   26.70    1.40
   6   2 -11   28.30    1.40
   5   2 -11   28.90    1.60
   5   2 -11   30.70    1.70
   5   2 -11   31.50    1.70
   5   2 -11   29.80    1.50
   5   2 -11   28.50    1.50
   5   2 -11   28.60    1.60
   4   2 -11   32.70    1.80
   4   2 -11   35.50    1.70
   4   2 -11   34.10    1.90
   4   2 -11   33.80    1.70
   4   2 -11   32.90    1.80
   4   2 -11   34.00    1.80
   3   2 -11  304.47    9.90
   3   2 -11  298.77   10.00
   3   2 -11  307.97   10.10
   3   2 -11  311.37   10.20
   3   2 -11  315.57    9.90
   2   2 -11   23.30    2.50
   2   2 -11   29.00    4.20
   2   2 -11   25.00    1.50
   2   2 -11   24.10    1.30
   2   2 -11   25.20    1.50
  -2  -2  11   29.80    5.00
   1   2 -11   24.90    3.40
  -1  -2  11   12.90    3.40
  -1  -2  11   24.00    3.80
   0   2 -11  214.78   10.50
   0   2 -11  204.58   11.90
   0  -2  11  213.98   10.60
   0  -2  11  216.88   10.80
  -1   2 -11  125.79   10.90
  -1   2 -11  114.59    6.30
  -1   2 -11  101.69    8.70
   1  -2  11  106.79    7.20
   1  -2  11  108.39    7.30
  -2   2 -11  149.99    6.60
  -2   2 -11  159.28    5.90
  -2   2 -11  153.08    5.80
  -2   2 -11  151.48    6.40
  -2   2 -11  150.28    7.00
  -2   2 -11  145.39    6.10
   2  -2  11  175.08    9.70
  -3   2 -11    2.40    0.80
  -3   2 -11    2.90    0.80
  -3   2 -11    2.50    0.70
  -3   2 -11    2.20    0.90
  -3   2 -11    1.10    0.90
  -3   2 -11    2.80    1.40
  -3   2 -11    2.10    0.90
  -3   2 -11    4.90    1.20
  -4   2 -11    1.30    0.90
  -4   2 -11   -0.10    1.80
  -4   2 -11   -0.60    0.60
  -4   2 -11    0.40    0.80
  -4   2 -11   -0.10    0.90
  -4   2 -11    0.20    0.70
  -4   2 -11    0.40    1.00
  -4   2 -11   -0.20    0.60
  -5   2 -11   45.00    2.70
  -5   2 -11   40.70    2.30
  -5   2 -11   39.50    3.70
  -5   2 -11   42.10    3.40
  -5   2 -11   39.00    2.60
   5  -2  11   41.70    2.40
  -6   2 -11   16.40    1.50
  -6   2 -11   17.60    1.40
  -6   2 -11   20.30    1.70
   6  -2  11   17.30    1.40
  -7   2 -11   69.89    2.70
  -7   2 -11   79.49    3.00
   7  -2  11   77.39    3.00
   7  -2  11   70.89    3.30
   6   1 -11   75.59    2.80
   6   1 -11   76.79    2.80
   6   1 -11   72.29    2.80
   6   1 -11   78.09    2.80
   6   1 -11   72.39    3.00
   6   1 -11   74.89    2.90
   6   1 -11   71.59    3.00
   5   1 -11   23.00    1.40
   5   1 -11   21.30    1.30
   5   1 -11   24.60    1.50
   5   1 -11   22.60    1.40
   5   1 -11   21.00    1.50
   5   1 -11   22.80    1.50
   5   1 -11   21.80    1.30
   4   1 -11  121.09    4.40
   4   1 -11  120.79    4.30
   4   1 -11  117.29    4.40
   4   1 -11  112.29    4.30
   4   1 -11  120.49    4.40
   4   1 -11  117.89    4.50
   3   1 -11  119.69    4.40
   3   1 -11  122.49    4.30
   3   1 -11  126.09    4.50
   3   1 -11  124.29    4.60
   3   1 -11  119.59    4.40
   2   1 -11   12.20    1.90
  -2  -1  11   10.00    2.70
  -2  -1  11    6.00    2.30
  -1  -1  11  559.54   21.90
   0   1 -11  409.46   17.50
   0   1 -11  399.36   16.40
   0  -1  11  393.36   15.10
   0  -1  11  396.36   14.70
   0  -1  11  401.66   16.20
   0  -1  11  390.76   15.90
  -1   1 -11   65.19    6.40
  -1   1 -11   62.19    6.90
   1  -1  11   64.09    6.00
   1  -1  11   61.19    5.90
   1  -1  11   61.69    4.80
   1  -1  11   63.39    5.30
  -2   1 -11   64.89    4.40
  -2   1 -11   63.99    7.50
   2  -1  11   66.29    6.40
   2  -1  11   74.29    6.20
   2  -1  11   57.89    5.20
   2  -1  11   64.99    6.40
  -3   1 -11   91.49    4.30
  -3   1 -11   92.59    4.00
  -3   1 -11   92.29    4.90
  -3   1 -11   93.39    4.10
  -3   1 -11   86.09    4.00
  -3   1 -11   85.19    4.90
  -3   1 -11   95.99    4.70
  -4   1 -11    3.40    1.00
  -4   1 -11   -0.30    0.80
  -4   1 -11   -0.10    0.80
  -4   1 -11    1.20    1.20
  -4   1 -11    0.20    0.80
  -4   1 -11    1.30    0.90
  -4   1 -11   -0.30    0.70
  -4   1 -11    0.30    0.80
  -5   1 -11  300.17   12.80
  -5   1 -11  300.47   10.10
  -5   1 -11  300.47   10.30
  -5   1 -11  304.07   10.60
  -5   1 -11  302.27   10.90
  -5   1 -11  291.17   10.90
   5  -1  11  305.97   10.80
  -6   1 -11   58.69    4.20
  -6   1 -11   59.09    3.20
  -6   1 -11   57.79    2.70
  -6   1 -11   67.09    3.20
   6  -1  11   62.09    2.80
   6  -1  11   59.39    3.00
  -7   1 -11   27.40    1.70
  -7   1 -11   24.10    1.30
   7  -1  11   24.50    1.50
   7  -1  11   21.10    1.70
   7  -1  11   21.80    1.30
   6   0 -11    4.10    0.60
   6   0 -11    3.10    0.60
   6   0 -11    4.40    0.70
   6   0 -11    3.50    0.50
   6   0 -11    4.10    0.60
   6   0 -11    3.00    0.50
   5   0 -11   16.90    1.20
   5   0 -11   18.60    1.30
   5   0 -11   16.30    1.30
   5   0 -11   15.20    1.40
   5   0 -11   18.20    1.20
   5   0 -11   17.10    1.30
   4   0 -11  329.17   10.70
   4   0 -11  340.17   10.70
   4   0 -11  330.47   10.60
   4   0 -11  330.77   10.80
   4   0 -11  329.77   10.90
   4   0 -11  331.47   11.00
   3   0 -11   14.70    1.40
   3   0 -11   14.60    1.10
   3   0 -11   16.00    1.30
   3   0 -11   15.60    1.30
   3   0 -11   13.90    1.10
   3   0 -11   14.40    1.10
   2   0 -11  336.37   14.20
  -2   0  11  318.47   14.30
  -1   0  11  438.96   21.30
   0   0 -11    3.30    2.70
   0   0 -11    3.50    1.40
   0   0  11    4.30    1.90
   0   0  11    3.80    2.20
   0   0  11    5.20    1.70
   0   0  11    4.80    1.70
  -1   0 -11  151.58    9.10
  -1   0 -11  167.78    9.30
  -1   0 -11  140.99    8.30
   1   0  11  183.28    8.00
   1   0  11  176.38    9.20
   1   0  11  165.98    8.30
   1   0  11  168.48    9.00
  -2   0 -11  426.46   17.50
  -2   0 -11  430.36   18.90
  -2   0 -11  411.76   17.80
   2   0  11  448.56   17.10
   2   0  11  438.86   16.50
   2   0  11  465.85   18.20
   2   0  11  445.26   18.00
  -3   0 -11   54.79    5.80
  -3   0 -11   47.50    6.10
   3   0  11   53.89    4.90
   3   0  11   46.60    5.60
   3   0  11   52.09    5.40
   3   0  11   48.00    5.50
  -4   0 -11   27.00    2.20
  -4   0 -11   27.40    2.50
  -4   0 -11   29.40    2.00
  -4   0 -11   28.10    2.60
  -4   0 -11   26.80    2.20
  -4   0 -11   25.90    2.00
  -4   0 -11   25.60    2.60
  -4   0 -11   26.50    2.00
  -5   0 -11   88.69    4.70
  -5   0 -11  100.69    4.30
  -5   0 -11   89.89    4.50
  -5   0 -11   84.29    5.30
  -5   0 -11   85.59    4.40
  -5   0 -11   89.29    4.00
  -5   0 -11   95.09    4.40
   5   0  11   91.39    3.90
  -6   0 -11    0.40    1.10
  -6   0 -11    0.50    0.70
  -6   0 -11    0.30    0.70
   6   0  11    0.00    0.60
  -7   0 -11    6.00    1.00
  -7   0 -11    6.00    1.00
   7   0  11    5.00    0.80
   7   0  11    5.00    0.80
   6  -1 -11   24.00    1.20
   6  -1 -11   22.40    1.20
   6  -1 -11   22.10    1.30
   6  -1 -11   22.40    1.10
   6  -1 -11   22.20    1.30
   6  -1 -11   20.10    1.90
   6  -1 -11   23.10    1.20
   5  -1 -11   51.49    2.40
   5  -1 -11   55.29    2.50
   5  -1 -11   56.19    2.40
   5  -1 -11   51.79    2.50
   5  -1 -11   51.99    2.20
   5  -1 -11   56.29    2.30
   5  -1 -11   53.49    2.80
   4  -1 -11   12.60    1.30
   4  -1 -11   14.90    1.20
   4  -1 -11   14.10    1.30
   4  -1 -11   16.60    1.30
   4  -1 -11   15.10    1.20
   4  -1 -11   13.60    1.60
   4  -1 -11   15.00    1.10
   3  -1 -11  302.57    9.70
   3  -1 -11  300.27   10.00
   3  -1 -11  283.87   10.30
   3  -1 -11  300.27    9.80
   3  -1 -11  296.77    9.60
   3  -1 -11  295.67    9.70
   2  -1 -11  900.21   33.10
   2  -1 -11  873.71   33.50
  -2   1  11  996.30   36.50
  -2   1  11  936.61   32.70
   1  -1 -11    4.80    2.50
  -1   1  11   13.50    3.50
   0  -1 -11   87.89    5.80
   0  -1 -11   87.79    6.00
   0   1  11   87.29    6.10
   0   1  11   93.99    6.60
  -1  -1 -11   36.00    4.30
  -1  -1 -11   28.20    4.50
   1   1  11   29.30    3.70
   1   1  11   33.20    4.50
  -2  -1 -11    4.40    3.20
  -2  -1 -11   -0.90    1.20
  -2  -1 -11    5.40    1.10
   2   1  11    3.80    1.50
   2   1  11    5.80    2.40
   2   1  11    5.70    2.40
   2   1  11    6.40    2.00
  -3  -1 -11  688.83   27.00
  -3  -1 -11  709.63   26.30
  -3  -1 -11  617.44   26.20
   3   1  11  693.43   24.20
   3   1  11  705.53   24.80
   3   1  11  697.13   25.90
   3   1  11  751.02   26.90
  -4  -1 -11  257.87    9.20
  -4  -1 -11  254.77    9.20
  -4  -1 -11  261.17    9.20
  -4  -1 -11  279.27   11.20
  -4  -1 -11  261.77    9.20
  -4  -1 -11  255.97   10.30
  -4  -1 -11  264.57    9.50
  -4  -1 -11  257.77   10.50
  -5  -1 -11  712.43   23.20
  -5  -1 -11  702.03   22.80
  -5  -1 -11  710.03   22.80
  -5  -1 -11  727.23   23.80
  -5  -1 -11  698.33   22.90
  -5  -1 -11  727.63   23.80
  -6  -1 -11   85.59    4.30
  -6  -1 -11   91.79    4.10
  -6  -1 -11   83.99    4.30
  -6  -1 -11   92.19    4.00
   6   1  11   87.19    3.80
  -7  -1 -11  215.68    7.60
  -7  -1 -11  212.78    7.80
   7   1  11  203.98    7.40
   7   1  11  213.68    7.40
  -8  -1 -11   17.40    1.20
  -8  -1 -11   18.30    1.20
   8   1  11   18.50    1.10
   8   1  11   16.80    1.00
   6  -2 -11    4.40    0.60
   6  -2 -11    5.30    0.60
   6  -2 -11    4.80    0.60
   6  -2 -11    5.20    0.50
   6  -2 -11    3.40    0.70
   6  -2 -11    4.70    0.60
  -6   2  11    4.50    0.50
   5  -2 -11    8.10    0.80
   5  -2 -11    7.00    0.80
   5  -2 -11    7.60    0.90
   5  -2 -11    6.90    0.80
   5  -2 -11    8.10    1.10
   5  -2 -11    7.20    0.70
   5  -2 -11    7.90    1.00
   4  -2 -11   46.10    2.70
   4  -2 -11   50.29    2.50
   4  -2 -11   49.80    2.30
   4  -2 -11   49.60    2.20
   4  -2 -11   49.40    2.40
   4  -2 -11   50.89    2.40
   3  -2 -11  663.13   20.50
   3  -2 -11  626.84   21.50
   3  -2 -11  652.93   20.80
   3  -2 -11  656.13   20.50
   3  -2 -11  697.53   21.30
   3  -2 -11  658.83   20.70
   3  -2 -11  671.63   20.60
   2  -2 -11  104.29    4.10
   2  -2 -11  104.99    3.90
   2  -2 -11  104.09    4.40
   2  -2 -11  100.09    3.80
   2  -2 -11  100.19    4.60
   2  -2 -11  103.89    3.80
  -2   2  11   98.09    9.90
   1  -2 -11  136.29    8.30
   1  -2 -11  155.88   10.10
  -1   2  11  181.18   11.10
  -1   2  11  184.08    9.80
   0  -2 -11    0.20    1.50
   0  -2 -11   -1.30    1.10
   0  -2 -11    4.10    3.60
   0   2  11   -0.70    1.50
   0   2  11    2.50    2.10
  -1  -2 -11  323.57   14.70
  -1  -2 -11  343.97   13.40
  -1  -2 -11  288.07   14.30
   1   2  11  379.66   15.60
   1   2  11  325.87   14.20
  -2  -2 -11  121.19    7.30
  -2  -2 -11   96.29    8.30
  -2  -2 -11  117.19    6.90
   2   2  11  123.59    7.40
   2   2  11  123.49    8.00
  -3  -2 -11  262.57   13.50
  -3  -2 -11  266.97   13.30
   3   2  11  287.87   12.30
   3   2  11  298.47   13.00
   3   2  11  283.57   13.00
   3   2  11  294.77   14.00
   3   2  11  279.07   13.90
  -4  -2 -11   14.70    2.60
  -4  -2 -11   14.70    2.20
  -4  -2 -11   11.00    2.00
  -4  -2 -11   13.30    1.50
  -4  -2 -11   12.90    1.50
  -4  -2 -11   14.10    1.70
  -4  -2 -11   13.40    1.40
  -4  -2 -11   12.20    1.30
  -5  -2 -11    1.50    0.80
  -5  -2 -11    0.90    0.70
  -5  -2 -11    0.40    0.70
  -5  -2 -11    0.70    1.00
  -5  -2 -11    1.10    0.60
  -5  -2 -11    0.60    0.70
  -5  -2 -11    0.20    0.90
  -5  -2 -11   -0.10    1.10
   5   2  11    1.00    0.60
  -6  -2 -11  103.29    4.50
  -6  -2 -11  101.69    4.30
  -6  -2 -11  100.19    4.70
  -6  -2 -11   94.49    4.20
   6   2  11   97.69    3.80
   6   2  11   96.39    4.20
  -7  -2 -11    4.20    1.10
  -7  -2 -11    4.10    0.90
   7   2  11    3.70    0.80
  -8  -2 -11   72.19    2.90
  -8  -2 -11   73.79    3.10
   8   2  11   65.69    2.70
   8   2  11   71.99    2.80
   5  -3 -11   16.10    1.10
   5  -3 -11   14.50    1.40
   5  -3 -11   16.20    1.20
   5  -3 -11   14.90    1.10
   5  -3 -11   15.50    1.00
   5  -3 -11   15.10    1.00
   4  -3 -11  220.48    8.00
   4  -3 -11  214.18    8.10
   4  -3 -11  218.98    7.40
   4  -3 -11  215.88    7.50
   4  -3 -11  209.88    7.30
   4  -3 -11  224.98    7.30
   4  -3 -11  220.68    7.60
   3  -3 -11   23.70    1.70
   3  -3 -11   23.20    1.50
   3  -3 -11   22.20    1.50
   3  -3 -11   21.50    2.10
   3  -3 -11   24.00    1.60
   3  -3 -11   22.70    1.40
   3  -3 -11   23.50    2.10
   2  -3 -11   45.40    2.20
   2  -3 -11   49.30    2.90
   2  -3 -11   44.90    2.60
   2  -3 -11   46.50    2.40
   2  -3 -11   46.60    2.20
   2  -3 -11   47.20    2.20
   1  -3 -11  709.33   27.50
   1  -3 -11  658.33   27.40
  -1   3  11  715.83   29.00
  -1   3  11  692.83   26.60
   0  -3 -11  361.56   16.60
   0  -3 -11  305.17   14.50
   0  -3 -11  323.57   16.50
   0   3  11  392.66   16.10
   0   3  11  368.56   17.20
  -1  -3 -11  123.99    8.60
  -1  -3 -11  124.39    9.00
   1   3  11  152.28    8.60
   1   3  11  139.29    9.90
   1   3  11  136.59    8.90
  -2  -3 -11    4.30    2.10
  -2  -3 -11    7.10    2.10
  -2  -3 -11    3.40    3.70
   2   3  11    2.50    1.90
   2   3  11    2.70    2.00
  -3  -3 -11   19.10    3.90
  -3  -3 -11   17.00    3.20
   3   3  11   10.80    3.60
   3   3  11   19.90    3.70
   3   3  11   19.10    2.00
  -4  -3 -11   50.79    2.50
  -4  -3 -11   48.60    2.70
  -4  -3 -11   56.19    4.10
  -4  -3 -11   46.60    3.50
  -4  -3 -11   47.80    2.60
  -4  -3 -11   42.00    4.30
  -4  -3 -11   46.30    2.60
  -4  -3 -11   51.39    2.90
  -5  -3 -11  266.87    9.40
  -5  -3 -11  285.17    9.80
  -5  -3 -11  272.87    9.40
  -5  -3 -11  273.57   10.60
  -5  -3 -11  221.08   10.50
  -5  -3 -11  273.57    9.40
  -6  -3 -11    6.30    1.10
  -6  -3 -11    6.60    1.20
  -6  -3 -11    5.90    1.10
  -6  -3 -11    6.10    1.20
  -6  -3 -11    6.00    1.30
   6   3  11    8.30    1.00
  -7  -3 -11    6.40    1.20
  -7  -3 -11    6.80    1.00
  -7  -3 -11    5.20    1.00
   7   3  11    4.90    0.90
   7   3  11    5.40    0.70
  -8  -3 -11   59.99    2.60
  -8  -3 -11   67.39    2.90
   8   3  11   63.69    2.60
   8   3  11   62.59    2.40
   5  -4 -11   58.49    2.40
   5  -4 -11   57.29    2.60
   5  -4 -11   60.79    2.30
   5  -4 -11   56.49    2.60
   5  -4 -11   60.79    2.40
   5  -4 -11   59.29    2.30
   4  -4 -11   57.89    2.40
   4  -4 -11   54.69    2.50
   4  -4 -11   54.19    2.30
   4  -4 -11   58.59    2.90
   4  -4 -11   54.39    2.50
   4  -4 -11   53.59    2.50
   4  -4 -11   52.99    2.90
   3  -4 -11   20.90    1.90
   3  -4 -11   21.70    1.40
   3  -4 -11   19.30    2.00
   3  -4 -11   21.50    1.40
   3  -4 -11   21.10    1.50
   3  -4 -11   20.20    1.40
   3  -4 -11   22.10    1.40
   2  -4 -11   86.09    4.10
   2  -4 -11   95.89    3.60
   2  -4 -11   85.79    4.20
   2  -4 -11   92.69    5.60
   2  -4 -11   87.09    3.50
   2  -4 -11   90.09    3.50
   2  -4 -11   86.89    3.70
   1  -4 -11  305.87   12.20
   1  -4 -11  300.37   10.30
   1  -4 -11  282.77    9.80
   1  -4 -11  289.17    9.50
   1  -4 -11  285.87    9.60
   1  -4 -11  291.57   10.50
   1  -4 -11  285.07    9.50
   0  -4 -11  385.66   13.50
   0  -4 -11  389.46   13.80
   0  -4 -11  380.56   12.80
   0  -4 -11  399.36   18.10
   0  -4 -11  356.46   18.20
   0   4  11  404.06   17.50
   0   4  11  404.86   19.50
  -1  -4 -11  116.89    7.90
  -1  -4 -11  116.49    7.20
   1   4  11  133.59    9.70
   1   4  11  138.79    8.10
   1   4  11  142.49    8.70
  -2  -4 -11   17.30    4.80
  -2  -4 -11   20.30    3.90
   2   4  11   20.80    4.30
   2   4  11   19.60    3.70
  -3  -4 -11    9.30    3.10
  -3  -4 -11    7.80    1.10
  -3  -4 -11    9.50    3.40
  -3  -4 -11   10.50    1.80
  -3  -4 -11    8.80    3.10
  -3  -4 -11    7.80    1.20
  -3  -4 -11    6.90    4.20
   3   4  11   14.90    3.20
   3   4  11    9.80    2.70
  -4  -4 -11    0.60    1.00
  -4  -4 -11    0.30    0.60
  -4  -4 -11    2.20    1.70
  -4  -4 -11    1.60    1.30
  -4  -4 -11    1.90    0.80
  -4  -4 -11    2.90    1.00
  -4  -4 -11    1.30    0.70
  -5  -4 -11  301.87   10.30
  -5  -4 -11  288.37   10.30
  -5  -4 -11  286.27   11.60
  -5  -4 -11  311.27   10.70
  -6  -4 -11   30.30    2.00
  -6  -4 -11   28.60    2.10
  -6  -4 -11   21.70    3.00
  -6  -4 -11   28.30    2.10
  -6  -4 -11   31.60    2.30
   6   4  11   29.40    1.70
  -7  -4 -11    4.50    0.80
  -7  -4 -11    2.50    0.80
  -7  -4 -11    2.80    1.00
   7   4  11    2.60    0.70
   7   4  11    3.00    0.60
  -8  -4 -11    3.10    0.80
  -8  -4 -11    2.10    0.60
   8   4  11    3.50    0.60
   8   4  11    3.60    0.50
   5  -5 -11    4.20    0.60
   5  -5 -11    4.60    0.50
  -5   5  11    3.70    0.50
   4  -5 -11    0.80    0.40
   4  -5 -11    0.40    0.50
   4  -5 -11    0.20    0.60
   4  -5 -11    0.30    0.40
   4  -5 -11    0.50    0.40
   4  -5 -11    0.40    0.40
  -4   5  11    0.50    0.40
   3  -5 -11   71.89    3.10
   3  -5 -11   73.29    3.10
   3  -5 -11   75.69    3.00
   3  -5 -11   70.59    3.00
   3  -5 -11   73.09    4.70
   3  -5 -11   77.79    3.70
   3  -5 -11   71.99    3.50
   3  -5 -11   69.59    2.90
   2  -5 -11  194.68    9.00
   2  -5 -11  180.28    6.50
   2  -5 -11  191.08    7.40
   2  -5 -11  188.68    7.20
   2  -5 -11  194.28    6.70
   2  -5 -11  187.28    6.80
   2  -5 -11  196.28    6.70
   1  -5 -11  133.09    5.10
   1  -5 -11  132.69    4.90
   1  -5 -11  132.29    5.40
   1  -5 -11  137.39    7.20
   1  -5 -11  129.99    5.70
   1  -5 -11  132.69    4.80
   1  -5 -11  129.19    4.80
   0  -5 -11  746.13   23.70
   0  -5 -11  743.33   23.80
   0  -5 -11  724.03   23.00
   0  -5 -11  736.93   23.00
   0  -5 -11  725.03   23.20
   0  -5 -11  791.22   25.60
   0  -5 -11  722.93   25.80
  -1  -5 -11  118.19    6.90
  -1  -5 -11  122.19    4.70
  -1  -5 -11  125.89    4.60
  -1  -5 -11  136.99    5.80
  -1  -5 -11  126.99    6.60
  -1  -5 -11  127.59    5.30
  -1  -5 -11  128.79    5.40
  -1  -5 -11  122.39    4.90
  -2  -5 -11   39.80    2.00
  -2  -5 -11   37.80    2.40
  -2  -5 -11   37.00    3.30
  -2  -5 -11   45.30    4.10
  -2  -5 -11   40.60    2.20
  -2  -5 -11   38.30    2.40
  -2  -5 -11   35.90    2.10
  -2  -5 -11   37.50    2.90
  -3  -5 -11   15.80    2.00
  -3  -5 -11   14.00    1.40
  -3  -5 -11   13.70    1.40
  -3  -5 -11   15.50    1.70
  -3  -5 -11   15.30    1.40
  -3  -5 -11   12.80    1.50
  -3  -5 -11   17.70    3.10
  -3  -5 -11   15.50    2.50
  -4  -5 -11   45.90    2.60
  -4  -5 -11   38.60    3.80
  -4  -5 -11   47.90    2.60
  -4  -5 -11   46.10    2.60
  -4  -5 -11   43.60    2.40
  -4  -5 -11   45.90    3.30
  -5  -5 -11   72.09    4.30
  -5  -5 -11   70.59    3.50
  -5  -5 -11   73.69    3.70
  -5  -5 -11   83.19    4.20
   5   5  11   71.69    3.00
  -6  -5 -11   62.19    3.20
  -6  -5 -11   52.39    3.80
  -6  -5 -11   61.89    3.10
  -6  -5 -11   59.99    3.00
   6   5  11   58.69    2.70
  -7  -5 -11   74.09    3.60
  -7  -5 -11   72.89    3.30
   7   5  11   78.59    3.10
   7   5  11   77.69    3.20
  -8  -5 -11    0.20    0.60
  -8  -5 -11    0.10    0.50
   8   5  11   -0.60    0.30
   8   5  11    0.70    0.40
   4  -6 -11    0.70    0.30
   4  -6 -11    0.10    0.30
   4  -6 -11    0.20    0.30
   4  -6 -11    0.00    0.40
   4  -6 -11   -0.60    0.40
   4  -6 -11    0.10    0.30
  -4   6  11    0.70    0.40
   3  -6 -11  186.98    6.40
   3  -6 -11  209.28    7.00
   3  -6 -11  192.48    6.60
   3  -6 -11  187.48    6.50
   3  -6 -11  196.18    7.10
   3  -6 -11  192.78    6.50
   3  -6 -11  196.78    8.30
  -3   6  11  177.08    6.40
   2  -6 -11    0.50    0.40
   2  -6 -11    0.70    0.50
   2  -6 -11    1.50    0.70
   2  -6 -11    0.10    1.00
   2  -6 -11    0.60    0.50
   2  -6 -11    0.00    0.50
   2  -6 -11    1.20    0.80
   1  -6 -11   55.89    2.60
   1  -6 -11   55.99    4.00
   1  -6 -11   55.49    2.50
   1  -6 -11   53.79    3.00
   1  -6 -11   57.09    2.60
   1  -6 -11   55.09    2.70
   1  -6 -11   52.89    3.10
   1  -6 -11   55.79    4.30
   0  -6 -11   52.09    4.20
   0  -6 -11   56.59    3.20
   0  -6 -11   59.49    2.70
   0  -6 -11   60.99    4.20
   0  -6 -11   57.49    2.60
   0  -6 -11   56.29    3.10
   0  -6 -11   55.29    2.60
   0  -6 -11   56.39    2.70
  -1  -6 -11    6.00    1.20
  -1  -6 -11    6.90    0.90
  -1  -6 -11    4.70    1.70
  -1  -6 -11    5.90    0.90
  -1  -6 -11    6.30    1.10
  -1  -6 -11    5.80    1.60
  -1  -6 -11    5.90    1.40
  -1  -6 -11    5.20    0.80
  -2  -6 -11  255.87    9.00
  -2  -6 -11  259.37    9.70
  -2  -6 -11  257.77    8.90
  -2  -6 -11  244.28    8.30
  -2  -6 -11  227.98   10.40
  -2  -6 -11  226.88   11.20
  -2  -6 -11  241.48    8.20
  -2  -6 -11  238.18    8.50
  -3  -6 -11    5.70    1.50
  -3  -6 -11    4.70    0.80
  -3  -6 -11    5.50    1.70
  -3  -6 -11    5.50    1.00
  -3  -6 -11    6.00    1.20
  -3  -6 -11    6.90    1.00
  -3  -6 -11    5.90    2.00
  -4  -6 -11   93.79    4.00
  -4  -6 -11   91.69    3.90
  -4  -6 -11   87.89    4.70
  -4  -6 -11   85.09    5.50
  -4  -6 -11   88.29    4.00
  -5  -6 -11   26.60    1.80
  -5  -6 -11   25.00    1.90
  -5  -6 -11   23.80    2.60
  -5  -6 -11   25.30    2.00
  -5  -6 -11   28.50    1.90
   5   6  11   28.60    1.60
  -6  -6 -11   49.99    2.60
  -6  -6 -11   43.60    3.30
  -6  -6 -11   40.30    2.50
  -6  -6 -11   49.10    2.60
   6   6  11   47.00    2.10
   6   6  11   49.10    2.30
  -7  -6 -11   40.20    2.30
  -7  -6 -11   41.60    2.20
   7   6  11   47.50    2.00
   7   6  11   42.60    2.10
   7   6  11   39.60    1.90
  -8  -6 -11    4.70    0.60
  -8  -6 -11    6.00    0.80
   8   6  11    6.90    0.60
   3  -7 -11   27.40    2.30
   3  -7 -11   23.60    1.20
   3  -7 -11   26.60    1.60
   3  -7 -11   26.80    1.50
  -3   7  11   19.20    1.40
  -3   7  11   26.00    1.40
   2  -7 -11   52.59    2.30
   2  -7 -11   59.29    2.80
   2  -7 -11   48.20    2.30
   2  -7 -11   53.99    2.30
   2  -7 -11   50.39    3.60
   2  -7 -11   51.29    2.60
   1  -7 -11  284.17   10.20
   1  -7 -11  277.67   11.80
   1  -7 -11  294.37   10.00
   1  -7 -11  296.77    9.60
   1  -7 -11  277.67    9.50
   1  -7 -11  298.47   11.40
   1  -7 -11  296.37    9.70
   0  -7 -11   70.79    3.10
   0  -7 -11   71.89    3.60
   0  -7 -11   71.79    3.20
   0  -7 -11   67.69    3.00
   0  -7 -11   77.09    3.60
   0  -7 -11   70.69    4.90
   0  -7 -11   71.89    4.60
   0   7  11   70.69    3.00
  -1  -7 -11   22.50    2.80
  -1  -7 -11   19.10    2.20
  -1  -7 -11   22.10    2.10
  -1  -7 -11   21.20    1.60
  -1  -7 -11   21.10    1.90
  -1  -7 -11   23.10    1.50
  -1  -7 -11   21.50    3.10
  -1  -7 -11   22.70    1.70
  -2  -7 -11   53.79    2.70
  -2  -7 -11   57.89    3.10
  -2  -7 -11   53.79    3.40
  -2  -7 -11   56.29    2.60
  -2  -7 -11   52.29    4.60
  -2  -7 -11   56.59    2.70
  -2  -7 -11   50.39    4.00
  -2  -7 -11   53.29    3.00
  -3  -7 -11   94.59    6.10
  -3  -7 -11   88.89    3.80
  -3  -7 -11   85.29    4.60
  -3  -7 -11   85.69    3.90
  -3  -7 -11   82.69    3.80
  -3  -7 -11   87.39    5.30
  -3  -7 -11   89.39    3.70
   3   7  11   92.09    3.50
  -4  -7 -11   49.80    4.00
  -4  -7 -11   54.29    3.50
  -4  -7 -11   48.90    2.70
  -4  -7 -11   52.79    2.70
  -4  -7 -11   56.49    2.70
  -5  -7 -11    2.60    0.80
  -5  -7 -11    3.80    1.10
  -5  -7 -11    3.70    0.80
   5   7  11    2.60    0.60
  -6  -7 -11   32.40    2.00
  -6  -7 -11   31.00    2.50
  -6  -7 -11   38.60    2.10
   6   7  11   35.50    1.70
   6   7  11   34.40    1.80
  -7  -7 -11   58.19    2.60
  -7  -7 -11   54.89    2.70
   7   7  11   58.99    2.40
   7   7  11   60.59    2.20
   2  -8 -11   21.30    1.20
   2  -8 -11   22.80    2.30
   2  -8 -11   24.10    1.50
  -2   8  11   22.50    1.20
   1  -8 -11   25.00    1.40
   1  -8 -11   23.60    1.70
   1  -8 -11   23.80    1.40
   1  -8 -11   23.30    2.60
   1  -8 -11   23.20    2.20
  -1   8  11   23.70    1.40
   0  -8 -11    0.30    0.70
   0  -8 -11    0.10    0.90
   0  -8 -11   -0.10    0.60
   0  -8 -11    0.70    0.50
   0  -8 -11    0.70    0.50
   0  -8 -11   -0.90    0.70
   0   8  11    0.80    0.50
  -1  -8 -11   12.40    2.00
  -1  -8 -11   11.60    1.20
  -1  -8 -11   13.40    1.50
  -1  -8 -11   13.50    2.40
  -1  -8 -11   12.50    1.20
  -1  -8 -11   13.80    1.20
   1   8  11   14.30    1.20
  -2  -8 -11   60.09    2.70
  -2  -8 -11   57.99    4.10
  -2  -8 -11   51.89    4.40
  -2  -8 -11   56.99    2.70
  -2  -8 -11   57.79    3.40
   2   8  11   58.19    2.60
  -3  -8 -11   49.00    2.50
  -3  -8 -11   58.79    4.50
  -3  -8 -11   51.79    2.50
  -3  -8 -11   50.99    3.80
  -3  -8 -11   47.20    3.10
   3   8  11   51.49    2.30
  -4  -8 -11    1.60    1.20
  -4  -8 -11    1.90    0.70
  -4  -8 -11    1.90    1.00
  -4  -8 -11    1.90    0.60
   4   8  11    2.30    0.60
   4   8  11    1.60    0.60
  -5  -8 -11    8.80    1.50
  -5  -8 -11    7.70    1.00
   5   8  11    8.70    0.90
   5   8  11    8.30    0.90
  -6  -8 -11   16.60    1.40
  -6  -8 -11   15.40    1.70
   6   8  11   15.80    1.00
   6   8  11   13.60    1.00
  -7  -8 -11   66.29    2.70
   7   8  11   63.19    2.50
   7   8  11   68.49    2.40
   1  -9 -11    4.30    1.10
   1  -9 -11    1.50    0.50
   1  -9 -11    2.50    1.10
  -1   9  11    1.70    0.40
  -1   9  11    1.80    0.40
   0  -9 -11   84.59    4.70
   0  -9 -11   78.59    4.10
   0  -9 -11   77.49    3.90
   0  -9 -11   76.79    2.90
   0   9  11   75.79    2.90
   0   9  11   76.89    3.00
  -1  -9 -11   41.60    3.50
  -1  -9 -11   40.80    1.90
  -1  -9 -11   38.30    2.90
   1   9  11   36.90    1.80
   1   9  11   39.70    1.90
  -2  -9 -11    3.20    1.20
  -2  -9 -11    2.90    1.40
  -2  -9 -11    3.60    0.70
  -2  -9 -11    3.60    0.90
   2   9  11    3.10    0.60
  -3  -9 -11    1.30    1.00
  -3  -9 -11    1.80    0.80
   3   9  11    1.40    0.50
   3   9  11    1.20    0.50
  -4  -9 -11   18.60    1.30
  -4  -9 -11   21.00    1.90
  -4  -9 -11   20.80    2.50
   4   9  11   20.30    1.20
   4   9  11   20.90    1.20
  -5  -9 -11    7.30    1.20
  -5  -9 -11    7.00    0.80
   5   9  11    7.30    0.70
   5   9  11    8.00    0.70
   5   9  11    8.90    0.80
  -6  -9 -11   19.80    1.20
  -6  -9 -11   22.90    1.70
   6   9  11   23.10    1.10
   6   9  11   18.80    1.10
  -1 -10 -11    0.40    0.70
  -1 -10 -11    0.60    0.90
   1  10  11    0.50    0.40
   1  10  11   -0.40    0.20
  -2 -10 -11   30.50    2.30
  -2 -10 -11   29.30    1.80
   2  10  11   26.70    1.30
   2  10  11   29.20    1.40
  -3 -10 -11    4.50    0.90
  -3 -10 -11    4.90    1.20
   3  10  11    5.60    0.60
   3  10  11    6.00    0.60
  -4 -10 -11   10.50    1.20
  -4 -10 -11   10.10    1.50
   4  10  11    9.50    0.70
   4  10  11    9.80    0.70
  -5 -10 -11    1.40    0.60
   5  10  11    1.30    0.30
   2   8 -12   56.29    2.00
   2   8 -12   53.69    2.40
   2   8 -12   54.09    2.10
   2   8 -12   52.89    2.10
   2   8 -12   54.69    2.20
   2   8 -12   50.59    2.20
   1   8 -12   41.60    2.00
   1   8 -12   38.00    1.70
   1   8 -12   41.40    1.80
   1   8 -12   38.70    1.60
   1   8 -12   42.50    1.90
   1   8 -12   40.80    1.70
  -1  -8  12   40.60    2.00
   0   8 -12   -0.40    0.30
   0   8 -12    0.20    0.30
   0   8 -12    0.20    0.40
   0   8 -12    0.30    0.40
   0   8 -12    0.30    0.40
   0  -8  12    0.20    0.40
   4   7 -12  125.59    4.10
   4   7 -12  115.59    3.90
   4   7 -12  115.19    4.10
   4   7 -12  118.29    4.30
   4   7 -12  113.59    3.90
   4   7 -12  120.19    4.20
   3   7 -12   21.80    1.20
   3   7 -12   19.20    1.20
   3   7 -12   20.20    1.40
   3   7 -12   21.10    1.30
   3   7 -12   19.70    1.20
   3   7 -12   20.40    1.10
   2   7 -12   23.90    1.50
   2   7 -12   28.60    1.90
   2   7 -12   28.20    1.40
   2   7 -12   25.80    1.60
   2   7 -12   26.80    1.50
   2   7 -12   26.70    1.50
   1   7 -12    4.70    1.00
   1   7 -12    4.30    0.60
   1   7 -12    5.10    0.80
   1   7 -12    4.60    0.80
   1   7 -12    5.20    0.80
   1   7 -12    4.90    0.90
   1   7 -12    5.10    0.70
   0   7 -12   47.10    2.40
   0   7 -12   46.10    2.10
   0   7 -12   45.60    2.70
   0   7 -12   48.90    2.30
   0   7 -12   47.80    2.30
   0   7 -12   50.29    2.20
  -1   7 -12  239.28    8.20
  -1   7 -12  246.88    8.10
  -1   7 -12  237.58    7.90
  -1   7 -12  246.08    8.80
  -1   7 -12  245.88    8.30
  -1   7 -12  257.57    8.20
   1  -7  12  244.78    8.80
  -2   7 -12    0.30    0.50
  -2   7 -12    0.50    0.40
  -2   7 -12    0.40    0.40
  -2   7 -12    0.70    0.50
  -2   7 -12    0.00    0.40
   2  -7  12    0.40    0.50
   5   6 -12   20.10    1.00
   5   6 -12   20.90    1.00
   5   6 -12   18.60    1.10
   5   6 -12   18.40    1.00
   5   6 -12   18.90    1.10
   4   6 -12    0.60    0.40
   4   6 -12    0.80    0.40
   4   6 -12    1.10    0.40
   4   6 -12    0.80    0.40
   4   6 -12   -0.20    0.40
   4   6 -12   -0.10    0.40
   3   6 -12    5.90    0.80
   3   6 -12    5.40    0.80
   3   6 -12    5.00    0.70
   3   6 -12    5.10    0.90
   3   6 -12    4.30    0.80
   3   6 -12    4.70    0.70
   3   6 -12    5.30    0.80
   2   6 -12  160.68    5.70
   2   6 -12  162.78    5.70
   2   6 -12  154.58    5.80
   2   6 -12  159.08    5.50
   2   6 -12  159.38    5.90
   2   6 -12  154.58    6.10
   1   6 -12   84.09    3.10
   1   6 -12   78.89    3.50
   1   6 -12   78.59    3.70
   1   6 -12   75.09    3.20
   1   6 -12   69.99    3.80
   1   6 -12   73.99    3.40
   1   6 -12   77.39    3.20
   0   6 -12   67.09    3.10
   0   6 -12   65.29    3.60
   0   6 -12   65.49    3.10
   0   6 -12   65.39    2.90
   0   6 -12   59.39    3.80
   0   6 -12   64.89    3.30
   0   6 -12   68.29    2.80
  -1   6 -12    1.00    0.60
  -1   6 -12    1.40    0.70
  -1   6 -12    0.70    0.60
  -1   6 -12    1.40    1.00
  -1   6 -12    1.70    0.70
  -1   6 -12    1.70    0.60
  -2   6 -12    3.90    0.70
  -2   6 -12    3.30    0.70
  -2   6 -12    3.50    1.20
  -2   6 -12    3.90    0.80
  -2   6 -12    4.60    0.90
  -2   6 -12    4.70    0.80
  -2   6 -12    5.10    1.20
  -3   6 -12  132.09    4.70
  -3   6 -12  144.79    5.00
  -3   6 -12  152.38    5.60
  -3   6 -12  138.19    5.00
   3  -6  12  139.79    5.60
   5   5 -12    8.50    0.80
   5   5 -12    8.90    0.80
   5   5 -12    7.20    0.80
   5   5 -12    8.70    0.80
   5   5 -12    8.00    0.70
   5   5 -12    8.30    0.90
   4   5 -12    5.00    0.70
   4   5 -12    6.20    0.80
   4   5 -12    3.80    0.80
   4   5 -12    4.90    0.70
   4   5 -12    4.90    0.80
   4   5 -12    5.10    0.70
   3   5 -12  172.68    6.00
   3   5 -12  168.68    5.80
   3   5 -12  163.48    6.40
   3   5 -12  169.98    5.90
   3   5 -12  169.38    5.90
   3   5 -12  169.18    6.20
   2   5 -12  204.48    7.10
   2   5 -12  195.48    6.70
   2   5 -12  193.68    7.40
   2   5 -12  189.38    6.90
   2   5 -12  198.58    7.20
   2   5 -12  196.48    6.90
   1   5 -12   27.00    1.80
   1   5 -12   25.60    1.60
   1   5 -12   21.80    1.70
   1   5 -12   23.60    1.90
   1   5 -12   22.20    2.00
   1   5 -12   22.50    1.60
   1   5 -12   25.10    1.50
   0   5 -12   11.70    1.10
   0   5 -12   11.80    1.50
   0   5 -12    9.20    1.90
   0   5 -12   10.40    1.20
   0   5 -12   11.60    1.40
   0   5 -12   11.90    1.60
   0   5 -12   10.40    1.70
  -1   5 -12   54.39    4.30
  -1   5 -12   68.49    3.30
  -1   5 -12   75.19    3.20
  -1   5 -12   64.49    4.00
  -1   5 -12   74.59    3.00
  -1   5 -12   71.99    3.60
  -1   5 -12   71.59    3.40
  -2   5 -12  277.57   10.30
  -2   5 -12  261.17    9.10
  -2   5 -12  265.07    8.90
  -2   5 -12  263.17    9.60
  -2   5 -12  273.87    9.50
  -2   5 -12  276.37    9.40
  -3   5 -12   99.69    4.20
  -3   5 -12   99.29    4.20
  -3   5 -12   98.49    3.70
  -3   5 -12   97.79    4.00
  -3   5 -12  108.99    5.40
  -3   5 -12   97.09    4.00
  -3   5 -12   99.59    4.60
   3  -5  12   99.69    4.90
  -4   5 -12    0.50    0.60
  -4   5 -12    1.20    1.00
  -4   5 -12    0.70    0.70
  -4   5 -12    1.00    0.50
   4  -5  12    0.70    0.80
   6   4 -12    1.90    0.40
   6   4 -12    0.80    0.30
   6   4 -12    0.70    0.30
   6   4 -12    0.40    0.30
   6   4 -12    1.20    0.30
   5   4 -12   93.99    3.70
   5   4 -12   94.69    3.40
   5   4 -12  100.09    3.60
   5   4 -12   97.49    3.50
   5   4 -12   97.49    3.70
   5   4 -12   96.09    3.60
   4   4 -12  133.79    4.50
   4   4 -12  122.59    4.50
   4   4 -12  120.39    4.60
   4   4 -12  123.99    4.80
   4   4 -12  130.39    4.70
   4   4 -12  132.79    4.60
   3   4 -12  128.49    4.80
   3   4 -12  131.89    5.00
   3   4 -12  116.89    5.00
   3   4 -12  122.49    4.70
   3   4 -12  132.99    4.70
   3   4 -12  130.99    4.60
   2   4 -12   28.50    1.80
   2   4 -12   23.40    1.60
   2   4 -12   22.20    1.80
   2   4 -12   21.10    1.40
   2   4 -12   23.60    1.70
   2   4 -12   21.40    1.50
   1   4 -12   16.30    1.50
   1   4 -12   16.60    1.80
   1   4 -12   14.40    1.90
   1   4 -12   15.90    1.60
   1   4 -12   16.80    1.40
   1   4 -12   17.00    1.30
   0   4 -12    7.60    1.50
   0   4 -12    6.10    1.10
   0   4 -12    8.30    1.80
   0   4 -12    7.70    0.90
   0   4 -12    8.50    1.30
   0   4 -12    7.60    1.30
   0   4 -12    6.50    1.00
  -1   4 -12  156.48    5.70
  -1   4 -12  159.38    6.50
  -1   4 -12  154.08    7.30
  -1   4 -12  172.28    6.00
  -1   4 -12  165.68    6.40
  -1   4 -12  165.48    6.20
  -1   4 -12  156.28    6.80
  -2   4 -12  225.48    8.10
  -2   4 -12  223.08    8.30
  -2   4 -12  237.38    9.20
  -2   4 -12  239.28    8.50
  -2   4 -12  238.88   10.30
  -2   4 -12  227.58    9.80
  -2   4 -12  226.38    8.60
  -2   4 -12  234.58    7.80
  -3   4 -12    3.90    0.90
  -3   4 -12    4.50    0.90
  -3   4 -12    3.60    1.60
  -3   4 -12    4.00    1.10
  -3   4 -12    4.50    1.80
  -3   4 -12    3.50    1.00
  -3   4 -12    4.80    1.30
  -4   4 -12    0.90    0.70
  -4   4 -12    0.40    1.00
  -4   4 -12    1.00    0.70
  -4   4 -12    0.70    0.50
  -4   4 -12    0.70    0.90
  -4   4 -12    1.10    0.70
  -5   4 -12   10.10    1.00
  -5   4 -12   11.30    1.70
  -5   4 -12   12.00    1.20
   5  -4  12   12.40    1.60
   5  -4  12   12.20    1.60
   6   3 -12   28.40    1.30
   6   3 -12   26.80    1.20
   6   3 -12   30.50    1.30
   6   3 -12   30.40    1.40
   6   3 -12   30.10    1.30
   6   3 -12   29.10    1.40
   5   3 -12  184.88    6.30
   5   3 -12  183.38    6.20
   5   3 -12  186.78    6.20
   5   3 -12  185.18    6.30
   5   3 -12  180.98    6.10
   4   3 -12   31.10    1.80
   4   3 -12   31.00    1.70
   4   3 -12   30.20    1.70
   4   3 -12   27.60    1.60
   4   3 -12   29.10    1.70
   4   3 -12   31.00    1.60
   3   3 -12   10.00    1.00
   3   3 -12    8.00    1.10
   3   3 -12    9.70    1.10
   3   3 -12   13.20    1.20
   3   3 -12   10.10    1.00
   2   3 -12   85.49    3.70
   2   3 -12   86.99    3.30
   2   3 -12   81.59    3.50
   2   3 -12   90.29    3.50
   2   3 -12   86.69    3.90
   1   3 -12  144.59    5.50
   1   3 -12  154.58    5.70
   1   3 -12  144.29    5.10
   1   3 -12  140.39    5.80
   1   3 -12  141.89    5.20
   0   3 -12  378.56   12.80
   0   3 -12  395.36   12.40
   0   3 -12  374.16   12.50
   0   3 -12  357.96   11.90
   0   3 -12  356.46   13.20
   0   3 -12  372.66   13.00
   0   3 -12  368.46   12.10
  -1   3 -12    8.60    1.60
  -1   3 -12   10.70    1.20
  -1   3 -12    9.20    1.20
  -1   3 -12   10.00    1.50
  -1   3 -12    9.90    1.30
  -1   3 -12    8.70    1.40
  -2   3 -12  226.08    9.30
  -2   3 -12  219.38    8.30
  -2   3 -12  233.18    8.10
  -2   3 -12  221.68   10.00
  -2   3 -12  221.58    8.70
  -2   3 -12  231.28    7.90
  -2   3 -12  227.68    8.60
  -3   3 -12   69.39    5.50
  -3   3 -12   66.49    4.50
  -3   3 -12   69.89    3.20
  -3   3 -12   65.69    3.80
  -3   3 -12   72.59    3.30
  -3   3 -12   71.99    3.60
  -3   3 -12   69.29    3.70
  -4   3 -12  118.99    5.30
  -4   3 -12  126.69    4.90
  -4   3 -12  125.09    7.00
  -4   3 -12  129.09    5.60
  -4   3 -12  127.59    6.50
  -4   3 -12  127.09    5.30
  -4   3 -12  126.49    4.90
   4  -3  12  128.29    5.00
  -5   3 -12   83.09    5.30
  -5   3 -12   80.69    3.40
  -5   3 -12   87.99    4.70
  -5   3 -12   80.49    3.70
  -5   3 -12   86.99    3.80
   5  -3  12   82.69    3.50
  -6   3 -12   10.20    1.00
  -6   3 -12   10.40    0.90
   6  -3  12   10.70    1.00
   6  -3  12    9.70    1.30
   6   2 -12   51.99    2.00
   6   2 -12   53.09    2.20
   6   2 -12   54.09    2.10
   6   2 -12   49.99    2.00
   6   2 -12   51.69    2.00
   6   2 -12   53.89    2.10
   5   2 -12   23.10    1.30
   5   2 -12   23.40    1.50
   5   2 -12   23.80    1.30
   5   2 -12   24.00    1.40
   5   2 -12   23.00    1.30
   5   2 -12   24.10    1.40
   4   2 -12   44.40    2.10
   4   2 -12   47.10    2.20
   4   2 -12   45.10    2.10
   4   2 -12   45.70    2.20
   4   2 -12   45.70    2.30
   4   2 -12   49.20    2.10
   3   2 -12  325.97   10.70
   3   2 -12  327.87   10.70
   3   2 -12  344.07   10.70
   3   2 -12  332.97   10.90
   3   2 -12  324.07   10.60
   2   2 -12   56.29    2.50
   2   2 -12   48.40    3.10
   2   2 -12   58.39    2.40
   2   2 -12   58.59    2.50
   1   2 -12   37.70    1.90
   1   2 -12   34.60    2.00
   1   2 -12   32.80    2.20
   0   2 -12  150.28    5.60
   0   2 -12  155.18    6.00
   0   2 -12  147.49    5.70
   0   2 -12  150.48    5.80
   0   2 -12  140.19    6.00
   0  -2  12  166.18   10.90
  -1   2 -12   13.20    1.50
  -1   2 -12   12.20    1.60
  -1   2 -12   13.60    1.60
  -1   2 -12   15.50    1.50
  -1   2 -12   14.70    1.30
  -1   2 -12   12.20    1.80
  -1   2 -12   12.10    1.90
  -2   2 -12   33.20    3.00
  -2   2 -12   38.70    2.70
  -2   2 -12   33.20    2.30
  -2   2 -12   33.70    2.70
  -2   2 -12   33.50    2.40
  -2   2 -12   31.30    2.10
  -2   2 -12   32.20    2.00
  -3   2 -12   33.30    2.80
  -3   2 -12   30.50    2.10
  -3   2 -12   29.80    2.40
  -3   2 -12   32.80    2.00
  -3   2 -12   26.20    2.10
  -3   2 -12   28.40    2.30
  -3   2 -12   34.30    3.30
  -3   2 -12   28.80    2.30
  -4   2 -12   28.60    2.30
  -4   2 -12   32.10    2.00
  -4   2 -12   29.30    2.80
  -4   2 -12   30.00    2.20
  -4   2 -12   28.00    1.90
  -4   2 -12   30.60    2.40
  -4   2 -12   27.60    2.50
  -4   2 -12   27.60    3.90
  -5   2 -12    0.40    0.60
  -5   2 -12    0.10    0.80
  -5   2 -12    0.10    0.70
  -5   2 -12   -0.90    1.10
  -5   2 -12    0.30    0.60
  -5   2 -12    0.30    1.00
   5  -2  12    0.20    0.60
  -6   2 -12   21.20    1.60
  -6   2 -12   15.90    1.20
  -6   2 -12   14.00    1.40
   6  -2  12   17.40    1.40
   6   1 -12   33.30    1.50
   6   1 -12   33.80    1.60
   6   1 -12   32.00    1.50
   6   1 -12   33.10    1.50
   6   1 -12   34.30    1.40
   5   1 -12  145.89    5.10
   5   1 -12  150.98    5.40
   5   1 -12  157.48    6.30
   5   1 -12  152.48    5.30
   5   1 -12  149.49    5.20
   5   1 -12  146.79    5.20
   4   1 -12  270.27    9.00
   4   1 -12  272.67    9.00
   4   1 -12  268.27    8.90
   4   1 -12  269.37    8.90
   4   1 -12  273.57    8.80
   3   1 -12    3.40    0.60
   3   1 -12    3.70    0.70
   3   1 -12    2.30    0.60
   3   1 -12    3.70    0.60
   3   1 -12    4.10    0.70
   0   1 -12  393.46   16.80
   0  -1  12  377.46   16.00
  -1   1 -12  213.58   11.80
  -1   1 -12  213.98   12.20
   1  -1  12  232.58   10.00
   1  -1  12  223.98   11.30
   1  -1  12  211.28   11.10
   1  -1  12  222.68   10.30
  -2   1 -12   65.89    3.80
  -2   1 -12   61.69    3.10
  -2   1 -12   60.19    3.30
  -2   1 -12   68.19    4.20
  -2   1 -12   70.09    4.20
  -2   1 -12   64.29    3.20
  -3   1 -12  426.46   15.80
  -3   1 -12  426.76   14.80
  -3   1 -12  447.06   14.40
  -3   1 -12  438.56   15.60
  -3   1 -12  429.06   14.40
  -3   1 -12  426.16   15.20
  -4   1 -12    2.60    0.90
  -4   1 -12    1.70    0.90
  -4   1 -12   -1.20    0.70
  -4   1 -12    0.90    0.90
  -4   1 -12    1.20    0.90
  -4   1 -12    1.90    0.80
  -4   1 -12    3.10    1.10
  -4   1 -12    2.10    1.30
  -5   1 -12  358.26   15.20
  -5   1 -12  382.66   12.50
  -5   1 -12  397.96   12.80
  -5   1 -12  389.26   13.40
  -5   1 -12  382.26   13.10
  -5   1 -12  392.06   13.40
  -6   1 -12  126.99    5.10
  -6   1 -12  122.49    5.10
  -6   1 -12  117.09    4.50
  -6   1 -12  123.09    6.40
   6  -1  12  136.99    5.00
  -7   1 -12    7.50    0.90
  -7   1 -12    6.50    0.80
   7  -1  12    5.80    1.00
   7  -1  12    7.90    0.90
   6   0 -12   29.70    1.50
   6   0 -12   32.70    1.40
   6   0 -12   32.80    1.50
   6   0 -12   32.20    1.40
   6   0 -12   31.60    1.50
   6   0 -12   30.50    1.30
   5   0 -12   17.50    1.10
   5   0 -12   22.10    1.30
   5   0 -12   17.80    1.20
   5   0 -12   18.50    1.20
   5   0 -12   18.10    1.40
   5   0 -12   19.50    1.20
   4   0 -12    0.40    0.40
   4   0 -12    0.20    0.40
   4   0 -12   -0.20    0.40
   4   0 -12    0.40    0.50
   4   0 -12    0.20    0.40
   4   0 -12   -0.30    0.40
   3   0 -12  473.55   14.90
   3   0 -12  475.15   15.10
   3   0 -12  479.55   14.90
   3   0 -12  474.35   15.00
   3   0 -12  466.85   15.20
   2   0 -12  178.38    6.10
   2   0 -12  176.48    6.10
   2   0 -12  176.38    6.00
   0   0 -12    4.40    1.30
   0   0  12    7.50    2.20
   0   0  12    6.50    1.80
   0   0  12    4.00    2.30
  -1   0 -12   46.50    5.00
  -1   0 -12   37.70    5.30
   1   0  12   45.60    4.50
   1   0  12   46.80    5.50
   1   0  12   46.00    5.40
   1   0  12   42.60    4.60
  -2   0 -12  349.07   16.10
  -2   0 -12  325.97   16.10
  -2   0 -12  335.67   15.90
   2   0  12  366.56   14.70
   2   0  12  355.96   14.20
   2   0  12  365.26   15.90
   2   0  12  350.76   15.60
  -3   0 -12   17.70    2.50
  -3   0 -12    8.40    2.00
  -3   0 -12   13.40    1.60
  -3   0 -12   14.80    2.30
  -3   0 -12   13.30    2.10
  -3   0 -12   17.20    1.80
  -3   0 -12   18.30    1.70
  -3   0 -12   19.50    1.70
  -4   0 -12  234.68    9.70
  -4   0 -12  209.78    8.50
  -4   0 -12  222.78    9.10
  -4   0 -12  227.48    8.30
  -4   0 -12  224.68    8.20
  -4   0 -12  233.68    8.30
  -4   0 -12  239.48    9.50
  -4   0 -12  225.08    8.40
  -5   0 -12    6.40    1.40
  -5   0 -12    9.90    1.30
  -5   0 -12    5.10    1.20
  -5   0 -12    3.20    1.60
  -5   0 -12    5.10    1.30
  -5   0 -12    5.20    1.10
  -5   0 -12    5.70    1.30
   5   0  12    7.00    1.10
  -6   0 -12   22.00    2.70
  -6   0 -12   20.40    1.70
  -6   0 -12   27.90    2.00
  -6   0 -12   21.50    2.10
   6   0  12   24.00    1.60
  -7   0 -12    8.50    1.10
  -7   0 -12    7.00    1.00
   7   0  12    7.20    0.90
   7   0  12    6.70    0.80
   6  -1 -12   30.80    1.50
   6  -1 -12   32.20    1.40
   6  -1 -12   32.50    1.40
   6  -1 -12   30.50    1.40
   6  -1 -12   32.70    1.40
   5  -1 -12    3.40    0.60
   5  -1 -12    3.80    0.70
   5  -1 -12    3.00    0.60
   5  -1 -12    4.00    0.60
   5  -1 -12    3.30    0.70
   5  -1 -12    4.70    0.60
   5  -1 -12    3.20    0.80
   4  -1 -12  300.37    9.90
   4  -1 -12  299.67   10.10
   4  -1 -12  313.27    9.80
   4  -1 -12  303.97    9.70
   4  -1 -12  302.17    9.80
   4  -1 -12  275.07   10.30
   4  -1 -12  298.07    9.70
   3  -1 -12   85.69    3.50
   3  -1 -12   84.29    3.30
   3  -1 -12   87.19    3.40
   3  -1 -12   79.79    3.90
   3  -1 -12   85.99    3.60
   3  -1 -12   80.29    3.30
   2  -1 -12   17.70    1.50
   2  -1 -12   19.30    1.30
   2  -1 -12   18.10    1.80
   2  -1 -12   16.60    1.30
   2  -1 -12   17.40    1.20
   1  -1 -12  492.85   21.90
  -1   1  12  609.34   22.00
   0  -1 -12    7.40    3.40
   0  -1 -12    7.80    1.70
   0   1  12   13.60    3.40
   0   1  12   12.60    3.00
  -1  -1 -12  362.46   14.40
  -1  -1 -12  294.47   14.50
   1   1  12  351.76   15.20
   1   1  12  340.27   13.60
   1   1  12  345.87   15.60
   1   1  12  346.07   14.20
  -2  -1 -12   16.30    2.90
  -2  -1 -12   12.20    3.30
   2   1  12   12.50    3.30
   2   1  12   14.40    2.70
   2   1  12   21.00    3.80
   2   1  12   12.70    2.90
  -3  -1 -12  944.51   33.70
  -3  -1 -12  991.90   32.80
  -3  -1 -12 1007.90   33.40
  -3  -1 -12 1024.30   31.50
  -3  -1 -12 1019.10   31.60
  -3  -1 -12 1024.90   31.80
   3   1  12 1105.09   43.60
  -4  -1 -12    3.20    1.40
  -4  -1 -12    3.60    1.00
  -4  -1 -12    7.10    1.30
  -4  -1 -12    3.60    1.00
  -4  -1 -12    4.50    1.00
  -4  -1 -12    4.50    1.40
  -4  -1 -12    3.30    1.00
  -4  -1 -12    4.10    1.50
  -5  -1 -12   96.39    5.00
  -5  -1 -12   98.09    5.00
  -5  -1 -12   91.19    4.40
  -5  -1 -12   99.29    4.30
  -5  -1 -12   96.59    4.70
  -5  -1 -12   92.39    4.30
  -5  -1 -12   98.19    5.40
  -5  -1 -12   89.69    4.30
  -6  -1 -12  178.88    6.80
  -6  -1 -12  184.88    6.70
  -6  -1 -12  186.88    7.20
  -6  -1 -12  177.48    7.10
   6   1  12  178.28    6.60
  -7  -1 -12   22.30    1.70
  -7  -1 -12   23.20    1.80
   7   1  12   20.70    1.50
   7   1  12   23.50    1.50
   6  -2 -12    0.10    0.30
   6  -2 -12    0.00    0.30
   6  -2 -12    0.20    0.30
   6  -2 -12    0.40    0.30
   6  -2 -12    0.00    0.20
   5  -2 -12    4.10    0.80
   5  -2 -12    4.30    0.70
   5  -2 -12    3.80    0.60
   5  -2 -12    3.60    0.60
   5  -2 -12    3.90    0.60
   5  -2 -12    3.10    0.60
   4  -2 -12    0.90    0.50
   4  -2 -12    0.30    0.60
   4  -2 -12    0.00    0.40
   4  -2 -12    0.90    0.50
   4  -2 -12    0.10    0.50
   4  -2 -12    0.80    0.50
   3  -2 -12   37.80    1.90
   3  -2 -12   42.20    2.50
   3  -2 -12   36.90    2.10
   3  -2 -12   38.30    2.00
   3  -2 -12   37.40    2.00
   3  -2 -12   38.30    1.90
   2  -2 -12 1236.08   41.60
   2  -2 -12 1343.37   40.80
   2  -2 -12 1394.26   41.60
   2  -2 -12 1332.37   40.80
   2  -2 -12 1386.46   41.10
   2  -2 -12 1359.96   40.80
   1  -2 -12   30.20    3.00
   1  -2 -12   24.70    2.00
   1  -2 -12   24.10    1.60
   1  -2 -12   27.40    1.50
   1  -2 -12   29.10    2.30
  -1   2  12   29.60    5.50
   0  -2 -12   36.80    3.80
   0  -2 -12   25.30    3.90
   0   2  12   35.30    4.80
  -1  -2 -12   59.79    6.60
  -1  -2 -12   48.90    5.70
   1   2  12   69.29    7.00
   1   2  12   64.09    6.30
  -2  -2 -12   18.00    4.60
  -2  -2 -12   18.60    4.70
   2   2  12   18.00    3.70
   2   2  12   18.30    3.40
   2   2  12   21.60    3.20
   2   2  12   18.20    3.60
   2   2  12   21.40    4.00
  -3  -2 -12  573.94   18.40
  -3  -2 -12  565.44   25.00
  -3  -2 -12  565.04   19.80
  -3  -2 -12  565.64   20.70
  -3  -2 -12  590.64   18.20
  -3  -2 -12  594.14   18.30
  -3  -2 -12  473.05   20.60
  -4  -2 -12   14.70    1.50
  -4  -2 -12   16.70    2.70
  -4  -2 -12   18.00    1.90
  -4  -2 -12   14.30    1.50
  -4  -2 -12   15.90    2.40
  -4  -2 -12   16.00    2.30
  -4  -2 -12   14.50    1.50
  -4  -2 -12   17.40    1.70
  -5  -2 -12   50.79    2.80
  -5  -2 -12   53.29    3.20
  -5  -2 -12   51.29    3.60
  -5  -2 -12   49.20    2.80
  -5  -2 -12   51.59    2.80
  -5  -2 -12   42.70    3.60
  -5  -2 -12   53.29    3.80
  -5  -2 -12   48.40    2.80
  -6  -2 -12   11.70    1.50
  -6  -2 -12    6.80    1.70
  -6  -2 -12   12.10    1.50
  -6  -2 -12    8.30    1.20
  -6  -2 -12   10.00    1.50
   6   2  12   10.60    1.20
  -7  -2 -12   62.79    2.90
  -7  -2 -12   65.79    3.30
  -7  -2 -12   57.49    2.70
   7   2  12   66.89    2.90
  -8  -2 -12   44.10    2.00
  -8  -2 -12   46.20    2.20
   8   2  12   47.10    1.90
   8   2  12   42.00    1.90
   5  -3 -12   70.19    2.60
   5  -3 -12   73.49    2.60
   5  -3 -12   69.59    2.80
   5  -3 -12   69.29    2.70
   5  -3 -12   65.19    2.70
   5  -3 -12   64.59    2.90
   4  -3 -12  142.49    5.00
   4  -3 -12  137.59    5.50
   4  -3 -12  143.09    4.90
   4  -3 -12  147.49    5.00
   4  -3 -12  129.99    5.40
   4  -3 -12  136.09    5.00
   4  -3 -12  139.59    5.20
   3  -3 -12   20.80    1.40
   3  -3 -12   18.70    1.90
   3  -3 -12   17.00    1.30
   3  -3 -12   19.90    2.00
   3  -3 -12   17.60    1.30
   3  -3 -12   18.90    1.40
   3  -3 -12   17.50    1.40
   2  -3 -12    0.40    0.60
   2  -3 -12    1.40    0.50
   2  -3 -12    0.80    0.70
   2  -3 -12    0.70    0.50
   2  -3 -12    0.80    0.50
   2  -3 -12    0.50    0.50
   1  -3 -12  125.69    4.50
   1  -3 -12  108.29    6.90
   1  -3 -12  120.09    4.70
   1  -3 -12  133.49    5.40
   1  -3 -12  123.09    5.20
   1  -3 -12  129.79    4.60
   0  -3 -12  192.58   12.00
   0  -3 -12  225.98    8.50
   0  -3 -12  232.38    8.30
   0  -3 -12  231.28    7.90
   0  -3 -12  197.18   13.90
   0  -3 -12  240.98   14.40
   0   3  12  264.87   14.10
   0   3  12  231.38   12.20
  -1  -3 -12   35.20    4.70
  -1  -3 -12   43.00    5.90
   1   3  12   51.79    5.90
   1   3  12   53.99    6.40
  -2  -3 -12  117.59    9.90
  -2  -3 -12  153.88    7.80
  -2  -3 -12  136.39    8.90
   2   3  12  149.79    9.60
   2   3  12  150.48    9.10
  -3  -3 -12   21.00    1.80
  -3  -3 -12   16.30    2.90
  -3  -3 -12   14.80    2.20
  -3  -3 -12   17.50    1.50
  -3  -3 -12   15.00    1.60
  -3  -3 -12   18.60    3.00
  -3  -3 -12   15.20    1.60
   3   3  12   17.60    4.30
  -4  -3 -12   41.30    2.30
  -4  -3 -12   38.80    2.40
  -4  -3 -12   36.20    4.40
  -4  -3 -12   40.70    2.50
  -4  -3 -12   41.70    2.70
  -4  -3 -12   40.20    2.40
  -4  -3 -12   46.10    3.70
  -4  -3 -12   40.10    3.40
  -5  -3 -12  162.28    6.20
  -5  -3 -12  154.28    7.20
  -5  -3 -12  152.68    7.80
  -5  -3 -12  160.68    6.30
  -5  -3 -12  143.29    7.20
  -5  -3 -12  172.78    6.70
  -5  -3 -12  164.98    6.20
  -6  -3 -12    8.20    1.80
  -6  -3 -12   12.10    1.40
  -6  -3 -12    8.70    1.30
  -6  -3 -12   11.90    1.30
  -6  -3 -12    9.50    1.40
  -6  -3 -12   12.00    1.60
   6   3  12   10.80    1.10
  -7  -3 -12   38.90    2.20
  -7  -3 -12   47.50    2.70
  -7  -3 -12   41.50    2.30
   7   3  12   43.80    2.00
   7   3  12   49.99    2.30
  -8  -3 -12   32.30    1.70
  -8  -3 -12   27.50    1.50
   8   3  12   29.30    1.50
   5  -4 -12   65.89    2.40
   5  -4 -12   60.49    2.40
   5  -4 -12   64.79    2.30
   5  -4 -12   58.69    2.60
   5  -4 -12   65.19    2.30
  -5   4  12   60.69    2.30
   4  -4 -12   15.50    1.30
   4  -4 -12   15.50    1.20
   4  -4 -12   16.50    1.10
   4  -4 -12   16.10    1.10
   4  -4 -12   15.00    1.20
   4  -4 -12   16.40    1.60
   4  -4 -12   15.80    1.50
   3  -4 -12    1.50    0.50
   3  -4 -12    1.60    0.60
   3  -4 -12    1.10    0.70
   3  -4 -12    2.20    0.60
   3  -4 -12    2.20    0.70
   3  -4 -12    1.50    0.80
   3  -4 -12    1.00    0.50
   2  -4 -12   82.39    4.10
   2  -4 -12   86.69    5.80
   2  -4 -12   90.29    3.50
   2  -4 -12   96.29    3.60
   2  -4 -12   92.59    3.60
   2  -4 -12   90.69    3.80
   2  -4 -12   86.69    4.30
   1  -4 -12   -0.10    0.50
   1  -4 -12    0.20    0.40
   1  -4 -12    0.00    1.20
   1  -4 -12    1.20    0.60
   1  -4 -12    0.60    0.70
   1  -4 -12    0.70    0.60
   1  -4 -12    0.10    0.60
   0  -4 -12  405.36   13.30
   0  -4 -12  412.46   13.40
   0  -4 -12  405.46   16.70
   0  -4 -12  409.96   14.00
   0  -4 -12  418.16   14.20
   0  -4 -12  445.56   15.90
   0  -4 -12  432.96   13.70
  -1  -4 -12   61.99    3.80
  -1  -4 -12   56.39    2.80
  -1  -4 -12   54.89    3.10
  -1  -4 -12   54.89    2.50
  -1  -4 -12   62.49    4.90
  -1  -4 -12   56.79    4.20
  -1  -4 -12   58.59    3.10
  -2  -4 -12   60.99    3.30
  -2  -4 -12   65.49    3.00
  -2  -4 -12   64.09    3.20
  -2  -4 -12   61.99    2.70
  -2  -4 -12   56.99    4.80
  -2  -4 -12   58.99    4.50
  -2  -4 -12   66.49    3.90
  -3  -4 -12    8.60    1.20
  -3  -4 -12   10.60    2.30
  -3  -4 -12    8.30    2.10
  -3  -4 -12   10.30    1.80
  -3  -4 -12    8.30    1.00
  -3  -4 -12    8.20    1.20
  -3  -4 -12    7.70    1.20
  -3  -4 -12    8.90    1.10
  -4  -4 -12  106.49    6.30
  -4  -4 -12   91.49    5.20
  -4  -4 -12   94.49    4.40
  -4  -4 -12   99.69    4.30
  -4  -4 -12   93.69    4.00
  -4  -4 -12   92.79    6.30
  -4  -4 -12   96.79    4.30
  -4  -4 -12   94.49    4.30
  -5  -4 -12  256.87   10.80
  -5  -4 -12  247.78   10.00
  -5  -4 -12  244.18    9.00
  -5  -4 -12  245.68    8.70
  -5  -4 -12  212.28    9.80
  -5  -4 -12  248.48    8.80
  -5  -4 -12  242.78    8.70
  -6  -4 -12   46.80    2.80
  -6  -4 -12   54.19    2.80
  -6  -4 -12   47.10    2.70
  -6  -4 -12   48.60    3.40
  -6  -4 -12   48.70    2.90
   6   4  12   50.49    2.40
  -7  -4 -12   28.70    2.10
  -7  -4 -12   27.20    1.80
   7   4  12   28.80    1.70
   7   4  12   27.60    1.50
  -8  -4 -12    6.10    0.90
   8   4  12    8.10    0.70
   8   4  12    6.90    0.70
   4  -5 -12    0.30    0.40
   4  -5 -12    0.40    0.40
   4  -5 -12   -0.10    0.30
   4  -5 -12    0.10    0.50
   4  -5 -12    0.30    0.50
   4  -5 -12    0.50    0.40
  -4   5  12    0.20    0.40
   3  -5 -12  352.36   11.40
   3  -5 -12  358.36   12.00
   3  -5 -12  370.36   11.60
   3  -5 -12  344.97   11.50
   3  -5 -12  361.76   11.40
   3  -5 -12  353.26   12.10
   2  -5 -12  137.39    5.10
   2  -5 -12  142.39    5.20
   2  -5 -12  136.29    5.80
   2  -5 -12  141.19    5.70
   2  -5 -12  133.89    7.30
   2  -5 -12  135.19    5.00
   2  -5 -12  137.69    5.00
   1  -5 -12  164.18    8.50
   1  -5 -12  167.08    6.10
   1  -5 -12  172.28    6.50
   1  -5 -12  161.38    5.80
   1  -5 -12  158.18    5.80
   1  -5 -12  164.68    6.60
   1  -5 -12  167.68    5.90
   0  -5 -12  206.88   10.00
   0  -5 -12  206.48    7.70
   0  -5 -12  201.58    7.10
   0  -5 -12  202.88    7.30
   0  -5 -12  211.18    9.30
   0  -5 -12  200.68    7.90
   0  -5 -12  207.38    7.00
  -1  -5 -12   10.00    2.10
  -1  -5 -12    7.60    1.30
  -1  -5 -12    7.70    1.00
  -1  -5 -12    6.20    1.00
  -1  -5 -12    7.20    0.90
  -1  -5 -12    6.60    2.30
  -1  -5 -12    7.90    1.60
  -1  -5 -12    8.60    1.40
  -2  -5 -12   35.20    2.30
  -2  -5 -12   30.20    2.30
  -2  -5 -12   33.00    2.00
  -2  -5 -12   34.30    3.80
  -2  -5 -12   30.50    1.80
  -2  -5 -12   30.10    2.70
  -2  -5 -12   30.80    4.00
  -3  -5 -12   58.59    3.70
  -3  -5 -12   55.79    3.00
  -3  -5 -12   52.29    3.00
  -3  -5 -12   57.29    2.90
  -3  -5 -12   54.39    4.80
  -3  -5 -12   54.39    2.80
  -3  -5 -12   53.29    4.30
  -4  -5 -12   92.19    4.10
  -4  -5 -12   90.69    4.20
  -4  -5 -12   93.09    6.10
  -4  -5 -12   85.49    4.90
  -4  -5 -12  100.39    4.00
  -4  -5 -12   94.09    6.00
  -4  -5 -12   90.49    4.10
  -5  -5 -12   47.90    2.70
  -5  -5 -12   39.20    4.10
  -5  -5 -12   41.60    3.30
  -5  -5 -12   45.10    2.70
  -5  -5 -12   44.90    2.50
  -5  -5 -12   42.40    2.50
   5   5  12   46.50    2.10
  -6  -5 -12  163.08    6.30
  -6  -5 -12  162.48    6.10
  -6  -5 -12  165.18    6.20
  -6  -5 -12  130.29    6.80
   6   5  12  162.28    5.60
  -7  -5 -12   20.30    1.60
  -7  -5 -12   15.70    1.40
   7   5  12   18.30    1.30
   7   5  12   19.70    1.20
  -8  -5 -12    8.60    1.00
   8   5  12    6.80    0.70
   8   5  12    9.60    0.70
   4  -6 -12   42.60    1.70
   4  -6 -12   42.00    1.90
   4  -6 -12   42.60    1.90
   3  -6 -12    3.50    1.30
   3  -6 -12    3.90    0.60
   3  -6 -12    4.90    0.70
   3  -6 -12    4.50    0.60
   3  -6 -12    3.90    0.60
   3  -6 -12    4.70    0.90
   3  -6 -12    3.90    0.90
   2  -6 -12  261.07   10.90
   2  -6 -12  255.67    8.50
   2  -6 -12  253.37    9.00
   2  -6 -12  254.57    8.60
   2  -6 -12  261.37    8.50
   2  -6 -12  257.87    9.30
   2  -6 -12  256.77    8.60
   1  -6 -12   41.50    3.80
   1  -6 -12   41.80    2.60
   1  -6 -12   37.20    2.40
   1  -6 -12   40.30    2.10
   1  -6 -12   44.20    2.10
   1  -6 -12   39.70    2.10
   1  -6 -12   38.70    2.20
   0  -6 -12  137.89    7.00
   0  -6 -12  116.49    7.10
   0  -6 -12  136.19    5.00
   0  -6 -12  136.19    5.60
   0  -6 -12  132.79    5.60
   0  -6 -12  138.59    5.00
   0  -6 -12  130.99    5.20
   0  -6 -12  142.99    5.10
  -1  -6 -12  158.58    6.00
  -1  -6 -12  162.38    6.10
  -1  -6 -12  182.78    7.20
  -1  -6 -12  178.18    6.50
  -1  -6 -12  174.38    5.90
  -1  -6 -12  135.19    8.30
  -1  -6 -12  167.28    6.70
  -1  -6 -12  165.38    8.10
  -2  -6 -12   34.00    1.90
  -2  -6 -12   31.60    2.00
  -2  -6 -12   34.50    2.40
  -2  -6 -12   34.00    3.80
  -2  -6 -12   32.90    2.70
  -2  -6 -12   32.50    2.30
  -2  -6 -12   35.90    3.50
  -2  -6 -12   33.30    1.90
  -3  -6 -12    5.40    1.70
  -3  -6 -12    3.80    0.80
  -3  -6 -12    3.60    1.00
  -3  -6 -12    4.30    0.90
  -3  -6 -12    4.40    1.20
  -3  -6 -12    5.00    2.10
  -4  -6 -12   22.90    1.80
  -4  -6 -12   24.70    1.90
  -4  -6 -12   24.60    1.90
  -4  -6 -12   20.70    3.10
  -4  -6 -12   25.60    2.70
  -4  -6 -12   23.60    1.80
  -4  -6 -12   26.60    3.40
  -5  -6 -12  211.78    7.40
  -5  -6 -12  188.78    9.40
  -5  -6 -12  197.18    7.40
  -5  -6 -12  207.28    8.50
  -5  -6 -12  199.68    7.40
   5   6  12  205.18    6.90
  -6  -6 -12   21.90    1.70
  -6  -6 -12   21.60    1.80
  -6  -6 -12   18.70    2.30
  -6  -6 -12   21.80    1.90
   6   6  12   20.30    1.40
   6   6  12   21.90    1.20
  -7  -6 -12   29.10    1.70
  -7  -6 -12   29.00    1.90
   7   6  12   32.80    1.60
   7   6  12   28.80    1.60
   3  -7 -12    7.40    1.90
   3  -7 -12    6.60    0.80
   3  -7 -12    5.30    0.60
  -3   7  12    5.00    0.60
   2  -7 -12   44.00    2.40
   2  -7 -12   47.80    2.00
   2  -7 -12   43.40    2.30
   2  -7 -12   43.90    2.10
   2  -7 -12   44.40    2.00
   2  -7 -12   44.50    3.40
   1  -7 -12   19.30    1.80
   1  -7 -12   16.50    2.20
   1  -7 -12   18.90    2.70
   1  -7 -12   17.20    1.30
   1  -7 -12   19.50    1.60
   1  -7 -12   18.70    1.30
   1  -7 -12   17.50    1.30
   0  -7 -12   98.79    5.50
   0  -7 -12   95.19    3.70
   0  -7 -12   88.99    3.80
   0  -7 -12   88.89    4.10
   0  -7 -12   92.49    3.70
   0  -7 -12   92.69    4.40
   0  -7 -12  100.39    6.10
   0   7  12   99.19    3.70
  -1  -7 -12    3.40    1.00
  -1  -7 -12    3.30    0.70
  -1  -7 -12    4.60    1.50
  -1  -7 -12    3.10    0.90
  -1  -7 -12    2.70    0.70
  -1  -7 -12    3.80    1.70
  -1  -7 -12    3.70    0.80
  -2  -7 -12    3.40    0.80
  -2  -7 -12    3.00    1.00
  -2  -7 -12    2.80    1.00
  -2  -7 -12    3.10    1.50
  -2  -7 -12    2.20    0.90
  -2  -7 -12    3.00    1.40
  -2  -7 -12    2.10    0.70
  -3  -7 -12   17.30    2.10
  -3  -7 -12   15.40    1.60
  -3  -7 -12   14.50    2.40
  -3  -7 -12   14.10    1.40
  -3  -7 -12   14.50    1.40
  -3  -7 -12   18.00    3.10
  -3  -7 -12   18.40    1.70
   3   7  12   17.00    1.30
  -4  -7 -12  111.39    4.40
  -4  -7 -12  105.89    4.30
  -4  -7 -12   97.29    6.00
  -4  -7 -12  105.09    4.30
  -4  -7 -12   99.99    5.20
   4   7  12  106.39    4.00
  -5  -7 -12    2.40    1.10
  -5  -7 -12    1.20    1.30
  -5  -7 -12    2.40    0.70
  -5  -7 -12    1.90    0.70
  -5  -7 -12    1.80    0.70
   5   7  12    1.80    0.50
  -6  -7 -12   31.80    2.60
  -6  -7 -12   39.10    2.10
   6   7  12   38.60    1.70
   6   7  12   36.80    1.90
  -7  -7 -12  116.99    4.60
  -7  -7 -12  129.79    4.60
   7   7  12  127.59    4.40
   7   7  12  129.59    4.20
   2  -8 -12   20.40    2.00
   2  -8 -12   23.10    1.10
   2  -8 -12   25.90    1.50
  -2   8  12   23.40    1.20
   1  -8 -12   70.49    3.20
   1  -8 -12   74.99    2.90
   1  -8 -12   68.59    3.00
   1  -8 -12   72.59    2.80
   1  -8 -12   78.69    4.60
   1  -8 -12   76.89    5.20
  -1   8  12   69.69    2.80
   0  -8 -12    2.50    1.10
   0  -8 -12    3.20    1.50
   0  -8 -12    3.80    0.70
   0  -8 -12    1.80    0.70
   0  -8 -12    2.60    0.80
   0  -8 -12    2.60    0.60
   0  -8 -12    2.70    0.60
   0   8  12    3.20    0.60
  -1  -8 -12    3.90    1.60
  -1  -8 -12    3.80    0.80
  -1  -8 -12    4.10    1.00
  -1  -8 -12    4.00    0.90
  -1  -8 -12    3.50    0.70
  -1  -8 -12    3.60    1.30
  -2  -8 -12   49.40    2.30
  -2  -8 -12   41.90    2.30
  -2  -8 -12   47.00    4.10
  -2  -8 -12   50.69    3.70
  -2  -8 -12   47.80    3.00
  -2  -8 -12   49.99    2.80
   2   8  12   45.50    2.20
  -3  -8 -12   10.40    1.10
  -3  -8 -12    9.10    1.60
  -3  -8 -12    9.20    1.10
  -3  -8 -12   10.30    2.00
  -3  -8 -12   11.30    2.40
   3   8  12   10.20    1.00
  -4  -8 -12   14.90    1.30
  -4  -8 -12   14.40    1.30
  -4  -8 -12   13.80    2.30
  -4  -8 -12   15.70    1.90
   4   8  12   15.30    1.20
   4   8  12   14.70    1.10
  -5  -8 -12    0.20    0.80
  -5  -8 -12    0.00    0.50
  -5  -8 -12   -0.20    1.70
   5   8  12   -0.30    0.40
   5   8  12    0.30    0.40
  -6  -8 -12   67.39    2.80
  -6  -8 -12   61.49    3.40
   6   8  12   71.49    2.50
   6   8  12   64.09    2.60
  -7  -8 -12   31.80    1.60
   7   8  12   34.20    1.40
   7   8  12   34.50    1.40
   0  -9 -12   42.20    1.80
   0  -9 -12   43.70    2.70
   0  -9 -12   52.39    3.40
   0  -9 -12   44.50    2.10
   0   9  12   42.20    1.80
   0   9  12   43.20    1.90
  -1  -9 -12   31.90    2.90
  -1  -9 -12   30.20    2.50
  -1  -9 -12   28.20    1.50
   1   9  12   30.70    1.50
  -2  -9 -12    5.40    1.40
  -2  -9 -12    5.80    1.00
  -2  -9 -12    5.20    0.80
  -2  -9 -12    4.30    1.40
   2   9  12    5.00    0.70
  -3  -9 -12   21.40    2.40
  -3  -9 -12   20.70    1.30
  -3  -9 -12   20.40    1.80
   3   9  12   21.00    1.20
   3   9  12   21.40    1.20
  -4  -9 -12    3.30    0.90
  -4  -9 -12    4.60    1.40
   4   9  12    4.00    0.60
   4   9  12    3.40    0.50
  -5  -9 -12    1.20    0.50
  -5  -9 -12    1.10    0.70
   5   9  12    1.20    0.40
   5   9  12    0.70    0.40
  -6  -9 -12   14.20    1.00
  -6  -9 -12   15.90    1.50
   6   9  12   16.60    0.80
   6   9  12   15.60    0.90
  -2 -10 -12    7.00    1.20
   2  10  12    6.20    0.60
   2  10  12    6.50    0.60
  -3 -10 -12   20.50    1.50
  -3 -10 -12   21.80    2.00
   3  10  12   20.80    1.00
   3  10  12   20.10    1.00
  -4 -10 -12    2.60    0.70
  -4 -10 -12    2.30    1.00
   4  10  12    1.70    0.30
   4  10  12    1.80    0.30
   3   7 -13   10.90    1.00
   3   7 -13   11.90    0.90
   3   7 -13   10.20    0.70
   3   7 -13   10.00    0.90
   3   7 -13   11.10    0.90
   3   7 -13   11.10    0.80
   2   7 -13   13.80    1.00
   2   7 -13   14.90    0.90
   2   7 -13   16.90    1.30
   2   7 -13   15.40    1.00
   2   7 -13   14.70    1.10
   2   7 -13   16.00    1.00
   1   7 -13    2.60    0.50
   1   7 -13    1.80    0.50
   1   7 -13    2.40    0.80
   1   7 -13    3.30    0.70
   1   7 -13    1.80    0.60
   1   7 -13    2.60    0.50
   0   7 -13   48.30    2.20
   0   7 -13   48.60    2.30
   0   7 -13   44.30    1.90
   0   7 -13   48.90    2.20
   0   7 -13   47.40    2.50
   0   7 -13   47.90    2.00
  -1   7 -13  137.89    4.80
  -1   7 -13  127.89    4.50
  -1   7 -13  139.89    5.30
  -1   7 -13  143.79    4.90
  -1   7 -13  136.29    4.90
  -1   7 -13  142.79    4.70
   1  -7  13  135.69    5.20
   4   6 -13   19.40    1.10
   4   6 -13   19.50    1.10
   4   6 -13   18.40    1.10
   4   6 -13   20.10    1.00
   4   6 -13   18.30    1.20
   4   6 -13   17.30    1.00
   3   6 -13    2.00    0.50
   3   6 -13    2.70    0.50
   3   6 -13    2.10    0.50
   3   6 -13    2.10    0.50
   3   6 -13    1.20    0.60
   2   6 -13   39.80    1.90
   2   6 -13   34.60    1.90
   2   6 -13   40.60    1.80
   2   6 -13   37.10    2.20
   2   6 -13   37.60    1.90
   2   6 -13   39.50    2.10
   1   6 -13  126.49    4.50
   1   6 -13  121.99    4.60
   1   6 -13  108.69    4.90
   1   6 -13  129.69    4.70
   1   6 -13  119.59    4.30
   1   6 -13  113.89    4.90
   0   6 -13   68.09    3.00
   0   6 -13   63.09    3.00
   0   6 -13   60.09    2.60
   0   6 -13   69.09    3.20
   0   6 -13   60.39    3.40
   0   6 -13   65.09    2.80
  -1   6 -13   26.30    2.30
  -1   6 -13   29.80    2.00
  -1   6 -13   26.40    1.70
  -1   6 -13   29.40    1.80
  -1   6 -13   29.70    1.60
  -1   6 -13   28.20    1.50
  -1   6 -13   26.60    2.10
  -2   6 -13    1.60    0.60
  -2   6 -13    1.60    0.80
  -2   6 -13    2.00    0.60
  -2   6 -13    1.30    0.50
  -2   6 -13    0.90    0.90
  -2   6 -13    1.80    0.60
  -2   6 -13    1.90    0.50
  -3   6 -13   19.20    1.90
  -3   6 -13   20.30    1.40
  -3   6 -13   18.80    1.20
  -3   6 -13   18.50    1.10
   3  -6  13   19.10    1.50
   5   5 -13   24.90    1.20
   5   5 -13   24.80    1.30
   5   5 -13   26.40    1.20
   5   5 -13   25.50    1.20
   5   5 -13   27.80    1.30
   4   5 -13   47.30    2.00
   4   5 -13   45.40    2.20
   4   5 -13   50.79    2.00
   4   5 -13   44.10    1.90
   4   5 -13   45.60    2.10
   3   5 -13  121.89    4.20
   3   5 -13  111.89    4.50
   3   5 -13  116.69    4.30
   3   5 -13  118.39    4.30
   3   5 -13  108.69    4.60
   2   5 -13  226.88    7.70
   2   5 -13  232.48    7.60
   2   5 -13  233.08    8.00
   2   5 -13  219.18    7.80
   2   5 -13  229.08    7.70
   2   5 -13  225.68    8.20
   1   5 -13    1.20    0.60
   1   5 -13   -0.40    0.70
   1   5 -13    0.80    0.50
   1   5 -13    0.50    0.60
   1   5 -13    1.80    0.70
   1   5 -13    0.30    0.50
   0   5 -13   89.59    4.00
   0   5 -13   94.29    3.80
   0   5 -13   91.19    4.00
   0   5 -13   89.99    3.50
   0   5 -13   88.39    4.20
   0   5 -13   93.79    4.50
  -1   5 -13  122.99    4.60
  -1   5 -13  133.09    5.80
  -1   5 -13  126.69    5.10
  -1   5 -13  122.19    4.80
  -1   5 -13  125.19    5.00
  -1   5 -13  122.09    5.20
  -2   5 -13   27.10    1.80
  -2   5 -13   25.90    2.60
  -2   5 -13   25.10    1.70
  -2   5 -13   28.30    1.70
  -2   5 -13   25.50    1.50
  -2   5 -13   26.20    2.20
  -2   5 -13   25.80    1.90
  -3   5 -13   46.30    3.20
  -3   5 -13   43.70    2.40
  -3   5 -13   41.30    2.10
  -3   5 -13   44.40    2.30
  -3   5 -13   42.70    2.60
  -3   5 -13   44.90    2.20
   3  -5  13   41.80    2.70
  -4   5 -13    9.70    0.90
  -4   5 -13   10.30    1.00
  -4   5 -13   10.90    1.50
  -4   5 -13    9.70    1.10
   4  -5  13    9.30    1.30
   5   4 -13  124.99    4.30
   5   4 -13  127.39    4.30
   5   4 -13  121.59    4.30
   5   4 -13  118.09    4.10
   5   4 -13  127.49    4.20
   4   4 -13   53.69    2.40
   4   4 -13   53.39    2.40
   4   4 -13   55.19    2.30
   4   4 -13   52.99    2.20
   4   4 -13   49.90    2.30
   3   4 -13  190.88    6.60
   3   4 -13  197.98    6.80
   3   4 -13  200.18    6.80
   3   4 -13  203.58    7.00
   3   4 -13  203.78    6.60
   3   4 -13  188.18    7.10
   2   4 -13   75.39    2.80
   2   4 -13   70.49    2.90
   2   4 -13   66.09    3.10
   2   4 -13   60.89    3.10
   2   4 -13   67.09    3.30
   2   4 -13   68.99    2.90
   1   4 -13    1.50    0.50
   1   4 -13    3.20    0.80
   1   4 -13    1.70    0.90
   1   4 -13    1.80    0.80
   1   4 -13    1.10    0.70
   1   4 -13    1.20    0.60
   0   4 -13  147.89    6.60
   0   4 -13  147.69    5.80
   0   4 -13  148.09    5.90
   0   4 -13  154.48    5.30
   0   4 -13  152.38    5.60
   0   4 -13  149.69    6.10
  -1   4 -13   42.50    2.50
  -1   4 -13   42.40    2.70
  -1   4 -13   45.10    3.50
  -1   4 -13   47.30    2.40
  -1   4 -13   46.30    2.60
  -1   4 -13   44.30    2.20
  -1   4 -13   42.60    3.00
  -2   4 -13   61.29    4.30
  -2   4 -13   55.99    4.40
  -2   4 -13   64.09    3.10
  -2   4 -13   63.49    3.40
  -2   4 -13   62.59    3.90
  -2   4 -13   67.89    3.30
  -2   4 -13   61.99    2.90
  -3   4 -13  191.88    7.90
  -3   4 -13  189.58    8.80
  -3   4 -13  213.58    7.30
  -3   4 -13  193.08    7.30
  -3   4 -13  189.98    6.90
  -3   4 -13  183.38    8.90
  -3   4 -13  195.38    7.00
  -4   4 -13   32.30    2.30
  -4   4 -13   35.70    2.80
  -4   4 -13   35.60    2.00
  -4   4 -13   33.20    1.80
  -4   4 -13   31.30    2.00
  -5   4 -13   34.20    2.30
  -5   4 -13   40.00    1.90
  -5   4 -13   36.60    1.70
   5  -4  13   43.80    2.50
   6   3 -13   52.09    1.90
   6   3 -13   50.29    1.80
   6   3 -13   49.40    1.90
   6   3 -13   51.09    1.90
   5   3 -13   11.60    0.90
   5   3 -13    9.60    0.80
   5   3 -13   10.10    0.80
   5   3 -13   11.30    0.90
   5   3 -13   11.20    1.00
   4   3 -13   61.99    2.50
   4   3 -13   63.79    2.70
   4   3 -13   61.29    2.60
   4   3 -13   62.79    2.50
   4   3 -13   61.79    2.60
   3   3 -13  242.58    8.00
   3   3 -13  233.88    8.20
   3   3 -13  235.28    7.90
   3   3 -13  233.98    8.00
   3   3 -13  243.08    7.80
   2   3 -13    4.20    1.00
   2   3 -13    3.40    0.70
   2   3 -13    5.70    1.00
   2   3 -13    4.60    0.80
   2   3 -13    7.70    0.80
   1   3 -13  241.08    8.10
   1   3 -13  240.38    8.40
   1   3 -13  236.48    8.40
   1   3 -13  227.58    7.90
   1   3 -13  247.28    8.80
   0   3 -13   47.00    2.50
   0   3 -13   44.00    2.90
   0   3 -13   43.40    2.50
   0   3 -13   49.30    2.40
   0   3 -13   46.60    2.80
  -1   3 -13    2.50    0.80
  -1   3 -13    4.10    1.10
  -1   3 -13    2.90    0.80
  -1   3 -13    2.80    0.90
  -1   3 -13    4.30    0.90
  -1   3 -13    2.70    1.20
  -2   3 -13  108.79    4.80
  -2   3 -13  110.29    4.60
  -2   3 -13  114.19    4.50
  -2   3 -13  103.29    4.90
  -2   3 -13  109.19    6.60
  -2   3 -13  118.59    5.90
  -2   3 -13  106.69    5.20
  -3   3 -13   48.60    3.70
  -3   3 -13   43.10    2.80
  -3   3 -13   44.20    3.00
  -3   3 -13   49.20    2.40
  -3   3 -13   42.40    2.40
  -3   3 -13   31.50    4.10
  -3   3 -13   47.00    2.70
  -4   3 -13  135.09    5.00
  -4   3 -13  119.89    6.30
  -4   3 -13  129.59    5.30
  -4   3 -13  131.69    5.20
  -4   3 -13  118.19    6.70
  -4   3 -13  124.39    5.60
  -4   3 -13  127.69    4.80
   4  -3  13  128.99    4.90
  -5   3 -13   45.60    2.10
  -5   3 -13   48.10    2.50
  -5   3 -13   47.90    3.10
  -5   3 -13   51.59    2.60
   5  -3  13   47.00    2.30
  -6   3 -13   21.10    1.20
   6  -3  13   20.10    1.50
   6   2 -13    1.00    0.30
   6   2 -13    2.40    0.40
   6   2 -13    2.10    0.60
   6   2 -13    2.40    0.40
   6   2 -13    3.60    0.50
   5   2 -13   44.30    1.90
   5   2 -13   42.20    1.80
   5   2 -13   39.90    1.80
   5   2 -13   41.60    2.00
   5   2 -13   44.90    1.90
   5   2 -13   43.30    1.80
   4   2 -13  242.68    8.00
   4   2 -13  234.88    7.90
   4   2 -13  243.08    8.00
   4   2 -13  244.78    8.10
   4   2 -13  243.78    7.90
   3   2 -13   30.80    1.70
   3   2 -13   29.50    1.70
   3   2 -13   32.30    1.60
   3   2 -13   31.10    1.70
   2   2 -13   68.19    2.70
   2   2 -13   66.89    2.80
   1   2 -13   84.69    3.40
   1   2 -13   86.69    3.70
   1   2 -13   83.09    3.90
   0   2 -13   97.09    4.60
   0   2 -13   97.49    4.00
   0   2 -13  111.09    4.60
   0   2 -13  101.69    4.20
   0   2 -13  105.99    4.30
  -1   2 -13   60.09    3.40
  -1   2 -13   58.09    2.70
  -1   2 -13   56.79    3.20
  -1   2 -13   54.09    3.70
  -1   2 -13   62.19    3.00
  -1   2 -13   60.89    3.00
  -1   2 -13   58.49    3.60
  -2   2 -13   11.70    1.60
  -2   2 -13   13.00    1.30
  -2   2 -13    9.60    1.50
  -2   2 -13   12.20    1.40
  -2   2 -13   12.10    1.50
  -2   2 -13    9.50    1.80
  -2   2 -13    7.30    1.50
  -3   2 -13   51.89    2.60
  -3   2 -13   53.39    3.70
  -3   2 -13   52.19    3.00
  -3   2 -13   48.80    3.10
  -3   2 -13   52.39    3.10
  -3   2 -13   52.39    4.20
  -3   2 -13   51.89    2.80
  -4   2 -13  137.39    5.80
  -4   2 -13  136.99    7.90
  -4   2 -13  139.39    5.60
  -4   2 -13  134.79    5.20
  -4   2 -13  145.69    5.40
  -4   2 -13  129.19    5.80
  -4   2 -13  133.09    6.60
  -4   2 -13  140.09    5.90
  -5   2 -13    1.70    0.70
  -5   2 -13    1.10    1.20
  -5   2 -13    0.50    0.70
  -5   2 -13    1.20    0.90
  -5   2 -13    0.30    1.20
  -5   2 -13    1.60    0.80
  -5   2 -13    1.70    0.70
   5  -2  13    1.30    0.60
  -6   2 -13   36.30    2.00
  -6   2 -13   37.50    2.10
  -6   2 -13   33.70    1.70
   6  -2  13   37.30    1.90
   6  -2  13   36.00    2.30
   6   1 -13   42.80    1.60
   6   1 -13   41.10    1.60
   6   1 -13   40.80    1.60
   6   1 -13   41.90    1.70
   6   1 -13   42.40    1.70
   5   1 -13  269.57    8.90
   5   1 -13  279.67    8.80
   5   1 -13  273.77    8.70
   5   1 -13  270.87    8.90
   5   1 -13  275.77    8.80
   4   1 -13    9.50    0.90
   4   1 -13    7.10    0.80
   4   1 -13    8.00    0.90
   4   1 -13    7.10    0.90
   3   1 -13   27.00    1.60
   3   1 -13   26.60    1.40
   3   1 -13   25.00    1.50
   3   1 -13   24.90    1.40
   0   1 -13   28.70    2.10
   0   1 -13   31.20    1.90
   0   1 -13   32.70    2.40
  -1   1 -13  614.64   20.40
  -1   1 -13  635.54   20.80
  -1   1 -13  609.34   21.90
  -1   1 -13  638.84   21.90
  -1   1 -13  697.43   21.40
  -1   1 -13  654.73   20.40
  -2   1 -13   74.69    3.60
  -2   1 -13   79.19    4.60
  -2   1 -13   75.99    4.50
  -2   1 -13   70.19    3.50
  -2   1 -13   76.19    4.20
  -2   1 -13   80.49    3.90
  -2   1 -13   75.79    3.60
  -3   1 -13  503.15   16.90
  -3   1 -13  480.05   16.50
  -3   1 -13  498.95   17.30
  -3   1 -13  494.45   18.00
  -3   1 -13  527.75   17.90
  -3   1 -13  503.05   16.50
  -3   1 -13  504.05   16.50
  -4   1 -13  124.09    5.30
  -4   1 -13  121.99    5.20
  -4   1 -13  122.09    5.50
  -4   1 -13  122.09    5.00
  -4   1 -13  121.89    5.40
  -4   1 -13  115.79    5.80
  -4   1 -13  124.89    6.60
  -5   1 -13  100.59    5.50
  -5   1 -13  118.59    5.00
  -5   1 -13  107.99    5.10
  -5   1 -13  116.09    4.50
  -5   1 -13  105.39    6.60
  -5   1 -13  120.39    4.80
  -5   1 -13  114.19    5.00
  -6   1 -13  145.29    5.60
  -6   1 -13  144.89    5.50
  -6   1 -13  130.79    6.80
   6  -1  13  157.58    5.50
  -7   1 -13    5.00    0.70
   7  -1  13    4.70    0.70
   6   0 -13   78.79    2.80
   6   0 -13   76.89    2.80
   6   0 -13   79.19    2.70
   5   0 -13   12.00    1.00
   5   0 -13   12.50    1.10
   5   0 -13   12.80    1.00
   5   0 -13   13.20    0.90
   5   0 -13   12.70    1.00
   5   0 -13   12.40    0.90
   4   0 -13   49.80    2.30
   4   0 -13   49.10    2.20
   4   0 -13   47.90    2.30
   4   0 -13   48.20    2.10
   4   0 -13   49.30    2.40
   4   0 -13   52.59    2.20
   3   0 -13   76.09    3.10
   3   0 -13   81.89    3.30
   3   0 -13   81.79    3.20
   3   0 -13   79.79    3.10
  -1   0 -13  147.79    7.70
  -1   0 -13  164.88    6.70
  -1   0 -13  179.58    6.20
  -1   0 -13  160.98    7.10
  -1   0 -13  169.78    7.10
  -1   0 -13  147.59    7.40
  -2   0 -13  133.19    5.50
  -2   0 -13  140.49    5.30
  -2   0 -13  125.99    5.20
  -2   0 -13  125.19    6.50
  -2   0 -13  140.49    6.30
  -2   0 -13  115.49    6.70
  -3   0 -13 1005.00   31.90
  -3   0 -13 1010.60   33.10
  -3   0 -13  990.90   31.40
  -3   0 -13 1012.70   33.20
  -3   0 -13  994.80   31.50
  -3   0 -13  985.40   31.40
  -3   0 -13 1036.10   32.70
  -4   0 -13    1.00    0.70
  -4   0 -13    0.10    1.00
  -4   0 -13   -0.10    0.80
  -4   0 -13    0.20    0.70
  -4   0 -13    1.10    0.90
  -4   0 -13    0.00    0.90
  -4   0 -13    0.30    0.80
  -4   0 -13   -0.10    0.60
  -5   0 -13   13.50    1.80
  -5   0 -13   15.80    1.90
  -5   0 -13   14.30    2.00
  -5   0 -13   15.20    1.90
  -5   0 -13   14.00    1.60
  -5   0 -13   20.00    1.90
  -5   0 -13   14.00    2.50
   5   0  13   16.60    1.50
  -6   0 -13   64.39    4.30
  -6   0 -13   67.19    2.90
  -6   0 -13   67.89    3.20
  -6   0 -13   67.29    3.40
   6   0  13   64.49    2.90
  -7   0 -13    6.90    0.90
  -7   0 -13    7.00    0.90
   7   0  13    7.20    0.70
   7   0  13    7.70    1.10
   7   0  13    7.10    0.80
   5  -1 -13    4.00    0.60
   5  -1 -13    2.50    0.50
   5  -1 -13    4.80    0.70
   5  -1 -13    3.00    0.50
   5  -1 -13    2.90    0.50
   4  -1 -13  124.69    4.80
   4  -1 -13  133.19    4.60
   4  -1 -13  127.09    4.60
   4  -1 -13  127.89    4.60
   4  -1 -13  125.29    4.70
   3  -1 -13  125.19    4.60
   3  -1 -13  127.59    4.50
   3  -1 -13  123.49    4.50
   3  -1 -13  127.79    4.60
   3  -1 -13  123.59    4.80
   3  -1 -13  116.29    5.50
   2  -1 -13   40.80    2.00
   2  -1 -13   40.60    2.00
   2  -1 -13   38.90    2.20
   2  -1 -13   39.30    1.90
   2  -1 -13   41.10    2.70
   1  -1 -13    9.20    1.60
   1  -1 -13    8.00    1.10
   0  -1 -13  463.25   15.30
   0  -1 -13  398.36   14.20
   0  -1 -13  369.86   15.80
   0   1  13  453.95   19.00
  -1  -1 -13   32.30    4.50
  -1  -1 -13   35.10    4.50
  -1  -1 -13   40.70    4.90
  -1  -1 -13   32.70    3.50
  -1  -1 -13   46.40    4.00
  -1  -1 -13   35.70    2.70
   1   1  13   37.20    4.40
   1   1  13   40.00    5.70
   1   1  13   35.40    5.40
   1   1  13   35.70    4.70
  -2  -1 -13  698.33   23.00
  -2  -1 -13  670.83   21.80
  -2  -1 -13  671.83   21.80
  -2  -1 -13  688.43   21.60
  -2  -1 -13  713.83   24.10
  -2  -1 -13  648.84   21.60
  -2  -1 -13  641.84   23.90
  -3  -1 -13  166.58    6.50
  -3  -1 -13  162.38    8.40
  -3  -1 -13  166.18    6.70
  -3  -1 -13  162.88    6.30
  -3  -1 -13  161.18    6.50
  -3  -1 -13  179.78    7.90
  -3  -1 -13  169.88    8.00
  -4  -1 -13   89.79    5.20
  -4  -1 -13   80.99    3.90
  -4  -1 -13   67.19    4.70
  -4  -1 -13   83.79    3.90
  -4  -1 -13   85.79    4.20
  -4  -1 -13   88.29    5.00
  -4  -1 -13   83.79    3.80
  -4  -1 -13   87.79    4.10
  -5  -1 -13  251.67   10.40
  -5  -1 -13  255.07    9.80
  -5  -1 -13  253.27    9.50
  -5  -1 -13  246.38    9.30
  -5  -1 -13  243.78    9.00
  -5  -1 -13  272.57   10.10
  -5  -1 -13  242.78    9.10
  -5  -1 -13  264.87    9.20
  -6  -1 -13   26.40    1.80
  -6  -1 -13   25.30    2.30
  -6  -1 -13   25.40    2.10
  -6  -1 -13   26.70    2.00
   6   1  13   25.40    1.70
  -7  -1 -13   34.00    2.10
  -7  -1 -13   30.80    1.80
   7   1  13   31.30    1.70
   7   1  13   32.40    1.70
   5  -2 -13    5.70    0.90
   5  -2 -13    5.10    0.60
   5  -2 -13    5.10    0.60
   5  -2 -13    5.00    0.60
   5  -2 -13    4.40    0.70
   5  -2 -13    5.50    0.60
   4  -2 -13   17.80    1.20
   4  -2 -13   16.70    1.20
   4  -2 -13   18.50    1.70
   4  -2 -13   18.50    1.20
   4  -2 -13   17.10    1.20
   4  -2 -13   17.80    1.30
   3  -2 -13    9.90    1.00
   3  -2 -13   13.30    1.10
   3  -2 -13   10.20    1.10
   3  -2 -13    9.50    1.10
   3  -2 -13   12.20    1.20
   3  -2 -13    8.50    1.30
   2  -2 -13  135.19    5.90
   2  -2 -13  157.38    5.60
   2  -2 -13  155.58    5.30
   2  -2 -13  151.58    5.20
   2  -2 -13  152.18    5.30
   2  -2 -13  126.49    5.90
   1  -2 -13  515.95   15.90
   1  -2 -13  517.65   16.80
   1  -2 -13  527.45   16.30
   1  -2 -13  487.55   17.00
   1  -2 -13  499.25   16.00
   0  -2 -13    4.90    1.00
   0  -2 -13    2.30    1.70
   0  -2 -13    3.70    1.00
   0  -2 -13   11.10    2.60
   0  -2 -13    1.90    0.70
   0  -2 -13    4.50    1.10
  -1  -2 -13    1.40    0.70
  -1  -2 -13    0.30    1.30
  -1  -2 -13    1.00    0.80
  -1  -2 -13    1.40    1.30
  -1  -2 -13    1.50    0.90
  -1  -2 -13    1.00    1.20
  -1  -2 -13   -0.20    4.30
   1   2  13    1.90    2.90
  -2  -2 -13    1.50    0.70
  -2  -2 -13   -0.50    0.90
  -2  -2 -13    0.90    0.60
  -2  -2 -13   -0.30    1.20
  -2  -2 -13   -0.10    1.10
  -2  -2 -13    0.30    0.60
  -2  -2 -13   -0.90    0.60
  -3  -2 -13  202.28    7.40
  -3  -2 -13  199.88    9.80
  -3  -2 -13  191.88    7.60
  -3  -2 -13  196.18    8.70
  -3  -2 -13  205.08    7.60
  -3  -2 -13  208.68    9.40
  -3  -2 -13  202.28    7.50
  -4  -2 -13  721.03   26.50
  -4  -2 -13  822.32   25.30
  -4  -2 -13  794.42   27.70
  -4  -2 -13  808.92   27.10
  -4  -2 -13  797.12   25.30
  -4  -2 -13  819.52   25.70
  -5  -2 -13    0.00    0.80
  -5  -2 -13    0.70    0.70
  -5  -2 -13    0.20    0.70
  -5  -2 -13   -0.20    1.00
  -5  -2 -13   -0.30    0.80
  -5  -2 -13    0.80    0.90
  -5  -2 -13    0.60    1.00
  -5  -2 -13    1.10    0.80
  -6  -2 -13    0.50    0.70
  -6  -2 -13    1.50    0.90
  -6  -2 -13    1.00    0.70
  -6  -2 -13    1.50    1.00
  -6  -2 -13    0.80    0.80
  -6  -2 -13   -0.30    1.10
   6   2  13    1.20    0.60
  -7  -2 -13   66.99    3.00
  -7  -2 -13   72.29    3.40
  -7  -2 -13   72.29    3.10
   7   2  13   74.49    3.00
   7   2  13   71.89    3.00
   5  -3 -13  167.58    5.90
   5  -3 -13  184.08    5.90
   5  -3 -13  182.08    5.90
   5  -3 -13  195.08    5.90
   5  -3 -13  157.58    6.10
   5  -3 -13  197.98    5.90
   4  -3 -13   30.60    1.60
   4  -3 -13   28.70    1.50
   4  -3 -13   32.30    1.60
   4  -3 -13   26.60    1.90
   4  -3 -13   27.10    1.50
   4  -3 -13   29.90    1.70
   3  -3 -13   17.00    1.80
   3  -3 -13   19.50    1.30
   3  -3 -13   20.40    1.50
   3  -3 -13   19.10    1.20
   3  -3 -13   19.00    1.30
   3  -3 -13   16.60    1.80
   3  -3 -13   19.90    1.30
   2  -3 -13  539.85   16.80
   2  -3 -13  499.85   17.30
   2  -3 -13  533.25   16.50
   2  -3 -13  498.75   17.20
   2  -3 -13  528.65   16.40
   2  -3 -13  527.75   16.40
   1  -3 -13  346.97   15.10
   1  -3 -13  374.26   11.80
   1  -3 -13  366.06   12.20
   1  -3 -13  374.96   12.70
   1  -3 -13  368.16   12.90
   1  -3 -13  379.26   11.90
   0  -3 -13    2.90    0.70
   0  -3 -13    1.60    1.50
   0  -3 -13    2.60    0.60
   0  -3 -13    2.00    0.90
   0  -3 -13    2.50    0.90
   0  -3 -13    3.40    1.70
  -1  -3 -13  241.48    8.40
  -1  -3 -13  231.68   11.70
  -1  -3 -13  244.18    8.70
  -1  -3 -13  254.97    9.10
  -1  -3 -13  289.87   10.40
  -1  -3 -13  255.97   11.30
  -1  -3 -13  258.27    9.30
  -2  -3 -13  300.17   13.00
  -2  -3 -13  282.97   10.50
  -2  -3 -13  310.47   11.70
  -2  -3 -13  284.47   12.70
  -2  -3 -13  297.07   10.50
  -2  -3 -13  300.87   10.00
  -2  -3 -13  299.77   10.10
  -3  -3 -13   77.29    3.70
  -3  -3 -13   72.09    3.50
  -3  -3 -13   85.59    5.70
  -3  -3 -13   75.79    4.80
  -3  -3 -13   76.79    3.80
  -3  -3 -13   65.29    5.40
  -3  -3 -13   77.49    3.40
  -4  -3 -13    1.70    1.20
  -4  -3 -13    1.60    0.70
  -4  -3 -13    2.30    1.10
  -4  -3 -13    1.60    1.50
  -4  -3 -13    1.00    0.70
  -4  -3 -13    2.60    1.20
  -4  -3 -13    2.70    0.90
  -4  -3 -13    2.20    0.80
  -5  -3 -13   50.09    2.80
  -5  -3 -13   42.40    3.40
  -5  -3 -13   47.90    2.70
  -5  -3 -13   47.90    4.00
  -5  -3 -13   45.80    3.50
  -5  -3 -13   49.70    3.10
  -5  -3 -13   48.40    2.70
  -6  -3 -13   67.09    3.30
  -6  -3 -13   68.89    3.40
  -6  -3 -13   58.39    3.80
  -6  -3 -13   68.69    3.60
   6   3  13   70.59    2.80
  -7  -3 -13  103.09    4.50
  -7  -3 -13   98.19    4.00
  -7  -3 -13  107.39    4.10
   7   3  13  114.99    4.10
   4  -4 -13    4.50    0.90
   4  -4 -13    5.40    0.60
   4  -4 -13    7.30    0.70
   4  -4 -13    4.60    0.70
   4  -4 -13    5.20    0.90
   4  -4 -13    5.90    0.70
   4  -4 -13    5.20    0.70
   3  -4 -13  395.56   12.40
   3  -4 -13  408.26   12.40
   3  -4 -13  393.56   12.60
   3  -4 -13  375.26   13.10
   3  -4 -13  370.56   13.00
   3  -4 -13  383.66   12.40
   2  -4 -13  405.96   14.40
   2  -4 -13  429.16   14.00
   2  -4 -13  439.46   13.70
   2  -4 -13  438.06   13.70
   2  -4 -13  440.06   14.70
   2  -4 -13  432.06   13.70
   1  -4 -13   67.29    2.90
   1  -4 -13   72.89    3.70
   1  -4 -13   66.79    3.50
   1  -4 -13   75.89    3.30
   1  -4 -13   69.89    2.90
   1  -4 -13   70.89    3.30
   1  -4 -13   65.79    5.30
   0  -4 -13  349.87   11.60
   0  -4 -13  357.46   11.90
   0  -4 -13  361.96   14.30
   0  -4 -13  364.66   12.40
   0  -4 -13  350.36   11.60
   0  -4 -13  357.76   12.70
   0  -4 -13  374.96   15.30
  -1  -4 -13   24.90    1.70
  -1  -4 -13   25.40    3.40
  -1  -4 -13   25.60    2.30
  -1  -4 -13   25.60    2.70
  -1  -4 -13   23.70    2.10
  -1  -4 -13   24.70    3.90
  -1  -4 -13   22.80    1.50
  -2  -4 -13   11.00    2.40
  -2  -4 -13    7.70    1.30
  -2  -4 -13   10.50    1.10
  -2  -4 -13    9.50    1.20
  -2  -4 -13    8.90    2.40
  -2  -4 -13    8.00    1.30
  -2  -4 -13   10.20    1.80
  -3  -4 -13   -2.50    0.60
  -3  -4 -13    0.40    1.10
  -3  -4 -13    0.80    1.00
  -3  -4 -13    2.40    1.50
  -3  -4 -13    0.10    0.50
  -3  -4 -13   -0.70    0.60
  -3  -4 -13    0.10    0.50
  -3  -4 -13    0.80    0.70
  -4  -4 -13   78.79    4.20
  -4  -4 -13   79.69    6.10
  -4  -4 -13   93.79    3.90
  -4  -4 -13   86.19    5.60
  -4  -4 -13   93.89    4.10
  -4  -4 -13   88.09    4.00
  -4  -4 -13   89.99    5.20
  -4  -4 -13   93.39    4.10
  -5  -4 -13  171.78    7.50
  -5  -4 -13  170.18    6.40
  -5  -4 -13  134.99    7.30
  -5  -4 -13  158.68    6.30
  -5  -4 -13  170.68    6.60
  -5  -4 -13  156.08    6.10
  -5  -4 -13  175.78    8.30
  -5  -4 -13  157.88    6.20
  -6  -4 -13  127.39    5.00
  -6  -4 -13  117.99    5.10
  -6  -4 -13  121.09    4.90
  -6  -4 -13  118.19    4.90
  -6  -4 -13  112.09    5.70
   6   4  13  119.79    4.40
  -7  -4 -13   57.39    2.70
  -7  -4 -13   57.09    2.90
   7   4  13   57.79    2.60
   7   4  13   56.09    2.30
   4  -5 -13  136.39    4.70
   4  -5 -13  141.09    5.00
   4  -5 -13  140.79    4.70
   4  -5 -13  144.49    4.60
   4  -5 -13  133.79    5.00
   4  -5 -13  143.89    4.60
  -4   5  13  134.49    5.00
   3  -5 -13    3.40    0.60
   3  -5 -13    2.20    0.70
   3  -5 -13    2.20    0.80
   3  -5 -13    2.80    0.60
   3  -5 -13    2.90    0.60
   3  -5 -13    2.40    0.60
   2  -5 -13   33.10    3.60
   2  -5 -13   42.50    2.00
   2  -5 -13   42.50    2.20
   2  -5 -13   40.50    2.40
   2  -5 -13   42.20    2.60
   2  -5 -13   41.90    2.00
   2  -5 -13   38.80    2.00
   1  -5 -13  124.19    4.70
   1  -5 -13  120.99    5.30
   1  -5 -13  128.09    5.50
   1  -5 -13  130.89    4.80
   1  -5 -13  133.09    5.00
   1  -5 -13  128.79    4.70
   1  -5 -13  123.79    7.50
   0  -5 -13    0.60    0.50
   0  -5 -13    1.50    0.90
   0  -5 -13    1.90    1.20
   0  -5 -13    2.10    0.70
   0  -5 -13    1.20    0.50
   0  -5 -13    1.60    0.80
  -1  -5 -13    4.90    1.10
  -1  -5 -13    5.50    2.10
  -1  -5 -13    5.40    0.90
  -1  -5 -13    5.20    0.80
  -1  -5 -13    5.60    1.10
  -1  -5 -13    6.60    1.60
  -1  -5 -13    4.80    1.80
  -1  -5 -13    5.60    0.90
  -2  -5 -13   15.50    1.80
  -2  -5 -13   14.90    1.30
  -2  -5 -13   14.50    2.70
  -2  -5 -13   14.60    1.40
  -2  -5 -13   15.20    2.10
  -2  -5 -13   12.10    1.60
  -2  -5 -13   15.90    3.10
  -3  -5 -13   97.39    4.10
  -3  -5 -13   93.29    4.30
  -3  -5 -13   96.79    3.90
  -3  -5 -13   96.19    4.20
  -3  -5 -13   87.39    6.00
  -3  -5 -13   96.89    4.40
  -3  -5 -13  102.59    5.30
  -3  -5 -13  100.39    6.40
  -4  -5 -13   55.79    2.80
  -4  -5 -13   60.39    3.10
  -4  -5 -13   57.99    3.00
  -4  -5 -13   55.09    4.70
  -4  -5 -13   50.69    3.80
  -4  -5 -13   59.59    3.10
  -4  -5 -13   58.19    4.60
  -5  -5 -13  177.18    6.70
  -5  -5 -13  171.18    6.60
  -5  -5 -13  174.48    6.60
  -5  -5 -13  198.28    8.90
  -5  -5 -13  171.78    8.00
  -5  -5 -13  174.08    6.50
  -5  -5 -13  148.49    7.50
  -6  -5 -13   19.90    1.70
  -6  -5 -13   16.40    1.60
  -6  -5 -13   18.30    1.70
  -6  -5 -13   18.80    2.20
  -6  -5 -13   15.20    1.50
   6   5  13   19.00    1.30
  -7  -5 -13   18.40    1.40
  -7  -5 -13   17.40    1.50
   7   5  13   19.20    1.30
   7   5  13   19.40    1.10
   3  -6 -13   99.39    4.00
   3  -6 -13   92.39    3.50
   3  -6 -13  101.09    3.50
   3  -6 -13   97.79    3.60
   3  -6 -13   98.99    3.80
   3  -6 -13  102.49    3.50
   2  -6 -13  143.89    5.10
   2  -6 -13  147.59    5.10
   2  -6 -13  128.99    7.10
   2  -6 -13  146.79    5.20
   2  -6 -13  152.28    5.60
   2  -6 -13  148.39    5.10
   2  -6 -13  150.88    5.80
   1  -6 -13    7.70    1.20
   1  -6 -13    8.50    1.30
   1  -6 -13    6.20    0.90
   1  -6 -13    8.30    1.00
   1  -6 -13    8.40    0.90
   1  -6 -13    7.90    1.00
   1  -6 -13    6.60    2.10
   0  -6 -13    2.00    0.70
   0  -6 -13    3.30    1.40
   0  -6 -13    3.10    0.90
   0  -6 -13    2.50    0.70
   0  -6 -13    3.20    1.60
   0  -6 -13    3.40    1.00
   0  -6 -13    3.10    0.70
  -1  -6 -13    1.70    0.60
  -1  -6 -13    2.80    0.70
  -1  -6 -13    0.90    0.60
  -1  -6 -13    2.30    1.40
  -1  -6 -13    2.70    1.00
  -1  -6 -13    2.80    1.70
  -1  -6 -13    2.70    0.60
  -2  -6 -13   75.59    3.80
  -2  -6 -13   77.29    4.40
  -2  -6 -13   73.29    3.80
  -2  -6 -13   74.39    3.40
  -2  -6 -13   74.09    3.10
  -2  -6 -13   75.49    5.10
  -2  -6 -13   77.69    3.30
  -2  -6 -13   71.29    5.60
  -3  -6 -13   -0.90    0.80
  -3  -6 -13   -0.40    1.20
  -3  -6 -13    2.00    0.80
  -3  -6 -13   -0.10    0.50
  -3  -6 -13   -0.10    0.60
  -3  -6 -13    0.00    0.60
  -3  -6 -13    0.10    1.10
  -3  -6 -13    0.20    0.60
  -4  -6 -13   89.59    5.00
  -4  -6 -13   83.79    5.60
  -4  -6 -13   84.99    3.80
  -4  -6 -13   88.69    5.60
  -4  -6 -13   84.79    3.90
  -4  -6 -13   88.19    4.00
  -4  -6 -13   89.09    3.80
  -5  -6 -13   30.30    2.00
  -5  -6 -13   32.10    3.90
  -5  -6 -13   28.40    2.90
  -5  -6 -13   30.30    2.00
  -5  -6 -13   30.70    2.00
   5   6  13   34.60    1.70
  -6  -6 -13   69.59    3.20
  -6  -6 -13   71.59    3.20
  -6  -6 -13   53.99    3.70
  -6  -6 -13   68.29    3.20
   6   6  13   72.49    2.90
  -7  -6 -13   26.80    1.60
  -7  -6 -13   27.70    1.70
   7   6  13   29.50    1.40
   7   6  13   29.20    1.50
   2  -7 -13   41.70    3.10
   2  -7 -13   40.80    2.10
   2  -7 -13   41.20    1.80
   2  -7 -13   43.10    2.30
   2  -7 -13   40.20    1.80
   2  -7 -13   39.60    1.80
  -2   7  13   40.00    1.80
   1  -7 -13   89.49    5.70
   1  -7 -13  101.79    3.70
   1  -7 -13   97.29    3.80
   1  -7 -13  110.29    4.40
   1  -7 -13   99.19    4.10
   1  -7 -13   99.09    3.70
  -1   7  13   94.99    3.70
   0  -7 -13    2.10    1.20
   0  -7 -13    0.00    1.20
   0  -7 -13    0.00    0.40
   0  -7 -13    0.60    0.60
   0  -7 -13    1.50    0.70
   0  -7 -13    0.20    0.40
   0  -7 -13    0.70    0.50
   0   7  13    0.30    0.70
  -1  -7 -13   88.19    5.30
  -1  -7 -13   98.49    6.20
  -1  -7 -13   91.09    3.60
  -1  -7 -13   94.39    3.70
  -1  -7 -13   89.19    3.80
  -1  -7 -13   88.79    4.00
  -1  -7 -13   91.59    4.20
  -2  -7 -13    2.40    0.70
  -2  -7 -13    1.90    0.60
  -2  -7 -13    2.50    1.50
  -2  -7 -13    0.90    0.90
  -2  -7 -13    2.20    0.80
  -2  -7 -13    2.40    0.90
  -2  -7 -13    2.70    1.40
  -3  -7 -13    1.80    0.80
  -3  -7 -13    2.50    1.60
  -3  -7 -13    1.70    1.30
  -3  -7 -13    1.20    0.70
  -3  -7 -13    2.80    0.70
  -3  -7 -13    1.60    0.70
  -3  -7 -13    2.70    1.10
   3   7  13    1.70    0.70
  -4  -7 -13   74.39    3.40
  -4  -7 -13   74.59    5.00
  -4  -7 -13   73.79    3.40
  -4  -7 -13   76.09    4.30
  -4  -7 -13   84.29    5.10
  -4  -7 -13   70.89    3.30
   4   7  13   76.69    3.10
  -5  -7 -13   47.70    2.40
  -5  -7 -13   45.20    2.40
  -5  -7 -13   43.30    3.80
  -5  -7 -13   47.30    3.20
   5   7  13   47.20    2.10
  -6  -7 -13   66.09    2.90
  -6  -7 -13   63.69    3.70
   6   7  13   64.09    2.50
   6   7  13   68.99    2.70
  -7  -7 -13    8.00    0.80
   7   7  13    8.00    0.70
   1  -8 -13   13.70    0.90
   1  -8 -13   13.10    0.90
   1  -8 -13   13.90    1.20
   1  -8 -13   14.50    0.90
   1  -8 -13   13.40    1.00
   1  -8 -13   15.90    2.10
  -1   8  13   13.70    0.90
   0  -8 -13  112.09    5.70
   0  -8 -13   86.89    3.30
   0  -8 -13   88.99    3.70
   0  -8 -13   91.19    3.60
   0  -8 -13   84.29    3.40
   0  -8 -13   89.79    4.60
   0  -8 -13   81.79    3.30
   0   8  13   80.39    3.20
  -1  -8 -13    0.80    0.60
  -1  -8 -13   -0.20    1.00
  -1  -8 -13   -0.70    0.80
  -1  -8 -13    0.50    0.50
  -1  -8 -13    0.20    0.50
  -1  -8 -13    1.00    0.50
  -2  -8 -13    3.40    0.70
  -2  -8 -13    2.90    1.00
  -2  -8 -13    3.20    0.80
  -2  -8 -13    5.20    1.50
  -2  -8 -13    3.00    0.80
  -2  -8 -13    3.90    1.60
   2   8  13    3.10    0.60
  -3  -8 -13   96.49    3.90
  -3  -8 -13   95.89    3.90
  -3  -8 -13   99.09    5.80
  -3  -8 -13  100.39    5.60
  -3  -8 -13  104.49    4.80
   3   8  13   96.49    3.60
  -4  -8 -13   40.20    2.10
  -4  -8 -13   43.20    2.20
  -4  -8 -13   42.40    3.50
  -4  -8 -13   39.60    2.80
   4   8  13   45.00    2.00
  -5  -8 -13    4.30    1.10
  -5  -8 -13    2.90    1.40
  -5  -8 -13    4.80    0.70
   5   8  13    3.30    0.50
   5   8  13    4.20    0.60
  -6  -8 -13   26.20    1.50
  -6  -8 -13   26.50    2.10
   6   8  13   27.40    1.30
   6   8  13   29.30    1.30
   0  -9 -13    2.80    1.10
   0  -9 -13    2.50    0.90
   0  -9 -13    2.70    0.40
   0   9  13    1.70    0.40
  -1  -9 -13   52.39    3.50
  -1  -9 -13   49.30    2.00
  -1  -9 -13   46.60    3.00
   1   9  13   43.50    1.90
  -2  -9 -13   79.79    3.50
  -2  -9 -13   81.89    4.70
  -2  -9 -13   70.79    2.90
  -2  -9 -13   77.49    4.30
   2   9  13   76.49    2.90
  -3  -9 -13   41.40    2.50
  -3  -9 -13   41.80    3.10
  -3  -9 -13   39.20    1.90
  -3  -9 -13   46.50    4.20
   3   9  13   40.80    1.70
   3   9  13   43.60    1.90
  -4  -9 -13    0.30    0.60
  -4  -9 -13    1.00    1.00
   4   9  13    1.50    0.40
   4   9  13    0.90    0.40
  -5  -9 -13    7.00    0.70
  -5  -9 -13    8.50    1.20
   5   9  13    8.50    0.70
   5   9  13    9.60    0.70
   2   7 -14    0.20    0.30
   2   7 -14    0.50    0.40
   2   7 -14    0.70    0.40
   2   7 -14    0.40    0.30
   1   7 -14   14.40    1.00
   1   7 -14   13.60    0.80
   1   7 -14   15.80    1.10
   1   7 -14   14.20    0.90
   1   7 -14   15.70    1.00
   0   7 -14   59.29    2.30
   0   7 -14   62.19    2.40
   0   7 -14   55.29    2.10
   0   7 -14   56.39    2.20
   0   7 -14   59.69    2.50
   0   7 -14   52.59    2.50
   3   6 -14   -0.40    0.30
   3   6 -14    0.10    0.30
   3   6 -14    0.40    0.40
   3   6 -14    0.00    0.30
   3   6 -14    0.10    0.30
   2   6 -14   48.20    2.00
   2   6 -14   47.70    2.20
   2   6 -14   48.00    2.00
   2   6 -14   51.79    2.10
   2   6 -14   47.10    2.40
   2   6 -14   46.20    2.10
   1   6 -14   92.99    3.90
   1   6 -14   96.89    3.70
   1   6 -14  100.59    3.40
   1   6 -14   85.89    3.90
   1   6 -14   94.29    3.70
   1   6 -14   97.59    3.60
   0   6 -14    2.50    0.80
   0   6 -14    1.20    0.50
   0   6 -14    2.10    0.60
   0   6 -14    0.90    0.50
   0   6 -14    2.30    0.60
   0   6 -14    1.80    0.70
  -1   6 -14   40.90    1.90
  -1   6 -14   39.80    2.40
  -1   6 -14   40.80    2.00
  -1   6 -14   40.60    2.20
  -1   6 -14   41.70    2.10
  -1   6 -14   38.10    1.70
  -2   6 -14   11.20    1.10
  -2   6 -14   11.60    1.00
  -2   6 -14   13.00    1.10
  -2   6 -14   12.70    1.40
  -2   6 -14   11.30    0.90
   4   5 -14   30.70    1.50
   4   5 -14   32.00    1.40
   4   5 -14   30.00    1.40
   4   5 -14   31.40    1.50
   3   5 -14  153.98    5.40
   3   5 -14  149.49    5.50
   3   5 -14  147.89    5.10
   3   5 -14  154.58    5.20
   3   5 -14  154.18    5.20
   2   5 -14  178.58    6.20
   2   5 -14  174.88    6.30
   2   5 -14  178.58    6.60
   2   5 -14  184.88    6.40
   2   5 -14  181.18    6.10
   2   5 -14  178.58    6.00
   1   5 -14    6.70    1.20
   1   5 -14   11.70    1.30
   1   5 -14   11.60    1.10
   1   5 -14   11.40    1.30
   1   5 -14   10.60    1.30
   1   5 -14   13.40    1.10
   0   5 -14    1.90    0.50
   0   5 -14    2.50    0.70
   0   5 -14    2.30    0.90
   0   5 -14    2.10    0.70
   0   5 -14    1.90    0.80
   0   5 -14    2.10    0.60
  -1   5 -14    0.30    0.70
  -1   5 -14    0.80    0.50
  -1   5 -14    0.90    0.70
  -1   5 -14    0.60    0.60
  -1   5 -14    0.80    0.50
  -1   5 -14    1.20    0.70
  -1   5 -14    0.80    1.00
  -2   5 -14   57.39    2.90
  -2   5 -14   53.29    3.40
  -2   5 -14   59.89    3.30
  -2   5 -14   59.49    2.70
  -2   5 -14   60.69    2.80
  -2   5 -14   54.29    2.50
  -3   5 -14   30.90    1.60
  -3   5 -14   32.00    2.10
  -3   5 -14   31.90    1.80
  -3   5 -14   33.10    1.90
  -3   5 -14   30.50    2.40
  -3   5 -14   31.70    1.70
   3  -5  14   31.70    2.10
   5   4 -14   62.59    2.20
   5   4 -14   63.09    2.30
   5   4 -14   61.89    2.30
   5   4 -14   59.99    2.20
   4   4 -14   92.89    3.30
   4   4 -14   89.49    3.30
   4   4 -14   88.89    3.20
   4   4 -14   86.79    3.40
   4   4 -14   93.99    3.40
   3   4 -14  126.99    4.60
   3   4 -14  130.49    4.70
   3   4 -14  127.99    4.50
   3   4 -14  129.29    4.80
   2   4 -14   14.60    1.10
   2   4 -14   13.30    1.20
   2   4 -14   16.60    1.50
   2   4 -14   14.30    1.70
   2   4 -14   14.90    1.50
   1   4 -14   60.49    3.20
   1   4 -14   66.39    2.80
   1   4 -14   62.89    2.60
   1   4 -14   67.79    3.10
   1   4 -14   59.39    2.90
   0   4 -14   13.00    1.90
   0   4 -14   12.80    1.60
   0   4 -14   13.00    1.30
   0   4 -14   12.60    1.40
   0   4 -14   12.90    1.50
   0   4 -14   12.60    1.10
  -1   4 -14   11.30    1.30
  -1   4 -14   12.80    1.40
  -1   4 -14    9.40    1.10
  -1   4 -14    8.90    1.90
  -1   4 -14    9.20    1.40
  -1   4 -14    8.90    1.60
  -2   4 -14   46.30    2.30
  -2   4 -14   47.20    3.30
  -2   4 -14   38.20    3.40
  -2   4 -14   47.70    2.60
  -2   4 -14   44.50    3.70
  -2   4 -14   46.70    2.70
  -2   4 -14   46.90    2.50
  -3   4 -14    1.70    1.30
  -3   4 -14   -0.10    1.30
  -3   4 -14    3.60    0.90
  -3   4 -14    3.20    0.70
  -3   4 -14    2.50    0.80
  -3   4 -14    3.50    0.90
  -3   4 -14    3.00    1.10
  -4   4 -14   72.49    2.90
  -4   4 -14   73.99    3.40
  -4   4 -14   67.59    2.90
  -4   4 -14   76.19    3.20
  -4   4 -14   74.19    3.90
  -4   4 -14   73.19    3.20
   4  -4  14   77.99    3.70
   5   3 -14    0.30    0.30
   5   3 -14    1.30    0.40
   5   3 -14    0.80    0.40
   5   3 -14    1.20    0.30
   5   3 -14   -0.10    0.30
   4   3 -14   54.99    2.20
   4   3 -14   53.69    2.30
   4   3 -14   56.19    2.30
   4   3 -14   53.49    2.30
   3   3 -14  207.68    6.90
   3   3 -14  204.88    6.70
   3   3 -14  197.58    7.90
   3   3 -14  200.78    6.80
   2   3 -14   35.50    1.80
   2   3 -14   39.20    2.20
   2   3 -14   37.20    1.90
   1   3 -14   43.40    2.60
   1   3 -14   46.00    2.20
   1   3 -14   43.80    2.40
   1   3 -14   47.70    2.50
   0   3 -14  103.99    4.50
   0   3 -14  107.29    5.00
   0   3 -14  105.09    4.70
   0   3 -14  105.49    4.10
   0   3 -14  105.69    4.40
  -1   3 -14   43.80    2.50
  -1   3 -14   42.50    2.90
  -1   3 -14   46.60    2.30
  -1   3 -14   43.90    2.70
  -1   3 -14   39.20    3.20
  -1   3 -14   43.60    2.50
  -2   3 -14   94.19    4.10
  -2   3 -14   89.69    6.00
  -2   3 -14   86.89    4.10
  -2   3 -14   88.39    5.10
  -2   3 -14   92.99    4.40
  -2   3 -14   90.09    3.80
  -2   3 -14   98.29    4.70
  -3   3 -14  256.07    9.50
  -3   3 -14  301.77   11.20
  -3   3 -14  261.47    9.30
  -3   3 -14  288.17   10.40
  -3   3 -14  293.17   11.80
  -3   3 -14  274.37    9.80
  -3   3 -14  274.47   10.00
  -4   3 -14   11.20    1.30
  -4   3 -14   10.80    1.10
  -4   3 -14    9.90    1.30
  -4   3 -14    9.80    1.20
  -4   3 -14   10.80    2.10
  -4   3 -14    9.00    1.50
  -4   3 -14    7.20    2.00
  -5   3 -14   43.70    2.20
  -5   3 -14   35.60    1.80
  -5   3 -14   41.40    2.70
  -5   3 -14   41.00    2.10
   5  -3  14   43.20    1.90
   5  -3  14   44.10    2.60
   5   2 -14   62.69    2.40
   5   2 -14   63.49    2.40
   5   2 -14   62.99    2.30
   5   2 -14   60.79    2.40
   4   2 -14  146.89    5.10
   4   2 -14  142.59    4.90
   4   2 -14  140.59    5.00
   4   2 -14  146.59    4.90
   3   2 -14   94.99    3.60
   3   2 -14   92.79    3.50
   3   2 -14   88.99    3.40
   1   2 -14  246.68    9.00
   0   2 -14    3.30    1.00
   0   2 -14    2.90    0.90
   0   2 -14    4.50    0.90
   0   2 -14    4.10    0.90
  -1   2 -14  242.38    9.80
  -1   2 -14  267.17    9.10
  -1   2 -14  250.87    9.40
  -1   2 -14  261.77    9.00
  -2   2 -14  160.38    7.40
  -2   2 -14  153.48    6.10
  -2   2 -14  145.59    5.90
  -2   2 -14  162.98    6.70
  -2   2 -14  152.78    6.40
  -2   2 -14  155.08    7.00
  -3   2 -14  124.09    5.00
  -3   2 -14  139.89    5.80
  -3   2 -14  132.59    7.10
  -3   2 -14  135.29    5.30
  -3   2 -14  128.49    5.60
  -3   2 -14  133.69    5.90
  -3   2 -14  143.49    6.50
  -3   2 -14  136.69    5.60
  -4   2 -14  202.68    7.10
  -4   2 -14  184.78    8.50
  -4   2 -14  191.58    9.60
  -4   2 -14  195.58    7.80
  -4   2 -14  218.68    7.80
  -4   2 -14  229.38    7.70
  -4   2 -14  200.78    7.30
  -4   2 -14  206.78    7.90
  -5   2 -14   48.40    2.30
  -5   2 -14   55.49    2.80
  -5   2 -14   50.39    2.90
  -5   2 -14   51.39    3.60
  -5   2 -14   52.99    2.40
  -5   2 -14   53.99    4.00
  -5   2 -14   52.79    2.70
   5  -2  14   52.59    2.50
  -6   2 -14   48.90    2.20
  -6   2 -14   49.10    2.20
   6  -2  14   46.90    2.60
   6  -2  14   49.00    2.10
   5   1 -14   36.20    1.60
   5   1 -14   38.10    1.60
   5   1 -14   36.90    1.70
   5   1 -14   35.60    1.60
   5   1 -14   36.80    1.50
   4   1 -14   36.80    1.80
   4   1 -14   38.10    1.70
   4   1 -14   36.50    1.80
   4   1 -14   39.50    1.70
   4   1 -14   32.50    1.70
   3   1 -14   12.40    1.10
   3   1 -14   12.90    1.00
   3   1 -14   12.60    1.20
   0   1 -14    9.10    1.20
   0   1 -14    7.50    1.30
  -1   1 -14 1104.29   33.60
  -1   1 -14 1117.99   34.10
  -1   1 -14 1041.00   33.20
  -1   1 -14 1064.89   33.20
  -1   1 -14 1032.80   34.50
  -1   1 -14 1051.49   34.60
  -2   1 -14  363.66   13.50
  -2   1 -14  354.46   13.30
  -2   1 -14  353.16   12.40
  -2   1 -14  366.16   12.10
  -2   1 -14  348.37   12.00
  -2   1 -14  363.56   12.20
  -2   1 -14  343.07   12.80
  -3   1 -14  239.98    9.90
  -3   1 -14  229.78    8.40
  -3   1 -14  238.08    9.50
  -3   1 -14  230.28    8.70
  -3   1 -14  234.08    8.50
  -3   1 -14  219.28    8.40
  -3   1 -14  224.48    9.00
  -4   1 -14  111.09    5.00
  -4   1 -14  108.19    5.10
  -4   1 -14  118.29    4.80
  -4   1 -14  103.79    4.50
  -4   1 -14  110.19    5.50
  -4   1 -14  110.59    6.30
  -4   1 -14  113.59    5.20
  -5   1 -14   26.30    2.00
  -5   1 -14   27.30    1.70
  -5   1 -14   26.20    1.90
  -5   1 -14   19.50    3.20
  -5   1 -14   25.60    2.00
  -5   1 -14   19.20    2.40
  -5   1 -14   23.10    2.20
  -6   1 -14   20.80    2.50
  -6   1 -14   23.90    1.70
  -6   1 -14   23.20    1.60
   6  -1  14   26.50    1.60
   5   0 -14    0.00    0.30
   5   0 -14    0.40    0.40
   5   0 -14    1.00    0.40
   5   0 -14   -0.30    0.30
   4   0 -14   21.60    1.30
   4   0 -14   23.70    1.30
   4   0 -14   23.70    1.40
   4   0 -14   24.60    1.40
   3   0 -14    9.10    0.90
   3   0 -14    6.70    0.90
   3   0 -14    8.50    0.90
   3   0 -14    7.50    0.80
  -1   0 -14  254.77    9.30
  -1   0 -14  217.58    9.90
  -1   0 -14  222.38    8.10
  -1   0 -14  237.28    8.40
  -1   0 -14  221.68    9.70
  -2   0 -14  469.65   16.40
  -2   0 -14  497.15   17.30
  -2   0 -14  449.46   17.00
  -2   0 -14  464.55   15.60
  -2   0 -14  448.86   15.30
  -2   0 -14  451.15   15.30
  -3   0 -14  177.98    7.60
  -3   0 -14  174.68    8.00
  -3   0 -14  165.48    6.50
  -3   0 -14  158.68    6.40
  -3   0 -14  167.88    7.80
  -3   0 -14  166.38    6.50
  -3   0 -14  177.98    6.90
  -4   0 -14    2.00    1.10
  -4   0 -14    2.30    0.90
  -4   0 -14    3.20    1.00
  -4   0 -14    2.30    1.20
  -4   0 -14    2.00    0.90
  -4   0 -14    2.10    1.00
  -5   0 -14  185.78    6.90
  -5   0 -14  190.68    7.20
  -5   0 -14  170.48    8.40
  -5   0 -14  186.78    7.20
  -5   0 -14  176.68    6.70
  -5   0 -14  175.48    7.50
  -5   0 -14  184.18    7.30
   5   0  14  183.98    6.50
  -6   0 -14   65.89    4.20
  -6   0 -14   66.69    2.80
  -6   0 -14   65.59    3.00
  -6   0 -14   66.99    3.30
   6   0  14   61.19    2.70
  -7   0 -14   11.20    1.00
  -7   0 -14   11.60    1.00
   7   0  14   10.90    0.90
   5  -1 -14    7.20    0.70
   5  -1 -14    7.70    0.80
   5  -1 -14    6.40    0.60
   5  -1 -14    6.70    0.60
   5  -1 -14    8.10    0.70
   4  -1 -14   33.80    1.60
   4  -1 -14   33.10    1.70
   4  -1 -14   33.90    1.70
   4  -1 -14   34.70    1.60
   4  -1 -14   33.40    1.80
   3  -1 -14   61.19    2.80
   3  -1 -14   62.19    2.60
   3  -1 -14   65.39    2.60
   3  -1 -14   61.79    2.60
   2  -1 -14   12.40    1.10
   2  -1 -14   12.20    1.30
   2  -1 -14   12.10    1.00
   0  -1 -14   17.00    3.00
   0  -1 -14   16.60    1.90
  -1  -1 -14  103.89    5.20
  -1  -1 -14   77.29    5.50
  -1  -1 -14   81.29    3.90
  -1  -1 -14   81.59    5.40
  -1  -1 -14   84.79    4.00
  -1  -1 -14   90.29    3.80
  -2  -1 -14   47.20    3.60
  -2  -1 -14   43.50    2.70
  -2  -1 -14   45.80    4.00
  -2  -1 -14   47.60    2.60
  -2  -1 -14   48.60    2.90
  -2  -1 -14   48.80    2.70
  -2  -1 -14   44.40    3.70
  -3  -1 -14  123.29    5.10
  -3  -1 -14  119.79    5.00
  -3  -1 -14  110.29    5.20
  -3  -1 -14  121.09    4.90
  -3  -1 -14  118.09    6.40
  -3  -1 -14  118.99    6.30
  -3  -1 -14  107.19    6.80
  -4  -1 -14   68.29    4.20
  -4  -1 -14   61.19    3.20
  -4  -1 -14   64.89    3.40
  -4  -1 -14   70.49    3.80
  -4  -1 -14   72.39    4.50
  -4  -1 -14   60.89    3.50
  -4  -1 -14   71.39    4.40
  -4  -1 -14   69.39    3.50
  -5  -1 -14   79.19    4.10
  -5  -1 -14   75.89    3.70
  -5  -1 -14   78.19    4.30
  -5  -1 -14   76.89    4.20
  -5  -1 -14   77.39    3.60
  -5  -1 -14   73.79    4.60
  -5  -1 -14   81.59    4.00
  -6  -1 -14  128.09    5.00
  -6  -1 -14  128.19    5.10
  -6  -1 -14  136.59    5.50
  -6  -1 -14  138.99    5.50
   6   1  14  131.09    4.90
  -7  -1 -14    3.60    0.70
  -7  -1 -14    2.10    0.70
   7   1  14    2.90    0.60
   7   1  14    2.10    0.50
   5  -2 -14  222.88    7.10
   5  -2 -14  225.58    7.10
   5  -2 -14  224.18    7.10
   5  -2 -14  226.68    7.10
   5  -2 -14  211.48    7.20
   4  -2 -14    6.70    0.70
   4  -2 -14    7.00    0.80
   4  -2 -14    6.60    0.80
   4  -2 -14    7.20    0.90
   4  -2 -14    5.90    1.00
   4  -2 -14    5.80    0.70
   3  -2 -14    5.30    1.00
   3  -2 -14    4.40    0.80
   3  -2 -14    3.90    0.70
   3  -2 -14    4.20    0.70
   3  -2 -14    4.30    0.70
   2  -2 -14   15.40    1.20
   2  -2 -14   14.20    1.20
   2  -2 -14   14.80    1.70
   2  -2 -14   14.80    1.20
   2  -2 -14   14.40    1.40
   1  -2 -14  100.09    4.00
   1  -2 -14   96.59    3.70
   1  -2 -14   91.69    4.40
   1  -2 -14   96.79    4.40
   0  -2 -14  471.45   18.90
   0  -2 -14  480.45   18.40
   0  -2 -14  460.55   15.20
   0  -2 -14  486.75   15.70
   0  -2 -14  466.45   15.90
  -1  -2 -14  201.18    7.80
  -1  -2 -14  231.68    8.90
  -1  -2 -14  200.98    7.70
  -1  -2 -14  202.88    7.20
  -1  -2 -14  192.58   10.10
  -1  -2 -14  201.38    9.90
  -2  -2 -14    1.70    0.80
  -2  -2 -14    0.00    1.30
  -2  -2 -14    1.70    1.50
  -2  -2 -14    0.20    1.00
  -2  -2 -14    2.50    0.90
  -2  -2 -14    1.80    0.80
  -3  -2 -14  139.29    5.90
  -3  -2 -14  137.09    7.70
  -3  -2 -14  141.69    5.80
  -3  -2 -14  134.59    6.80
  -3  -2 -14  146.89    7.50
  -3  -2 -14  140.59    5.80
  -3  -2 -14  146.99    5.80
  -4  -2 -14  218.88    8.00
  -4  -2 -14  224.58    8.30
  -4  -2 -14  213.98   10.10
  -4  -2 -14  213.48    9.50
  -4  -2 -14  221.18    8.20
  -4  -2 -14  229.78    8.50
  -4  -2 -14  223.98    9.70
  -5  -2 -14  307.27   11.40
  -5  -2 -14  272.97   10.20
  -5  -2 -14  291.67   10.30
  -5  -2 -14  283.97   10.20
  -5  -2 -14  275.27   11.20
  -5  -2 -14  303.87   11.30
  -5  -2 -14  298.57   10.60
  -6  -2 -14    1.90    0.70
  -6  -2 -14   -0.90    1.20
  -6  -2 -14   -0.20    0.70
  -6  -2 -14    0.40    0.60
  -6  -2 -14    0.50    0.80
  -6  -2 -14   -0.10    0.70
   6   2  14    0.50    0.50
  -7  -2 -14   17.40    1.20
  -7  -2 -14   20.10    1.60
  -7  -2 -14   16.90    1.30
   7   2  14   20.90    1.20
   7   2  14   19.40    1.20
   4  -3 -14    2.30    0.50
   4  -3 -14    1.80    0.50
   4  -3 -14    1.70    0.50
   4  -3 -14    2.00    0.50
   4  -3 -14    1.30    0.60
   4  -3 -14    2.60    0.50
   3  -3 -14  340.87   12.10
   3  -3 -14  342.27   11.90
   3  -3 -14  363.56   11.40
   3  -3 -14  360.16   11.60
   3  -3 -14  366.36   11.40
   3  -3 -14  355.06   11.30
   2  -3 -14   29.00    1.80
   2  -3 -14   25.90    1.60
   2  -3 -14   27.10    1.50
   2  -3 -14   23.30    2.30
   2  -3 -14   25.50    2.00
   2  -3 -14   27.50    1.60
   1  -3 -14    8.10    1.30
   1  -3 -14    1.50    0.80
   1  -3 -14    3.10    0.60
   1  -3 -14    2.20    1.80
   1  -3 -14    2.90    0.70
   1  -3 -14    2.90    0.70
   0  -3 -14  490.65   16.40
   0  -3 -14  428.96   19.10
   0  -3 -14  485.65   16.50
   0  -3 -14  516.85   18.90
   0  -3 -14  511.05   15.90
   0  -3 -14  507.05   15.50
  -1  -3 -14  295.67    9.70
  -1  -3 -14  299.17   10.30
  -1  -3 -14  299.27   10.60
  -1  -3 -14  307.07    9.90
  -1  -3 -14  294.87   12.90
  -1  -3 -14  234.98   12.60
  -2  -3 -14  441.76   14.50
  -2  -3 -14  423.16   17.80
  -2  -3 -14  475.65   16.80
  -2  -3 -14  456.25   14.80
  -2  -3 -14  450.65   15.00
  -2  -3 -14  447.76   15.00
  -2  -3 -14  432.66   17.70
  -3  -3 -14   35.90    2.10
  -3  -3 -14   35.60    3.30
  -3  -3 -14   35.70    2.30
  -3  -3 -14   39.70    2.50
  -3  -3 -14   35.60    2.40
  -3  -3 -14   35.40    4.60
  -3  -3 -14   35.40    3.70
  -4  -3 -14  103.39    5.50
  -4  -3 -14   94.89    4.40
  -4  -3 -14   96.19    4.30
  -4  -3 -14   91.49    6.00
  -4  -3 -14   95.49    4.60
  -4  -3 -14   98.49    5.70
  -4  -3 -14   98.29    4.30
  -5  -3 -14   20.00    1.80
  -5  -3 -14   21.10    2.80
  -5  -3 -14   21.10    2.10
  -5  -3 -14   22.00    1.70
  -5  -3 -14   22.20    2.30
  -5  -3 -14   19.10    1.80
  -5  -3 -14   17.30    2.50
   5   3  14   22.40    1.40
  -6  -3 -14   30.40    2.30
  -6  -3 -14   28.10    2.00
  -6  -3 -14   27.40    2.30
  -6  -3 -14   30.60    2.10
   6   3  14   33.10    1.90
  -7  -3 -14  308.67   10.40
  -7  -3 -14  297.77   10.00
   7   3  14  320.17   10.00
   4  -4 -14  658.63   19.90
   4  -4 -14  636.64   19.90
   4  -4 -14  671.23   20.10
   4  -4 -14  611.24   20.30
   4  -4 -14  683.43   19.90
   3  -4 -14    2.70    0.60
   3  -4 -14    4.10    0.60
   3  -4 -14    2.60    0.60
   3  -4 -14    3.60    0.80
   3  -4 -14    4.20    1.00
   3  -4 -14    3.10    0.60
   2  -4 -14   22.40    2.20
   2  -4 -14   22.00    1.80
   2  -4 -14   22.40    1.40
   2  -4 -14   23.60    1.40
   2  -4 -14   22.90    1.40
   2  -4 -14   23.80    1.60
   1  -4 -14   60.19    3.20
   1  -4 -14   56.39    3.40
   1  -4 -14   62.09    2.90
   1  -4 -14   65.49    2.70
   1  -4 -14   58.19    5.00
   1  -4 -14   63.49    2.70
   0  -4 -14  279.37    9.60
   0  -4 -14  272.77   11.60
   0  -4 -14  232.18    9.30
   0  -4 -14  261.57    8.60
   0  -4 -14  270.67    9.00
   0  -4 -14  231.68   11.90
   0  -4 -14  259.27    8.50
  -1  -4 -14  310.17   11.30
  -1  -4 -14  254.57   12.80
  -1  -4 -14  268.97   10.10
  -1  -4 -14  278.97   10.00
  -1  -4 -14  287.17   12.40
  -1  -4 -14  282.97    9.30
  -1  -4 -14  271.17    9.50
  -2  -4 -14    0.70    0.80
  -2  -4 -14    1.00    0.60
  -2  -4 -14   -0.10    1.30
  -2  -4 -14    0.80    1.20
  -2  -4 -14    0.50    0.70
  -2  -4 -14    0.90    1.40
  -2  -4 -14    1.50    0.70
  -3  -4 -14    1.90    0.70
  -3  -4 -14    1.20    1.60
  -3  -4 -14    2.00    0.80
  -3  -4 -14    2.30    1.30
  -3  -4 -14    0.70    0.80
  -3  -4 -14    2.60    0.80
  -3  -4 -14    1.20    1.30
  -4  -4 -14    4.70    1.50
  -4  -4 -14    4.10    1.00
  -4  -4 -14    5.30    1.00
  -4  -4 -14    3.10    0.90
  -4  -4 -14    4.70    1.70
  -4  -4 -14    4.10    2.00
  -4  -4 -14    3.50    0.80
  -5  -4 -14  200.88    7.20
  -5  -4 -14  194.38    8.30
  -5  -4 -14  187.58    7.40
  -5  -4 -14  197.48    7.20
  -5  -4 -14  184.18    7.10
  -5  -4 -14  200.18    9.00
  -5  -4 -14  183.78    8.20
  -6  -4 -14  233.48    8.10
  -6  -4 -14  219.88    7.90
  -6  -4 -14  226.48    8.20
  -6  -4 -14  240.68    8.00
  -6  -4 -14  190.58    8.60
   6   4  14  226.38    7.50
  -7  -4 -14   35.10    1.90
  -7  -4 -14   35.60    2.10
   7   4  14   37.00    1.60
   7   4  14   37.80    1.80
   3  -5 -14  112.99    3.90
   3  -5 -14  107.59    4.40
   3  -5 -14  112.89    4.00
   3  -5 -14  104.79    4.30
   3  -5 -14  106.99    3.90
   3  -5 -14  110.79    3.90
   2  -5 -14   76.39    3.80
   2  -5 -14   87.89    3.30
   2  -5 -14   76.59    5.20
   2  -5 -14   79.59    3.20
   2  -5 -14   85.29    3.80
   2  -5 -14   85.49    3.40
   2  -5 -14   81.69    3.20
   1  -5 -14   77.19    3.10
   1  -5 -14   78.69    5.60
   1  -5 -14   78.79    3.80
   1  -5 -14   75.29    3.90
   1  -5 -14   73.39    3.30
   1  -5 -14   78.39    3.20
   0  -5 -14    9.10    1.20
   0  -5 -14    8.10    1.40
   0  -5 -14    7.70    1.40
   0  -5 -14    8.70    2.40
   0  -5 -14    9.40    1.00
   0  -5 -14   11.30    2.40
   0  -5 -14   10.10    1.10
  -1  -5 -14  125.59    5.20
  -1  -5 -14  128.79    5.40
  -1  -5 -14  127.39    4.90
  -1  -5 -14  105.29    7.20
  -1  -5 -14  116.09    6.90
  -1  -5 -14  128.49    4.70
  -1  -5 -14  120.49    4.50
  -2  -5 -14   88.39    3.90
  -2  -5 -14   83.19    6.30
  -2  -5 -14   90.09    3.60
  -2  -5 -14   90.99    4.30
  -2  -5 -14   85.29    5.80
  -2  -5 -14   96.89    5.10
  -2  -5 -14   83.89    4.20
  -3  -5 -14   16.40    1.40
  -3  -5 -14   17.00    3.00
  -3  -5 -14   22.60    1.80
  -3  -5 -14   18.70    1.90
  -3  -5 -14   21.60    1.60
  -3  -5 -14   21.20    1.90
  -3  -5 -14   18.60    2.40
  -3  -5 -14   18.00    3.10
  -4  -5 -14  250.37   12.40
  -4  -5 -14  301.07   10.00
  -4  -5 -14  274.67   11.50
  -4  -5 -14  296.77   10.00
  -4  -5 -14  284.87    9.90
  -4  -5 -14  280.97    9.70
  -4  -5 -14  286.07   12.10
   4   5  14  286.27    9.50
  -5  -5 -14   47.20    2.60
  -5  -5 -14   45.90    3.30
  -5  -5 -14   55.09    4.10
  -5  -5 -14   49.10    3.40
  -5  -5 -14   44.00    2.50
  -5  -5 -14   44.80    2.50
  -5  -5 -14   49.10    2.70
  -5  -5 -14   42.10    3.50
  -6  -5 -14   -0.10    0.60
  -6  -5 -14    0.70    0.60
  -6  -5 -14    0.40    0.60
  -6  -5 -14   -0.40    0.60
  -6  -5 -14    0.60    0.90
   6   5  14    0.10    0.40
  -7  -5 -14    5.00    0.80
  -7  -5 -14    4.20    0.80
   7   5  14    5.30    0.70
   7   5  14    5.40    0.60
   3  -6 -14   50.99    2.00
   3  -6 -14   52.69    2.00
   3  -6 -14   51.69    2.00
   3  -6 -14   47.30    2.20
   3  -6 -14   54.49    2.30
   2  -6 -14   36.50    1.70
   2  -6 -14   37.50    2.10
   2  -6 -14   39.30    3.30
   2  -6 -14   37.80    1.80
   2  -6 -14   37.50    1.90
   2  -6 -14   37.10    1.80
   2  -6 -14   38.00    2.20
   1  -6 -14   58.99    2.50
   1  -6 -14   62.09    4.60
   1  -6 -14   58.19    2.50
   1  -6 -14   60.89    2.60
   1  -6 -14   54.39    3.00
   1  -6 -14   61.39    2.70
   1  -6 -14   60.09    3.20
   0  -6 -14    4.00    1.50
   0  -6 -14    0.60    0.70
   0  -6 -14    0.20    1.30
   0  -6 -14    1.10    0.50
   0  -6 -14    1.10    0.50
   0  -6 -14    0.90    0.50
   0  -6 -14    0.20    0.60
  -1  -6 -14   39.40    4.10
  -1  -6 -14   33.50    2.30
  -1  -6 -14   34.90    1.90
  -1  -6 -14   39.90    3.70
  -1  -6 -14   37.70    1.90
  -1  -6 -14   36.50    2.10
  -1  -6 -14   34.00    2.30
  -2  -6 -14   19.00    2.30
  -2  -6 -14   18.40    1.50
  -2  -6 -14   16.40    2.80
  -2  -6 -14   16.60    3.20
  -2  -6 -14   15.90    1.80
  -2  -6 -14   16.50    1.80
  -3  -6 -14   49.30    2.40
  -3  -6 -14   50.69    2.90
  -3  -6 -14   38.10    3.90
  -3  -6 -14   57.19    3.70
  -3  -6 -14   50.29    2.80
  -3  -6 -14   52.59    4.30
  -3  -6 -14   55.09    2.70
  -4  -6 -14   28.00    1.90
  -4  -6 -14   27.50    1.90
  -4  -6 -14   31.40    3.20
  -4  -6 -14   21.00    3.20
  -4  -6 -14   28.30    1.90
  -4  -6 -14   30.00    3.00
  -4  -6 -14   26.50    1.90
   4   6  14   26.40    1.50
  -5  -6 -14    1.50    0.60
  -5  -6 -14    1.60    0.70
  -5  -6 -14    2.40    0.70
  -5  -6 -14    2.80    0.70
  -5  -6 -14    2.10    1.40
  -5  -6 -14    1.50    1.10
   5   6  14    2.20    0.50
  -6  -6 -14   74.09    4.20
  -6  -6 -14   80.39    3.40
  -6  -6 -14   77.19    3.30
  -6  -6 -14   77.09    4.00
   6   6  14   79.89    3.10
  -7  -6 -14   28.70    1.50
  -7  -6 -14   24.20    1.50
   7   6  14   27.60    1.40
   7   6  14   30.80    1.30
   2  -7 -14   29.10    1.70
   2  -7 -14   34.30    2.50
   2  -7 -14   29.50    1.40
   2  -7 -14   30.30    1.40
   2  -7 -14   31.30    1.40
   2  -7 -14   30.70    1.60
  -2   7  14   29.70    1.40
   1  -7 -14   83.29    4.90
   1  -7 -14   80.19    3.10
   1  -7 -14   78.79    3.00
   1  -7 -14   73.89    3.00
   1  -7 -14   81.19    3.40
   1  -7 -14   78.89    3.30
  -1   7  14   73.69    2.90
   0  -7 -14   17.20    2.40
   0  -7 -14   16.10    1.60
   0  -7 -14   14.30    1.10
   0  -7 -14   15.80    1.20
   0  -7 -14   16.80    2.70
   0  -7 -14   16.90    1.30
   0  -7 -14   15.30    1.50
  -1  -7 -14   40.70    3.40
  -1  -7 -14   45.50    4.10
  -1  -7 -14   41.30    2.20
  -1  -7 -14   43.70    2.20
  -1  -7 -14   39.30    2.50
  -1  -7 -14   43.40    2.00
  -1  -7 -14   43.80    2.50
  -2  -7 -14    4.20    1.60
  -2  -7 -14    2.70    0.70
  -2  -7 -14    3.30    0.70
  -2  -7 -14    3.20    1.60
  -2  -7 -14    2.40    0.70
  -2  -7 -14    3.30    0.90
  -2  -7 -14    3.70    1.10
   2   7  14    3.70    0.70
  -3  -7 -14    6.30    1.10
  -3  -7 -14    6.70    1.40
  -3  -7 -14    5.90    1.80
  -3  -7 -14    5.30    0.90
  -3  -7 -14    5.70    0.90
  -3  -7 -14    7.10    1.90
  -3  -7 -14    5.50    0.90
  -4  -7 -14   25.50    1.70
  -4  -7 -14   25.10    2.80
  -4  -7 -14   22.20    1.60
  -4  -7 -14   25.00    1.70
  -4  -7 -14   22.00    1.60
  -4  -7 -14   28.70    2.50
  -4  -7 -14   20.90    2.90
   4   7  14   24.40    1.40
  -5  -7 -14   95.89    3.90
  -5  -7 -14   86.49    5.30
  -5  -7 -14  100.99    4.90
  -5  -7 -14   95.69    3.90
   5   7  14  100.59    3.50
  -6  -7 -14  102.49    4.50
  -6  -7 -14   97.39    3.80
   6   7  14   99.79    3.60
   6   7  14   95.39    3.30
   1  -8 -14   99.19    3.70
   1  -8 -14   99.99    4.80
   1  -8 -14   94.69    3.30
   0  -8 -14   17.60    1.30
   0  -8 -14   17.80    1.30
   0  -8 -14   15.40    1.10
   0  -8 -14   20.80    2.60
   0  -8 -14   20.10    2.10
   0  -8 -14   18.50    1.10
  -1  -8 -14   45.30    3.30
  -1  -8 -14   51.89    2.20
  -1  -8 -14   45.60    2.30
  -1  -8 -14   48.50    2.20
  -1  -8 -14   54.89    4.00
  -1  -8 -14   47.10    2.40
   1   8  14   46.20    2.00
  -2  -8 -14   10.20    1.80
  -2  -8 -14    8.00    0.90
  -2  -8 -14    8.40    1.90
  -2  -8 -14    6.50    0.90
  -2  -8 -14    8.60    0.90
  -2  -8 -14    4.10    1.10
  -2  -8 -14    6.90    1.00
   2   8  14    7.80    0.80
  -3  -8 -14  105.79    4.30
  -3  -8 -14  126.19    6.10
  -3  -8 -14  115.29    6.00
  -3  -8 -14  116.89    5.10
  -3  -8 -14  119.79    4.40
   3   8  14  110.29    4.00
  -4  -8 -14  115.09    4.30
  -4  -8 -14  113.89    5.10
  -4  -8 -14  115.79    4.60
  -4  -8 -14  111.69    5.90
   4   8  14  111.99    4.10
  -5  -8 -14    6.60    0.80
  -5  -8 -14    6.70    1.50
  -5  -8 -14    9.10    1.40
   5   8  14    7.40    0.70
   5   8  14    7.10    0.70
  -6  -8 -14    7.10    0.70
  -6  -8 -14    7.50    1.10
   6   8  14    6.70    0.60
   6   8  14    7.50    0.60
  -1  -9 -14   15.40    1.70
  -1  -9 -14   16.50    2.00
   1   9  14   14.00    0.80
  -2  -9 -14   57.69    3.50
  -2  -9 -14   54.39    2.30
  -2  -9 -14   65.89    3.60
   2   9  14   55.19    2.20
  -3  -9 -14  123.59    5.30
  -3  -9 -14  116.69    4.80
  -3  -9 -14  125.89    5.60
  -3  -9 -14  112.49    4.10
   3   9  14  113.29    3.90
   3   9  14  121.59    4.10
  -4  -9 -14    7.40    1.10
  -4  -9 -14    8.70    1.50
   4   9  14    6.90    0.60
   4   9  14    6.70    0.60
  -5  -9 -14    0.30    0.60
   5   9  14    0.20    0.20
   2   6 -15  106.49    4.10
   2   6 -15  101.69    3.80
   2   6 -15  100.69    3.40
   2   6 -15   99.89    3.50
   2   6 -15   99.69    3.70
   1   6 -15    4.20    0.70
   1   6 -15    5.20    0.60
   1   6 -15    4.90    0.80
   1   6 -15    3.80    0.60
   1   6 -15    5.10    0.50
   0   6 -15   85.29    3.40
   0   6 -15   83.49    3.20
   0   6 -15   72.49    3.30
   0   6 -15   83.49    3.20
   0   6 -15   77.99    2.80
   0   6 -15   85.29    3.00
  -1   6 -15    1.00    0.40
  -1   6 -15    1.40    0.50
  -1   6 -15    2.70    0.60
  -1   6 -15    1.40    0.50
   3   5 -15  132.29    4.70
   3   5 -15  139.69    4.60
   3   5 -15  137.49    4.60
   3   5 -15  137.79    4.50
   2   5 -15   45.00    1.80
   2   5 -15   37.70    2.10
   2   5 -15   43.80    2.10
   2   5 -15   43.00    1.90
   1   5 -15   40.00    1.90
   1   5 -15   40.20    2.20
   1   5 -15   40.50    2.10
   1   5 -15   39.80    1.80
   1   5 -15   40.50    2.00
   0   5 -15   10.40    1.30
   0   5 -15   11.00    0.90
   0   5 -15    8.60    1.10
   0   5 -15   12.70    1.20
   0   5 -15   11.20    1.40
  -1   5 -15    1.30    0.60
  -1   5 -15   -0.30    0.80
  -1   5 -15    2.00    0.60
  -1   5 -15    0.80    0.60
  -1   5 -15   -0.10    0.40
  -1   5 -15    1.10    0.70
  -2   5 -15   10.90    1.40
  -2   5 -15   10.10    1.10
  -2   5 -15   11.00    1.10
  -2   5 -15    7.20    1.40
  -2   5 -15   10.10    1.00
  -2   5 -15    9.00    0.90
  -3   5 -15   28.70    1.50
  -3   5 -15   28.50    1.50
  -3   5 -15   22.50    1.90
  -3   5 -15   27.70    1.40
  -3   5 -15   28.80    1.80
   4   4 -15   53.39    2.10
   4   4 -15   51.39    2.00
   4   4 -15   51.69    2.00
   3   4 -15   72.59    2.70
   3   4 -15   72.69    2.80
   3   4 -15   73.89    2.90
   3   4 -15   73.59    2.80
   2   4 -15    3.60    0.80
   2   4 -15    5.30    0.70
   2   4 -15    5.20    0.70
   2   4 -15    4.40    0.80
   1   4 -15   62.79    2.90
   1   4 -15   67.89    2.80
   1   4 -15   64.39    2.60
   1   4 -15   65.99    3.20
   1   4 -15   69.79    3.00
   0   4 -15    6.00    0.90
   0   4 -15    6.10    1.00
   0   4 -15    6.30    1.00
   0   4 -15    5.50    1.20
   0   4 -15    6.30    1.10
  -1   4 -15   45.10    2.20
  -1   4 -15   44.60    2.60
  -1   4 -15   45.80    2.40
  -1   4 -15   39.90    3.30
  -1   4 -15   44.50    2.40
  -1   4 -15   41.60    2.90
  -2   4 -15   84.49    4.40
  -2   4 -15   87.49    3.70
  -2   4 -15   90.39    3.90
  -2   4 -15   73.89    4.70
  -2   4 -15   86.79    3.40
  -2   4 -15   88.79    3.70
  -3   4 -15    1.80    1.10
  -3   4 -15    4.80    0.80
  -3   4 -15    4.20    0.80
  -3   4 -15    2.30    0.70
  -3   4 -15    5.00    1.10
  -3   4 -15    3.40    0.70
  -4   4 -15   17.90    1.10
  -4   4 -15   20.10    1.30
  -4   4 -15   17.60    1.10
  -4   4 -15   16.10    1.60
  -4   4 -15   18.00    1.20
  -4   4 -15   18.50    1.40
   4  -4  15   20.50    1.50
   4   3 -15  109.89    3.80
   4   3 -15  111.59    3.90
   4   3 -15  111.79    3.80
   3   3 -15   26.50    1.50
   3   3 -15   31.00    1.50
   3   3 -15   29.10    1.40
   2   3 -15    2.00    0.60
   2   3 -15    2.10    0.60
   2   3 -15    2.60    0.60
   1   3 -15  310.47    9.80
   1   3 -15  285.77   10.00
   1   3 -15  308.07   10.40
   1   3 -15  291.07   10.10
   0   3 -15    5.70    0.90
   0   3 -15    8.70    1.20
   0   3 -15    7.00    1.30
   0   3 -15    8.50    1.30
   0   3 -15    9.50    1.20
  -1   3 -15   28.30    1.70
  -1   3 -15   25.30    1.80
  -1   3 -15   20.00    2.40
  -1   3 -15   26.70    1.90
  -1   3 -15   30.10    2.40
  -1   3 -15   29.20    2.10
  -2   3 -15   48.10    2.80
  -2   3 -15   48.90    3.50
  -2   3 -15   37.30    3.90
  -2   3 -15   48.80    3.10
  -2   3 -15   47.20    2.30
  -2   3 -15   48.90    2.60
  -2   3 -15   46.90    2.60
  -3   3 -15  163.68    6.20
  -3   3 -15  176.88    6.50
  -3   3 -15  167.08    6.10
  -3   3 -15  154.98    7.70
  -3   3 -15  156.78    7.40
  -3   3 -15  171.78    6.80
  -3   3 -15  163.58    5.80
  -4   3 -15   68.49    3.10
  -4   3 -15   70.69    3.20
  -4   3 -15   60.49    4.20
  -4   3 -15   71.19    2.90
  -4   3 -15   63.69    4.10
  -4   3 -15   65.89    2.70
  -4   3 -15   75.49    3.60
  -5   3 -15    4.60    1.00
  -5   3 -15    5.20    0.70
  -5   3 -15    5.00    0.70
   5  -3  15    5.60    1.00
   5   2 -15    3.00    0.50
   5   2 -15    3.60    0.50
   4   2 -15  103.59    3.70
   4   2 -15  101.49    3.60
   4   2 -15  106.09    3.70
   0   2 -15   41.80    2.50
   0   2 -15   41.80    2.30
   0   2 -15   39.80    2.30
   0   2 -15   35.90    2.60
  -1   2 -15  716.73   21.90
  -1   2 -15  669.63   22.80
  -1   2 -15  678.93   22.50
  -1   2 -15  706.33   22.30
  -1   2 -15  662.13   21.80
  -2   2 -15    2.80    1.10
  -2   2 -15    2.40    0.90
  -2   2 -15    2.80    1.50
  -2   2 -15    2.10    0.90
  -2   2 -15    1.50    0.70
  -2   2 -15    2.60    0.80
  -3   2 -15  135.79    7.40
  -3   2 -15  140.79    5.60
  -3   2 -15  143.79    5.50
  -3   2 -15  140.09    6.60
  -3   2 -15  148.99    6.20
  -3   2 -15  139.59    5.90
  -4   2 -15   61.89    3.90
  -4   2 -15   62.19    3.30
  -4   2 -15   60.49    3.10
  -4   2 -15   70.79    4.80
  -4   2 -15   61.99    3.40
  -4   2 -15   62.39    2.90
  -5   2 -15  238.18    8.50
  -5   2 -15  209.08    9.00
  -5   2 -15  212.48    9.50
  -5   2 -15  258.97    8.40
  -5   2 -15  246.48    7.90
  -5   2 -15  249.28    8.20
   5  -2  15  257.17    8.00
   5   1 -15   36.70    1.50
   5   1 -15   35.20    1.50
   5   1 -15   36.00    1.50
   4   1 -15   17.10    1.10
   4   1 -15   17.80    1.10
   4   1 -15   18.40    1.10
   0   1 -15  281.37   11.50
   0   1 -15  349.77   10.90
  -1   1 -15   30.80    2.70
  -1   1 -15   32.50    2.30
  -1   1 -15   30.90    2.00
  -1   1 -15   35.00    2.50
  -1   1 -15   30.30    2.60
  -2   1 -15  106.99    5.60
  -2   1 -15  115.19    5.30
  -2   1 -15  113.39    5.10
  -2   1 -15  115.39    5.90
  -2   1 -15  115.99    4.80
  -2   1 -15  116.49    4.70
  -3   1 -15   29.20    2.60
  -3   1 -15   26.40    2.40
  -3   1 -15   26.20    1.90
  -3   1 -15   28.20    2.20
  -3   1 -15   26.60    2.10
  -3   1 -15   27.10    2.20
  -3   1 -15   29.20    2.80
  -4   1 -15  402.86   13.60
  -4   1 -15  386.36   13.40
  -4   1 -15  410.96   15.60
  -4   1 -15  423.86   14.70
  -4   1 -15  401.26   13.90
  -4   1 -15  427.76   14.10
  -4   1 -15  415.66   14.20
  -5   1 -15   15.20    1.90
  -5   1 -15   17.20    2.70
  -5   1 -15   14.00    1.50
  -5   1 -15   15.50    1.30
  -5   1 -15   14.50    1.40
  -5   1 -15   13.00    1.50
  -6   1 -15    1.70    0.60
  -6   1 -15    0.70    1.00
  -6   1 -15    0.60    0.50
   6  -1  15    1.30    0.50
   5   0 -15    6.20    0.50
   5   0 -15    4.70    0.50
   5   0 -15    5.40    0.60
   5   0 -15    6.90    0.60
   4   0 -15    1.10    0.40
   4   0 -15    0.20    0.40
   4   0 -15    0.90    0.40
   4   0 -15    1.00    0.50
   3   0 -15    6.10    0.70
   3   0 -15    5.80    0.70
  -1   0 -15   51.79    3.90
  -1   0 -15   58.29    3.90
  -1   0 -15   57.19    2.80
  -1   0 -15   56.89    3.50
  -2   0 -15  212.68    8.70
  -2   0 -15  210.48    7.80
  -2   0 -15  220.78    7.90
  -2   0 -15  206.58    9.20
  -2   0 -15  216.28    8.10
  -2   0 -15  220.98    9.40
  -3   0 -15  102.69    5.30
  -3   0 -15  110.29    4.90
  -3   0 -15   98.99    5.50
  -3   0 -15  104.89    4.60
  -3   0 -15  108.49    5.80
  -3   0 -15  112.49    4.70
  -3   0 -15  109.39    4.60
  -4   0 -15   53.69    3.40
  -4   0 -15   54.49    2.90
  -4   0 -15   55.19    3.00
  -4   0 -15   52.99    3.10
  -4   0 -15   55.59    3.10
  -4   0 -15   52.69    3.90
  -4   0 -15   51.89    3.50
  -5   0 -15   48.60    2.80
  -5   0 -15   45.80    4.00
  -5   0 -15   40.40    2.40
  -5   0 -15   40.80    2.90
  -5   0 -15   44.50    2.70
  -5   0 -15   43.70    2.30
  -5   0 -15   41.80    2.70
  -6   0 -15  129.99    5.70
  -6   0 -15  106.19    4.00
  -6   0 -15  102.29    5.30
  -6   0 -15  110.29    4.40
  -6   0 -15   98.49    4.10
   6   0  15  117.19    4.20
   4  -1 -15   13.20    0.90
   4  -1 -15   14.70    1.00
   4  -1 -15   16.50    1.00
   4  -1 -15   15.50    1.00
   4  -1 -15   15.20    1.20
   3  -1 -15    0.70    0.50
   3  -1 -15    1.30    0.60
   3  -1 -15    1.20    0.50
   3  -1 -15    1.20    0.40
   2  -1 -15    0.70    0.50
   2  -1 -15    2.30    0.80
   0  -1 -15  181.78    6.70
   0  -1 -15  160.58    8.40
  -1  -1 -15   18.90    2.30
  -1  -1 -15   13.60    2.40
  -1  -1 -15   15.80    2.70
  -1  -1 -15   13.30    1.70
  -2  -1 -15    5.40    1.10
  -2  -1 -15    3.90    0.90
  -2  -1 -15    3.50    1.30
  -2  -1 -15    7.40    1.60
  -2  -1 -15    4.50    1.80
  -2  -1 -15    5.00    1.00
  -3  -1 -15   99.39    4.40
  -3  -1 -15   96.09    4.20
  -3  -1 -15   96.69    5.70
  -3  -1 -15   94.69    5.30
  -3  -1 -15  107.39    4.50
  -3  -1 -15   92.49    4.50
  -3  -1 -15  111.69    6.10
  -4  -1 -15  109.49    4.90
  -4  -1 -15  103.99    5.60
  -4  -1 -15  105.89    5.70
  -4  -1 -15  110.19    4.60
  -4  -1 -15  100.29    4.40
  -4  -1 -15  102.99    4.60
  -4  -1 -15  101.99    5.30
  -5  -1 -15  239.28    8.60
  -5  -1 -15  236.78    8.70
  -5  -1 -15  233.88    8.90
  -5  -1 -15  229.58    8.30
  -5  -1 -15  225.88    8.10
  -5  -1 -15  226.08    9.60
  -5  -1 -15  238.58    9.10
  -6  -1 -15   24.80    2.50
  -6  -1 -15   26.70    1.80
  -6  -1 -15   23.60    2.00
  -6  -1 -15   22.00    1.60
  -6  -1 -15   24.60    1.60
  -6  -1 -15   24.80    1.90
   6   1  15   26.10    1.50
  -7  -1 -15   14.50    1.10
   4  -2 -15   28.90    1.50
   4  -2 -15   27.10    1.30
   4  -2 -15   28.20    1.30
   4  -2 -15   28.80    1.30
   3  -2 -15    9.00    0.90
   3  -2 -15   11.60    1.10
   3  -2 -15    7.30    0.80
   3  -2 -15    8.80    1.20
   3  -2 -15   10.20    0.90
   2  -2 -15   13.70    1.10
   2  -2 -15   12.80    1.20
   2  -2 -15   12.70    1.00
   2  -2 -15   11.60    1.50
   1  -2 -15   67.99    2.70
   1  -2 -15   52.19    3.20
   1  -2 -15   64.99    2.90
   1  -2 -15   62.79    3.40
   0  -2 -15   62.99    4.90
   0  -2 -15   70.99    3.10
   0  -2 -15   61.89    3.50
   0  -2 -15   68.19    3.40
  -1  -2 -15   31.50    2.70
  -1  -2 -15   26.60    3.80
  -1  -2 -15   29.50    2.20
  -1  -2 -15   34.40    3.10
  -1  -2 -15   34.10    4.20
  -1  -2 -15   30.80    2.20
  -2  -2 -15   51.09    4.40
  -2  -2 -15   54.69    2.80
  -2  -2 -15   53.49    3.00
  -2  -2 -15   37.10    3.90
  -2  -2 -15   55.09    2.90
  -2  -2 -15   55.79    3.90
  -3  -2 -15   75.19    5.20
  -3  -2 -15   77.89    3.70
  -3  -2 -15   74.89    5.40
  -3  -2 -15   74.69    3.60
  -3  -2 -15   75.19    3.80
  -3  -2 -15   72.39    3.70
  -3  -2 -15   69.99    4.70
  -4  -2 -15  158.98    8.40
  -4  -2 -15  193.38    7.40
  -4  -2 -15  190.98    7.00
  -4  -2 -15  194.88    7.10
  -4  -2 -15  175.38    7.00
  -4  -2 -15  167.88    8.20
  -4  -2 -15  200.28    8.50
  -5  -2 -15  166.98    6.30
  -5  -2 -15  159.98    6.90
  -5  -2 -15  149.29    6.10
  -5  -2 -15  166.68    6.50
  -5  -2 -15  151.08    7.00
  -5  -2 -15  150.28    6.70
  -5  -2 -15  157.08    6.10
  -6  -2 -15   17.50    1.60
  -6  -2 -15   21.60    1.60
  -6  -2 -15   22.80    1.90
  -6  -2 -15   20.90    1.90
   6   2  15   23.60    1.40
  -7  -2 -15    0.70    0.40
  -7  -2 -15    1.60    0.60
   7   2  15    1.50    0.40
   7   2  15    0.70    0.40
   4  -3 -15   77.99    3.10
   4  -3 -15   80.19    2.80
   4  -3 -15   77.39    3.00
   4  -3 -15   80.39    2.90
   3  -3 -15  114.39    4.40
   3  -3 -15  115.99    4.20
   3  -3 -15  119.89    4.20
   3  -3 -15  119.39    4.20
   3  -3 -15  118.79    4.70
   2  -3 -15   22.80    1.90
   2  -3 -15   23.00    1.40
   2  -3 -15   26.40    1.40
   2  -3 -15   24.00    1.60
   2  -3 -15   19.90    2.00
   1  -3 -15   14.30    1.40
   1  -3 -15   16.60    1.30
   1  -3 -15   11.90    2.70
   1  -3 -15   19.30    1.20
   1  -3 -15   17.70    1.80
   1  -3 -15   15.40    1.80
   0  -3 -15   55.69    4.80
   0  -3 -15   53.89    3.00
   0  -3 -15   50.09    4.70
   0  -3 -15   54.39    2.70
   0  -3 -15   53.69    2.40
   0  -3 -15   55.79    3.20
  -1  -3 -15   27.30    2.20
  -1  -3 -15   32.80    4.40
  -1  -3 -15   32.80    4.20
  -1  -3 -15   27.90    2.30
  -1  -3 -15   32.30    1.90
  -1  -3 -15   34.20    3.00
  -2  -3 -15  315.27   11.20
  -2  -3 -15  275.37   13.40
  -2  -3 -15  303.07   10.20
  -2  -3 -15  300.27   10.60
  -2  -3 -15  282.47   13.10
  -2  -3 -15  318.27   11.90
  -2  -3 -15  301.47   10.70
  -3  -3 -15  237.48    8.80
  -3  -3 -15  249.38    8.90
  -3  -3 -15  235.18    8.40
  -3  -3 -15  235.78   10.10
  -3  -3 -15  253.27   11.10
  -3  -3 -15  250.47   11.50
  -3  -3 -15  247.08    9.00
  -4  -3 -15    2.60    1.20
  -4  -3 -15    3.30    1.00
  -4  -3 -15    2.00    0.80
  -4  -3 -15    2.40    0.80
  -4  -3 -15    2.30    1.50
  -4  -3 -15    1.40    1.10
  -4  -3 -15    2.60    1.00
  -4  -3 -15    2.60    0.80
  -5  -3 -15    1.90    0.80
  -5  -3 -15    2.90    0.80
  -5  -3 -15    1.90    1.00
  -5  -3 -15    2.60    0.90
  -5  -3 -15    2.60    1.10
  -5  -3 -15    2.60    0.90
  -5  -3 -15    2.20    1.20
  -6  -3 -15    0.90    0.70
  -6  -3 -15    0.90    0.60
  -6  -3 -15    0.60    0.80
  -6  -3 -15    1.30    0.70
  -6  -3 -15   -0.50    0.90
  -7  -3 -15  147.79    5.20
  -7  -3 -15  149.39    5.40
   7   3  15  153.98    5.10
   7   3  15  147.69    5.10
   3  -4 -15   41.00    2.20
   3  -4 -15   46.90    1.90
   3  -4 -15   47.20    2.00
   3  -4 -15   43.00    2.30
   3  -4 -15   44.40    2.10
   3  -4 -15   46.70    1.90
   2  -4 -15   34.80    1.90
   2  -4 -15   36.60    1.70
   2  -4 -15   29.50    2.10
   2  -4 -15   36.10    1.80
   2  -4 -15   34.90    1.70
   2  -4 -15   36.20    2.20
   1  -4 -15    8.00    0.90
   1  -4 -15    7.30    1.00
   1  -4 -15    7.50    1.30
   1  -4 -15    9.10    1.40
   1  -4 -15    8.30    2.40
   1  -4 -15    6.90    0.90
   0  -4 -15   23.00    1.60
   0  -4 -15   20.30    3.40
   0  -4 -15   28.50    2.20
   0  -4 -15   22.80    1.50
   0  -4 -15   20.90    2.00
   0  -4 -15   19.50    3.50
  -1  -4 -15  480.55   15.40
  -1  -4 -15  477.35   18.30
  -1  -4 -15  464.55   15.60
  -1  -4 -15  372.86   17.80
  -1  -4 -15  471.65   14.90
  -1  -4 -15  473.85   14.60
  -2  -4 -15  536.55   20.10
  -2  -4 -15  458.75   19.70
  -2  -4 -15  513.85   17.10
  -2  -4 -15  518.75   16.60
  -2  -4 -15  521.05   18.60
  -2  -4 -15  527.95   17.00
  -2  -4 -15  511.75   16.30
  -3  -4 -15  247.58   11.40
  -3  -4 -15  249.08    9.00
  -3  -4 -15  252.27    8.60
  -3  -4 -15  246.48   12.00
  -3  -4 -15  247.38    9.10
  -3  -4 -15  230.08   10.40
  -3  -4 -15  250.77    8.80
  -4  -4 -15   16.00    2.80
  -4  -4 -15   12.80    1.50
  -4  -4 -15   14.30    2.30
  -4  -4 -15   14.00    1.40
  -4  -4 -15   15.20    1.60
  -4  -4 -15   13.60    2.20
  -4  -4 -15   13.80    1.50
  -5  -4 -15   21.10    1.70
  -5  -4 -15   23.60    1.70
  -5  -4 -15   26.30    2.00
  -5  -4 -15   19.70    2.70
  -5  -4 -15   22.20    1.90
  -5  -4 -15   19.40    2.40
  -5  -4 -15   21.70    2.30
  -6  -4 -15  206.08    7.90
  -6  -4 -15  209.98    7.30
  -6  -4 -15  204.28    7.40
  -6  -4 -15  216.08    7.40
   6   4  15  197.88    6.80
  -7  -4 -15   57.39    2.60
  -7  -4 -15   61.89    2.50
   7   4  15   61.99    2.40
   3  -5 -15    6.70    0.90
   3  -5 -15    7.20    0.90
   3  -5 -15    8.80    0.70
   3  -5 -15    7.50    0.80
   3  -5 -15    7.30    0.70
   2  -5 -15   62.79    2.70
   2  -5 -15   62.39    2.50
   2  -5 -15   65.49    3.10
   2  -5 -15   62.89    2.50
   2  -5 -15   62.39    3.00
   2  -5 -15   67.49    2.60
   1  -5 -15   95.39    3.90
   1  -5 -15   90.89    4.20
   1  -5 -15   89.39    3.50
   1  -5 -15   97.39    3.60
   1  -5 -15   92.89    4.20
   1  -5 -15   93.19    6.00
   0  -5 -15   23.50    3.20
   0  -5 -15   18.00    1.30
   0  -5 -15   17.90    1.50
   0  -5 -15   16.40    1.40
   0  -5 -15   19.90    3.40
   0  -5 -15   20.20    2.00
   0  -5 -15   18.70    1.80
  -1  -5 -15   44.10    2.50
  -1  -5 -15   53.59    4.50
  -1  -5 -15   48.70    2.90
  -1  -5 -15   51.59    3.00
  -1  -5 -15   45.60    4.60
  -1  -5 -15   47.80    2.30
  -2  -5 -15   79.39    4.70
  -2  -5 -15   83.99    5.80
  -2  -5 -15   75.19    3.70
  -2  -5 -15   67.99    5.30
  -2  -5 -15   70.99    3.10
  -2  -5 -15   71.09    3.40
  -2  -5 -15   70.29    3.60
  -3  -5 -15  195.38    9.60
  -3  -5 -15  168.98    6.80
  -3  -5 -15  174.98    6.70
  -3  -5 -15  184.18    8.20
  -3  -5 -15  170.48    6.50
  -3  -5 -15  175.08    6.20
  -3  -5 -15  168.78    6.40
  -3  -5 -15  168.58    8.80
  -4  -5 -15  261.07    9.10
  -4  -5 -15  271.67   10.80
  -4  -5 -15  269.67    9.10
  -4  -5 -15  259.97    9.00
  -4  -5 -15  227.48   11.40
  -4  -5 -15  242.78   10.60
  -4  -5 -15  252.57    8.80
  -5  -5 -15    6.40    1.70
  -5  -5 -15    6.50    1.00
  -5  -5 -15    5.30    0.90
  -5  -5 -15    5.50    1.40
  -5  -5 -15    6.10    1.00
  -5  -5 -15    6.20    1.40
  -6  -5 -15    7.80    1.10
  -6  -5 -15    8.10    1.10
  -6  -5 -15    6.80    1.40
  -6  -5 -15    7.40    1.00
  -6  -5 -15    5.90    1.00
   6   5  15    9.10    0.80
  -7  -5 -15    3.00    0.60
  -7  -5 -15    1.70    0.60
   7   5  15    2.90    0.40
   7   5  15    2.40    0.50
   2  -6 -15   53.99    3.50
   2  -6 -15   60.89    2.30
   2  -6 -15   58.89    2.60
   2  -6 -15   55.99    2.20
   2  -6 -15   55.99    2.60
   2  -6 -15   59.29    2.40
   1  -6 -15    4.20    0.80
   1  -6 -15    5.30    0.70
   1  -6 -15    5.40    0.90
   1  -6 -15    5.00    0.70
   1  -6 -15    6.80    0.80
   1  -6 -15    6.50    1.80
   0  -6 -15    0.80    0.60
   0  -6 -15    0.70    1.20
   0  -6 -15    0.70    0.40
   0  -6 -15    0.90    0.70
   0  -6 -15    1.50    0.60
   0  -6 -15    1.70    0.50
   0  -6 -15    2.00    1.40
  -1  -6 -15   52.29    3.00
  -1  -6 -15   52.69    2.90
  -1  -6 -15   52.39    2.30
  -1  -6 -15   46.50    4.10
  -1  -6 -15   52.99    2.40
  -1  -6 -15   51.09    4.60
  -1  -6 -15   56.99    2.70
  -2  -6 -15  136.29    8.00
  -2  -6 -15  152.38    6.00
  -2  -6 -15  161.48    7.00
  -2  -6 -15  151.68    5.80
  -2  -6 -15  158.18    6.10
  -2  -6 -15  156.38    8.00
  -2  -6 -15  146.99    5.50
  -3  -6 -15  104.09    4.60
  -3  -6 -15  107.19    4.60
  -3  -6 -15  108.09    6.60
  -3  -6 -15  119.79    5.80
  -3  -6 -15  110.69    6.50
  -3  -6 -15  114.59    4.50
  -3  -6 -15  110.69    4.20
  -4  -6 -15    1.80    0.60
  -4  -6 -15    1.40    0.60
  -4  -6 -15    1.70    1.10
  -4  -6 -15    0.30    0.90
  -4  -6 -15    1.50    0.70
  -4  -6 -15    0.20    1.40
  -4  -6 -15    0.80    0.60
   4   6  15    1.00    0.50
  -5  -6 -15   10.10    1.10
  -5  -6 -15   11.70    1.80
  -5  -6 -15    8.80    1.10
  -5  -6 -15    8.10    1.40
  -5  -6 -15   10.90    2.00
  -5  -6 -15    9.40    1.00
  -6  -6 -15   33.30    1.80
  -6  -6 -15   34.60    1.90
  -6  -6 -15   34.30    2.40
   6   6  15   36.00    1.60
   1  -7 -15   46.30    3.40
   1  -7 -15   45.50    1.90
   1  -7 -15   48.90    2.20
   1  -7 -15   47.80    2.00
   1  -7 -15   48.40    2.30
   1  -7 -15   47.20    2.00
   0  -7 -15  105.29    4.00
   0  -7 -15  114.19    4.20
   0  -7 -15  113.09    4.50
   0  -7 -15  114.59    4.10
   0  -7 -15  107.39    6.10
   0  -7 -15  120.39    5.70
   0  -7 -15  113.09    4.40
  -1  -7 -15   23.90    2.90
  -1  -7 -15   25.20    1.80
  -1  -7 -15   24.70    1.80
  -1  -7 -15   29.90    3.30
  -1  -7 -15   25.10    1.50
  -1  -7 -15   26.90    1.60
  -2  -7 -15    0.20    0.90
  -2  -7 -15    0.40    0.50
  -2  -7 -15   -0.40    1.00
  -2  -7 -15   -0.50    1.00
  -2  -7 -15    0.30    0.50
  -2  -7 -15   -0.50    0.40
  -2  -7 -15    0.40    0.40
   2   7  15   -0.20    0.50
  -3  -7 -15   75.99    4.80
  -3  -7 -15   77.99    3.20
  -3  -7 -15   74.49    4.20
  -3  -7 -15   73.99    3.30
  -3  -7 -15   67.69    3.30
  -3  -7 -15   76.09    5.00
  -3  -7 -15   71.59    3.00
  -4  -7 -15   38.70    2.10
  -4  -7 -15   37.60    2.00
  -4  -7 -15   37.20    2.00
  -4  -7 -15   35.70    2.00
  -4  -7 -15   35.60    3.50
  -4  -7 -15   38.70    2.80
  -4  -7 -15   38.50    3.00
   4   7  15   39.00    1.80
  -5  -7 -15   84.29    4.60
  -5  -7 -15   92.79    3.70
  -5  -7 -15   96.69    3.70
  -5  -7 -15  109.29    5.10
   5   7  15   93.89    3.30
  -6  -7 -15   23.70    1.40
  -6  -7 -15   24.30    1.80
   6   7  15   26.00    1.30
   0  -8 -15   24.80    2.30
   0  -8 -15   24.00    1.20
   0  -8 -15   22.40    1.30
   0  -8 -15   23.10    1.40
   0  -8 -15   21.60    1.20
   0   8  15   22.90    1.10
  -1  -8 -15    1.60    0.50
  -1  -8 -15    1.60    0.50
  -1  -8 -15    0.80    0.50
  -1  -8 -15    1.70    1.00
  -1  -8 -15    1.30    0.40
  -1  -8 -15    1.20    1.00
   1   8  15    0.80    0.40
  -2  -8 -15   44.90    2.20
  -2  -8 -15   46.30    3.40
  -2  -8 -15   46.10    2.10
  -2  -8 -15   43.80    2.20
  -2  -8 -15   52.19    3.50
  -2  -8 -15   46.00    2.10
   2   8  15   44.70    1.90
  -3  -8 -15  150.38    6.90
  -3  -8 -15  137.39    5.30
  -3  -8 -15  143.09    5.10
  -3  -8 -15  155.38    6.70
  -3  -8 -15  148.29    6.00
  -3  -8 -15  147.39    5.20
   3   8  15  146.59    5.00
  -4  -8 -15  107.89    4.00
  -4  -8 -15  106.29    5.60
  -4  -8 -15  108.59    4.80
  -4  -8 -15  101.79    3.90
   4   8  15  107.99    3.70
  -5  -8 -15    3.70    0.60
  -5  -8 -15    4.60    1.10
  -5  -8 -15    3.70    1.00
   5   8  15    4.50    0.50
   5   8  15    2.90    0.40
  -3  -9 -15   81.59    4.00
   3   9  15   67.09    2.60
   2   5 -16   69.89    2.40
   2   5 -16   68.79    2.70
   2   5 -16   68.09    2.80
   2   5 -16   71.39    2.60
   1   5 -16  134.39    4.90
   1   5 -16  134.89    4.60
   1   5 -16  137.19    4.70
   1   5 -16  130.69    4.80
   0   5 -16    7.60    1.10
   0   5 -16    8.60    0.80
   0   5 -16    8.00    1.00
   0   5 -16    7.30    0.90
   0   5 -16    7.90    0.90
  -1   5 -16    6.00    0.80
  -1   5 -16    6.30    0.90
  -1   5 -16    6.80    0.90
  -1   5 -16    5.70    0.90
  -1   5 -16    7.10    0.70
  -2   5 -16    0.50    0.60
  -2   5 -16    0.90    0.60
  -2   5 -16    0.90    0.50
  -2   5 -16    1.20    0.50
  -2   5 -16    0.60    0.40
  -2   5 -16    0.20    0.40
   3   4 -16    7.00    0.60
   3   4 -16    7.50    0.60
   2   4 -16    1.50    0.50
   2   4 -16    1.40    0.50
   1   4 -16  111.59    4.30
   1   4 -16  117.19    4.10
   1   4 -16  118.49    4.40
   1   4 -16  112.59    4.50
   0   4 -16    0.10    0.70
   0   4 -16    0.60    0.60
   0   4 -16    0.20    0.50
   0   4 -16    0.50    0.50
   0   4 -16    1.50    0.50
  -1   4 -16   54.19    2.30
  -1   4 -16   56.89    2.60
  -1   4 -16   55.59    2.80
  -1   4 -16   51.69    2.50
  -1   4 -16   54.29    3.00
  -2   4 -16   39.60    2.00
  -2   4 -16   38.50    2.00
  -2   4 -16   37.10    2.20
  -2   4 -16   37.90    2.40
  -2   4 -16   37.50    1.80
  -3   4 -16   42.00    2.70
  -3   4 -16   44.70    2.10
  -3   4 -16   40.30    1.90
  -3   4 -16   49.99    2.30
  -3   4 -16   46.90    2.10
  -3   4 -16   47.40    2.50
   3  -4  16   51.29    3.40
   1   3 -16   13.10    1.20
   1   3 -16   12.50    1.40
   0   3 -16    4.20    0.80
   0   3 -16    5.30    1.00
   0   3 -16    7.10    1.30
   0   3 -16    5.50    0.90
  -1   3 -16  126.49    5.90
  -1   3 -16  126.39    4.90
  -1   3 -16  122.49    5.50
  -1   3 -16  125.99    4.90
  -1   3 -16  120.49    5.30
  -1   3 -16  119.59    5.10
  -2   3 -16   81.09    3.90
  -2   3 -16   90.39    3.80
  -2   3 -16   92.79    4.00
  -2   3 -16   96.49    4.50
  -2   3 -16   88.29    3.80
  -2   3 -16   87.59    4.80
  -2   3 -16   85.79    5.00
  -3   3 -16   17.80    1.90
  -3   3 -16   15.80    1.40
  -3   3 -16   12.50    2.10
  -3   3 -16   11.90    2.10
  -3   3 -16   20.70    1.60
  -3   3 -16   18.40    1.50
  -4   3 -16    5.00    0.70
  -4   3 -16    5.30    1.00
  -4   3 -16    4.80    0.80
  -4   3 -16    3.10    1.10
  -4   3 -16    4.40    0.80
   0   2 -16  211.08    7.60
   0   2 -16  216.88    7.90
   0   2 -16  217.18    8.10
  -1   2 -16  118.09    4.70
  -1   2 -16  120.79    5.00
  -1   2 -16  116.09    4.70
  -1   2 -16  117.39    5.50
  -1   2 -16  109.49    5.10
  -2   2 -16   83.89    4.10
  -2   2 -16   76.69    3.60
  -2   2 -16   82.19    4.50
  -2   2 -16   83.49    3.60
  -2   2 -16   73.69    3.70
  -3   2 -16   89.59    4.90
  -3   2 -16   85.99    4.00
  -3   2 -16   92.19    3.80
  -3   2 -16   96.59    4.40
  -3   2 -16   78.29    5.60
  -3   2 -16   84.09    3.80
  -4   2 -16   60.59    3.70
  -4   2 -16   62.29    2.70
  -4   2 -16   61.29    3.00
  -4   2 -16   55.59    4.00
  -4   2 -16   62.49    3.20
  -4   2 -16   55.99    2.80
  -5   2 -16   25.70    2.10
  -5   2 -16   38.40    1.70
  -5   2 -16   34.10    2.00
  -5   2 -16   34.30    1.70
  -5   2 -16   26.70    2.50
  -5   2 -16   37.50    1.80
   4   1 -16   20.30    1.40
  -1   1 -16   44.60    2.80
  -1   1 -16   40.10    2.60
  -1   1 -16   45.00    3.00
  -1   1 -16   45.10    3.20
  -1   1 -16   44.00    2.40
  -2   1 -16   48.60    2.90
  -2   1 -16   53.29    3.20
  -2   1 -16   48.00    2.60
  -2   1 -16   48.70    2.60
  -2   1 -16   49.90    3.50
  -2   1 -16   50.99    3.30
  -3   1 -16  201.28    7.70
  -3   1 -16  196.88    7.10
  -3   1 -16  192.88    8.50
  -3   1 -16  188.48    7.00
  -3   1 -16  192.28    7.50
  -3   1 -16  186.08    8.00
  -4   1 -16    0.90    0.80
  -4   1 -16   -0.90    0.60
  -4   1 -16    1.60    1.80
  -4   1 -16    0.60    0.60
  -4   1 -16    0.60    0.70
  -4   1 -16    1.10    1.10
  -4   1 -16    0.10    0.80
  -5   1 -16  153.68    5.80
  -5   1 -16  148.79    5.70
  -5   1 -16  144.79    5.40
  -5   1 -16  156.28    5.40
  -5   1 -16  149.69    6.40
  -5   1 -16  147.29    6.90
   5  -1  16  155.18    5.30
   4   0 -16    1.40    0.40
   4   0 -16    1.80    0.40
  -1   0 -16    0.30    0.70
  -1   0 -16    0.70    0.60
  -1   0 -16    1.60    1.00
  -1   0 -16    0.60    0.90
  -2   0 -16  205.38    8.20
  -2   0 -16  199.48    7.40
  -2   0 -16  199.88    8.60
  -2   0 -16  202.78    7.70
  -2   0 -16  200.78    8.70
  -2   0 -16  199.48    7.30
  -3   0 -16   88.59    4.20
  -3   0 -16   90.99    4.80
  -3   0 -16   85.29    3.80
  -3   0 -16   84.99    4.90
  -3   0 -16   84.99    4.50
  -3   0 -16   87.29    3.90
  -4   0 -16  112.19    5.30
  -4   0 -16  108.39    5.80
  -4   0 -16  107.49    4.40
  -4   0 -16  104.29    4.70
  -4   0 -16  106.39    4.60
  -4   0 -16   97.89    4.30
  -4   0 -16  110.49    5.00
  -5   0 -16   33.50    2.30
  -5   0 -16   34.60    2.30
  -5   0 -16   37.10    2.00
  -5   0 -16   38.00    2.30
  -5   0 -16   34.00    2.00
  -5   0 -16   36.70    2.70
  -5   0 -16   40.80    3.70
  -6   0 -16   25.20    1.30
  -6   0 -16   21.70    1.30
  -6   0 -16   23.30    1.50
  -6   0 -16   20.20    2.00
   6   0  16   23.70    1.30
   4  -1 -16    8.20    0.70
   4  -1 -16    9.20    0.70
   4  -1 -16    8.30    0.70
   3  -1 -16    6.20    0.70
   3  -1 -16    5.30    0.60
  -1  -1 -16   11.10    1.80
  -1  -1 -16   10.30    1.40
  -1  -1 -16    9.60    1.90
  -1  -1 -16    9.10    2.00
  -2  -1 -16    3.40    1.20
  -2  -1 -16    4.40    1.50
  -2  -1 -16    3.60    0.90
  -2  -1 -16    5.20    1.00
  -2  -1 -16    4.30    1.50
  -3  -1 -16   13.10    1.50
  -3  -1 -16   11.50    1.50
  -3  -1 -16    7.80    1.10
  -3  -1 -16   10.80    1.40
  -3  -1 -16   13.30    1.90
  -3  -1 -16   12.60    2.00
  -3  -1 -16   12.30    2.10
  -4  -1 -16   73.19    3.60
  -4  -1 -16   68.89    4.10
  -4  -1 -16   62.59    3.80
  -4  -1 -16   64.99    3.40
  -4  -1 -16   68.79    3.30
  -4  -1 -16   80.29    4.60
  -4  -1 -16   72.69    3.50
  -5  -1 -16  165.48    6.70
  -5  -1 -16  160.78    6.30
  -5  -1 -16  167.98    6.40
  -5  -1 -16  175.98    7.50
  -5  -1 -16  165.38    6.10
  -5  -1 -16  165.08    6.50
   5   1  16  151.88    5.70
  -6  -1 -16   43.00    2.50
  -6  -1 -16   40.60    2.10
  -6  -1 -16   41.40    2.20
  -6  -1 -16   34.40    2.10
  -6  -1 -16   45.10    2.00
   6   1  16   42.00    1.80
   4  -2 -16    0.20    0.30
   4  -2 -16    0.90    0.40
   4  -2 -16    1.40    0.40
   4  -2 -16    0.80    0.30
   3  -2 -16   13.70    0.90
   3  -2 -16   14.20    1.00
   3  -2 -16   15.10    1.00
   3  -2 -16   15.00    1.10
   2  -2 -16   58.29    2.40
   2  -2 -16   64.89    2.50
   2  -2 -16   60.29    2.90
   2  -2 -16   58.59    2.70
   1  -2 -16   17.70    1.70
   1  -2 -16   11.70    1.50
   1  -2 -16   17.10    1.50
   0  -2 -16  214.18    7.20
   0  -2 -16  207.78    7.60
   0  -2 -16  184.08    9.40
   0  -2 -16  200.88    7.60
  -1  -2 -16    0.70    0.70
  -1  -2 -16    1.00    1.10
  -1  -2 -16    2.40    0.80
  -1  -2 -16    2.60    1.60
  -1  -2 -16   -0.40    1.00
  -2  -2 -16    0.80    1.10
  -2  -2 -16    0.70    0.70
  -2  -2 -16    1.10    0.90
  -2  -2 -16    0.40    0.60
  -2  -2 -16    0.70    1.10
  -2  -2 -16    0.30    0.60
  -3  -2 -16   32.80    2.20
  -3  -2 -16   33.50    3.10
  -3  -2 -16   32.90    2.20
  -3  -2 -16   29.90    3.70
  -3  -2 -16   33.00    3.20
  -3  -2 -16   31.40    2.10
  -4  -2 -16  279.17   10.90
  -4  -2 -16  270.07   10.70
  -4  -2 -16  274.27    9.80
  -4  -2 -16  257.37    9.60
  -4  -2 -16  277.47   11.10
  -4  -2 -16  290.57    9.70
  -4  -2 -16  274.07    9.50
  -5  -2 -16   32.90    2.70
  -5  -2 -16   30.10    2.10
  -5  -2 -16   29.70    2.40
  -5  -2 -16   29.30    2.00
  -5  -2 -16   30.90    2.10
  -5  -2 -16   30.90    2.40
  -5  -2 -16   33.20    2.10
  -6  -2 -16    1.20    0.70
  -6  -2 -16    0.30    0.60
  -6  -2 -16    0.80    0.80
  -6  -2 -16    0.30    1.20
  -6  -2 -16    0.30    0.70
  -6  -2 -16    0.40    0.60
   6   2  16    1.10    0.50
   3  -3 -16   77.29    2.80
   3  -3 -16   78.59    3.00
   3  -3 -16   72.79    3.10
   3  -3 -16   76.19    2.80
   3  -3 -16   78.69    2.90
   2  -3 -16    0.00    0.60
   2  -3 -16    0.00    0.40
   2  -3 -16    1.00    0.40
   2  -3 -16    1.00    0.70
   2  -3 -16   -0.70    0.40
   1  -3 -16   16.80    1.80
   1  -3 -16   13.10    1.50
   1  -3 -16   17.10    1.40
   1  -3 -16   15.10    1.20
   0  -3 -16   44.60    4.10
   0  -3 -16   43.10    2.10
   0  -3 -16   41.90    2.60
   0  -3 -16   44.60    2.30
   0  -3 -16   38.60    2.70
  -1  -3 -16   50.39    2.80
  -1  -3 -16   39.60    4.00
  -1  -3 -16   45.30    2.40
  -1  -3 -16   55.49    4.50
  -1  -3 -16   40.10    2.70
  -2  -3 -16   73.89    3.70
  -2  -3 -16   66.29    5.20
  -2  -3 -16   80.89    3.90
  -2  -3 -16   73.49    4.60
  -2  -3 -16   76.49    3.40
  -2  -3 -16   83.29    5.60
  -3  -3 -16   99.59    5.70
  -3  -3 -16   86.99    5.20
  -3  -3 -16   90.49    5.90
  -3  -3 -16   96.69    4.20
  -3  -3 -16   90.89    4.10
  -3  -3 -16   88.69    3.80
  -3  -3 -16   87.49    4.00
  -4  -3 -16   35.90    3.50
  -4  -3 -16   40.50    2.40
  -4  -3 -16   36.90    2.50
  -4  -3 -16   43.10    3.40
  -4  -3 -16   37.60    3.30
  -4  -3 -16   40.60    2.50
  -4  -3 -16   41.10    2.30
  -5  -3 -16    2.20    0.90
  -5  -3 -16    1.40    0.70
  -5  -3 -16    1.00    0.90
  -5  -3 -16    1.00    0.70
  -5  -3 -16    0.60    0.80
  -5  -3 -16    1.90    0.70
  -5  -3 -16    1.20    0.80
  -6  -3 -16   34.20    2.50
  -6  -3 -16   36.00    1.90
  -6  -3 -16   33.60    2.00
  -6  -3 -16   29.90    2.00
   6   3  16   34.70    1.70
   3  -4 -16   78.39    2.70
   3  -4 -16   80.09    2.80
   3  -4 -16   77.49    2.70
   3  -4 -16   74.59    2.90
   3  -4 -16   72.79    3.00
   2  -4 -16    1.80    0.70
   2  -4 -16    1.30    0.50
   2  -4 -16    1.80    0.50
   2  -4 -16    1.10    0.50
   2  -4 -16    1.10    0.50
   1  -4 -16   12.10    1.40
   1  -4 -16   13.00    1.50
   1  -4 -16   12.60    1.20
   1  -4 -16   10.90    0.90
   1  -4 -16   11.60    2.40
   0  -4 -16    0.50    0.60
   0  -4 -16    0.20    1.20
   0  -4 -16   10.20    3.30
   0  -4 -16    0.20    0.70
   0  -4 -16    0.30    0.50
   0  -4 -16    0.80    0.50
  -1  -4 -16  190.08    9.70
  -1  -4 -16  196.68    6.80
  -1  -4 -16  196.18    7.10
  -1  -4 -16  219.48    7.80
  -1  -4 -16  197.98    7.60
  -1  -4 -16  186.98    9.90
  -2  -4 -16  316.57   11.60
  -2  -4 -16  292.27   12.90
  -2  -4 -16  291.67   10.50
  -2  -4 -16  292.57   10.00
  -2  -4 -16  265.17   13.00
  -2  -4 -16  303.87   10.40
  -3  -4 -16   24.50    1.70
  -3  -4 -16   21.80    3.00
  -3  -4 -16   23.50    1.90
  -3  -4 -16   22.90    1.90
  -3  -4 -16   23.10    1.90
  -3  -4 -16   26.40    3.60
  -3  -4 -16   21.70    2.60
  -4  -4 -16   11.20    1.30
  -4  -4 -16   10.80    1.30
  -4  -4 -16   11.30    2.00
  -4  -4 -16   10.50    2.00
  -4  -4 -16   11.90    2.30
  -4  -4 -16   12.60    1.40
  -4  -4 -16   12.90    1.30
  -5  -4 -16   16.40    2.20
  -5  -4 -16   16.40    2.10
  -5  -4 -16   16.30    1.60
  -5  -4 -16   18.50    1.50
  -5  -4 -16   17.00    1.90
  -5  -4 -16   16.50    1.60
  -5  -4 -16   16.10    1.50
   5   4  16   15.90    1.10
  -6  -4 -16   86.59    3.30
  -6  -4 -16   75.19    3.60
  -6  -4 -16   76.99    3.40
  -6  -4 -16   79.09    3.40
   6   4  16   76.69    3.10
   2  -5 -16    0.70    0.50
   2  -5 -16    1.30    0.40
   2  -5 -16    1.50    0.60
   2  -5 -16    0.70    0.40
   2  -5 -16    1.10    0.40
   1  -5 -16  127.29    6.40
   1  -5 -16  114.99    4.30
   1  -5 -16  110.49    4.10
   1  -5 -16  110.99    4.20
   1  -5 -16  114.59    4.60
   1  -5 -16  113.19    4.70
   0  -5 -16   19.80    3.10
   0  -5 -16   22.10    1.80
   0  -5 -16   16.20    2.90
   0  -5 -16   20.00    1.20
   0  -5 -16   20.80    1.70
   0  -5 -16   21.60    1.50
   0  -5 -16   21.90    1.30
  -1  -5 -16  198.58    7.70
  -1  -5 -16  209.08    7.00
  -1  -5 -16  215.08   10.00
  -1  -5 -16  204.58    7.20
  -1  -5 -16  188.58    7.60
  -1  -5 -16  213.18   10.00
  -2  -5 -16   22.60    1.60
  -2  -5 -16   18.20    1.80
  -2  -5 -16   16.10    2.90
  -2  -5 -16   24.40    2.60
  -2  -5 -16   19.90    1.90
  -2  -5 -16   18.60    1.40
  -2  -5 -16   22.40    3.50
  -3  -5 -16    0.90    0.60
  -3  -5 -16    0.20    1.00
  -3  -5 -16    0.10    0.60
  -3  -5 -16    0.50    1.60
  -3  -5 -16    0.00    1.00
  -3  -5 -16    0.90    0.60
  -4  -5 -16  132.49    5.30
  -4  -5 -16  132.39    6.50
  -4  -5 -16  126.49    5.20
  -4  -5 -16  142.59    5.30
  -4  -5 -16  124.69    5.00
  -4  -5 -16  136.79    7.10
  -4  -5 -16  146.79    6.50
  -5  -5 -16   45.50    3.40
  -5  -5 -16   48.80    2.50
  -5  -5 -16   43.60    2.90
  -5  -5 -16   52.09    3.30
  -5  -5 -16   55.99    2.60
  -5  -5 -16   49.00    2.50
   5   5  16   52.09    2.20
  -6  -5 -16   18.80    1.40
  -6  -5 -16   20.50    1.70
  -6  -5 -16   19.20    1.40
   6   5  16   20.20    1.10
   1  -6 -16    0.20    0.40
   1  -6 -16    1.60    1.10
   1  -6 -16    0.70    0.40
   1  -6 -16   -0.10    0.30
   1  -6 -16    0.80    0.50
   1  -6 -16    1.00    0.50
   0  -6 -16    7.00    1.90
   0  -6 -16   11.60    2.20
   0  -6 -16    6.90    0.80
   0  -6 -16    8.20    1.10
   0  -6 -16    6.40    0.80
   0  -6 -16    7.50    0.90
   0  -6 -16    6.90    1.00
  -1  -6 -16  135.29    5.20
  -1  -6 -16  134.39    5.00
  -1  -6 -16  134.29    5.60
  -1  -6 -16  154.68    7.70
  -1  -6 -16  146.59    7.40
  -1  -6 -16  142.09    5.50
  -2  -6 -16   73.39    3.40
  -2  -6 -16   74.29    3.20
  -2  -6 -16   70.29    3.40
  -2  -6 -16   70.09    3.00
  -2  -6 -16   79.69    4.20
  -2  -6 -16   78.69    5.20
  -2  -6 -16   65.79    4.90
  -3  -6 -16  178.38    7.80
  -3  -6 -16  179.48    6.70
  -3  -6 -16  181.88    6.70
  -3  -6 -16  181.18    8.60
  -3  -6 -16  184.98    9.10
  -3  -6 -16  175.38    6.20
  -3  -6 -16  178.68    6.40
  -4  -6 -16    8.70    2.00
  -4  -6 -16    8.90    1.00
  -4  -6 -16    6.90    1.50
  -4  -6 -16    7.30    1.00
  -4  -6 -16    8.80    1.60
  -4  -6 -16    7.90    1.10
  -4  -6 -16    8.90    1.10
   4   6  16    7.40    0.80
  -5  -6 -16   -0.30    0.60
  -5  -6 -16    1.00    0.60
  -5  -6 -16    0.70    0.80
  -5  -6 -16    0.90    0.50
  -5  -6 -16    0.90    0.70
  -5  -6 -16    0.80    1.00
   5   6  16    1.10    0.40
  -6  -6 -16    9.10    0.90
  -6  -6 -16    6.90    1.10
   6   6  16    9.00    0.70
   0  -7 -16  154.08    5.00
   0  -7 -16  151.38    5.30
   0  -7 -16  147.89    5.20
   0  -7 -16  140.09    4.90
   0  -7 -16  125.09    6.40
  -1  -7 -16   22.80    2.80
  -1  -7 -16   25.60    2.80
  -1  -7 -16   22.20    1.50
  -1  -7 -16   21.90    1.30
  -1  -7 -16   22.20    1.40
  -1  -7 -16   21.40    1.50
   1   7  16   20.20    1.10
  -2  -7 -16   10.50    1.20
  -2  -7 -16   10.00    1.00
  -2  -7 -16    8.20    0.90
  -2  -7 -16   11.60    2.10
  -2  -7 -16   10.10    1.10
  -2  -7 -16   10.90    2.00
  -2  -7 -16   11.20    1.50
  -3  -7 -16  104.99    5.90
  -3  -7 -16  100.69    3.90
  -3  -7 -16   95.79    4.00
  -3  -7 -16  104.19    4.00
  -3  -7 -16   99.09    4.90
  -3  -7 -16  101.39    5.40
  -4  -7 -16   26.40    1.60
  -4  -7 -16   25.60    1.60
  -4  -7 -16   28.80    2.30
  -4  -7 -16   24.90    3.00
  -4  -7 -16   29.20    1.60
  -4  -7 -16   27.50    2.20
   4   7  16   28.70    1.30
  -5  -7 -16   57.79    3.00
  -5  -7 -16   55.49    2.40
  -5  -7 -16   55.19    3.20
  -5  -7 -16   51.29    2.30
   5   7  16   56.69    2.20
  -1  -8 -16   22.90    2.10
  -1  -8 -16   18.10    1.00
  -1  -8 -16   18.80    1.10
  -1  -8 -16   23.10    2.00
  -1  -8 -16   19.40    1.20
  -1  -8 -16   19.20    1.20
   1   8  16   19.80    1.40
  -2  -8 -16   63.29    2.50
  -2  -8 -16   60.79    2.50
  -2  -8 -16   69.49    3.80
  -2  -8 -16   65.99    3.80
  -2  -8 -16   61.19    2.60
  -3  -8 -16  324.67   10.80
  -3  -8 -16  361.56   11.50
  -3  -8 -16  335.27   10.80
  -3  -8 -16  332.57   12.60
  -3  -8 -16  336.97   12.10
  -3  -8 -16  358.66   10.90
   3   8  16  342.27   10.70
  -4  -8 -16   11.60    1.30
  -4  -8 -16   11.90    1.60
  -4  -8 -16    9.30    1.10
   4   8  16    9.90    0.70
   0   5 -17   44.00    2.00
   0   5 -17   45.30    1.90
   1   4 -17   46.40    2.00
   1   4 -17   41.30    2.10
   0   4 -17    0.60    0.60
   0   4 -17   -0.30    0.50
   0   4 -17    0.30    0.50
   0   4 -17    0.30    0.40
   0   4 -17    0.00    0.40
  -1   4 -17   12.80    1.20
  -1   4 -17   13.30    1.40
  -1   4 -17   13.90    1.10
  -1   4 -17   11.70    1.10
  -1   4 -17   11.20    1.30
  -2   4 -17   48.60    2.20
  -2   4 -17   47.60    2.00
  -2   4 -17   39.10    2.40
  -2   4 -17   46.00    2.40
   0   3 -17   65.09    4.80
   0   3 -17   94.29    3.80
   0   3 -17   91.39    3.50
   0   3 -17   91.69    3.50
  -1   3 -17  138.29    5.20
  -1   3 -17  146.29    5.50
  -1   3 -17  143.99    5.90
  -1   3 -17  140.69    5.20
  -1   3 -17  139.09    6.20
  -2   3 -17   76.19    3.20
  -2   3 -17   72.99    3.70
  -2   3 -17   75.49    3.40
  -2   3 -17   76.59    3.10
  -2   3 -17   70.19    4.10
  -3   3 -17    9.50    1.00
  -3   3 -17    7.60    1.50
  -3   3 -17    9.80    1.00
  -3   3 -17   11.70    1.40
  -3   3 -17   11.00    1.20
  -3   3 -17    7.50    1.50
   0   2 -17   42.90    2.70
   0   2 -17   40.70    2.10
  -1   2 -17   17.00    1.50
  -1   2 -17   14.30    2.00
  -1   2 -17   16.40    1.40
  -1   2 -17   19.10    1.60
  -1   2 -17   14.90    1.70
  -2   2 -17   48.70    2.80
  -2   2 -17   44.30    3.20
  -2   2 -17   39.50    3.80
  -2   2 -17   41.00    2.30
  -2   2 -17   43.00    2.50
  -2   2 -17   48.90    2.40
  -3   2 -17  204.08    7.40
  -3   2 -17  215.58    8.20
  -3   2 -17  198.58    7.10
  -3   2 -17  206.88    7.10
  -3   2 -17  203.58    8.60
  -3   2 -17  199.48    7.70
  -4   2 -17    0.90    0.70
  -4   2 -17   -0.20    0.50
  -4   2 -17    1.00    0.50
  -4   2 -17    0.40    1.00
  -4   2 -17   -0.20    0.50
  -4   2 -17   -0.80    0.80
  -1   1 -17  223.28    8.80
  -1   1 -17  255.87    9.30
  -1   1 -17  242.98    8.40
  -1   1 -17  248.18    8.60
  -2   1 -17   88.19    4.50
  -2   1 -17   87.29    3.90
  -2   1 -17   82.69    4.10
  -2   1 -17   81.69    3.60
  -2   1 -17   87.79    4.80
  -3   1 -17   36.10    2.10
  -3   1 -17   39.90    2.90
  -3   1 -17   43.60    2.60
  -3   1 -17   39.00    2.20
  -3   1 -17   42.00    2.50
  -3   1 -17   43.10    3.60
  -4   1 -17    1.50    0.80
  -4   1 -17    2.30    0.80
  -4   1 -17    1.80    0.60
  -4   1 -17    2.30    1.80
  -4   1 -17    1.80    0.60
  -4   1 -17    2.40    1.20
  -5   1 -17    9.40    1.60
  -5   1 -17   10.20    0.90
  -5   1 -17   10.40    1.10
  -5   1 -17   10.10    1.50
  -5   1 -17   11.30    1.20
  -5   1 -17   12.60    0.90
   5  -1  17   11.40    0.90
  -1   0 -17    3.30    0.80
  -1   0 -17    2.40    0.90
  -1   0 -17    2.60    0.90
  -1   0 -17    3.30    1.10
  -2   0 -17   44.20    3.20
  -2   0 -17   51.19    3.10
  -2   0 -17   52.19    3.50
  -2   0 -17   48.10    2.60
  -2   0 -17   49.99    2.60
  -2   0 -17   49.10    2.80
  -3   0 -17  121.39    5.00
  -3   0 -17  120.89    5.90
  -3   0 -17  115.39    4.70
  -3   0 -17  123.59    5.60
  -3   0 -17  111.59    5.20
  -4   0 -17   28.00    1.90
  -4   0 -17   30.80    3.00
  -4   0 -17   29.30    2.40
  -4   0 -17   29.70    2.00
  -4   0 -17   30.40    2.20
  -4   0 -17   29.20    2.00
  -5   0 -17   31.40    1.90
  -5   0 -17   34.30    2.40
  -5   0 -17   25.00    1.60
  -5   0 -17   30.90    1.60
  -5   0 -17   21.60    2.70
  -5   0 -17   33.40    2.00
  -1  -1 -17    3.80    1.30
  -1  -1 -17    6.10    1.10
  -1  -1 -17    5.00    1.20
  -1  -1 -17    5.30    1.30
  -2  -1 -17  174.98    6.30
  -2  -1 -17  161.08    7.50
  -2  -1 -17  164.18    7.70
  -2  -1 -17  166.78    7.10
  -2  -1 -17  181.18    6.50
  -3  -1 -17    4.40    1.30
  -3  -1 -17    5.20    1.40
  -3  -1 -17    4.40    1.20
  -3  -1 -17    4.40    0.90
  -3  -1 -17    3.50    0.90
  -3  -1 -17    4.70    1.10
  -4  -1 -17   62.09    3.10
  -4  -1 -17   57.89    3.40
  -4  -1 -17   61.79    3.20
  -4  -1 -17   65.69    3.70
  -4  -1 -17   66.39    4.10
  -4  -1 -17   65.79    3.00
  -5  -1 -17   27.50    2.80
  -5  -1 -17   25.30    1.60
  -5  -1 -17   23.60    1.90
  -5  -1 -17   26.50    1.90
  -5  -1 -17   21.00    1.60
  -5  -1 -17   26.30    2.10
  -6  -1 -17    3.20    0.60
  -6  -1 -17    3.00    0.50
  -6  -1 -17    1.80    0.90
   6   1  17    3.20    0.50
   3  -2 -17   51.59    2.00
   3  -2 -17   49.90    2.10
   3  -2 -17   51.19    1.90
   2  -2 -17    1.40    0.60
   2  -2 -17    2.30    0.50
   1  -2 -17  243.68    8.40
   1  -2 -17  226.48    8.30
   0  -2 -17  110.69    6.00
   0  -2 -17  122.79    4.90
   0  -2 -17  119.09    4.90
  -1  -2 -17    3.80    1.30
  -1  -2 -17    4.10    1.00
  -1  -2 -17    7.00    1.40
  -1  -2 -17    4.10    1.50
  -1  -2 -17    4.40    1.00
  -2  -2 -17    3.40    1.40
  -2  -2 -17    2.70    1.10
  -2  -2 -17    3.40    0.90
  -2  -2 -17    3.80    1.30
  -2  -2 -17    2.00    0.80
  -2  -2 -17    2.90    0.80
  -3  -2 -17   34.40    3.10
  -3  -2 -17   42.40    3.00
  -3  -2 -17   39.00    3.30
  -3  -2 -17   37.80    2.20
  -3  -2 -17   41.50    2.40
  -3  -2 -17   38.70    2.30
  -4  -2 -17  229.38    8.30
  -4  -2 -17  229.18    9.30
  -4  -2 -17  232.88    9.40
  -4  -2 -17  231.28    8.10
  -4  -2 -17  242.58    8.30
  -4  -2 -17  232.78    8.20
  -4  -2 -17  226.28    9.10
  -5  -2 -17    9.60    1.20
  -5  -2 -17    7.80    1.10
  -5  -2 -17    8.30    1.30
  -5  -2 -17    8.80    1.10
  -5  -2 -17    7.70    1.40
  -5  -2 -17    9.10    1.30
  -6  -2 -17    3.20    0.60
  -6  -2 -17    2.10    0.70
  -6  -2 -17    2.00    1.10
  -6  -2 -17    3.10    0.60
  -6  -2 -17    3.70    0.70
   6   2  17    3.50    0.50
   3  -3 -17   30.90    1.40
   3  -3 -17   29.20    1.30
   3  -3 -17   29.10    1.30
   2  -3 -17   46.40    2.10
   2  -3 -17   42.30    1.80
   2  -3 -17   45.50    1.90
   2  -3 -17   40.70    2.20
   1  -3 -17   39.40    2.30
   1  -3 -17   43.20    2.10
   1  -3 -17   42.00    1.90
   1  -3 -17   43.70    2.40
   0  -3 -17    0.40    1.10
   0  -3 -17    0.60    0.60
   0  -3 -17    0.90    0.60
   0  -3 -17    2.10    0.70
  -1  -3 -17  311.27   10.10
  -1  -3 -17  292.47   10.20
  -1  -3 -17  284.77   11.90
  -1  -3 -17  293.37    9.70
  -1  -3 -17  248.28   11.90
  -2  -3 -17   45.60    3.80
  -2  -3 -17   44.80    3.90
  -2  -3 -17   44.50    3.40
  -2  -3 -17   44.70    2.60
  -2  -3 -17   47.90    2.70
  -2  -3 -17   49.20    2.40
  -3  -3 -17   52.69    2.80
  -3  -3 -17   46.00    3.50
  -3  -3 -17   52.39    2.70
  -3  -3 -17   44.40    4.00
  -3  -3 -17   50.79    2.60
  -3  -3 -17   55.29    3.90
  -4  -3 -17   78.89    3.50
  -4  -3 -17   79.39    3.60
  -4  -3 -17   80.89    4.70
  -4  -3 -17   79.79    4.50
  -4  -3 -17   77.39    3.50
  -4  -3 -17   78.19    4.30
  -5  -3 -17    0.00    0.70
  -5  -3 -17   -0.40    0.60
  -5  -3 -17   -0.20    0.60
  -5  -3 -17   -0.30    0.60
  -5  -3 -17    0.20    0.70
  -5  -3 -17    0.50    0.60
  -5  -3 -17    0.30    0.60
  -6  -3 -17    9.40    1.00
  -6  -3 -17   10.80    1.00
  -6  -3 -17   11.90    1.90
  -6  -3 -17    9.60    1.10
  -6  -3 -17   11.80    1.00
   6   3  17   12.30    0.90
   2  -4 -17   49.80    2.40
   2  -4 -17   48.60    2.10
   2  -4 -17   52.09    2.10
   2  -4 -17   52.39    2.40
   2  -4 -17   52.39    2.00
   1  -4 -17    7.50    0.80
   1  -4 -17    6.80    0.80
   1  -4 -17    6.30    1.00
   1  -4 -17    7.20    1.10
   0  -4 -17   96.89    4.30
   0  -4 -17  105.19    3.70
   0  -4 -17   96.29    5.80
   0  -4 -17   96.79    3.90
   0  -4 -17  100.49    4.30
  -1  -4 -17   99.19    3.90
  -1  -4 -17   98.89    5.90
  -1  -4 -17   91.09    4.10
  -1  -4 -17   93.79    4.20
  -1  -4 -17   88.39    5.70
  -1  -4 -17   96.79    4.10
  -2  -4 -17   11.00    2.30
  -2  -4 -17    8.50    1.20
  -2  -4 -17    8.10    1.00
  -2  -4 -17    9.80    1.70
  -2  -4 -17    8.80    1.30
  -2  -4 -17    9.40    2.20
  -3  -4 -17  267.47   11.80
  -3  -4 -17  277.97    9.50
  -3  -4 -17  301.17   11.60
  -3  -4 -17  271.97    9.40
  -3  -4 -17  291.57    9.80
  -3  -4 -17  282.47   11.00
  -3  -4 -17  278.07    9.70
  -4  -4 -17    3.30    0.80
  -4  -4 -17    4.70    1.30
  -4  -4 -17    3.40    1.40
  -4  -4 -17    4.10    1.20
  -4  -4 -17    3.70    0.80
  -4  -4 -17    5.10    0.80
  -5  -4 -17    4.10    0.80
  -5  -4 -17    3.30    0.70
  -5  -4 -17    1.80    0.90
  -5  -4 -17    2.90    0.70
  -5  -4 -17    2.20    0.90
  -5  -4 -17    1.90    0.90
   5   4  17    3.10    0.60
  -6  -4 -17   77.89    3.30
  -6  -4 -17   68.59    3.30
  -6  -4 -17   79.79    3.10
   6   4  17   81.59    2.90
   2  -5 -17   12.10    0.80
   2  -5 -17   10.40    0.70
   2  -5 -17   11.90    0.90
   2  -5 -17   11.80    1.10
   1  -5 -17    2.50    0.60
   1  -5 -17    2.70    0.70
   1  -5 -17    3.00    0.50
   1  -5 -17    2.50    0.50
   1  -5 -17    2.20    0.70
   1  -5 -17    2.00    1.10
   0  -5 -17   47.10    2.60
   0  -5 -17   51.89    2.70
   0  -5 -17   49.90    2.30
   0  -5 -17   52.19    2.20
   0  -5 -17   47.50    3.70
  -1  -5 -17  116.59    6.60
  -1  -5 -17  123.29    4.90
  -1  -5 -17  118.79    6.70
  -1  -5 -17  125.19    4.70
  -1  -5 -17  130.89    5.00
  -1  -5 -17  118.79    4.40
  -2  -5 -17  239.48   10.80
  -2  -5 -17  250.97    8.80
  -2  -5 -17  244.78    8.20
  -2  -5 -17  255.67    8.90
  -2  -5 -17  228.78   10.90
  -2  -5 -17  255.07    8.50
  -2  -5 -17  266.17    9.70
  -3  -5 -17    9.40    1.00
  -3  -5 -17    9.80    1.70
  -3  -5 -17    8.30    1.10
  -3  -5 -17    9.00    1.80
  -3  -5 -17    8.90    1.10
  -3  -5 -17   10.30    2.20
  -4  -5 -17   11.00    1.70
  -4  -5 -17   10.30    1.10
  -4  -5 -17   11.50    2.00
  -4  -5 -17    8.20    1.00
  -4  -5 -17    8.00    1.00
  -4  -5 -17    8.20    1.60
  -4  -5 -17    9.40    1.00
  -5  -5 -17  116.89    4.30
  -5  -5 -17  111.19    4.90
  -5  -5 -17  116.09    5.10
  -5  -5 -17  111.69    4.30
  -5  -5 -17  121.39    4.40
  -5  -5 -17  107.99    5.10
   5   5  17  117.29    4.00
  -6  -5 -17   18.60    1.20
  -6  -5 -17   22.60    1.50
   6   5  17   22.60    1.20
   1  -6 -17    9.10    0.70
   1  -6 -17    8.50    0.90
   1  -6 -17    7.20    0.80
   1  -6 -17    7.70    0.70
   1  -6 -17    8.30    0.70
   0  -6 -17   51.99    2.30
   0  -6 -17   52.79    2.50
   0  -6 -17   53.19    2.50
   0  -6 -17   48.50    2.10
   0  -6 -17   52.89    2.10
   0  -6 -17   55.09    3.60
  -1  -6 -17  140.39    6.80
  -1  -6 -17  130.29    4.60
  -1  -6 -17  129.29    4.90
  -1  -6 -17  130.09    5.00
  -1  -6 -17  124.39    6.50
  -1  -6 -17  130.19    4.70
  -2  -6 -17   44.20    2.40
  -2  -6 -17   42.40    2.00
  -2  -6 -17   44.60    2.10
  -2  -6 -17   44.10    2.30
  -2  -6 -17   44.40    3.70
  -2  -6 -17   42.90    2.70
  -2  -6 -17   42.50    3.70
  -3  -6 -17   11.20    2.10
  -3  -6 -17    8.60    1.10
  -3  -6 -17    7.80    1.50
  -3  -6 -17    7.90    1.00
  -3  -6 -17    7.20    0.90
  -3  -6 -17    8.80    1.70
  -4  -6 -17   81.49    3.40
  -4  -6 -17   92.79    4.90
  -4  -6 -17   82.19    3.40
  -4  -6 -17   86.89    4.30
  -4  -6 -17   88.29    4.20
  -4  -6 -17   87.39    3.50
  -5  -6 -17   20.20    1.30
  -5  -6 -17   23.30    1.40
  -5  -6 -17   22.10    1.30
  -5  -6 -17   19.10    1.50
  -5  -6 -17   20.30    1.80
  -5  -6 -17   21.40    1.90
   5   6  17   23.80    1.20
  -1  -7 -17    9.00    0.90
  -1  -7 -17    8.50    0.80
  -1  -7 -17    9.50    0.80
  -1  -7 -17    9.60    1.70
  -1  -7 -17    8.50    0.90
  -1  -7 -17    8.80    1.60
  -2  -7 -17   42.00    1.90
  -2  -7 -17   44.00    2.10
  -2  -7 -17   41.50    3.10
  -2  -7 -17   40.20    1.80
  -2  -7 -17   41.40    2.00
  -2  -7 -17   43.30    3.30
  -3  -7 -17  145.39    4.90
  -3  -7 -17  134.09    4.90
  -3  -7 -17  126.59    6.40
  -3  -7 -17  146.59    5.60
  -3  -7 -17  147.79    6.10
  -3  -7 -17  135.69    4.90
   3   7  17  138.79    4.60
  -4  -7 -17    1.40    1.00
  -4  -7 -17    2.70    0.60
  -4  -7 -17    2.20    0.50
  -4  -7 -17    1.60    0.70
  -4  -7 -17    2.00    0.50
  -4  -7 -17    2.10    0.80
   4   7  17    2.60    0.40
   0   3 -18   77.99    3.10
   0   3 -18   76.49    3.00
  -1   3 -18  112.39    4.50
  -1   3 -18  114.59    4.30
  -1   3 -18  113.19    4.10
  -1   3 -18  119.59    4.20
  -2   3 -18    0.90    0.60
  -2   3 -18    0.60    0.40
  -2   3 -18    0.60    0.80
  -2   3 -18    0.70    0.50
  -2   3 -18   -0.20    0.40
  -1   2 -18    1.40    1.30
  -1   2 -18    2.00    0.60
  -1   2 -18    2.70    0.70
  -1   2 -18    2.80    0.80
  -2   2 -18   75.39    3.30
  -2   2 -18   74.19    3.60
  -2   2 -18   77.49    3.20
  -2   2 -18   78.69    4.00
  -3   2 -18   44.80    3.00
  -3   2 -18   49.10    2.40
  -3   2 -18   51.99    2.20
  -3   2 -18   52.89    2.80
  -1   1 -18   44.80    2.50
  -1   1 -18   39.20    2.70
  -2   1 -18  187.98    6.60
  -2   1 -18  182.78    7.10
  -2   1 -18  193.98    7.50
  -2   1 -18  183.98    6.70
  -3   1 -18    4.40    1.20
  -3   1 -18    3.40    0.90
  -3   1 -18    3.20    1.70
  -3   1 -18    3.60    0.70
  -3   1 -18    3.20    0.90
  -4   1 -18    1.80    0.60
  -4   1 -18    1.00    1.10
  -4   1 -18    3.10    1.10
  -4   1 -18    1.90    0.80
  -4   1 -18    2.10    0.70
  -1   0 -18   85.99    4.20
  -1   0 -18   87.59    3.90
  -2   0 -18   34.60    2.00
  -2   0 -18   34.20    2.70
  -2   0 -18   33.70    2.30
  -2   0 -18   34.10    2.50
  -3   0 -18    2.70    0.70
  -3   0 -18    0.20    0.70
  -3   0 -18    0.80    1.00
  -3   0 -18    2.40    0.90
  -3   0 -18    1.70    0.70
  -3   0 -18    1.80    0.90
  -4   0 -18   50.89    2.90
  -4   0 -18   46.00    3.60
  -4   0 -18   43.60    2.40
  -4   0 -18   50.29    2.60
  -4   0 -18   41.10    2.10
  -5   0 -18    2.80    0.60
  -5   0 -18    3.20    0.90
  -5   0 -18    3.30    0.50
  -5   0 -18    2.90    1.10
  -5   0 -18    3.80    0.70
  -1  -1 -18   41.80    2.80
  -1  -1 -18   34.60    2.40
  -1  -1 -18   38.20    2.80
  -2  -1 -18   55.99    3.10
  -2  -1 -18   51.09    3.30
  -2  -1 -18   54.39    2.70
  -2  -1 -18   51.29    3.40
  -2  -1 -18   52.59    2.50
  -3  -1 -18   92.49    4.70
  -3  -1 -18   86.09    4.40
  -3  -1 -18   76.99    4.30
  -3  -1 -18   91.59    3.80
  -3  -1 -18   81.89    3.60
  -3  -1 -18   93.29    4.20
  -4  -1 -18   21.50    1.60
  -4  -1 -18   20.50    1.40
  -4  -1 -18   19.90    2.20
  -4  -1 -18   23.40    1.80
  -4  -1 -18   20.30    1.50
  -5  -1 -18    4.30    0.80
  -5  -1 -18    1.00    0.60
  -5  -1 -18    4.00    0.70
  -5  -1 -18    3.40    0.90
  -5  -1 -18    3.70    1.50
   0  -2 -18   51.19    2.60
  -1  -2 -18  106.39    4.20
  -1  -2 -18  106.59    4.30
  -1  -2 -18   95.59    5.20
  -1  -2 -18  102.79    5.20
  -2  -2 -18   28.70    2.70
  -2  -2 -18   29.40    2.30
  -2  -2 -18   28.40    1.90
  -2  -2 -18   28.10    1.80
  -2  -2 -18   25.80    2.60
  -3  -2 -18   22.90    2.20
  -3  -2 -18   19.10    2.30
  -3  -2 -18   20.40    1.60
  -3  -2 -18   19.90    1.50
  -3  -2 -18   19.40    2.10
  -4  -2 -18   62.89    2.90
  -4  -2 -18   56.69    3.00
  -4  -2 -18   64.59    3.70
  -4  -2 -18   57.99    2.70
  -4  -2 -18   61.79    3.40
  -4  -2 -18   59.19    2.70
  -4  -2 -18   60.09    3.40
  -5  -2 -18   16.10    1.50
  -5  -2 -18   15.20    1.20
  -5  -2 -18   12.60    1.30
  -5  -2 -18   15.10    1.10
  -5  -2 -18   14.20    1.30
  -5  -2 -18   13.70    1.80
   5   2  18   14.40    1.00
   2  -3 -18  105.49    3.50
   2  -3 -18  102.99    3.70
   2  -3 -18  104.69    4.10
   1  -3 -18   22.50    1.50
   1  -3 -18   24.90    1.40
   1  -3 -18   25.20    1.60
   0  -3 -18   18.80    2.10
   0  -3 -18   19.30    1.30
   0  -3 -18   19.10    1.50
   0  -3 -18   21.40    1.50
  -1  -3 -18   36.50    3.00
  -1  -3 -18   40.50    2.10
  -1  -3 -18   37.00    2.20
  -1  -3 -18   40.10    2.20
  -1  -3 -18   38.70    3.20
  -2  -3 -18   57.19    3.30
  -2  -3 -18   55.59    3.80
  -2  -3 -18   59.39    2.90
  -2  -3 -18   55.69    4.10
  -2  -3 -18   62.59    2.90
  -3  -3 -18  108.79    5.20
  -3  -3 -18  115.69    4.40
  -3  -3 -18  123.39    5.90
  -3  -3 -18  111.59    5.70
  -3  -3 -18  111.39    4.60
  -4  -3 -18   63.79    3.60
  -4  -3 -18   72.99    3.10
  -4  -3 -18   68.59    3.80
  -4  -3 -18   74.49    3.90
  -4  -3 -18   70.99    3.10
  -4  -3 -18   69.79    3.10
  -5  -3 -18   16.10    1.60
  -5  -3 -18   13.30    1.40
  -5  -3 -18   13.70    1.40
  -5  -3 -18   13.80    1.30
  -5  -3 -18   13.10    1.10
   1  -4 -18   30.60    1.70
   1  -4 -18   30.10    1.40
   1  -4 -18   30.10    1.50
   1  -4 -18   26.10    1.70
   0  -4 -18   21.70    1.30
   0  -4 -18   21.40    1.20
   0  -4 -18   18.60    2.50
   0  -4 -18   19.90    1.50
   0  -4 -18   20.50    1.50
  -1  -4 -18  114.39    4.70
  -1  -4 -18  120.39    6.00
  -1  -4 -18  118.49    4.60
  -1  -4 -18  115.59    4.30
  -1  -4 -18  109.39    5.90
  -2  -4 -18   15.20    1.50
  -2  -4 -18   15.00    1.90
  -2  -4 -18   14.60    2.30
  -2  -4 -18   13.70    1.40
  -2  -4 -18   15.20    1.30
  -2  -4 -18   15.00    2.20
  -3  -4 -18   67.29    2.90
  -3  -4 -18   72.89    3.90
  -3  -4 -18   68.79    3.20
  -3  -4 -18   65.59    3.10
  -3  -4 -18   74.19    4.20
  -3  -4 -18   69.39    4.50
  -4  -4 -18   44.60    2.30
  -4  -4 -18   45.40    2.90
  -4  -4 -18   40.10    2.10
  -4  -4 -18   46.20    3.00
  -4  -4 -18   44.90    2.80
  -5  -4 -18   38.20    2.30
  -5  -4 -18   38.10    1.90
  -5  -4 -18   42.10    2.30
  -5  -4 -18   40.40    2.40
  -5  -4 -18   38.90    1.90
   1  -5 -18    4.30    0.70
   1  -5 -18    4.70    0.60
   1  -5 -18    4.10    0.60
   1  -5 -18    5.10    0.50
   0  -5 -18   48.90    2.20
   0  -5 -18   48.10    2.30
   0  -5 -18   53.49    2.00
   0  -5 -18   50.79    2.40
   0  -5 -18   50.39    3.40
  -1  -5 -18   72.59    3.00
  -1  -5 -18   73.89    3.20
  -1  -5 -18   79.59    4.40
  -1  -5 -18   71.19    2.80
  -1  -5 -18   75.69    3.30
  -1  -5 -18   67.89    4.30
  -2  -5 -18   50.69    2.60
  -2  -5 -18   49.80    2.50
  -2  -5 -18   51.29    3.60
  -2  -5 -18   51.49    2.90
  -2  -5 -18   49.10    2.30
  -2  -5 -18   47.50    3.40
  -3  -5 -18  134.09    4.80
  -3  -5 -18  124.99    5.80
  -3  -5 -18  135.19    5.10
  -3  -5 -18  139.49    6.50
  -3  -5 -18  131.19    5.00
  -3  -5 -18  139.69    6.20
  -4  -5 -18    7.30    1.50
  -4  -5 -18    6.90    1.30
  -4  -5 -18    7.50    1.30
  -4  -5 -18    9.60    1.00
  -4  -5 -18    6.40    0.80
  -4  -5 -18    7.50    0.90
  -5  -5 -18   -0.20    0.40
  -5  -5 -18    0.20    0.40
  -5  -5 -18    0.00    0.50
  -5  -5 -18    0.30    0.50
  -5  -5 -18    0.50    0.60
  -5  -5 -18    0.80    0.50
   0  -6 -18  133.29    4.70
   0  -6 -18  134.89    4.80
   0  -6 -18  136.39    5.70
   0  -6 -18  133.29    4.60
   0  -6 -18  136.39    4.50
  -1  -6 -18   54.49    2.40
  -1  -6 -18   59.09    3.30
  -1  -6 -18   53.89    2.50
  -1  -6 -18   52.59    2.20
  -1  -6 -18   51.89    3.40
  -1  -6 -18   53.59    2.10
  -2  -6 -18   49.00    3.20
  -2  -6 -18   41.80    2.10
  -2  -6 -18   42.20    1.80
  -2  -6 -18   47.20    3.20
  -2  -6 -18   44.90    2.00
  -2  -6 -18   41.80    2.10
  -3  -6 -18    1.80    0.50
  -3  -6 -18    1.00    0.90
  -3  -6 -18    2.00    0.60
  -3  -6 -18    1.90    0.50
  -3  -6 -18    1.80    0.90
  -3  -6 -18    1.20    0.90
  -4  -6 -18    0.80    0.40
  -4  -6 -18    1.50    0.70
  -4  -6 -18    1.30    0.40
  -4  -6 -18    0.70    0.80
  -4  -6 -18    1.90    0.80
  -1   2 -19    1.90    0.50
  -1   2 -19    2.20    0.70
  -2   2 -19   83.29    3.00
  -2   2 -19   63.29    3.90
  -2   2 -19   79.89    3.20
  -2   2 -19   84.99    3.50
  -1   1 -19   52.69    2.70
  -2   1 -19  101.29    4.10
  -2   1 -19   91.29    3.60
  -2   1 -19   87.89    3.70
  -2   1 -19  103.49    4.40
  -3   1 -19   13.10    1.10
  -3   1 -19   14.80    1.30
  -3   1 -19   12.30    1.50
  -3   1 -19   15.40    1.00
  -3   1 -19   13.20    1.60
  -2   0 -19   19.80    2.00
  -2   0 -19   17.20    1.60
  -2   0 -19   14.90    1.40
  -2   0 -19   17.00    1.20
  -3   0 -19   10.00    1.80
  -3   0 -19   11.10    1.00
  -3   0 -19   10.20    1.20
  -3   0 -19   10.60    1.30
  -3   0 -19   10.80    1.00
  -4   0 -19   16.60    1.10
  -4   0 -19   18.20    1.40
  -4   0 -19   18.10    1.60
  -1  -1 -19   82.39    4.30
  -1  -1 -19   84.79    3.90
  -2  -1 -19   15.60    1.70
  -2  -1 -19   14.30    1.20
  -2  -1 -19   20.70    1.60
  -2  -1 -19   16.20    1.60
  -2  -1 -19   13.50    1.40
  -3  -1 -19   94.79    4.50
  -3  -1 -19   91.19    4.20
  -3  -1 -19   89.99    3.90
  -3  -1 -19   87.89    3.50
  -4  -1 -19   53.49    2.70
  -4  -1 -19   46.30    2.10
  -4  -1 -19   53.29    3.30
  -4  -1 -19   50.89    2.50
  -4  -1 -19   40.10    2.10
  -1  -2 -19  128.69    5.50
  -1  -2 -19  138.99    5.00
  -1  -2 -19  136.39    5.80
  -2  -2 -19   37.80    2.60
  -2  -2 -19   33.40    2.20
  -2  -2 -19   39.10    2.00
  -2  -2 -19   37.00    2.60
  -3  -2 -19   35.20    2.40
  -3  -2 -19   38.10    2.30
  -3  -2 -19   39.80    2.00
  -3  -2 -19   37.60    2.60
  -3  -2 -19   34.50    1.80
  -4  -2 -19    1.00    0.60
  -4  -2 -19    0.30    0.40
  -4  -2 -19    0.40    0.70
  -4  -2 -19    0.70    0.50
  -4  -2 -19    1.10    0.50
   0  -3 -19   33.40    1.80
   0  -3 -19   34.70    1.80
  -1  -3 -19    1.00    0.70
  -1  -3 -19    0.80    0.60
  -1  -3 -19    0.20    0.70
  -1  -3 -19    0.90    0.50
  -2  -3 -19    4.90    1.20
  -2  -3 -19    3.60    0.70
  -2  -3 -19    5.00    1.00
  -2  -3 -19    4.70    0.70
  -2  -3 -19    4.90    1.10
  -3  -3 -19  114.69    5.20
  -3  -3 -19  117.09    4.40
  -3  -3 -19  112.29    5.10
  -3  -3 -19  112.99    4.80
  -4  -3 -19   30.70    1.70
  -4  -3 -19   28.80    1.90
  -4  -3 -19   32.80    2.20
  -4  -3 -19   29.10    2.00
  -4  -3 -19   28.90    1.50
  -4  -3 -19   29.20    1.60
   0  -4 -19    2.60    0.50
   0  -4 -19    3.10    0.60
   0  -4 -19    2.60    0.60
   0  -4 -19    0.70    0.70
  -1  -4 -19    7.30    0.80
  -1  -4 -19    6.40    1.30
  -1  -4 -19    7.00    0.90
  -1  -4 -19    7.00    0.90
  -1  -4 -19    6.90    1.20
  -2  -4 -19  125.89    6.00
  -2  -4 -19  142.49    4.90
  -2  -4 -19  140.79    6.20
  -2  -4 -19  145.79    5.10
  -2  -4 -19  149.49    5.20
  -3  -4 -19    8.80    1.30
  -3  -4 -19    9.50    1.40
  -3  -4 -19   11.20    1.60
  -3  -4 -19   10.10    1.00
  -3  -4 -19   11.40    1.00
  -4  -4 -19   15.90    1.50
  -4  -4 -19   16.00    1.50
  -4  -4 -19   11.50    0.90
  -4  -4 -19   13.60    1.10
  -4  -4 -19   13.90    1.00
  -4  -4 -19   13.70    1.30
  -1  -5 -19   68.49    2.60
  -1  -5 -19   68.99    2.80
  -1  -5 -19   65.29    3.40
  -1  -5 -19   65.19    2.70
  -2  -5 -19    0.50    0.70
  -2  -5 -19    1.10    0.40
  -2  -5 -19    0.70    0.40
  -2  -5 -19    0.30    0.40
  -2  -5 -19   -0.70    0.70
  -3  -5 -19   23.40    1.20
  -3  -5 -19   22.20    1.60
  -3  -5 -19   23.10    1.30
  -3  -5 -19   20.10    1.90
  -3  -5 -19   22.20    1.40
  -3  -5 -19   23.60    1.90
  -4  -5 -19   28.20    1.50
  -4  -5 -19   25.20    1.70
  -4  -5 -19   28.00    1.90
  -4  -5 -19   28.30    1.40
  -4  -5 -19   27.20    1.80
  -2   0 -20    2.60    1.00
  -2   0 -20    1.50    1.10
  -2  -1 -20   14.30    1.20
  -2  -1 -20   15.40    1.60
  -2  -1 -20   14.90    1.30
  -3  -1 -20   42.70    2.10
  -3  -1 -20   43.20    2.70
  -3  -1 -20   41.00    2.30
  -2  -2 -20    3.30    0.90
  -2  -2 -20    3.40    0.70
  -2  -2 -20    4.00    0.80
  -2  -2 -20    4.60    0.70
  -3  -2 -20   38.30    2.20
  -3  -2 -20   40.40    2.40
  -3  -2 -20   35.50    1.90
  -1  -3 -20    1.50    0.70
  -1  -3 -20    1.00    0.50
  -2  -3 -20    8.60    1.20
  -2  -3 -20    8.00    1.10
  -2  -3 -20    8.30    0.80
  -3  -3 -20    4.50    0.90
  -3  -3 -20    4.10    0.70
  -3  -3 -20    4.80    0.60
  -3  -3 -20    3.40    0.80
  -2  -4 -20   31.10    1.50
  -2  -4 -20   31.40    2.00
  -2  -4 -20   28.60    2.00
  -2  -4 -20   32.80    1.60
   0   0   0    0.00    0.00

_computing_structure_solution     'SHELXT 2014/5 (Sheldrick, 2014)'
;
_shelx_hkl_checksum              16520
_shelx_fab_file
;
-9 -4 1 0.0546 0.1886
-9 -3 1 0.0072 0.1925
-9 -2 1 -0.0550 0.1419
-8 -7 1 -0.0348 0.1393
-8 -7 2 0.0052 0.0765
-8 -7 3 0.0763 0.0209
-8 -6 1 -0.0474 0.1318
-8 -6 2 -0.0595 0.0418
-8 -6 3 0.0091 -0.0115
-8 -6 4 0.0453 0.0256
-8 -6 5 0.0094 0.0659
-8 -5 1 -0.0951 0.1683
-8 -5 2 -0.1166 0.0407
-8 -5 3 -0.0219 -0.0467
-8 -5 4 0.0788 -0.0212
-8 -5 5 0.0543 0.0142
-8 -5 6 -0.0562 -0.0216
-8 -4 1 -0.0514 0.2010
-8 -4 2 -0.1475 0.0650
-8 -4 3 -0.1006 -0.0451
-8 -4 4 0.0201 -0.0336
-8 -4 5 0.0613 0.0156
-8 -4 6 -0.0013 0.0175
-8 -4 7 -0.0609 0.0074
-8 -3 1 0.0778 0.1877
-8 -3 2 0.0963 0.0551
-8 -3 3 0.0841 -0.0632
-8 -3 4 0.0715 -0.0565
-8 -3 5 0.0713 0.0121
-8 -3 6 0.0725 0.0490
-8 -3 7 0.0707 0.0539
-8 -2 1 0.0941 0.2052
-8 -2 2 0.1592 0.0787
-8 -2 3 0.0847 -0.0390
-8 -2 4 -0.0187 -0.0479
-8 -2 5 -0.0644 0.0014
-8 -2 6 -0.0834 0.0335
-8 -2 7 -0.1111 0.0481
-8 -1 1 0.1538 0.1155
-8 -1 2 0.1080 0.0364
-8 -1 3 0.0194 -0.0169
-8 -1 4 -0.0022 -0.0001
-8 -1 5 0.0288 0.0245
-8 -1 6 0.0334 0.0185
-8 -1 7 0.0110 0.0198
-8 0 1 -0.0960 0.1011
-8 0 2 -0.1698 0.0182
-8 0 3 -0.1543 -0.0303
-8 0 4 -0.0704 -0.0101
-8 0 5 -0.0287 0.0048
-8 0 6 -0.0564 -0.0246
-8 1 1 0.0070 0.1534
-8 1 2 -0.0134 0.0385
-8 1 3 0.0087 -0.0353
-8 1 4 0.0686 -0.0040
-8 1 5 0.0964 0.0408
-8 2 1 0.1861 0.1222
-8 2 2 0.0916 0.0047
-7 -9 1 -0.0946 0.0939
-7 -9 2 -0.0229 -0.0124
-7 -8 1 -0.0298 0.1473
-7 -8 2 0.0072 0.0336
-7 -8 3 0.0761 -0.0487
-7 -8 4 0.0534 -0.0176
-7 -8 5 -0.0641 0.0451
-7 -7 1 -0.0991 0.1573
-7 -7 2 -0.0969 0.0414
-7 -7 3 -0.0107 -0.0481
-7 -7 4 0.0078 -0.0169
-7 -7 5 -0.0715 0.0505
-7 -7 6 -0.1139 0.0518
-7 -7 7 -0.0492 0.0180
-7 -6 1 0.0007 0.1655
-7 -6 2 -0.0564 0.0220
-7 -6 3 -0.0378 -0.0718
-7 -6 4 -0.0142 -0.0149
-7 -6 5 -0.0108 0.0667
-7 -6 6 0.0298 0.0435
-7 -6 7 0.1135 -0.0281
-7 -6 8 0.1588 -0.0395
-7 -5 1 -0.0577 0.2088
-7 -5 2 -0.0820 0.0387
-7 -5 3 -0.0383 -0.0748
-7 -5 4 0.0435 -0.0300
-7 -5 5 0.0796 0.0327
-7 -5 6 0.0352 -0.0025
-7 -5 7 -0.0437 -0.0507
-7 -5 8 -0.0847 -0.0102
-7 -5 9 -0.0625 0.0574
-7 -4 1 -0.1155 0.2030
-7 -4 2 -0.2259 0.0442
-7 -4 3 -0.2154 -0.0580
-7 -4 4 -0.0761 -0.0173
-7 -4 5 0.0761 0.0362
-7 -4 6 0.1233 0.0086
-7 -4 7 0.0734 -0.0220
-7 -4 8 0.0251 0.0117
-7 -4 9 0.0224 0.0343
-7 -4 10 0.0183 -0.0211
-7 -3 1 0.0135 0.1848
-7 -3 2 -0.0407 0.0410
-7 -3 3 -0.1107 -0.0539
-7 -3 4 -0.1191 -0.0197
-7 -3 5 -0.0550 0.0325
-7 -3 6 0.0088 0.0185
-7 -3 7 0.0365 -0.0042
-7 -3 8 0.0700 0.0109
-7 -3 9 0.1170 0.0040
-7 -3 10 0.1104 -0.0561
-7 -2 1 0.0541 0.2062
-7 -2 2 0.0556 0.0628
-7 -2 3 -0.0008 -0.0435
-7 -2 4 -0.0293 -0.0301
-7 -2 5 -0.0319 0.0087
-7 -2 6 -0.0891 -0.0010
-7 -2 7 -0.1784 -0.0105
-7 -2 8 -0.1741 0.0107
-7 -2 9 -0.0505 -0.0031
-7 -2 10 0.0695 -0.0737
-7 -1 1 0.0043 0.1594
-7 -1 2 -0.0454 0.0382
-7 -1 3 -0.0322 -0.0388
-7 -1 4 0.0884 -0.0079
-7 -1 5 0.1880 0.0295
-7 -1 6 0.1512 0.0069
-7 -1 7 0.0598 -0.0119
-7 -1 8 0.0445 0.0121
-7 -1 9 0.0770 0.0069
-7 -1 10 0.0589 -0.0606
-7 0 1 -0.1259 0.1689
-7 0 2 -0.1538 0.0379
-7 0 3 -0.0724 -0.0515
-7 0 4 0.0424 -0.0219
-7 0 5 0.0586 0.0204
-7 0 6 -0.0105 -0.0083
-7 0 7 -0.0289 -0.0415
-7 0 8 0.0294 -0.0150
-7 0 9 0.0492 0.0092
-7 0 10 -0.0051 -0.0286
-7 1 1 -0.0239 0.1906
-7 1 2 0.0424 0.0441
-7 1 3 0.0819 -0.0606
-7 1 4 0.0568 -0.0195
-7 1 5 -0.0029 0.0491
-7 1 6 -0.0087 0.0260
-7 1 7 0.0613 -0.0265
-7 1 8 0.1116 -0.0073
-7 1 9 0.0667 0.0428
-7 2 1 0.2123 0.1815
-7 2 2 0.1956 0.0319
-7 2 3 0.0798 -0.0683
-7 2 4 -0.0575 -0.0192
-7 2 5 -0.1131 0.0516
-7 2 6 -0.0771 0.0181
-7 2 7 -0.0305 -0.0556
-7 2 8 -0.0259 -0.0548
-7 3 1 0.0867 0.1631
-7 3 2 0.0937 0.0389
-7 3 3 0.0352 -0.0492
-7 3 4 0.0072 -0.0294
-7 3 5 0.0412 0.0079
-7 3 6 0.0651 -0.0174
-7 4 1 0.0331 0.1196
-7 4 2 -0.0204 0.0361
-7 4 3 -0.0867 -0.0348
-7 4 4 -0.0935 -0.0476
-6 -10 1 0.0327 0.1120
-6 -10 2 -0.0037 0.0186
-6 -9 1 -0.0825 0.1563
-6 -9 2 -0.0289 0.0190
-6 -9 3 0.0679 -0.0833
-6 -9 4 0.0467 -0.0336
-6 -9 5 -0.0722 0.0754
-6 -8 1 -0.0741 0.1846
-6 -8 2 -0.0100 0.0438
-6 -8 3 0.0908 -0.0635
-6 -8 4 0.0567 -0.0229
-6 -8 5 -0.0834 0.0624
-6 -8 6 -0.1435 0.0600
-6 -8 7 -0.0764 0.0065
-6 -7 1 -0.1131 0.1889
-6 -7 2 -0.1001 0.0473
-6 -7 3 0.0104 -0.0683
-6 -7 4 0.0634 -0.0408
-6 -7 5 0.0387 0.0320
-6 -7 6 0.0368 0.0303
-6 -7 7 0.0559 -0.0025
-6 -7 8 -0.0043 0.0221
-6 -7 9 -0.1278 0.0672
-6 -6 1 0.0615 0.2225
-6 -6 2 -0.0166 0.0625
-6 -6 3 -0.0678 -0.0658
-6 -6 4 -0.0914 -0.0387
-6 -6 5 -0.0665 0.0345
-6 -6 6 -0.0019 0.0236
-6 -6 7 0.0358 -0.0310
-6 -6 8 0.0283 -0.0398
-6 -6 9 0.0557 -0.0270
-6 -6 10 0.1565 -0.0504
-6 -5 1 0.0760 0.2415
-6 -5 2 0.0482 0.0784
-6 -5 3 -0.0304 -0.0508
-6 -5 4 -0.0544 -0.0288
-6 -5 5 0.0171 0.0333
-6 -5 6 0.0729 0.0171
-6 -5 7 0.0184 -0.0271
-6 -5 8 -0.0548 -0.0140
-6 -5 9 -0.0058 0.0243
-6 -5 10 0.1177 0.0263
-6 -5 11 0.1385 0.0189
-6 -4 1 0.0291 0.2062
-6 -4 2 -0.0102 0.0581
-6 -4 3 -0.1025 -0.0514
-6 -4 4 -0.0795 -0.0237
-6 -4 5 0.1065 0.0338
-6 -4 6 0.2688 0.0178
-6 -4 7 0.2498 -0.0197
-6 -4 8 0.1357 -0.0056
-6 -4 9 0.0803 0.0210
-6 -4 10 0.0668 0.0030
-6 -4 11 0.0005 -0.0248
-6 -4 12 -0.0802 -0.0142
-6 -3 1 0.1399 0.1977
-6 -3 2 0.0395 0.0590
-6 -3 3 -0.1648 -0.0422
-6 -3 4 -0.2577 -0.0163
-6 -3 5 -0.1695 0.0337
-6 -3 6 -0.0648 0.0119
-6 -3 7 -0.0677 -0.0288
-6 -3 8 -0.0926 -0.0164
-6 -3 9 -0.0400 0.0098
-6 -3 10 0.0216 -0.0058
-6 -3 11 -0.0049 -0.0227
-6 -3 12 -0.0657 0.0124
-6 -3 13 -0.0527 0.0572
-6 -2 1 0.0020 0.1872
-6 -2 2 -0.0462 0.0476
-6 -2 3 -0.0651 -0.0552
-6 -2 4 0.0584 -0.0268
-6 -2 5 0.1867 0.0295
-6 -2 6 0.0880 0.0129
-6 -2 7 -0.1964 -0.0233
-6 -2 8 -0.3762 -0.0056
-6 -2 9 -0.3078 0.0211
-6 -2 10 -0.1433 -0.0041
-6 -2 11 -0.0579 -0.0293
-6 -2 12 -0.0393 0.0160
-6 -2 13 -0.0073 0.0847
-6 -1 1 -0.0867 0.1761
-6 -1 2 -0.2109 0.0326
-6 -1 3 -0.1744 -0.0710
-6 -1 4 0.1079 -0.0327
-6 -1 5 0.3511 0.0377
-6 -1 6 0.2648 0.0267
-6 -1 7 -0.0299 -0.0139
-6 -1 8 -0.1940 -0.0005
-6 -1 9 -0.1421 0.0256
-6 -1 10 -0.0642 -0.0019
-6 -1 11 -0.0773 -0.0320
-6 -1 12 -0.1118 0.0133
-6 -1 13 -0.1063 0.0889
-6 0 1 0.0545 0.2256
-6 0 2 -0.0944 0.0706
-6 0 3 -0.1312 -0.0569
-6 0 4 -0.0088 -0.0368
-6 0 5 0.0713 0.0288
-6 0 6 -0.0365 0.0178
-6 0 7 -0.1979 -0.0254
-6 0 8 -0.2177 -0.0115
-6 0 9 -0.1139 0.0231
-6 0 10 -0.0273 0.0033
-6 0 11 0.0036 -0.0334
-6 0 12 0.0283 -0.0079
-6 0 13 0.0475 0.0515
-6 1 1 0.0040 0.2049
-6 1 2 0.0226 0.0579
-6 1 3 0.0446 -0.0626
-6 1 4 0.0522 -0.0366
-6 1 5 0.0271 0.0327
-6 1 6 -0.0144 0.0215
-6 1 7 -0.0408 -0.0214
-6 1 8 -0.0438 -0.0003
-6 1 9 -0.0344 0.0473
-6 1 10 -0.0195 0.0319
-6 1 11 -0.0020 -0.0263
-6 1 12 0.0096 -0.0474
-6 2 1 -0.0874 0.1858
-6 2 2 -0.0372 0.0430
-6 2 3 -0.0005 -0.0598
-6 2 4 -0.0335 -0.0228
-6 2 5 -0.0687 0.0395
-6 2 6 -0.0602 0.0142
-6 2 7 -0.0479 -0.0386
-6 2 8 -0.0462 -0.0253
-6 2 9 -0.0036 0.0158
-6 2 10 0.0849 0.0030
-6 2 11 0.1392 -0.0434
-6 2 12 0.1116 -0.0553
-6 3 1 -0.1504 0.1888
-6 3 2 -0.0366 0.0578
-6 3 3 0.0414 -0.0337
-6 3 4 0.0681 -0.0110
-6 3 5 0.0829 0.0257
-6 3 6 0.0725 -0.0012
-6 3 7 0.0081 -0.0340
-6 3 8 -0.0624 -0.0148
-6 3 9 -0.0664 0.0085
-6 3 10 -0.0169 -0.0168
-6 4 1 0.0106 0.1883
-6 4 2 0.0393 0.0651
-6 4 3 0.0366 -0.0293
-6 4 4 0.0372 -0.0304
-6 4 5 0.0523 -0.0065
-6 4 6 0.0623 -0.0062
-6 4 7 0.0618 0.0056
-6 4 8 0.0719 0.0467
-6 4 9 0.0936 0.0668
-6 5 1 0.0331 0.1407
-6 5 2 0.0355 0.0267
-6 5 3 0.0327 -0.0480
-6 5 4 0.0019 -0.0286
-6 5 5 -0.0524 0.0186
-6 5 6 -0.1095 0.0336
-6 5 7 -0.1475 0.0306
-6 6 1 -0.0198 0.0873
-6 6 2 0.0381 -0.0097
-5 -10 1 -0.1062 0.1150
-5 -10 2 -0.0821 0.0272
-5 -10 3 0.0256 -0.0626
-5 -10 4 0.0695 -0.0724
-5 -9 1 -0.0990 0.1756
-5 -9 2 -0.0786 0.0549
-5 -9 3 0.0068 -0.0512
-5 -9 4 -0.0051 -0.0321
-5 -9 5 -0.1069 0.0402
-5 -9 6 -0.1415 0.0578
-5 -9 7 -0.0705 0.0374
-5 -8 1 -0.0434 0.2063
-5 -8 2 0.0095 0.0623
-5 -8 3 0.0566 -0.0572
-5 -8 4 -0.0299 -0.0318
-5 -8 5 -0.1730 0.0407
-5 -8 6 -0.1929 0.0349
-5 -8 7 -0.0932 -0.0087
-5 -8 8 -0.0535 0.0071
-5 -8 9 -0.1437 0.0602
-5 -7 1 -0.0836 0.2289
-5 -7 2 -0.0286 0.0695
-5 -7 3 0.0678 -0.0601
-5 -7 4 0.1035 -0.0396
-5 -7 5 0.0872 0.0238
-5 -7 6 0.0805 0.0102
-5 -7 7 0.0551 -0.0266
-5 -7 8 -0.0637 0.0070
-5 -7 9 -0.2377 0.0678
-5 -7 10 -0.3212 0.0617
-5 -7 11 -0.2392 0.0062
-5 -6 1 0.0038 0.2427
-5 -6 2 0.0139 0.0754
-5 -6 3 0.0211 -0.0563
-5 -6 4 0.0327 -0.0388
-5 -6 5 0.0419 0.0205
-5 -6 6 0.0091 0.0087
-5 -6 7 -0.0815 -0.0256
-5 -6 8 -0.1596 -0.0061
-5 -6 9 -0.1410 0.0231
-5 -6 10 -0.0438 -0.0057
-5 -6 11 0.0368 -0.0517
-5 -6 12 0.0503 -0.0429
-5 -5 1 0.0179 0.2077
-5 -5 2 0.0326 0.0562
-5 -5 3 -0.0142 -0.0564
-5 -5 4 -0.0391 -0.0300
-5 -5 5 0.0072 0.0307
-5 -5 6 0.0324 0.0189
-5 -5 7 -0.0311 -0.0189
-5 -5 8 -0.0948 -0.0061
-5 -5 9 -0.0699 0.0268
-5 -5 10 -0.0220 0.0215
-5 -5 11 -0.0438 0.0035
-5 -5 12 -0.0855 0.0178
-5 -5 13 -0.0457 0.0363
-5 -4 1 -0.0045 0.1805
-5 -4 2 0.0995 0.0361
-5 -4 3 0.0370 -0.0729
-5 -4 4 -0.0504 -0.0424
-5 -4 5 -0.0107 0.0289
-5 -4 6 0.0849 0.0273
-5 -4 7 0.1066 -0.0125
-5 -4 8 0.0741 -0.0098
-5 -4 9 0.0640 0.0180
-5 -4 10 0.0601 0.0116
-5 -4 11 0.0264 -0.0166
-5 -4 12 0.0120 -0.0225
-5 -4 13 0.0689 -0.0189
-5 -4 14 0.1437 -0.0372
-5 -3 1 0.2063 0.2073
-5 -3 2 0.1919 0.0603
-5 -3 3 -0.0112 -0.0603
-5 -3 4 -0.2309 -0.0405
-5 -3 5 -0.3125 0.0253
-5 -3 6 -0.2798 0.0170
-5 -3 7 -0.2112 -0.0302
-5 -3 8 -0.1151 -0.0243
-5 -3 9 0.0068 0.0176
-5 -3 10 0.0983 0.0200
-5 -3 11 0.1209 -0.0125
-5 -3 12 0.1068 -0.0212
-5 -3 13 0.0964 -0.0086
-5 -3 14 0.0846 -0.0203
-5 -2 1 -0.0548 0.2197
-5 -2 2 -0.0097 0.0658
-5 -2 3 0.0827 -0.0603
-5 -2 4 0.2200 -0.0343
-5 -2 5 0.2937 0.0401
-5 -2 6 0.2068 0.0286
-5 -2 7 0.0293 -0.0288
-5 -2 8 -0.0845 -0.0240
-5 -2 9 -0.0973 0.0258
-5 -2 10 -0.0912 0.0273
-5 -2 11 -0.1018 -0.0173
-5 -2 12 -0.0828 -0.0264
-5 -2 13 -0.0200 0.0122
-5 -2 14 0.0370 0.0342
-5 -2 15 0.0581 0.0193
-5 -1 1 -0.0726 0.2594
-5 -1 2 -0.0727 0.0795
-5 -1 3 -0.0164 -0.0699
-5 -1 4 0.1636 -0.0463
-5 -1 5 0.3243 0.0403
-5 -1 6 0.2930 0.0353
-5 -1 7 0.1293 -0.0280
-5 -1 8 0.0285 -0.0301
-5 -1 9 0.0364 0.0205
-5 -1 10 0.0387 0.0252
-5 -1 11 -0.0170 -0.0196
-5 -1 12 -0.0639 -0.0252
-5 -1 13 -0.0641 0.0306
-5 -1 14 -0.0573 0.0767
-5 -1 15 -0.0579 0.0709
-5 0 1 0.2350 0.2840
-5 0 2 0.0887 0.1017
-5 0 3 -0.1307 -0.0546
-5 0 4 -0.1989 -0.0400
-5 0 5 -0.1275 0.0404
-5 0 6 -0.0902 0.0337
-5 0 7 -0.1321 -0.0308
-5 0 8 -0.1357 -0.0367
-5 0 9 -0.0373 0.0099
-5 0 10 0.0778 0.0166
-5 0 11 0.1122 -0.0203
-5 0 12 0.0751 -0.0216
-5 0 13 0.0332 0.0274
-5 0 14 0.0199 0.0621
-5 0 15 0.0291 0.0529
-5 1 1 0.1558 0.2192
-5 1 2 0.0904 0.0639
-5 1 3 0.0009 -0.0603
-5 1 4 -0.0215 -0.0341
-5 1 5 0.0318 0.0383
-5 1 6 0.0698 0.0270
-5 1 7 0.0169 -0.0269
-5 1 8 -0.0747 -0.0211
-5 1 9 -0.0881 0.0247
-5 1 10 -0.0143 0.0262
-5 1 11 0.0328 -0.0133
-5 1 12 -0.0045 -0.0320
-5 1 13 -0.0428 -0.0302
-5 1 14 -0.0059 -0.0469
-5 2 1 -0.0791 0.1921
-5 2 2 -0.0702 0.0419
-5 2 3 0.0417 -0.0635
-5 2 4 0.1104 -0.0290
-5 2 5 0.1304 0.0340
-5 2 6 0.1411 0.0171
-5 2 7 0.1243 -0.0262
-5 2 8 0.0902 -0.0121
-5 2 9 0.1106 0.0253
-5 2 10 0.1793 0.0178
-5 2 11 0.1823 -0.0137
-5 2 12 0.0818 -0.0199
-5 2 13 -0.0094 -0.0211
-5 2 14 -0.0132 -0.0519
-5 3 1 -0.1547 0.1595
-5 3 2 -0.0904 0.0190
-5 3 3 0.0140 -0.0628
-5 3 4 0.0130 -0.0144
-5 3 5 -0.0570 0.0432
-5 3 6 -0.0877 0.0182
-5 3 7 -0.0528 -0.0252
-5 3 8 0.0034 -0.0139
-5 3 9 0.0396 0.0115
-5 3 10 0.0352 -0.0043
-5 3 11 0.0011 -0.0267
-5 3 12 -0.0084 -0.0046
-5 3 13 0.0407 0.0369
-5 4 1 -0.0426 0.1770
-5 4 2 -0.0313 0.0307
-5 4 3 -0.0301 -0.0600
-5 4 4 -0.1000 -0.0212
-5 4 5 -0.2045 0.0327
-5 4 6 -0.2314 0.0142
-5 4 7 -0.1405 -0.0199
-5 4 8 -0.0198 -0.0027
-5 4 9 0.0260 0.0297
-5 4 10 -0.0046 0.0192
-5 4 11 -0.0310 -0.0180
-5 4 12 -0.0028 -0.0362
-5 5 1 -0.0967 0.2127
-5 5 2 -0.1104 0.0524
-5 5 3 -0.0474 -0.0607
-5 5 4 -0.0225 -0.0307
-5 5 5 -0.0714 0.0369
-5 5 6 -0.1358 0.0308
-5 5 7 -0.1851 -0.0189
-5 5 8 -0.2328 -0.0314
-5 5 9 -0.2526 -0.0017
-5 5 10 -0.1951 0.0239
-5 5 11 -0.0906 0.0300
-5 6 1 -0.0359 0.2116
-5 6 2 0.0120 0.0573
-5 6 3 0.0605 -0.0579
-5 6 4 0.0432 -0.0333
-5 6 5 -0.0219 0.0339
-5 6 6 -0.0851 0.0237
-5 6 7 -0.1367 -0.0437
-5 6 8 -0.1600 -0.0761
-5 7 1 -0.0233 0.1361
-5 7 2 -0.0108 0.0326
-5 7 3 -0.0131 -0.0299
-5 7 4 -0.0294 0.0106
-5 7 5 -0.0525 0.0659
-4 -11 1 -0.0079 0.0892
-4 -11 2 -0.0127 0.0141
-4 -10 1 -0.0095 0.1393
-4 -10 2 -0.0130 0.0186
-4 -10 3 0.0130 -0.0645
-4 -10 4 0.0185 -0.0467
-4 -10 5 -0.0087 -0.0201
-4 -10 6 -0.0173 -0.0521
-4 -9 1 -0.0161 0.1760
-4 -9 2 -0.0170 0.0461
-4 -9 3 -0.0168 -0.0470
-4 -9 4 -0.0378 -0.0197
-4 -9 5 -0.0432 0.0245
-4 -9 6 0.0017 -0.0021
-4 -9 7 0.0590 -0.0316
-4 -9 8 0.0701 0.0136
-4 -9 9 0.0406 0.0757
-4 -8 1 0.0195 0.1994
-4 -8 2 0.0953 0.0477
-4 -8 3 0.0542 -0.0643
-4 -8 4 -0.0629 -0.0302
-4 -8 5 -0.1053 0.0325
-4 -8 6 -0.0253 0.0053
-4 -8 7 0.0775 -0.0482
-4 -8 8 0.1080 -0.0224
-4 -8 9 0.0660 0.0472
-4 -8 10 -0.0064 0.0654
-4 -8 11 -0.0661 0.0363
-4 -7 1 -0.0545 0.2306
-4 -7 2 -0.0299 0.0599
-4 -7 3 -0.0381 -0.0644
-4 -7 4 -0.0175 -0.0267
-4 -7 5 0.0648 0.0457
-4 -7 6 0.1140 0.0199
-4 -7 7 0.0618 -0.0461
-4 -7 8 -0.0104 -0.0437
-4 -7 9 -0.0141 0.0024
-4 -7 10 0.0052 0.0088
-4 -7 11 -0.0168 -0.0167
-4 -7 12 -0.0346 -0.0167
-4 -6 1 -0.0454 0.2345
-4 -6 2 -0.0364 0.0577
-4 -6 3 0.0065 -0.0661
-4 -6 4 0.1352 -0.0274
-4 -6 5 0.2350 0.0458
-4 -6 6 0.1348 0.0277
-4 -6 7 -0.0920 -0.0252
-4 -6 8 -0.1709 -0.0160
-4 -6 9 -0.0265 0.0227
-4 -6 10 0.1123 0.0121
-4 -6 11 0.0823 -0.0293
-4 -6 12 0.0024 -0.0347
-4 -6 13 0.0123 -0.0091
-4 -5 1 0.0549 0.2182
-4 -5 2 0.0010 0.0456
-4 -5 3 0.0030 -0.0688
-4 -5 4 0.1123 -0.0214
-4 -5 5 0.2494 0.0531
-4 -5 6 0.2556 0.0254
-4 -5 7 0.1565 -0.0410
-4 -5 8 0.1265 -0.0348
-4 -5 9 0.1693 0.0172
-4 -5 10 0.1103 0.0237
-4 -5 11 -0.0618 -0.0092
-4 -5 12 -0.1376 -0.0105
-4 -5 13 -0.0339 0.0223
-4 -5 14 0.0729 0.0336
-4 -4 1 -0.0825 0.2612
-4 -4 2 -0.0108 0.0704
-4 -4 3 -0.0383 -0.0696
-4 -4 4 -0.0593 -0.0318
-4 -4 5 -0.0008 0.0522
-4 -4 6 0.0497 0.0345
-4 -4 7 0.0295 -0.0341
-4 -4 8 -0.0046 -0.0355
-4 -4 9 -0.0091 0.0113
-4 -4 10 0.0006 0.0124
-4 -4 11 0.0386 -0.0251
-4 -4 12 0.1178 -0.0225
-4 -4 13 0.1534 0.0186
-4 -4 14 0.0609 0.0265
-4 -4 15 -0.0807 -0.0069
-4 -3 1 -0.0922 0.2750
-4 -3 2 -0.1052 0.0828
-4 -3 3 -0.1768 -0.0668
-4 -3 4 -0.2333 -0.0376
-4 -3 5 -0.2481 0.0451
-4 -3 6 -0.2496 0.0316
-4 -3 7 -0.2371 -0.0302
-4 -3 8 -0.1843 -0.0241
-4 -3 9 -0.0857 0.0265
-4 -3 10 0.0547 0.0261
-4 -3 11 0.2088 -0.0121
-4 -3 12 0.2669 -0.0066
-4 -3 13 0.1176 0.0298
-4 -3 14 -0.1619 0.0141
-4 -3 15 -0.3300 -0.0486
-4 -2 1 -0.3249 0.2467
-4 -2 2 -0.3087 0.0662
-4 -2 3 -0.0846 -0.0709
-4 -2 4 0.1402 -0.0350
-4 -2 5 0.1857 0.0488
-4 -2 6 0.1025 0.0348
-4 -2 7 0.0530 -0.0280
-4 -2 8 0.0735 -0.0238
-4 -2 9 0.0790 0.0253
-4 -2 10 0.0414 0.0244
-4 -2 11 0.0106 -0.0161
-4 -2 12 -0.0222 -0.0159
-4 -2 13 -0.1202 0.0181
-4 -2 14 -0.2457 0.0090
-4 -2 15 -0.2603 -0.0441
-4 -1 1 -0.0359 0.2772
-4 -1 2 0.0617 0.0844
-4 -1 3 0.1848 -0.0703
-4 -1 4 0.1943 -0.0493
-4 -1 5 0.0907 0.0322
-4 -1 6 0.0101 0.0267
-4 -1 7 0.0394 -0.0293
-4 -1 8 0.1113 -0.0252
-4 -1 9 0.1187 0.0245
-4 -1 10 0.0656 0.0272
-4 -1 11 0.0366 -0.0176
-4 -1 12 0.0578 -0.0318
-4 -1 13 0.0718 -0.0028
-4 -1 14 0.0423 0.0061
-4 -1 15 0.0073 -0.0284
-4 -1 16 0.0102 -0.0634
-4 0 1 0.0851 0.2460
-4 0 2 0.1145 0.0656
-4 0 3 -0.0298 -0.0768
-4 0 4 -0.2331 -0.0506
-4 0 5 -0.3029 0.0335
-4 0 6 -0.1835 0.0322
-4 0 7 -0.0039 -0.0220
-4 0 8 0.0837 -0.0229
-4 0 9 0.0611 0.0205
-4 0 10 0.0113 0.0247
-4 0 11 -0.0138 -0.0117
-4 0 12 -0.0290 -0.0191
-4 0 13 -0.0489 0.0121
-4 0 14 -0.0582 0.0227
-4 0 15 -0.0452 -0.0100
-4 0 16 -0.0143 -0.0473
-4 1 1 -0.2890 0.2064
-4 1 2 -0.2245 0.0454
-4 1 3 -0.1718 -0.0747
-4 1 4 -0.1386 -0.0401
-4 1 5 -0.0721 0.0377
-4 1 6 0.0422 0.0307
-4 1 7 0.1082 -0.0218
-4 1 8 0.0459 -0.0244
-4 1 9 -0.0653 0.0085
-4 1 10 -0.0898 0.0105
-4 1 11 -0.0317 -0.0073
-4 1 12 0.0000 0.0026
-4 1 13 -0.0235 0.0192
-4 1 14 -0.0347 -0.0078
-4 1 15 -0.0119 -0.0573
-4 1 16 -0.0037 -0.0672
-4 2 1 -0.2670 0.2389
-4 2 2 -0.1978 0.0724
-4 2 3 0.0164 -0.0557
-4 2 4 0.1497 -0.0341
-4 2 5 0.1577 0.0295
-4 2 6 0.1580 0.0213
-4 2 7 0.1779 -0.0170
-4 2 8 0.1407 -0.0105
-4 2 9 0.0577 0.0132
-4 2 10 0.0299 0.0038
-4 2 11 0.0664 -0.0101
-4 2 12 0.0720 0.0092
-4 2 13 0.0176 0.0224
-4 2 14 -0.0220 -0.0136
-4 2 15 -0.0075 -0.0553
-4 2 16 0.0151 -0.0401
-4 3 1 -0.1098 0.2230
-4 3 2 -0.0301 0.0559
-4 3 3 0.0955 -0.0609
-4 3 4 0.0663 -0.0273
-4 3 5 -0.0916 0.0371
-4 3 6 -0.1642 0.0229
-4 3 7 -0.0683 -0.0182
-4 3 8 0.0432 -0.0106
-4 3 9 0.0227 0.0140
-4 3 10 -0.0755 0.0032
-4 3 11 -0.1046 -0.0135
-4 3 12 -0.0263 0.0078
-4 3 13 0.0747 0.0392
-4 3 14 0.1142 0.0352
-4 3 15 0.0795 0.0138
-4 4 1 -0.0310 0.2241
-4 4 2 0.0219 0.0505
-4 4 3 0.0467 -0.0664
-4 4 4 -0.0953 -0.0293
-4 4 5 -0.3532 0.0368
-4 4 6 -0.4710 0.0198
-4 4 7 -0.3226 -0.0264
-4 4 8 -0.1026 -0.0174
-4 4 9 -0.0565 0.0187
-4 4 10 -0.1488 0.0147
-4 4 11 -0.1551 -0.0203
-4 4 12 0.0009 -0.0374
-4 4 13 0.1686 -0.0371
-4 4 14 0.2010 -0.0505
-4 5 1 -0.1736 0.2331
-4 5 2 -0.1449 0.0599
-4 5 3 -0.0462 -0.0662
-4 5 4 -0.0391 -0.0355
-4 5 5 -0.1297 0.0383
-4 5 6 -0.1569 0.0307
-4 5 7 -0.0738 -0.0228
-4 5 8 -0.0372 -0.0289
-4 5 9 -0.1427 0.0091
-4 5 10 -0.2547 0.0263
-4 5 11 -0.2103 0.0131
-4 5 12 -0.0510 0.0124
-4 5 13 0.0691 0.0322
-4 6 1 0.0417 0.2247
-4 6 2 0.0574 0.0628
-4 6 3 0.0752 -0.0673
-4 6 4 0.0421 -0.0454
-4 6 5 -0.0005 0.0306
-4 6 6 0.0117 0.0291
-4 6 7 0.0477 -0.0267
-4 6 8 0.0370 -0.0370
-4 6 9 -0.0015 0.0039
-4 6 10 0.0042 0.0192
-4 6 11 0.0435 -0.0156
-4 6 12 0.0406 -0.0449
-4 7 1 0.0843 0.1943
-4 7 2 0.0323 0.0491
-4 7 3 -0.0252 -0.0609
-4 7 4 -0.0512 -0.0298
-4 7 5 -0.0566 0.0490
-4 7 6 -0.0735 0.0528
-4 7 7 -0.1074 0.0039
-4 7 8 -0.1269 -0.0039
-4 7 9 -0.1047 0.0338
-4 8 1 0.0119 0.1232
-4 8 2 -0.0592 0.0203
-4 8 3 -0.0624 -0.0427
-4 8 4 -0.0181 -0.0046
-4 8 5 -0.0029 0.0558
-3 -11 1 0.0589 0.1572
-3 -11 2 0.0734 0.0730
-3 -11 3 0.0662 0.0085
-3 -10 1 0.0359 0.1993
-3 -10 2 0.0274 0.0580
-3 -10 3 0.0089 -0.0458
-3 -10 4 0.0090 -0.0210
-3 -10 5 0.0412 0.0343
-3 -10 6 0.0612 0.0264
-3 -10 7 0.0200 0.0020
-3 -9 1 -0.0180 0.2128
-3 -9 2 0.0354 0.0611
-3 -9 3 0.0240 -0.0522
-3 -9 4 -0.0058 -0.0251
-3 -9 5 0.0325 0.0343
-3 -9 6 0.0924 0.0175
-3 -9 7 0.0663 -0.0210
-3 -9 8 -0.0223 0.0034
-3 -9 9 -0.0591 0.0511
-3 -8 1 -0.0700 0.2091
-3 -8 2 0.1846 0.0538
-3 -8 3 0.2106 -0.0619
-3 -8 4 0.0926 -0.0290
-3 -8 5 0.0786 0.0391
-3 -8 6 0.1714 0.0207
-3 -8 7 0.1844 -0.0309
-3 -8 8 0.0829 -0.0139
-3 -8 9 -0.0074 0.0463
-3 -8 10 -0.0542 0.0643
-3 -8 11 -0.1215 0.0408
-3 -7 1 -0.1419 0.2138
-3 -7 2 -0.0319 0.0561
-3 -7 3 -0.0531 -0.0614
-3 -7 4 -0.0627 -0.0294
-3 -7 5 0.0631 0.0434
-3 -7 6 0.1498 0.0343
-3 -7 7 0.0214 -0.0196
-3 -7 8 -0.1655 -0.0290
-3 -7 9 -0.1635 -0.0030
-3 -7 10 -0.0174 0.0031
-3 -7 11 0.0599 -0.0041
-3 -7 12 0.0340 0.0072
-3 -7 13 0.0187 0.0196
-3 -6 1 -0.0819 0.2202
-3 -6 2 -0.0577 0.0565
-3 -6 3 -0.0387 -0.0674
-3 -6 4 0.0678 -0.0425
-3 -6 5 0.1504 0.0296
-3 -6 6 -0.0388 0.0328
-3 -6 7 -0.4412 -0.0030
-3 -6 8 -0.6466 -0.0026
-3 -6 9 -0.4373 0.0195
-3 -6 10 -0.0755 0.0120
-3 -6 11 0.1036 -0.0111
-3 -6 12 0.0929 -0.0070
-3 -6 13 0.0474 0.0144
-3 -6 14 -0.0033 0.0159
-3 -5 1 0.1790 0.2440
-3 -5 2 0.0996 0.0592
-3 -5 3 0.0435 -0.0787
-3 -5 4 0.0875 -0.0466
-3 -5 5 0.1517 0.0357
-3 -5 6 0.0611 0.0307
-3 -5 7 -0.1310 -0.0213
-3 -5 8 -0.1758 -0.0186
-3 -5 9 -0.0252 0.0240
-3 -5 10 0.0968 0.0266
-3 -5 11 0.0605 -0.0079
-3 -5 12 -0.0139 -0.0150
-3 -5 13 -0.0176 0.0088
-3 -5 14 -0.0063 0.0098
-3 -5 15 -0.0332 -0.0167
-3 -4 1 0.1708 0.3173
-3 -4 2 0.1969 0.0900
-3 -4 3 0.0310 -0.0886
-3 -4 4 -0.0992 -0.0610
-3 -4 5 -0.0738 0.0356
-3 -4 6 -0.0290 0.0334
-3 -4 7 -0.0878 -0.0255
-3 -4 8 -0.1926 -0.0219
-3 -4 9 -0.2358 0.0248
-3 -4 10 -0.1806 0.0202
-3 -4 11 -0.0503 -0.0243
-3 -4 12 0.0754 -0.0264
-3 -4 13 0.0934 0.0109
-3 -4 14 0.0079 0.0171
-3 -4 15 -0.0430 -0.0055
-3 -4 16 0.0171 0.0071
-3 -3 1 -0.0055 0.3143
-3 -3 2 -0.0053 0.0816
-3 -3 3 -0.0920 -0.0950
-3 -3 4 -0.0543 -0.0602
-3 -3 5 0.0906 0.0367
-3 -3 6 0.1548 0.0304
-3 -3 7 0.0304 -0.0252
-3 -3 8 -0.2097 -0.0143
-3 -3 9 -0.3800 0.0301
-3 -3 10 -0.3224 0.0177
-3 -3 11 -0.0752 -0.0243
-3 -3 12 0.1089 -0.0159
-3 -3 13 0.0348 0.0206
-3 -3 14 -0.1764 0.0129
-3 -3 15 -0.2434 -0.0176
-3 -2 1 -0.1012 0.2713
-3 -2 2 -0.1817 0.0567
-3 -2 3 -0.0536 -0.0909
-3 -2 4 0.1820 -0.0463
-3 -2 5 0.3029 0.0400
-3 -2 6 0.2592 0.0265
-3 -2 7 0.1346 -0.0254
-3 -2 8 -0.0110 -0.0169
-3 -2 9 -0.1154 0.0154
-3 -2 10 -0.0888 0.0008
-3 -2 11 0.0366 -0.0265
-3 -2 12 0.0679 -0.0061
-3 -2 13 -0.0917 0.0289
-3 -2 14 -0.2711 0.0211
-3 -1 1 0.5839 0.2726
-3 -1 2 0.4864 0.0762
-3 -1 3 0.4163 -0.0599
-3 -1 4 0.2843 -0.0311
-3 -1 5 0.1104 0.0319
-3 -1 6 0.0104 0.0148
-3 -1 7 -0.0239 -0.0274
-3 -1 8 -0.0965 -0.0162
-3 -1 9 -0.1798 0.0136
-3 -1 10 -0.1359 0.0039
-3 -1 11 0.0386 -0.0188
-3 -1 12 0.1955 -0.0085
-3 -1 13 0.2707 0.0139
-3 -1 14 0.3379 0.0112
-3 0 1 0.6751 0.2304
-3 0 2 0.5025 0.0579
-3 0 3 0.2248 -0.0583
-3 0 4 -0.0613 -0.0244
-3 0 5 -0.1802 0.0373
-3 0 6 -0.0809 0.0213
-3 0 7 0.0536 -0.0193
-3 0 8 0.0219 -0.0080
-3 0 9 -0.1535 0.0241
-3 0 10 -0.3127 0.0176
-3 0 11 -0.3835 -0.0103
-3 0 12 -0.3819 -0.0134
-3 0 13 -0.2859 0.0018
-3 0 14 -0.0848 0.0050
-3 0 15 0.1009 -0.0031
-3 1 1 -0.3439 0.2633
-3 1 2 -0.3765 0.0764
-3 1 3 -0.2863 -0.0550
-3 1 4 -0.1654 -0.0267
-3 1 5 -0.0884 0.0355
-3 1 6 -0.0183 0.0181
-3 1 7 0.0580 -0.0259
-3 1 8 0.0591 -0.0170
-3 1 9 -0.0475 0.0136
-3 1 10 -0.1533 0.0085
-3 1 11 -0.1406 -0.0104
-3 1 12 -0.0238 -0.0005
-3 1 13 0.0937 0.0188
-3 1 14 0.1335 0.0113
-3 1 15 0.0744 -0.0091
-3 1 16 -0.0558 -0.0144
-3 2 1 -0.2280 0.2896
-3 2 2 -0.3271 0.0916
-3 2 3 -0.2189 -0.0565
-3 2 4 -0.0823 -0.0359
-3 2 5 -0.0707 0.0261
-3 2 6 -0.0861 0.0129
-3 2 7 -0.0229 -0.0223
-3 2 8 0.0131 -0.0072
-3 2 9 -0.0843 0.0176
-3 2 10 -0.1819 0.0001
-3 2 11 -0.0922 -0.0239
-3 2 12 0.1174 -0.0107
-3 2 13 0.2066 0.0104
-3 2 14 0.0957 0.0040
-3 2 15 -0.0614 -0.0029
-3 2 16 -0.1149 0.0182
-3 2 17 -0.0768 0.0350
-3 3 1 0.0709 0.2706
-3 3 2 -0.0606 0.0758
-3 3 3 -0.1056 -0.0638
-3 3 4 -0.0982 -0.0346
-3 3 5 -0.1085 0.0278
-3 3 6 -0.0903 0.0096
-3 3 7 -0.0139 -0.0263
-3 3 8 0.0039 -0.0062
-3 3 9 -0.1223 0.0241
-3 3 10 -0.2547 0.0090
-3 3 11 -0.2004 -0.0154
-3 3 12 0.0000 -0.0040
-3 3 13 0.1274 0.0167
-3 3 14 0.0894 0.0150
-3 3 15 0.0050 0.0176
-3 3 16 -0.0089 0.0488
-3 3 17 0.0187 0.0701
-3 4 1 0.0398 0.2577
-3 4 2 -0.0287 0.0701
-3 4 3 -0.0509 -0.0582
-3 4 4 -0.0521 -0.0280
-3 4 5 -0.1150 0.0266
-3 4 6 -0.1935 0.0032
-3 4 7 -0.1821 -0.0312
-3 4 8 -0.1068 -0.0066
-3 4 9 -0.0809 0.0276
-3 4 10 -0.1051 0.0130
-3 4 11 -0.0713 -0.0165
-3 4 12 0.0423 -0.0147
-3 4 13 0.1239 -0.0079
-3 4 14 0.0966 -0.0307
-3 4 15 0.0185 -0.0498
-3 4 16 -0.0214 -0.0209
-3 5 1 -0.1892 0.2193
-3 5 2 -0.1681 0.0548
-3 5 3 -0.0512 -0.0520
-3 5 4 0.0425 -0.0188
-3 5 5 0.0282 0.0328
-3 5 6 -0.0149 0.0114
-3 5 7 0.0171 -0.0234
-3 5 8 0.0853 -0.0069
-3 5 9 0.0834 0.0194
-3 5 10 0.0140 0.0044
-3 5 11 -0.0200 -0.0166
-3 5 12 0.0256 0.0042
-3 5 13 0.0860 0.0356
-3 5 14 0.0958 0.0254
-3 5 15 0.0696 -0.0063
-3 6 1 -0.1617 0.1864
-3 6 2 -0.1097 0.0439
-3 6 3 -0.0420 -0.0496
-3 6 4 -0.0006 -0.0169
-3 6 5 0.0329 0.0338
-3 6 6 0.1059 0.0129
-3 6 7 0.2227 -0.0242
-3 6 8 0.3298 -0.0050
-3 6 9 0.3647 0.0337
-3 6 10 0.3060 0.0229
-3 6 11 0.1907 -0.0213
-3 6 12 0.0871 -0.0386
-3 6 13 0.0363 -0.0282
-3 6 14 0.0212 -0.0330
-3 7 1 0.0792 0.1962
-3 7 2 0.0419 0.0506
-3 7 3 -0.0147 -0.0540
-3 7 4 0.0079 -0.0292
-3 7 5 0.1043 0.0227
-3 7 6 0.1762 0.0053
-3 7 7 0.1810 -0.0330
-3 7 8 0.1686 -0.0153
-3 7 9 0.1583 0.0264
-3 7 10 0.0962 0.0172
-3 7 11 -0.0254 -0.0329
-3 7 12 -0.1116 -0.0548
-3 8 1 0.1059 0.1980
-3 8 2 0.0610 0.0582
-3 8 3 0.0281 -0.0401
-3 8 4 0.1003 -0.0162
-3 8 5 0.2096 0.0328
-3 8 6 0.2198 0.0190
-3 8 7 0.1212 -0.0185
-3 8 8 0.0270 -0.0189
-3 8 9 0.0030 -0.0073
-3 8 10 0.0097 -0.0322
-3 9 1 0.0800 0.1426
-3 9 2 0.0781 0.0392
-3 9 3 0.0910 -0.0156
-3 9 4 0.1513 0.0123
-3 9 5 0.2131 0.0431
-2 -11 1 0.0431 0.1726
-2 -11 2 0.0772 0.0826
-2 -11 3 0.0694 0.0180
-2 -10 1 -0.0015 0.2282
-2 -10 2 -0.0280 0.0799
-2 -10 3 -0.0709 -0.0344
-2 -10 4 -0.0727 -0.0237
-2 -10 5 0.0096 0.0296
-2 -10 6 0.1068 0.0462
-2 -10 7 0.1117 0.0512
-2 -9 1 0.0594 0.2270
-2 -9 2 0.0334 0.0706
-2 -9 3 -0.0510 -0.0546
-2 -9 4 -0.1264 -0.0419
-2 -9 5 -0.0887 0.0153
-2 -9 6 0.0179 0.0165
-2 -9 7 0.0579 -0.0051
-2 -9 8 0.0230 0.0043
-2 -9 9 0.0211 0.0077
-2 -9 10 0.0662 -0.0347
-2 -8 1 0.0280 0.2119
-2 -8 2 0.1962 0.0590
-2 -8 3 0.1644 -0.0556
-2 -8 4 -0.0235 -0.0301
-2 -8 5 -0.0991 0.0299
-2 -8 6 0.0121 0.0171
-2 -8 7 0.1228 -0.0230
-2 -8 8 0.1088 -0.0133
-2 -8 9 0.0391 0.0162
-2 -8 10 -0.0168 0.0039
-2 -8 11 -0.0759 -0.0316
-2 -8 12 -0.1192 -0.0410
-2 -7 1 -0.0677 0.1952
-2 -7 2 -0.0345 0.0495
-2 -7 3 -0.1291 -0.0538
-2 -7 4 -0.2263 -0.0267
-2 -7 5 -0.1204 0.0283
-2 -7 6 0.1187 0.0173
-2 -7 7 0.2448 -0.0175
-2 -7 8 0.1947 -0.0110
-2 -7 9 0.1127 0.0155
-2 -7 10 0.0874 0.0181
-2 -7 11 0.0754 0.0047
-2 -7 12 0.0398 -0.0054
-2 -7 13 -0.0029 -0.0227
-2 -7 14 -0.0409 -0.0460
-2 -6 1 0.0397 0.1989
-2 -6 2 -0.0015 0.0538
-2 -6 3 -0.0428 -0.0501
-2 -6 4 0.0075 -0.0303
-2 -6 5 0.1132 0.0149
-2 -6 6 0.1075 0.0024
-2 -6 7 -0.0526 -0.0251
-2 -6 8 -0.1923 -0.0131
-2 -6 9 -0.1645 0.0102
-2 -6 10 -0.0316 0.0035
-2 -6 11 0.0662 -0.0141
-2 -6 12 0.0752 -0.0068
-2 -6 13 0.0073 0.0182
-2 -6 14 -0.0979 0.0337
-2 -6 15 -0.1488 0.0347
-2 -5 1 0.1422 0.2513
-2 -5 2 0.0418 0.0760
-2 -5 3 -0.0038 -0.0489
-2 -5 4 0.0435 -0.0228
-2 -5 5 0.1185 0.0319
-2 -5 6 0.1177 0.0085
-2 -5 7 0.0623 -0.0356
-2 -5 8 0.0621 -0.0215
-2 -5 9 0.1307 0.0140
-2 -5 10 0.1736 0.0046
-2 -5 11 0.1366 -0.0247
-2 -5 12 0.0485 -0.0141
-2 -5 13 -0.0429 0.0180
-2 -5 14 -0.0740 0.0089
-2 -5 15 0.0193 -0.0371
-2 -5 16 0.1874 -0.0556
-2 -4 1 0.0570 0.3075
-2 -4 2 0.0493 0.0907
-2 -4 3 -0.0990 -0.0645
-2 -4 4 -0.1978 -0.0291
-2 -4 5 -0.1415 0.0444
-2 -4 6 0.0001 0.0188
-2 -4 7 0.1154 -0.0348
-2 -4 8 0.1537 -0.0163
-2 -4 9 0.1296 0.0265
-2 -4 10 0.0938 0.0132
-2 -4 11 0.0698 -0.0190
-2 -4 12 0.0233 -0.0019
-2 -4 13 -0.0427 0.0296
-2 -4 14 -0.0138 0.0117
-2 -4 15 0.1854 -0.0170
-2 -4 16 0.4103 0.0159
-2 -3 1 -0.1933 0.3293
-2 -3 2 -0.2083 0.0889
-2 -3 3 -0.2333 -0.0731
-2 -3 4 -0.1288 -0.0232
-2 -3 5 0.0324 0.0582
-2 -3 6 0.1389 0.0233
-2 -3 7 0.1570 -0.0398
-2 -3 8 0.0857 -0.0213
-2 -3 9 -0.0359 0.0239
-2 -3 10 -0.1122 0.0134
-2 -3 11 -0.1080 -0.0151
-2 -3 12 -0.1021 -0.0043
-2 -3 13 -0.1259 0.0092
-2 -3 14 -0.0743 -0.0131
-2 -3 15 0.1002 -0.0232
-2 -2 1 -0.1035 0.3519
-2 -2 2 -0.2115 0.0894
-2 -2 3 -0.1263 -0.0785
-2 -2 4 0.0051 -0.0273
-2 -2 5 -0.0261 0.0538
-2 -2 6 -0.1427 0.0231
-2 -2 7 -0.1804 -0.0319
-2 -2 8 -0.1432 -0.0142
-2 -2 9 -0.0820 0.0224
-2 -2 10 0.0227 0.0104
-2 -2 11 0.1187 -0.0130
-2 -2 12 0.0650 -0.0064
-2 -2 13 -0.1251 -0.0021
-2 -1 1 0.6703 0.2995
-2 -1 2 0.4412 0.0671
-2 -1 3 0.2812 -0.0745
-2 -1 4 0.1015 -0.0254
-2 -1 5 -0.0455 0.0442
-2 -1 6 -0.0425 0.0172
-2 -1 7 0.0108 -0.0272
-2 -1 8 -0.0449 -0.0106
-2 -1 9 -0.1007 0.0187
-2 -1 10 0.0398 0.0092
-2 -1 11 0.2671 -0.0061
-2 0 1 1.1884 0.2227
-2 0 2 0.7422 0.0254
-2 0 3 0.2943 -0.0896
-2 0 4 -0.0283 -0.0310
-2 0 5 -0.0769 0.0445
-2 0 6 0.1010 0.0234
-2 0 7 0.2323 -0.0229
-2 0 8 0.1579 -0.0129
-2 0 9 0.0036 0.0167
-2 0 10 -0.1187 0.0111
-2 0 11 -0.3245 -0.0097
-2 0 12 -0.6680 -0.0115
-2 1 1 -0.2942 0.2964
-2 1 2 -0.4280 0.0639
-2 1 3 -0.3221 -0.0874
-2 1 4 -0.1025 -0.0403
-2 1 5 0.0244 0.0429
-2 1 6 0.0435 0.0245
-2 1 7 0.0886 -0.0296
-2 1 8 0.2111 -0.0225
-2 1 9 0.3022 0.0143
-2 1 10 0.2399 0.0137
-2 1 11 0.0434 -0.0095
-2 1 12 -0.1375 -0.0108
-2 1 13 -0.1678 0.0049
-2 1 14 -0.0542 0.0119
-2 1 15 0.0736 0.0089
-2 2 1 -0.4053 0.2960
-2 2 2 -0.5065 0.0508
-2 2 3 -0.3491 -0.1064
-2 2 4 -0.1282 -0.0464
-2 2 5 -0.0837 0.0515
-2 2 6 -0.1094 0.0341
-2 2 7 0.0247 -0.0242
-2 2 8 0.2472 -0.0148
-2 2 9 0.2914 0.0245
-2 2 10 0.1378 0.0173
-2 2 11 0.0420 -0.0147
-2 2 12 0.1238 -0.0176
-2 2 13 0.2000 -0.0006
-2 2 14 0.0966 0.0040
-2 2 15 -0.0868 0.0010
-2 2 16 -0.1396 -0.0004
-2 2 17 -0.0313 -0.0140
-2 3 1 0.1607 0.2985
-2 3 2 0.0331 0.0484
-2 3 3 -0.0490 -0.1047
-2 3 4 -0.0345 -0.0359
-2 3 5 0.0491 0.0625
-2 3 6 0.1817 0.0359
-2 3 7 0.3014 -0.0310
-2 3 8 0.2812 -0.0242
-2 3 9 0.0906 0.0155
-2 3 10 -0.1004 0.0118
-2 3 11 -0.1117 -0.0117
-2 3 12 0.0103 -0.0066
-2 3 13 0.0695 0.0059
-2 3 14 -0.0070 -0.0039
-2 3 15 -0.0941 -0.0121
-2 3 16 -0.0579 -0.0002
-2 3 17 0.0776 -0.0018
-2 3 18 0.1745 -0.0346
-2 4 1 0.3926 0.2932
-2 4 2 0.3042 0.0554
-2 4 3 0.1323 -0.0878
-2 4 4 0.0666 -0.0270
-2 4 5 0.1548 0.0566
-2 4 6 0.2528 0.0284
-2 4 7 0.2199 -0.0280
-2 4 8 0.0985 -0.0159
-2 4 9 0.0408 0.0169
-2 4 10 0.0909 0.0065
-2 4 11 0.1366 -0.0105
-2 4 12 0.0842 0.0085
-2 4 13 -0.0202 0.0230
-2 4 14 -0.0833 -0.0038
-2 4 15 -0.0882 -0.0267
-2 4 16 -0.0663 -0.0015
-2 4 17 -0.0297 0.0305
-2 5 1 0.4152 0.2501
-2 5 2 0.4093 0.0394
-2 5 3 0.3133 -0.0821
-2 5 4 0.2368 -0.0284
-2 5 5 0.2217 0.0422
-2 5 6 0.1847 0.0202
-2 5 7 0.0647 -0.0213
-2 5 8 -0.0460 -0.0091
-2 5 9 -0.0300 0.0083
-2 5 10 0.0592 -0.0155
-2 5 11 0.0719 -0.0294
-2 5 12 -0.0053 0.0079
-2 5 13 -0.0486 0.0417
-2 5 14 -0.0128 0.0219
-2 5 15 0.0164 -0.0022
-2 5 16 -0.0067 0.0280
-2 5 17 -0.0231 0.0718
-2 6 1 0.0047 0.2295
-2 6 2 -0.0083 0.0341
-2 6 3 -0.0314 -0.0771
-2 6 4 -0.0589 -0.0259
-2 6 5 -0.0665 0.0420
-2 6 6 -0.0774 0.0208
-2 6 7 -0.0998 -0.0229
-2 6 8 -0.0650 -0.0107
-2 6 9 0.0523 0.0181
-2 6 10 0.1348 0.0082
-2 6 11 0.0816 -0.0090
-2 6 12 -0.0187 0.0053
-2 6 13 -0.0258 0.0128
-2 6 14 0.0208 -0.0237
-2 6 15 -0.0170 -0.0567
-2 7 1 0.0207 0.2320
-2 7 2 -0.0357 0.0423
-2 7 3 -0.0818 -0.0746
-2 7 4 -0.0687 -0.0274
-2 7 5 -0.0077 0.0427
-2 7 6 0.0171 0.0195
-2 7 7 -0.0029 -0.0323
-2 7 8 0.0231 -0.0211
-2 7 9 0.0968 0.0193
-2 7 10 0.0843 0.0172
-2 7 11 -0.0491 -0.0116
-2 7 12 -0.1298 -0.0185
-2 7 13 -0.0303 -0.0168
-2 7 14 0.1191 -0.0391
-2 8 1 0.1045 0.2384
-2 8 2 0.0459 0.0452
-2 8 3 -0.0324 -0.0807
-2 8 4 -0.0222 -0.0364
-2 8 5 0.0584 0.0398
-2 8 6 0.0935 0.0264
-2 8 7 0.0552 -0.0187
-2 8 8 0.0292 -0.0082
-2 8 9 0.0512 0.0238
-2 8 10 0.0620 0.0063
-2 8 11 0.0468 -0.0436
-2 8 12 0.0740 -0.0666
-2 9 1 -0.0081 0.2247
-2 9 2 -0.0597 0.0375
-2 9 3 -0.0870 -0.0725
-2 9 4 -0.0296 -0.0278
-2 9 5 0.0778 0.0402
-2 9 6 0.1270 0.0274
-2 9 7 0.0669 -0.0124
-2 9 8 -0.0407 0.0001
-2 9 9 -0.1045 0.0430
-2 10 1 -0.0006 0.0565
-2 10 2 -0.0324 -0.0509
-1 -11 1 0.1099 0.1039
-1 -11 2 0.1539 0.0009
-1 -10 1 0.0309 0.1885
-1 -10 2 0.0428 0.0250
-1 -10 3 0.0293 -0.0718
-1 -10 4 0.0043 -0.0332
-1 -10 5 0.0072 0.0283
-1 -10 6 0.0441 0.0309
-1 -10 7 0.0673 0.0226
-1 -9 1 0.0773 0.1975
-1 -9 2 0.0397 0.0286
-1 -9 3 -0.0271 -0.0770
-1 -9 4 -0.0688 -0.0304
-1 -9 5 -0.0438 0.0380
-1 -9 6 0.0202 0.0209
-1 -9 7 0.0540 -0.0179
-1 -9 8 0.0504 -0.0019
-1 -9 9 0.0666 0.0172
-1 -9 10 0.1119 -0.0273
-1 -8 1 0.0450 0.2189
-1 -8 2 0.0619 0.0348
-1 -8 3 0.0153 -0.0803
-1 -8 4 -0.0801 -0.0269
-1 -8 5 -0.1208 0.0490
-1 -8 6 -0.0774 0.0242
-1 -8 7 -0.0378 -0.0318
-1 -8 8 -0.0608 -0.0244
-1 -8 9 -0.0974 0.0031
-1 -8 10 -0.0889 -0.0251
-1 -8 11 -0.0486 -0.0783
-1 -8 12 -0.0156 -0.0870
-1 -7 1 -0.0992 0.2586
-1 -7 2 -0.1631 0.0557
-1 -7 3 -0.2568 -0.0753
-1 -7 4 -0.3150 -0.0315
-1 -7 5 -0.2526 0.0425
-1 -7 6 -0.1060 0.0252
-1 -7 7 0.0038 -0.0239
-1 -7 8 0.0184 -0.0182
-1 -7 9 -0.0184 0.0168
-1 -7 10 -0.0402 0.0229
-1 -7 11 -0.0220 0.0038
-1 -7 12 0.0074 -0.0178
-1 -7 13 -0.0073 -0.0472
-1 -7 14 -0.0766 -0.0748
-1 -6 1 0.0227 0.2783
-1 -6 2 -0.0026 0.0595
-1 -6 3 0.0015 -0.0785
-1 -6 4 0.0632 -0.0310
-1 -6 5 0.1165 0.0488
-1 -6 6 0.0870 0.0335
-1 -6 7 0.0089 -0.0182
-1 -6 8 -0.0318 -0.0159
-1 -6 9 -0.0257 0.0181
-1 -6 10 -0.0129 0.0216
-1 -6 11 0.0104 -0.0023
-1 -6 12 0.0473 -0.0120
-1 -6 13 0.0325 0.0055
-1 -6 14 -0.0691 0.0367
-1 -6 15 -0.1599 0.0643
-1 -5 1 0.0850 0.3114
-1 -5 2 0.1075 0.0609
-1 -5 3 0.1664 -0.0910
-1 -5 4 0.2326 -0.0320
-1 -5 5 0.2241 0.0571
-1 -5 6 0.1205 0.0323
-1 -5 7 0.0140 -0.0271
-1 -5 8 -0.0169 -0.0128
-1 -5 9 0.0020 0.0312
-1 -5 10 0.0273 0.0187
-1 -5 11 0.0652 -0.0240
-1 -5 12 0.0995 -0.0224
-1 -5 13 0.0742 0.0102
-1 -5 14 0.0059 0.0047
-1 -5 15 -0.0096 -0.0431
-1 -5 16 0.0449 -0.0723
-1 -4 1 0.0066 0.2886
-1 -4 2 0.1536 0.0339
-1 -4 3 0.1622 -0.1124
-1 -4 4 0.1420 -0.0378
-1 -4 5 0.1245 0.0560
-1 -4 6 0.0988 0.0233
-1 -4 7 0.0818 -0.0331
-1 -4 8 0.0880 -0.0029
-1 -4 9 0.1137 0.0419
-1 -4 10 0.1593 0.0119
-1 -4 11 0.1959 -0.0322
-1 -4 12 0.1583 -0.0087
-1 -4 13 0.0565 0.0298
-1 -4 14 0.0113 0.0050
-1 -4 15 0.0738 -0.0365
-1 -4 16 0.1162 -0.0109
-1 -4 17 0.0286 0.0488
-1 -3 1 -0.2490 0.2896
-1 -3 2 -0.2284 0.0258
-1 -3 3 -0.1354 -0.1238
-1 -3 4 0.0386 -0.0394
-1 -3 5 0.0698 0.0614
-1 -3 6 -0.0661 0.0235
-1 -3 7 -0.1456 -0.0426
-1 -3 8 -0.0354 -0.0194
-1 -3 9 0.1667 0.0239
-1 -3 10 0.2950 0.0040
-1 -3 11 0.2624 -0.0241
-1 -3 12 0.1080 -0.0000
-1 -3 13 -0.0107 0.0254
-1 -3 14 0.0291 0.0072
-1 -3 15 0.1226 -0.0057
-1 -3 16 0.0533 0.0131
-1 -2 1 0.2588 0.3768
-1 -2 2 0.0884 0.0737
-1 -2 3 0.1241 -0.1204
-1 -2 4 0.0853 -0.0588
-1 -2 5 -0.3240 0.0469
-1 -2 6 -0.8456 0.0252
-1 -2 7 -1.0128 -0.0351
-1 -2 8 -0.7342 -0.0187
-1 -2 9 -0.2764 0.0232
-1 -2 10 0.0833 0.0135
-1 -2 11 0.2089 -0.0135
-1 -2 12 0.1280 -0.0081
-1 -2 13 0.0278 0.0056
-1 -2 14 0.0533 0.0034
-1 -1 1 1.2696 0.3357
-1 -1 2 0.9021 0.0838
-1 -1 3 0.6048 -0.0932
-1 -1 4 0.2060 -0.0493
-1 -1 5 -0.2292 0.0429
-1 -1 6 -0.4512 0.0273
-1 -1 7 -0.4527 -0.0283
-1 -1 8 -0.4106 -0.0195
-1 -1 9 -0.3132 0.0192
-1 -1 10 -0.0389 0.0169
-1 -1 11 0.3057 -0.0072
-1 0 1 2.3021 0.2880
-1 0 2 1.5537 0.0942
-1 0 3 0.7917 -0.0678
-1 0 4 0.1867 -0.0456
-1 0 5 -0.0639 0.0360
-1 0 6 -0.0147 0.0299
-1 0 7 0.0330 -0.0232
-1 0 8 -0.0520 -0.0244
-1 0 9 -0.0948 0.0110
-1 0 10 -0.0136 0.0139
-1 0 11 -0.0294 -0.0125
-1 1 1 0.3313 0.3400
-1 1 2 -0.1237 0.1422
-1 1 3 -0.2594 -0.0434
-1 1 4 -0.1381 -0.0466
-1 1 5 -0.0531 0.0293
-1 1 6 -0.1475 0.0283
-1 1 7 -0.2550 -0.0259
-1 1 8 -0.1647 -0.0295
-1 1 9 0.0637 0.0112
-1 1 10 0.1720 0.0182
-1 1 11 0.0501 -0.0128
-1 1 12 -0.1230 -0.0216
-1 1 13 -0.1123 0.0050
-1 2 1 -0.8465 0.2956
-1 2 2 -1.0656 0.1115
-1 2 3 -0.8089 -0.0561
-1 2 4 -0.3983 -0.0448
-1 2 5 -0.2716 0.0359
-1 2 6 -0.3656 0.0297
-1 2 7 -0.2953 -0.0283
-1 2 8 -0.0020 -0.0250
-1 2 9 0.1764 0.0251
-1 2 10 0.0658 0.0313
-1 2 11 -0.0893 -0.0074
-1 2 12 -0.0317 -0.0187
-1 2 13 0.1442 0.0098
-1 2 14 0.1955 0.0227
-1 2 15 0.1007 -0.0009
-1 2 16 0.0422 -0.0209
-1 2 17 0.1168 -0.0063
-1 3 1 -0.6580 0.3098
-1 3 2 -0.5701 0.1118
-1 3 3 -0.2587 -0.0614
-1 3 4 -0.0070 -0.0482
-1 3 5 0.0699 0.0347
-1 3 6 0.1070 0.0276
-1 3 7 0.1812 -0.0333
-1 3 8 0.1620 -0.0331
-1 3 9 -0.0320 0.0151
-1 3 10 -0.2351 0.0234
-1 3 11 -0.2413 -0.0092
-1 3 12 -0.0758 -0.0173
-1 3 13 0.0694 0.0050
-1 3 14 0.0797 0.0099
-1 3 15 0.0042 -0.0083
-1 3 16 -0.0318 -0.0135
-1 3 17 0.0571 0.0003
-1 3 18 0.2265 0.0101
-1 4 1 -0.0223 0.2746
-1 4 2 0.1830 0.0974
-1 4 3 0.2135 -0.0613
-1 4 4 0.0634 -0.0509
-1 4 5 -0.0046 0.0269
-1 4 6 0.0924 0.0271
-1 4 7 0.1337 -0.0227
-1 4 8 -0.0087 -0.0226
-1 4 9 -0.1421 0.0175
-1 4 10 -0.0773 0.0231
-1 4 11 0.0727 -0.0049
-1 4 12 0.1111 -0.0112
-1 4 13 0.0594 0.0053
-1 4 14 0.0351 0.0052
-1 4 15 0.0161 -0.0081
-1 4 16 -0.0539 -0.0055
-1 4 17 -0.0896 0.0014
-1 4 18 -0.0107 -0.0132
-1 5 1 0.5636 0.2288
-1 5 2 0.8200 0.0880
-1 5 3 0.6762 -0.0500
-1 5 4 0.2940 -0.0502
-1 5 5 0.0786 0.0150
-1 5 6 0.1165 0.0242
-1 5 7 0.1338 -0.0095
-1 5 8 -0.0054 -0.0088
-1 5 9 -0.1154 0.0194
-1 5 10 -0.0595 0.0162
-1 5 11 0.0366 -0.0137
-1 5 12 0.0547 -0.0215
-1 5 13 0.0728 -0.0061
-1 5 14 0.1489 0.0001
-1 5 15 0.1772 0.0011
-1 5 16 0.0936 0.0159
-1 5 17 0.0067 0.0209
-1 5 18 -0.0010 -0.0101
-1 6 1 0.1711 0.2463
-1 6 2 0.2706 0.1043
-1 6 3 0.1957 -0.0401
-1 6 4 -0.0045 -0.0502
-1 6 5 -0.1067 0.0119
-1 6 6 -0.0578 0.0232
-1 6 7 -0.0187 -0.0136
-1 6 8 -0.0683 -0.0206
-1 6 9 -0.1087 0.0072
-1 6 10 -0.0805 0.0145
-1 6 11 -0.0463 -0.0045
-1 6 12 -0.0327 -0.0098
-1 6 13 0.0081 0.0019
-1 6 14 0.0566 0.0043
-1 6 15 0.0290 0.0031
-1 6 16 -0.0596 0.0168
-1 6 17 -0.0992 0.0251
-1 7 1 -0.0170 0.2371
-1 7 2 0.0443 0.1005
-1 7 3 0.0937 -0.0354
-1 7 4 0.0859 -0.0358
-1 7 5 0.0614 0.0278
-1 7 6 0.0344 0.0278
-1 7 7 -0.0077 -0.0217
-1 7 8 -0.0347 -0.0287
-1 7 9 -0.0185 0.0088
-1 7 10 -0.0018 0.0223
-1 7 11 -0.0220 0.0023
-1 7 12 -0.0282 -0.0047
-1 7 13 0.0250 0.0083
-1 7 14 0.0733 0.0103
-1 7 15 0.0402 0.0027
-1 8 1 0.0072 0.2122
-1 8 2 0.0492 0.0759
-1 8 3 0.0692 -0.0526
-1 8 4 0.0492 -0.0412
-1 8 5 -0.0049 0.0287
-1 8 6 -0.0702 0.0295
-1 8 7 -0.1018 -0.0166
-1 8 8 -0.0714 -0.0183
-1 8 9 -0.0119 0.0179
-1 8 10 0.0298 0.0219
-1 8 11 0.0730 -0.0095
-1 8 12 0.1616 -0.0245
-1 8 13 0.2539 -0.0142
-1 8 14 0.2474 -0.0089
-1 9 1 -0.1303 0.2173
-1 9 2 -0.1182 0.0749
-1 9 3 -0.0694 -0.0503
-1 9 4 -0.0196 -0.0410
-1 9 5 -0.0013 0.0209
-1 9 6 -0.0064 0.0187
-1 9 7 -0.0085 -0.0262
-1 9 8 -0.0148 -0.0288
-1 9 9 -0.0536 0.0144
-1 9 10 -0.1088 0.0445
-1 9 11 -0.1174 0.0415
-1 10 1 -0.0998 0.1245
-1 10 2 -0.0554 0.0275
-1 10 3 0.0117 -0.0422
-1 10 4 0.0429 -0.0199
-1 10 5 0.0023 0.0261
-1 10 6 -0.0741 0.0161
-1 10 7 -0.1149 -0.0320
-1 10 8 -0.0867 -0.0567
0 -10 1 0.0161 0.1591
0 -10 2 0.0255 0.0632
0 -10 3 0.0247 -0.0354
0 -10 4 -0.0305 -0.0509
0 -10 5 -0.1266 -0.0262
0 -10 6 -0.1859 -0.0293
0 -9 1 0.0506 0.2070
0 -9 2 0.0683 0.0943
0 -9 3 0.0637 -0.0209
0 -9 4 0.0391 -0.0225
0 -9 5 -0.0026 0.0224
0 -9 6 -0.0383 0.0077
0 -9 7 -0.0438 -0.0331
0 -9 8 -0.0181 -0.0073
0 -9 9 0.0177 0.0635
0 -8 1 0.0124 0.2350
0 -8 2 0.0190 0.0904
0 -8 3 0.0151 -0.0430
0 -8 4 0.0314 -0.0326
0 -8 5 0.0853 0.0337
0 -8 6 0.1412 0.0276
0 -8 7 0.1461 -0.0175
0 -8 8 0.0964 -0.0024
0 -8 9 0.0419 0.0524
0 -8 10 0.0271 0.0521
0 -8 11 0.0480 -0.0073
0 -8 12 0.0648 -0.0466
0 -7 1 -0.0848 0.2576
0 -7 2 -0.1187 0.1009
0 -7 3 -0.1857 -0.0467
0 -7 4 -0.1777 -0.0487
0 -7 5 -0.0590 0.0128
0 -7 6 0.0608 0.0147
0 -7 7 0.0771 -0.0235
0 -7 8 0.0177 -0.0212
0 -7 9 -0.0237 0.0161
0 -7 10 -0.0034 0.0282
0 -7 11 0.0542 0.0063
0 -7 12 0.0956 -0.0171
0 -7 13 0.0766 -0.0333
0 -7 14 0.0125 -0.0482
0 -6 1 -0.0609 0.2669
0 -6 2 -0.0461 0.0980
0 -6 3 -0.0167 -0.0575
0 -6 4 0.0707 -0.0540
0 -6 5 0.1622 0.0221
0 -6 6 0.1397 0.0324
0 -6 7 0.0173 -0.0153
0 -6 8 -0.0604 -0.0318
0 -6 9 -0.0241 -0.0036
0 -6 10 0.0536 0.0112
0 -6 11 0.0954 -0.0087
0 -6 12 0.0947 -0.0260
0 -6 13 0.0598 -0.0094
0 -6 14 -0.0028 0.0334
0 -6 15 -0.0495 0.0766
0 -5 1 0.0483 0.2922
0 -5 2 0.1278 0.0995
0 -5 3 0.1660 -0.0690
0 -5 4 0.1290 -0.0579
0 -5 5 0.0401 0.0275
0 -5 6 -0.0854 0.0308
0 -5 7 -0.1964 -0.0267
0 -5 8 -0.2197 -0.0347
0 -5 9 -0.1442 0.0083
0 -5 10 -0.0312 0.0209
0 -5 11 0.0536 -0.0070
0 -5 12 0.0789 -0.0131
0 -5 13 0.0483 0.0138
0 -5 14 0.0001 0.0218
0 -5 15 -0.0253 -0.0008
0 -5 16 -0.0323 -0.0084
0 -5 17 -0.0479 0.0131
0 -4 1 0.2302 0.2529
0 -4 2 0.5027 0.0917
0 -4 3 0.4579 -0.0500
0 -4 4 0.2407 -0.0338
0 -4 5 0.0671 0.0330
0 -4 6 -0.0074 0.0163
0 -4 7 -0.0586 -0.0348
0 -4 8 -0.1337 -0.0202
0 -4 9 -0.1804 0.0233
0 -4 10 -0.1360 0.0117
0 -4 11 -0.0426 -0.0246
0 -4 12 -0.0010 -0.0117
0 -4 13 -0.0189 0.0213
0 -4 14 -0.0103 0.0081
0 -4 15 0.0370 -0.0178
0 -4 16 0.0235 0.0106
0 -4 17 -0.0794 0.0543
0 -3 1 -0.1016 0.2365
0 -3 2 -0.0482 0.0910
0 -3 3 -0.0785 -0.0412
0 -3 4 -0.0093 -0.0228
0 -3 5 0.0891 0.0417
0 -3 6 0.0968 0.0240
0 -3 7 0.0431 -0.0261
0 -3 8 0.0422 -0.0154
0 -3 9 0.1395 0.0201
0 -3 10 0.2516 0.0091
0 -3 11 0.2403 -0.0175
0 -3 12 0.0800 -0.0056
0 -3 13 -0.0659 0.0137
0 -3 14 -0.0362 0.0006
0 -3 15 0.0892 -0.0125
0 -3 16 0.0950 -0.0067
0 -3 17 -0.0445 -0.0340
0 -3 18 -0.1362 -0.1044
0 -2 1 0.2485 0.2947
0 -2 2 0.0044 0.1223
0 -2 3 -0.1296 -0.0479
0 -2 4 -0.1317 -0.0487
0 -2 5 -0.2288 0.0285
0 -2 6 -0.4248 0.0333
0 -2 7 -0.4943 -0.0139
0 -2 8 -0.3146 -0.0168
0 -2 9 -0.0032 0.0164
0 -2 10 0.2063 0.0179
0 -2 11 0.1532 -0.0094
0 -2 12 -0.0906 -0.0174
0 -2 13 -0.2355 -0.0026
0 -2 14 -0.0793 0.0083
0 -2 15 0.2177 0.0095
0 -2 16 0.3242 0.0048
0 -2 17 0.1731 -0.0013
0 -1 1 1.5277 0.2114
0 -1 2 1.0802 0.1045
0 -1 3 0.5554 -0.0405
0 -1 4 0.0962 -0.0493
0 -1 5 -0.1518 0.0273
0 -1 6 -0.1374 0.0424
0 -1 7 -0.0293 -0.0096
0 -1 8 -0.0175 -0.0285
0 -1 9 -0.0659 0.0051
0 -1 10 -0.0387 0.0201
0 -1 11 0.0624 -0.0081
0 -1 12 0.1963 -0.0262
0 -1 13 0.4639 -0.0042
0 -1 14 0.9110 0.0183
0 -1 15 1.2572 0.0025
0 0 2 2.2937 0.1056
0 0 3 1.2006 -0.0259
0 0 4 0.3598 -0.0647
0 0 5 0.0973 0.0038
0 0 6 0.2254 0.0416
0 0 7 0.3181 0.0008
0 0 8 0.2348 -0.0284
0 0 9 0.1496 0.0025
0 0 10 0.1551 0.0276
0 0 11 0.1422 0.0007
0 0 12 0.0910 -0.0257
0 1 0 1.6593 -0.1246
0 1 1 1.2525 0.0430
0 1 2 0.4822 0.0758
0 1 3 -0.0966 -0.0237
0 1 4 -0.1670 -0.0714
0 1 5 -0.0096 -0.0073
0 1 6 -0.0267 0.0442
0 1 7 -0.1708 0.0116
0 1 8 -0.1482 -0.0225
0 1 9 0.0268 0.0044
0 1 10 0.0667 0.0299
0 1 11 -0.0802 0.0018
0 1 12 -0.1256 -0.0239
0 1 13 0.1132 0.0027
0 1 14 0.4461 0.0275
0 1 15 0.5847 -0.0029
0 2 0 0.1779 -0.2570
0 2 1 -0.4126 -0.0706
0 2 2 -1.0282 0.0294
0 2 3 -1.0592 -0.0145
0 2 4 -0.6414 -0.0490
0 2 5 -0.4142 0.0015
0 2 6 -0.5430 0.0386
0 2 7 -0.5672 0.0023
0 2 8 -0.2435 -0.0276
0 2 9 0.0559 0.0019
0 2 10 -0.0177 0.0233
0 2 11 -0.2454 -0.0078
0 2 12 -0.2321 -0.0258
0 2 13 0.0006 0.0117
0 2 14 0.1351 0.0361
0 2 15 0.0612 -0.0029
0 2 16 -0.0400 -0.0383
0 2 17 -0.0230 -0.0091
0 2 18 0.0530 0.0219
0 3 0 -0.4446 -0.1971
0 3 1 -0.8774 -0.0246
0 3 2 -0.9172 0.0593
0 3 3 -0.4479 0.0012
0 3 4 0.0735 -0.0453
0 3 5 0.2206 -0.0007
0 3 6 0.1024 0.0388
0 3 7 0.0505 0.0072
0 3 8 0.0948 -0.0237
0 3 9 0.0447 -0.0002
0 3 10 -0.1094 0.0177
0 3 11 -0.1865 -0.0119
0 3 12 -0.1197 -0.0285
0 3 13 -0.0289 0.0069
0 3 14 -0.0246 0.0316
0 3 15 -0.0998 0.0014
0 3 16 -0.1795 -0.0230
0 3 17 -0.1800 0.0090
0 3 18 -0.0681 0.0404
0 3 19 0.0745 0.0099
0 4 0 -0.1777 -0.2254
0 4 1 -0.3478 -0.0477
0 4 2 -0.1662 0.0563
0 4 3 0.0835 0.0117
0 4 4 0.1273 -0.0398
0 4 5 0.0370 -0.0051
0 4 6 0.0055 0.0345
0 4 7 0.0098 0.0059
0 4 8 -0.0696 -0.0292
0 4 9 -0.1711 -0.0086
0 4 10 -0.1549 0.0181
0 4 11 -0.0595 -0.0018
0 4 12 -0.0202 -0.0244
0 4 13 -0.0422 -0.0012
0 4 14 -0.0684 0.0284
0 4 15 -0.1445 0.0170
0 4 16 -0.2963 -0.0060
0 4 17 -0.3717 -0.0015
0 4 18 -0.2363 0.0078
0 4 19 -0.0207 -0.0052
0 5 0 0.0846 -0.2787
0 5 1 0.3317 -0.0821
0 5 2 0.5862 0.0584
0 5 3 0.5287 0.0323
0 5 4 0.1731 -0.0305
0 5 5 -0.1139 -0.0114
0 5 6 -0.1039 0.0301
0 5 7 0.0358 0.0098
0 5 8 0.0604 -0.0275
0 5 9 -0.0318 -0.0108
0 5 10 -0.1146 0.0249
0 5 11 -0.1424 0.0153
0 5 12 -0.1162 -0.0163
0 5 13 -0.0285 -0.0136
0 5 14 0.0500 0.0113
0 5 15 0.0041 0.0108
0 5 16 -0.1263 -0.0182
0 5 17 -0.1624 -0.0473
0 5 18 -0.0607 -0.0626
0 6 0 -0.0492 -0.2413
0 6 1 0.0434 -0.0531
0 6 2 0.1339 0.0682
0 6 3 0.0461 0.0257
0 6 4 -0.2080 -0.0423
0 6 5 -0.3784 -0.0168
0 6 6 -0.2880 0.0346
0 6 7 -0.0472 0.0174
0 6 8 0.1089 -0.0266
0 6 9 0.0828 -0.0186
0 6 10 -0.0452 0.0163
0 6 11 -0.1428 0.0133
0 6 12 -0.1442 -0.0138
0 6 13 -0.0918 -0.0116
0 6 14 -0.0703 0.0149
0 6 15 -0.0831 0.0182
0 6 16 -0.0473 -0.0180
0 6 17 0.0558 -0.0689
0 6 18 0.1210 -0.1007
0 7 0 -0.0871 -0.2317
0 7 1 -0.0410 -0.0600
0 7 2 0.0554 0.0466
0 7 3 0.0968 0.0115
0 7 4 0.0328 -0.0375
0 7 5 -0.0497 -0.0088
0 7 6 -0.0401 0.0293
0 7 7 0.0606 0.0091
0 7 8 0.1551 -0.0194
0 7 9 0.1730 -0.0011
0 7 10 0.1443 0.0241
0 7 11 0.1366 0.0076
0 7 12 0.1380 -0.0189
0 7 13 0.0680 -0.0097
0 7 14 -0.0729 0.0165
0 7 15 -0.1496 0.0189
0 7 16 -0.0640 -0.0008
0 8 0 -0.0054 -0.2112
0 8 1 -0.0112 -0.0592
0 8 2 0.0085 0.0316
0 8 3 0.0337 0.0037
0 8 4 0.0233 -0.0301
0 8 5 -0.0324 -0.0026
0 8 6 -0.0772 0.0248
0 8 7 -0.0513 0.0055
0 8 8 0.0206 -0.0161
0 8 9 0.0713 -0.0056
0 8 10 0.1121 0.0029
0 8 11 0.2062 -0.0117
0 8 12 0.3107 -0.0148
0 8 13 0.2781 0.0116
0 8 14 0.0730 0.0301
0 8 15 -0.1340 0.0148
0 9 0 -0.0061 -0.1728
0 9 1 -0.0871 -0.0364
0 9 2 -0.1199 0.0392
0 9 3 -0.0586 0.0085
0 9 4 0.0325 -0.0278
0 9 5 0.0617 -0.0062
0 9 6 0.0472 0.0231
0 9 7 0.0699 0.0103
0 9 8 0.1163 -0.0168
0 9 9 0.0938 -0.0182
0 9 10 -0.0025 -0.0012
0 9 11 -0.0697 0.0134
0 9 12 -0.0588 0.0266
0 9 13 -0.0349 0.0374
0 10 0 0.0165 -0.1386
0 10 1 0.0148 -0.0252
0 10 2 0.0268 0.0520
0 10 3 0.0800 0.0362
0 10 4 0.1382 -0.0046
0 10 5 0.1256 -0.0042
0 10 6 0.0365 0.0149
0 10 7 -0.0462 0.0035
0 10 8 -0.0532 -0.0340
0 10 9 0.0012 -0.0578
0 10 10 0.0543 -0.0500
0 11 1 0.1071 0.0258
0 11 2 0.0573 0.0703
0 11 3 -0.0084 0.0575
1 -10 0 -0.1007 -0.1277
1 -10 1 -0.0739 -0.0371
1 -10 2 -0.0427 0.0253
1 -10 3 -0.0305 -0.0060
1 -10 4 -0.0514 -0.0616
1 -9 0 -0.0983 -0.2020
1 -9 1 -0.0367 -0.0535
1 -9 2 0.0306 0.0422
1 -9 3 0.0739 0.0090
1 -9 4 0.0709 -0.0417
1 -9 5 0.0294 -0.0205
1 -9 6 -0.0138 0.0133
1 -9 7 -0.0276 -0.0114
1 -9 8 -0.0189 -0.0482
1 -8 0 -0.0116 -0.1825
1 -8 1 0.0159 -0.0329
1 -8 2 0.0527 0.0437
1 -8 3 0.0527 -0.0045
1 -8 4 0.0317 -0.0471
1 -8 5 0.0435 -0.0081
1 -8 6 0.1034 0.0323
1 -8 7 0.1679 0.0035
1 -8 8 0.1824 -0.0369
1 -8 9 0.1289 -0.0188
1 -8 10 0.0418 0.0249
1 -8 11 -0.0203 0.0340
1 -7 0 0.0145 -0.2070
1 -7 1 0.1162 -0.0532
1 -7 2 0.1263 0.0404
1 -7 3 -0.0112 0.0124
1 -7 4 -0.1333 -0.0293
1 -7 5 -0.0801 -0.0080
1 -7 6 0.0914 0.0234
1 -7 7 0.2053 0.0067
1 -7 8 0.1850 -0.0226
1 -7 9 0.0897 -0.0132
1 -7 10 0.0073 0.0163
1 -7 11 -0.0191 0.0258
1 -7 12 -0.0034 0.0235
1 -7 13 0.0026 0.0329
1 -6 0 0.0733 -0.2180
1 -6 1 0.0659 -0.0586
1 -6 2 0.0480 0.0450
1 -6 3 -0.0137 0.0208
1 -6 4 0.0147 -0.0253
1 -6 5 0.1797 -0.0062
1 -6 6 0.3063 0.0296
1 -6 7 0.2395 0.0165
1 -6 8 0.0590 -0.0141
1 -6 9 -0.0599 -0.0079
1 -6 10 -0.0743 0.0134
1 -6 11 -0.0602 0.0048
1 -6 12 -0.0690 -0.0144
1 -6 13 -0.0919 -0.0004
1 -6 14 -0.1090 0.0329
1 -6 15 -0.1035 0.0395
1 -5 0 0.1923 -0.1960
1 -5 1 0.0171 -0.0340
1 -5 2 0.0285 0.0561
1 -5 3 0.0636 0.0098
1 -5 4 0.0760 -0.0412
1 -5 5 0.0976 -0.0075
1 -5 6 0.0989 0.0363
1 -5 7 0.0406 0.0154
1 -5 8 -0.0198 -0.0189
1 -5 9 0.0044 -0.0038
1 -5 10 0.0933 0.0239
1 -5 11 0.1367 0.0144
1 -5 12 0.0713 -0.0020
1 -5 13 -0.0551 0.0089
1 -5 14 -0.1521 0.0100
1 -5 15 -0.1748 -0.0272
1 -5 16 -0.1365 -0.0516
1 -4 0 -0.0967 -0.2523
1 -4 1 0.1245 -0.0653
1 -4 2 0.4249 0.0549
1 -4 3 0.4977 0.0208
1 -4 4 0.3180 -0.0331
1 -4 5 0.1113 -0.0091
1 -4 6 0.0379 0.0251
1 -4 7 0.0416 0.0049
1 -4 8 0.0032 -0.0195
1 -4 9 -0.0748 -0.0031
1 -4 10 -0.1024 0.0121
1 -4 11 -0.0543 -0.0034
1 -4 12 0.0064 -0.0115
1 -4 13 0.0381 0.0030
1 -4 14 0.0628 0.0036
1 -4 15 0.0937 -0.0063
1 -4 16 0.1027 0.0207
1 -4 17 0.0797 0.0672
1 -3 0 -0.4440 -0.2924
1 -3 1 -0.1463 -0.0920
1 -3 2 0.0135 0.0437
1 -3 3 0.0351 0.0164
1 -3 4 0.0407 -0.0377
1 -3 5 0.0859 -0.0143
1 -3 6 0.1249 0.0233
1 -3 7 0.0983 0.0082
1 -3 8 0.0140 -0.0168
1 -3 9 -0.0489 -0.0059
1 -3 10 -0.0200 0.0106
1 -3 11 0.0761 0.0031
1 -3 12 0.1484 -0.0066
1 -3 13 0.1537 -0.0031
1 -3 14 0.1301 -0.0001
1 -3 15 0.1171 0.0011
1 -3 16 0.1088 0.0025
1 -3 17 0.0967 -0.0228
1 -3 18 0.0896 -0.0808
1 -2 0 -0.4122 -0.2653
1 -2 1 -0.2246 -0.0650
1 -2 2 -0.3387 0.0564
1 -2 3 -0.4372 0.0107
1 -2 4 -0.3239 -0.0518
1 -2 5 -0.1164 -0.0227
1 -2 6 0.0057 0.0243
1 -2 7 0.0287 0.0092
1 -2 8 0.0503 -0.0214
1 -2 9 0.1245 -0.0065
1 -2 10 0.2037 0.0210
1 -2 11 0.1864 0.0115
1 -2 12 0.0221 -0.0120
1 -2 13 -0.2073 -0.0069
1 -2 14 -0.3355 0.0142
1 -2 15 -0.2713 0.0126
1 -2 16 -0.0855 -0.0103
1 -2 17 0.0755 -0.0173
1 -2 18 0.1271 0.0123
1 -2 19 0.0836 0.0542
1 -1 0 0.8163 -0.3083
1 -1 1 0.9634 -0.0878
1 -1 2 0.6713 0.0570
1 -1 3 0.1799 0.0205
1 -1 4 -0.1565 -0.0432
1 -1 5 -0.1684 -0.0118
1 -1 6 0.0232 0.0357
1 -1 7 0.1746 0.0079
1 -1 8 0.1721 -0.0355
1 -1 9 0.0974 -0.0138
1 -1 10 0.0638 0.0268
1 -1 11 0.0694 0.0119
1 -1 12 0.0525 -0.0226
1 -1 13 0.0239 -0.0070
1 -1 14 0.0503 0.0277
1 -1 15 0.1263 0.0101
1 -1 16 0.1547 -0.0328
1 -1 17 0.0822 -0.0185
1 -1 18 -0.0187 0.0386
1 -1 19 -0.0481 0.0393
1 0 0 2.8776 -0.2554
1 0 1 2.9668 -0.0223
1 0 2 2.3450 0.1231
1 0 3 1.2934 0.0524
1 0 4 0.4419 -0.0519
1 0 5 0.1250 -0.0262
1 0 6 0.1406 0.0395
1 0 7 0.1752 0.0137
1 0 8 0.1808 -0.0444
1 0 9 0.2357 -0.0240
1 0 10 0.2977 0.0301
1 0 11 0.2785 0.0188
1 0 12 0.2093 -0.0239
1 0 13 0.1634 -0.0110
1 0 14 0.0985 0.0269
1 0 15 -0.0828 0.0118
1 0 16 -0.3483 -0.0228
1 0 17 -0.5261 -0.0042
1 0 18 -0.4867 0.0167
1 1 0 1.6053 -0.3425
1 1 1 1.4761 -0.0847
1 1 2 0.8135 0.1134
1 1 3 0.1790 0.0637
1 1 4 0.0112 -0.0512
1 1 5 0.0532 -0.0285
1 1 6 -0.0954 0.0490
1 1 7 -0.2863 0.0269
1 1 8 -0.1624 -0.0395
1 1 9 0.1435 -0.0229
1 1 10 0.1999 0.0343
1 1 11 -0.0097 0.0227
1 1 12 -0.0941 -0.0239
1 1 13 0.0816 -0.0133
1 1 14 0.2137 0.0217
1 1 15 0.0912 0.0065
1 1 16 -0.0897 -0.0145
1 1 17 -0.0694 0.0231
1 1 18 0.1059 0.0463
1 1 19 0.2150 -0.0323
1 2 0 0.3258 -0.4178
1 2 1 -0.1025 -0.1410
1 2 2 -0.7076 0.1046
1 2 3 -0.8477 0.0835
1 2 4 -0.5854 -0.0361
1 2 5 -0.5869 -0.0316
1 2 6 -0.9904 0.0346
1 2 7 -1.1468 0.0126
1 2 8 -0.6730 -0.0475
1 2 9 -0.0632 -0.0271
1 2 10 0.0920 0.0264
1 2 11 -0.0765 0.0108
1 2 12 -0.1018 -0.0300
1 2 13 0.0457 -0.0098
1 2 14 0.0523 0.0237
1 2 15 -0.1259 -0.0028
1 2 16 -0.2119 -0.0265
1 2 17 -0.0829 0.0238
1 2 18 0.0749 0.0603
1 2 19 0.0910 -0.0189
1 3 0 -0.4620 -0.3244
1 3 1 -0.8445 -0.0793
1 3 2 -0.9369 0.1205
1 3 3 -0.5126 0.0678
1 3 4 -0.0226 -0.0593
1 3 5 -0.0039 -0.0456
1 3 6 -0.3337 0.0358
1 3 7 -0.4708 0.0271
1 3 8 -0.2336 -0.0279
1 3 9 0.0784 -0.0119
1 3 10 0.2132 0.0338
1 3 11 0.2161 0.0137
1 3 12 0.1791 -0.0272
1 3 13 0.0868 -0.0067
1 3 14 -0.0369 0.0242
1 3 15 -0.0770 -0.0101
1 3 16 0.0020 -0.0462
1 3 17 0.0888 -0.0035
1 3 18 0.0806 0.0426
1 3 19 0.0011 -0.0145
1 3 20 -0.0659 -0.1098
1 4 0 -0.2979 -0.3291
1 4 1 -0.5519 -0.1007
1 4 2 -0.5284 0.0961
1 4 3 -0.2792 0.0593
1 4 4 -0.0575 -0.0544
1 4 5 0.0022 -0.0419
1 4 6 -0.0389 0.0350
1 4 7 -0.0964 0.0271
1 4 8 -0.1273 -0.0272
1 4 9 -0.0807 -0.0125
1 4 10 0.0403 0.0361
1 4 11 0.1130 0.0198
1 4 12 0.0434 -0.0277
1 4 13 -0.0799 -0.0168
1 4 14 -0.1157 0.0212
1 4 15 -0.0751 0.0060
1 4 16 -0.0532 -0.0285
1 4 17 -0.0503 -0.0041
1 4 18 -0.0139 0.0429
1 4 19 0.0198 0.0238
1 5 0 0.0849 -0.3520
1 5 1 0.1017 -0.1230
1 5 2 0.1188 0.0890
1 5 3 0.1082 0.0713
1 5 4 0.0841 -0.0423
1 5 5 0.0838 -0.0445
1 5 6 0.0920 0.0273
1 5 7 0.0737 0.0266
1 5 8 0.0547 -0.0281
1 5 9 0.0601 -0.0232
1 5 10 0.0240 0.0275
1 5 11 -0.0935 0.0271
1 5 12 -0.1718 -0.0166
1 5 13 -0.0903 -0.0212
1 5 14 0.0402 0.0112
1 5 15 0.0199 0.0134
1 5 16 -0.1174 -0.0124
1 5 17 -0.1541 -0.0073
1 5 18 -0.0404 0.0305
1 5 19 0.0445 0.0516
1 6 0 0.0241 -0.3047
1 6 1 -0.0001 -0.0935
1 6 2 -0.0243 0.0907
1 6 3 -0.0425 0.0605
1 6 4 -0.0733 -0.0497
1 6 5 -0.1359 -0.0446
1 6 6 -0.2052 0.0349
1 6 7 -0.2006 0.0402
1 6 8 -0.0911 -0.0204
1 6 9 0.0047 -0.0342
1 6 10 -0.0558 0.0057
1 6 11 -0.2114 0.0167
1 6 12 -0.2526 -0.0100
1 6 13 -0.1271 -0.0120
1 6 14 -0.0083 0.0174
1 6 15 -0.0145 0.0259
1 6 16 -0.0504 -0.0022
1 6 17 -0.0096 -0.0337
1 6 18 0.0503 -0.0488
1 7 0 -0.0246 -0.2799
1 7 1 0.1038 -0.0867
1 7 2 0.2326 0.0769
1 7 3 0.2744 0.0507
1 7 4 0.2060 -0.0422
1 7 5 0.0723 -0.0391
1 7 6 -0.0494 0.0210
1 7 7 -0.0848 0.0238
1 7 8 -0.0290 -0.0146
1 7 9 0.0362 -0.0128
1 7 10 0.0525 0.0179
1 7 11 0.0630 0.0145
1 7 12 0.1089 -0.0147
1 7 13 0.1324 -0.0192
1 7 14 0.0848 -0.0019
1 7 15 0.0415 0.0039
1 7 16 0.0812 0.0046
1 7 17 0.1363 0.0207
1 8 0 0.0390 -0.2346
1 8 1 0.0669 -0.0589
1 8 2 0.0791 0.0836
1 8 3 0.0594 0.0556
1 8 4 0.0442 -0.0293
1 8 5 0.0482 -0.0323
1 8 6 0.0560 0.0116
1 8 7 0.0626 0.0109
1 8 8 0.0611 -0.0190
1 8 9 0.0405 -0.0162
1 8 10 0.0458 0.0075
1 8 11 0.1517 0.0086
1 8 12 0.3177 -0.0028
1 8 13 0.3781 -0.0006
1 8 14 0.2569 -0.0046
1 8 15 0.0826 -0.0343
1 8 16 0.0063 -0.0539
1 9 0 0.0473 -0.2137
1 9 1 -0.0550 -0.0536
1 9 2 -0.1642 0.0770
1 9 3 -0.1835 0.0468
1 9 4 -0.1049 -0.0388
1 9 5 -0.0209 -0.0385
1 9 6 0.0155 0.0200
1 9 7 0.0458 0.0335
1 9 8 0.0878 -0.0001
1 9 9 0.0863 -0.0093
1 9 10 0.0355 0.0173
1 9 11 0.0283 0.0302
1 9 12 0.1059 0.0119
1 9 13 0.1680 -0.0097
1 9 14 0.1180 -0.0207
1 10 0 -0.0057 -0.2219
1 10 1 -0.0691 -0.0816
1 10 2 -0.1241 0.0536
1 10 3 -0.1005 0.0407
1 10 4 0.0054 -0.0423
1 10 5 0.0873 -0.0501
1 10 6 0.0467 0.0136
1 10 7 -0.0872 0.0431
1 10 8 -0.2017 0.0129
1 10 9 -0.2245 -0.0067
1 10 10 -0.1658 0.0169
1 10 11 -0.0736 0.0379
1 11 0 0.0944 -0.1348
1 11 1 0.0581 -0.0469
1 11 2 -0.0656 0.0474
1 11 3 -0.1993 0.0425
1 11 4 -0.1855 -0.0176
1 11 5 -0.0156 -0.0273
1 11 6 0.1257 0.0214
1 11 7 0.0933 0.0534
2 -9 0 0.0122 -0.2629
2 -9 1 0.0073 -0.0966
2 -9 2 0.0044 0.0699
2 -9 3 0.0146 0.0670
2 -9 4 0.0461 -0.0179
2 -9 5 0.1034 -0.0191
2 -9 6 0.1586 0.0486
2 -9 7 0.1643 0.0578
2 -8 0 0.0787 -0.2544
2 -8 1 0.0281 -0.0642
2 -8 2 0.0238 0.0912
2 -8 3 0.0543 0.0530
2 -8 4 0.0766 -0.0487
2 -8 5 0.0870 -0.0374
2 -8 6 0.1035 0.0415
2 -8 7 0.1196 0.0405
2 -8 8 0.1085 -0.0366
2 -8 9 0.0612 -0.0693
2 -8 10 0.0060 -0.0315
2 -7 0 0.0824 -0.2583
2 -7 1 0.1556 -0.0827
2 -7 2 0.1759 0.0741
2 -7 3 0.0848 0.0558
2 -7 4 -0.0485 -0.0308
2 -7 5 -0.0908 -0.0268
2 -7 6 -0.0128 0.0365
2 -7 7 0.0884 0.0386
2 -7 8 0.1201 -0.0158
2 -7 9 0.0805 -0.0332
2 -7 10 0.0295 -0.0051
2 -7 11 0.0240 0.0001
2 -7 12 0.0725 -0.0267
2 -6 0 0.0401 -0.2694
2 -6 1 0.0707 -0.0970
2 -6 2 0.0148 0.0709
2 -6 3 -0.1033 0.0609
2 -6 4 -0.1345 -0.0325
2 -6 5 -0.0217 -0.0430
2 -6 6 0.0849 0.0134
2 -6 7 0.0293 0.0234
2 -6 8 -0.1346 -0.0116
2 -6 9 -0.2305 -0.0128
2 -6 10 -0.1920 0.0113
2 -6 11 -0.0985 -0.0058
2 -6 12 -0.0280 -0.0475
2 -6 13 0.0159 -0.0425
2 -6 14 0.0462 -0.0004
2 -5 0 0.2927 -0.2859
2 -5 1 0.1037 -0.0921
2 -5 2 -0.0519 0.0823
2 -5 3 -0.0965 0.0553
2 -5 4 -0.0265 -0.0477
2 -5 5 0.0613 -0.0441
2 -5 6 0.0457 0.0250
2 -5 7 -0.0773 0.0271
2 -5 8 -0.1684 -0.0188
2 -5 9 -0.1040 -0.0161
2 -5 10 0.0683 0.0165
2 -5 11 0.1825 0.0038
2 -5 12 0.1417 -0.0272
2 -5 13 0.0019 -0.0108
2 -5 14 -0.1225 0.0143
2 -5 15 -0.1706 -0.0228
2 -5 16 -0.1459 -0.0785
2 -4 0 0.3024 -0.3221
2 -4 1 0.1536 -0.0948
2 -4 2 0.1242 0.0975
2 -4 3 0.2212 0.0613
2 -4 4 0.2863 -0.0509
2 -4 5 0.2180 -0.0428
2 -4 6 0.0910 0.0294
2 -4 7 0.0283 0.0264
2 -4 8 0.0438 -0.0210
2 -4 9 0.0676 -0.0119
2 -4 10 0.0646 0.0259
2 -4 11 0.0554 0.0135
2 -4 12 0.0531 -0.0216
2 -4 13 0.0440 -0.0165
2 -4 14 0.0240 0.0028
2 -4 15 0.0119 -0.0079
2 -4 16 0.0219 -0.0101
2 -4 17 0.0441 0.0331
2 -3 0 0.1874 -0.3253
2 -3 1 0.0653 -0.0884
2 -3 2 -0.0452 0.1055
2 -3 3 0.0092 0.0629
2 -3 4 0.1424 -0.0526
2 -3 5 0.1572 -0.0409
2 -3 6 0.0341 0.0365
2 -3 7 -0.0721 0.0327
2 -3 8 -0.0794 -0.0242
2 -3 9 -0.0562 -0.0243
2 -3 10 -0.0533 0.0186
2 -3 11 -0.0150 0.0219
2 -3 12 0.0952 -0.0092
2 -3 13 0.1994 -0.0139
2 -3 14 0.2036 0.0091
2 -3 15 0.1233 0.0207
2 -3 16 0.0511 0.0166
2 -3 17 0.0411 0.0087
2 -3 18 0.0695 -0.0096
2 -2 0 -0.2436 -0.3190
2 -2 1 -0.3060 -0.0843
2 -2 2 -0.4957 0.1091
2 -2 3 -0.4835 0.0712
2 -2 4 -0.2235 -0.0427
2 -2 5 -0.0049 -0.0364
2 -2 6 -0.0039 0.0354
2 -2 7 -0.0759 0.0298
2 -2 8 -0.0494 -0.0278
2 -2 9 0.0257 -0.0274
2 -2 10 0.0316 0.0179
2 -2 11 -0.0129 0.0184
2 -2 12 -0.0322 -0.0196
2 -2 13 -0.0443 -0.0194
2 -2 14 -0.0951 0.0182
2 -2 15 -0.1328 0.0228
2 -2 16 -0.0688 -0.0156
2 -2 17 0.0795 -0.0301
2 -2 18 0.2008 0.0119
2 -2 19 0.2197 0.0650
2 -1 0 -0.0850 -0.3224
2 -1 1 -0.0591 -0.1038
2 -1 2 -0.2233 0.0829
2 -1 3 -0.3438 0.0550
2 -1 4 -0.2804 -0.0461
2 -1 5 -0.1338 -0.0353
2 -1 6 -0.0431 0.0347
2 -1 7 -0.0148 0.0279
2 -1 8 -0.0120 -0.0237
2 -1 9 -0.0535 -0.0124
2 -1 10 -0.1318 0.0332
2 -1 11 -0.1554 0.0165
2 -1 12 -0.0755 -0.0336
2 -1 13 0.0214 -0.0206
2 -1 14 0.0355 0.0298
2 -1 15 -0.0052 0.0154
2 -1 16 -0.0076 -0.0449
2 -1 17 0.0474 -0.0333
2 -1 18 0.1050 0.0583
2 -1 19 0.1274 0.1077
2 0 0 1.5108 -0.2413
2 0 1 1.5175 -0.0448
2 0 2 1.1440 0.1053
2 0 3 0.6344 0.0438
2 0 4 0.3049 -0.0708
2 0 5 0.1934 -0.0491
2 0 6 0.1263 0.0371
2 0 7 0.0350 0.0315
2 0 8 -0.0087 -0.0283
2 0 9 0.0019 -0.0177
2 0 10 -0.0081 0.0324
2 0 11 -0.0283 0.0150
2 0 12 0.0216 -0.0351
2 0 13 0.1081 -0.0156
2 0 14 0.0882 0.0361
2 0 15 -0.0729 0.0157
2 0 16 -0.2322 -0.0378
2 0 17 -0.2555 -0.0120
2 0 18 -0.1692 0.0550
2 0 19 -0.0834 0.0325
2 0 20 -0.0477 -0.0599
2 1 0 0.8731 -0.3295
2 1 1 0.7732 -0.1072
2 1 2 0.4096 0.0792
2 1 3 0.2154 0.0356
2 1 4 0.3796 -0.0747
2 1 5 0.5371 -0.0455
2 1 6 0.3723 0.0481
2 1 7 0.1296 0.0384
2 1 8 0.1609 -0.0309
2 1 9 0.3092 -0.0224
2 1 10 0.1925 0.0316
2 1 11 -0.1298 0.0164
2 1 12 -0.2514 -0.0339
2 1 13 -0.0770 -0.0171
2 1 14 0.0645 0.0275
2 1 15 -0.0243 0.0047
2 1 16 -0.1368 -0.0372
2 1 17 -0.0491 -0.0043
2 1 18 0.1344 0.0385
2 1 19 0.1839 -0.0226
2 1 20 0.0834 -0.1186
2 2 0 -0.0362 -0.3772
2 2 1 -0.2220 -0.1175
2 2 2 -0.3667 0.1009
2 2 3 -0.0912 0.0610
2 2 4 0.3342 -0.0626
2 2 5 0.2794 -0.0446
2 2 6 -0.2546 0.0439
2 2 7 -0.5637 0.0329
2 2 8 -0.2747 -0.0331
2 2 9 0.1456 -0.0193
2 2 10 0.1596 0.0361
2 2 11 -0.0832 0.0188
2 2 12 -0.1254 -0.0323
2 2 13 0.0490 -0.0158
2 2 14 0.0951 0.0263
2 2 15 -0.0767 0.0037
2 2 16 -0.2036 -0.0300
2 2 17 -0.1348 0.0123
2 2 18 -0.0255 0.0565
2 2 19 -0.0267 -0.0087
2 2 20 -0.0641 -0.1065
2 3 0 -0.3559 -0.3333
2 3 1 -0.5172 -0.0802
2 3 2 -0.2877 0.1066
2 3 3 0.3176 0.0428
2 3 4 0.7484 -0.0782
2 3 5 0.6017 -0.0446
2 3 6 0.1435 0.0521
2 3 7 -0.0952 0.0387
2 3 8 0.0110 -0.0330
2 3 9 0.1909 -0.0228
2 3 10 0.2575 0.0324
2 3 11 0.2562 0.0184
2 3 12 0.2219 -0.0281
2 3 13 0.0986 -0.0072
2 3 14 -0.0768 0.0389
2 3 15 -0.1449 0.0146
2 3 16 -0.0468 -0.0335
2 3 17 0.0703 -0.0083
2 3 18 0.0488 0.0369
2 3 19 -0.0730 -0.0107
2 3 20 -0.1326 -0.1038
2 4 0 -0.0703 -0.3080
2 4 1 -0.1051 -0.0805
2 4 2 0.0696 0.0883
2 4 3 0.2863 0.0390
2 4 4 0.3580 -0.0590
2 4 5 0.3139 -0.0265
2 4 6 0.2421 0.0510
2 4 7 0.1152 0.0258
2 4 8 -0.0603 -0.0445
2 4 9 -0.1266 -0.0303
2 4 10 -0.0079 0.0279
2 4 11 0.1044 0.0165
2 4 12 0.0035 -0.0321
2 4 13 -0.2258 -0.0149
2 4 14 -0.3330 0.0379
2 4 15 -0.2317 0.0251
2 4 16 -0.0399 -0.0296
2 4 17 0.1137 -0.0256
2 4 18 0.1778 0.0229
2 4 19 0.1442 0.0141
2 4 20 0.0553 -0.0552
2 5 0 0.2480 -0.2509
2 5 1 0.3176 -0.0614
2 5 2 0.2868 0.0814
2 5 3 0.1699 0.0391
2 5 4 0.1166 -0.0499
2 5 5 0.1970 -0.0289
2 5 6 0.2399 0.0375
2 5 7 0.0941 0.0215
2 5 8 -0.0835 -0.0368
2 5 9 -0.0611 -0.0271
2 5 10 0.0779 0.0245
2 5 11 0.0754 0.0205
2 5 12 -0.0670 -0.0238
2 5 13 -0.1218 -0.0224
2 5 14 -0.0398 0.0164
2 5 15 0.0072 0.0156
2 5 16 -0.0292 -0.0213
2 5 17 -0.0012 -0.0213
2 5 18 0.1350 0.0250
2 5 19 0.2199 0.0561
2 6 0 0.0334 -0.1981
2 6 1 -0.0052 -0.0422
2 6 2 -0.0687 0.0703
2 6 3 -0.1182 0.0268
2 6 4 -0.0871 -0.0506
2 6 5 -0.0260 -0.0287
2 6 6 -0.0888 0.0353
2 6 7 -0.2686 0.0289
2 6 8 -0.3402 -0.0205
2 6 9 -0.1948 -0.0217
2 6 10 -0.0207 0.0145
2 6 11 0.0009 0.0165
2 6 12 -0.0349 -0.0110
2 6 13 0.0282 -0.0108
2 6 14 0.1202 0.0151
2 6 15 0.0815 0.0193
2 6 16 -0.0570 -0.0041
2 6 17 -0.1301 -0.0261
2 6 18 -0.0813 -0.0421
2 7 0 -0.0768 -0.1977
2 7 1 0.0678 -0.0515
2 7 2 0.2242 0.0564
2 7 3 0.2108 0.0266
2 7 4 0.0808 -0.0339
2 7 5 -0.0159 -0.0183
2 7 6 -0.0747 0.0242
2 7 7 -0.1611 0.0154
2 7 8 -0.2275 -0.0139
2 7 9 -0.1765 -0.0054
2 7 10 -0.0273 0.0157
2 7 11 0.1071 0.0042
2 7 12 0.1586 -0.0163
2 7 13 0.1431 -0.0080
2 7 14 0.1049 0.0086
2 7 15 0.0651 0.0068
2 7 16 0.0081 0.0135
2 7 17 -0.0804 0.0498
2 8 0 -0.0872 -0.2114
2 8 1 -0.0107 -0.0609
2 8 2 0.0819 0.0488
2 8 3 0.0293 0.0253
2 8 4 -0.0442 -0.0259
2 8 5 0.0452 -0.0084
2 8 6 0.2297 0.0270
2 8 7 0.2918 0.0117
2 8 8 0.1720 -0.0191
2 8 9 0.0192 -0.0107
2 8 10 -0.0230 0.0121
2 8 11 0.0366 0.0092
2 8 12 0.1014 0.0019
2 8 13 0.1213 0.0132
2 8 14 0.1282 0.0060
2 8 15 0.1544 -0.0457
2 8 16 0.1660 -0.0883
2 9 0 0.0718 -0.2233
2 9 1 0.0882 -0.0640
2 9 2 0.0448 0.0529
2 9 3 -0.0674 0.0256
2 9 4 -0.1469 -0.0348
2 9 5 -0.1170 -0.0144
2 9 6 -0.0231 0.0348
2 9 7 0.0495 0.0206
2 9 8 0.0754 -0.0275
2 9 9 0.0758 -0.0269
2 9 10 0.0705 0.0108
2 9 11 0.0767 0.0119
2 9 12 0.1047 -0.0294
2 9 13 0.1325 -0.0531
2 9 14 0.1202 -0.0399
2 10 0 0.0065 -0.2292
2 10 1 0.0029 -0.0722
2 10 2 -0.0249 0.0557
2 10 3 -0.0637 0.0367
2 10 4 -0.0722 -0.0327
2 10 5 -0.0523 -0.0255
2 10 6 -0.0656 0.0242
2 10 7 -0.1493 0.0154
2 10 8 -0.2569 -0.0357
2 10 9 -0.3091 -0.0368
2 10 10 -0.2712 0.0119
2 10 11 -0.1631 0.0200
2 10 12 -0.0319 -0.0367
2 11 0 0.0228 -0.1706
2 11 1 0.0065 -0.0633
2 11 2 -0.0743 0.0287
2 11 3 -0.2021 0.0234
2 11 4 -0.2437 -0.0195
2 11 5 -0.1332 -0.0147
2 11 6 0.0036 0.0174
2 11 7 0.0022 0.0095
2 11 8 -0.1195 -0.0279
3 -9 0 0.0618 -0.1605
3 -9 1 0.0363 -0.0494
3 -9 2 0.0201 0.0666
3 -9 3 0.0035 0.0700
3 -8 0 0.0589 -0.1977
3 -8 1 -0.0453 -0.0427
3 -8 2 -0.0997 0.0762
3 -8 3 -0.0745 0.0371
3 -8 4 -0.0307 -0.0517
3 -8 5 -0.0210 -0.0480
3 -8 6 -0.0389 0.0103
3 -8 7 -0.0552 0.0063
3 -8 8 -0.0570 -0.0490
3 -7 0 0.0416 -0.1978
3 -7 1 -0.0159 -0.0493
3 -7 2 -0.0268 0.0594
3 -7 3 -0.0018 0.0229
3 -7 4 0.0141 -0.0458
3 -7 5 0.0157 -0.0248
3 -7 6 0.0257 0.0312
3 -7 7 0.0456 0.0194
3 -7 8 0.0567 -0.0269
3 -7 9 0.0491 -0.0149
3 -7 10 0.0274 0.0393
3 -7 11 -0.0008 0.0517
3 -6 0 -0.1613 -0.1917
3 -6 1 -0.1377 -0.0438
3 -6 2 -0.1354 0.0688
3 -6 3 -0.1291 0.0327
3 -6 4 -0.0599 -0.0429
3 -6 5 0.0478 -0.0317
3 -6 6 0.0816 0.0176
3 -6 7 -0.0094 0.0065
3 -6 8 -0.1232 -0.0309
3 -6 9 -0.1271 -0.0085
3 -6 10 -0.0350 0.0465
3 -6 11 0.0176 0.0513
3 -6 12 -0.0334 0.0187
3 -6 13 -0.1026 0.0189
3 -5 0 -0.1474 -0.2288
3 -5 1 -0.1561 -0.0597
3 -5 2 -0.2045 0.0727
3 -5 3 -0.1660 0.0374
3 -5 4 -0.0143 -0.0389
3 -5 5 0.0978 -0.0151
3 -5 6 0.0306 0.0427
3 -5 7 -0.1480 0.0188
3 -5 8 -0.2266 -0.0397
3 -5 9 -0.0937 -0.0306
3 -5 10 0.1346 0.0138
3 -5 11 0.2417 0.0096
3 -5 12 0.1425 -0.0104
3 -5 13 -0.0438 0.0276
3 -5 14 -0.1484 0.0800
3 -5 15 -0.1277 0.0570
3 -4 0 0.0405 -0.2627
3 -4 1 -0.0705 -0.0673
3 -4 2 -0.1318 0.0799
3 -4 3 0.0010 0.0378
3 -4 4 0.2149 -0.0461
3 -4 5 0.2807 -0.0200
3 -4 6 0.1602 0.0395
3 -4 7 0.0177 0.0148
3 -4 8 -0.0274 -0.0362
3 -4 9 -0.0106 -0.0147
3 -4 10 -0.0039 0.0295
3 -4 11 -0.0210 0.0096
3 -4 12 -0.0522 -0.0296
3 -4 13 -0.0906 -0.0097
3 -4 14 -0.1029 0.0262
3 -4 15 -0.0513 0.0021
3 -4 16 0.0356 -0.0414
3 -3 0 0.1478 -0.2697
3 -3 1 0.0544 -0.0650
3 -3 2 -0.0740 0.0824
3 -3 3 -0.0307 0.0327
3 -3 4 0.1350 -0.0575
3 -3 5 0.1885 -0.0303
3 -3 6 0.0678 0.0382
3 -3 7 -0.0485 0.0227
3 -3 8 -0.0337 -0.0307
3 -3 9 0.0358 -0.0205
3 -3 10 0.0602 0.0238
3 -3 11 0.0625 0.0198
3 -3 12 0.0856 -0.0138
3 -3 13 0.0945 -0.0132
3 -3 14 0.0580 0.0072
3 -3 15 0.0146 0.0004
3 -3 16 -0.0092 -0.0151
3 -3 17 -0.0458 -0.0020
3 -2 0 -0.0500 -0.2903
3 -2 1 -0.0507 -0.0842
3 -2 2 -0.1934 0.0741
3 -2 3 -0.2120 0.0393
3 -2 4 -0.0670 -0.0471
3 -2 5 -0.0069 -0.0262
3 -2 6 -0.1326 0.0408
3 -2 7 -0.2186 0.0283
3 -2 8 -0.0826 -0.0319
3 -2 9 0.1301 -0.0327
3 -2 10 0.1845 0.0153
3 -2 11 0.0768 0.0239
3 -2 12 -0.0353 -0.0107
3 -2 13 -0.0738 -0.0191
3 -2 14 -0.0680 0.0090
3 -2 15 -0.0515 0.0183
3 -2 16 -0.0473 -0.0059
3 -2 17 -0.0772 -0.0222
3 -2 18 -0.1136 -0.0143
3 -1 0 -0.2526 -0.2741
3 -1 1 -0.2269 -0.0894
3 -1 2 -0.2319 0.0609
3 -1 3 -0.1441 0.0343
3 -1 4 -0.0062 -0.0453
3 -1 5 0.0143 -0.0268
3 -1 6 -0.0777 0.0372
3 -1 7 -0.0856 0.0252
3 -1 8 0.0570 -0.0324
3 -1 9 0.1665 -0.0286
3 -1 10 0.0926 0.0215
3 -1 11 -0.0660 0.0210
3 -1 12 -0.1264 -0.0246
3 -1 13 -0.0566 -0.0251
3 -1 14 0.0440 0.0224
3 -1 15 0.0843 0.0285
3 -1 16 0.0308 -0.0210
3 -1 17 -0.0882 -0.0381
3 -1 18 -0.1760 0.0120
3 -1 19 -0.1485 0.0564
3 0 0 0.7311 -0.2405
3 0 1 0.6636 -0.0670
3 0 2 0.4988 0.0712
3 0 3 0.3253 0.0379
3 0 4 0.2056 -0.0430
3 0 5 0.1167 -0.0219
3 0 6 0.0357 0.0434
3 0 7 0.0029 0.0289
3 0 8 0.0374 -0.0294
3 0 9 0.0688 -0.0210
3 0 10 0.0257 0.0298
3 0 11 -0.0599 0.0216
3 0 12 -0.0985 -0.0261
3 0 13 -0.0569 -0.0151
3 0 14 0.0170 0.0367
3 0 15 0.0554 0.0267
3 0 16 0.0287 -0.0321
3 0 17 -0.0369 -0.0240
3 0 18 -0.0842 0.0583
3 0 19 -0.0773 0.0944
3 1 0 0.6631 -0.2876
3 1 1 0.5386 -0.0946
3 1 2 0.2165 0.0675
3 1 3 -0.0168 0.0445
3 1 4 0.0268 -0.0373
3 1 5 0.1824 -0.0198
3 1 6 0.2161 0.0403
3 1 7 0.1688 0.0195
3 1 8 0.2085 -0.0403
3 1 9 0.2833 -0.0286
3 1 10 0.1788 0.0225
3 1 11 -0.1211 0.0124
3 1 12 -0.3676 -0.0297
3 1 13 -0.3761 -0.0098
3 1 14 -0.2389 0.0397
3 1 15 -0.1376 0.0192
3 1 16 -0.0937 -0.0404
3 1 17 -0.0180 -0.0299
3 1 18 0.0944 0.0301
3 1 19 0.1542 0.0191
3 1 20 0.1266 -0.0655
3 2 0 -0.0149 -0.2813
3 2 1 -0.1208 -0.0670
3 2 2 -0.2730 0.1015
3 2 3 -0.2104 0.0604
3 2 4 -0.0086 -0.0435
3 2 5 0.0091 -0.0339
3 2 6 -0.2101 0.0307
3 2 7 -0.3432 0.0184
3 2 8 -0.1849 -0.0333
3 2 9 0.0331 -0.0176
3 2 10 -0.0149 0.0321
3 2 11 -0.2796 0.0195
3 2 12 -0.4289 -0.0245
3 2 13 -0.3166 -0.0110
3 2 14 -0.1316 0.0292
3 2 15 -0.0831 0.0089
3 2 16 -0.1390 -0.0395
3 2 17 -0.1532 -0.0250
3 2 18 -0.0969 0.0209
3 2 19 -0.0442 -0.0049
3 2 20 -0.0203 -0.0833
3 3 0 -0.2115 -0.3163
3 3 1 -0.4046 -0.0850
3 3 2 -0.3046 0.0896
3 3 3 0.0091 0.0478
3 3 4 0.1949 -0.0512
3 3 5 0.1147 -0.0320
3 3 6 -0.0398 0.0381
3 3 7 -0.0751 0.0240
3 3 8 -0.0212 -0.0336
3 3 9 0.0060 -0.0233
3 3 10 -0.0184 0.0257
3 3 11 -0.0571 0.0173
3 3 12 -0.0916 -0.0249
3 3 13 -0.1164 -0.0143
3 3 14 -0.1206 0.0261
3 3 15 -0.1060 0.0129
3 3 16 -0.0878 -0.0309
3 3 17 -0.0752 -0.0169
3 3 18 -0.0746 0.0390
3 3 19 -0.0898 0.0395
3 3 20 -0.0998 -0.0223
3 4 0 0.0123 -0.3198
3 4 1 0.0014 -0.0982
3 4 2 0.1652 0.0746
3 4 3 0.2312 0.0470
3 4 4 0.1075 -0.0385
3 4 5 0.0248 -0.0231
3 4 6 0.0892 0.0350
3 4 7 0.0881 0.0188
3 4 8 -0.0935 -0.0319
3 4 9 -0.2312 -0.0186
3 4 10 -0.1456 0.0277
3 4 11 -0.0132 0.0162
3 4 12 -0.0600 -0.0292
3 4 13 -0.2068 -0.0216
3 4 14 -0.2485 0.0234
3 4 15 -0.1745 0.0199
3 4 16 -0.0977 -0.0256
3 4 17 -0.0372 -0.0220
3 4 18 0.0349 0.0448
3 4 19 0.0644 0.0845
3 5 0 0.2619 -0.2482
3 5 1 0.3687 -0.0691
3 5 2 0.3916 0.0672
3 5 3 0.2447 0.0359
3 5 4 0.0961 -0.0399
3 5 5 0.1382 -0.0245
3 5 6 0.2328 0.0315
3 5 7 0.1313 0.0240
3 5 8 -0.0664 -0.0187
3 5 9 -0.0614 -0.0123
3 5 10 0.1189 0.0245
3 5 11 0.1617 0.0181
3 5 12 -0.0008 -0.0193
3 5 13 -0.1088 -0.0198
3 5 14 -0.0364 0.0133
3 5 15 0.0500 0.0168
3 5 16 0.0462 -0.0149
3 5 17 0.0724 -0.0207
3 5 18 0.1870 0.0240
3 5 19 0.2383 0.0712
3 6 0 -0.1345 -0.2244
3 6 1 -0.1390 -0.0683
3 6 2 -0.0992 0.0507
3 6 3 -0.0600 0.0271
3 6 4 0.0262 -0.0329
3 6 5 0.1773 -0.0184
3 6 6 0.2458 0.0251
3 6 7 0.1279 0.0157
3 6 8 -0.0217 -0.0184
3 6 9 -0.0101 -0.0105
3 6 10 0.0923 0.0222
3 6 11 0.0980 0.0222
3 6 12 0.0244 -0.0047
3 6 13 0.0292 -0.0122
3 6 14 0.1191 0.0028
3 6 15 0.1563 0.0080
3 6 16 0.1040 -0.0054
3 6 17 0.0615 -0.0241
3 6 18 0.0764 -0.0451
3 7 0 -0.2306 -0.2155
3 7 1 -0.1050 -0.0641
3 7 2 0.1044 0.0508
3 7 3 0.1428 0.0344
3 7 4 0.0461 -0.0176
3 7 5 0.0534 -0.0136
3 7 6 0.1935 0.0085
3 7 7 0.2497 -0.0038
3 7 8 0.1230 -0.0196
3 7 9 -0.0218 -0.0038
3 7 10 -0.0160 0.0109
3 7 11 0.0877 -0.0061
3 7 12 0.1294 -0.0231
3 7 13 0.0690 -0.0097
3 7 14 0.0027 0.0074
3 7 15 -0.0036 0.0039
3 7 16 -0.0039 0.0084
3 7 17 -0.0680 0.0435
3 8 0 -0.2887 -0.2091
3 8 1 -0.2526 -0.0608
3 8 2 -0.1127 0.0482
3 8 3 -0.0969 0.0292
3 8 4 -0.1067 -0.0209
3 8 5 0.1032 -0.0146
3 8 6 0.4595 0.0093
3 8 7 0.5967 -0.0001
3 8 8 0.3555 -0.0129
3 8 9 -0.0006 0.0025
3 8 10 -0.1482 0.0148
3 8 11 -0.0898 0.0011
3 8 12 -0.0448 -0.0017
3 8 13 -0.0903 0.0266
3 8 14 -0.0941 0.0339
3 8 15 0.0274 -0.0195
3 8 16 0.1631 -0.0808
3 9 0 -0.0534 -0.2111
3 9 1 -0.0156 -0.0589
3 9 2 0.0136 0.0525
3 9 3 -0.0384 0.0252
3 9 4 -0.0920 -0.0370
3 9 5 -0.0373 -0.0274
3 9 6 0.0744 0.0139
3 9 7 0.0917 0.0102
3 9 8 -0.0150 -0.0152
3 9 9 -0.1132 -0.0035
3 9 10 -0.0979 0.0241
3 9 11 -0.0174 0.0097
3 9 12 0.0267 -0.0306
3 9 13 0.0205 -0.0326
3 9 14 0.0237 0.0066
3 9 15 0.0661 0.0263
3 10 0 0.0350 -0.1977
3 10 1 0.0351 -0.0486
3 10 2 0.0292 0.0663
3 10 3 0.0128 0.0429
3 10 4 0.0038 -0.0237
3 10 5 0.0141 -0.0191
3 10 6 0.0163 0.0238
3 10 7 -0.0278 0.0198
3 10 8 -0.1083 -0.0141
3 10 9 -0.1672 -0.0063
3 10 10 -0.1600 0.0285
3 10 11 -0.0935 0.0126
3 10 12 -0.0079 -0.0527
3 11 0 0.0327 -0.1455
3 11 1 -0.0043 -0.0422
3 11 2 -0.0579 0.0347
3 11 3 -0.1094 0.0249
3 11 4 -0.1077 -0.0095
3 11 5 -0.0260 -0.0033
3 11 6 0.0783 0.0178
3 11 7 0.1084 0.0064
3 11 8 0.0428 -0.0168
3 11 9 -0.0393 -0.0046
4 -8 0 0.0764 -0.1324
4 -8 1 0.0637 -0.0369
4 -8 2 -0.0022 0.0341
4 -8 3 -0.0499 0.0058
4 -8 4 -0.0585 -0.0444
4 -7 0 0.0765 -0.1971
4 -7 1 -0.0005 -0.0629
4 -7 2 -0.0921 0.0352
4 -7 3 -0.1331 0.0147
4 -7 4 -0.1103 -0.0254
4 -7 5 -0.0599 0.0011
4 -7 6 -0.0197 0.0368
4 -7 7 -0.0003 0.0140
4 -7 8 0.0065 -0.0167
4 -7 9 0.0096 0.0127
4 -6 0 0.0712 -0.2206
4 -6 1 0.0926 -0.0586
4 -6 2 0.0487 0.0597
4 -6 3 -0.0117 0.0306
4 -6 4 -0.0016 -0.0345
4 -6 5 0.0626 -0.0213
4 -6 6 0.0739 0.0215
4 -6 7 -0.0077 0.0108
4 -6 8 -0.0841 -0.0171
4 -6 9 -0.0450 0.0095
4 -6 10 0.0767 0.0604
4 -6 11 0.1393 0.0645
4 -5 0 -0.0899 -0.2402
4 -5 1 -0.0304 -0.0740
4 -5 2 -0.0709 0.0525
4 -5 3 -0.1088 0.0220
4 -5 4 -0.0512 -0.0435
4 -5 5 0.0254 -0.0162
4 -5 6 0.0039 0.0419
4 -5 7 -0.0731 0.0258
4 -5 8 -0.0437 -0.0253
4 -5 9 0.1568 -0.0205
4 -5 10 0.3979 0.0173
4 -5 11 0.4896 0.0161
4 -5 12 0.3767 -0.0033
4 -5 13 0.1772 0.0218
4 -4 0 -0.0409 -0.2368
4 -4 1 -0.0582 -0.0738
4 -4 2 -0.0901 0.0524
4 -4 3 -0.0651 0.0240
4 -4 4 0.0250 -0.0383
4 -4 5 0.0931 -0.0146
4 -4 6 0.0941 0.0321
4 -4 7 0.0784 0.0128
4 -4 8 0.0864 -0.0229
4 -4 9 0.0940 -0.0035
4 -4 10 0.0853 0.0232
4 -4 11 0.0814 -0.0046
4 -4 12 0.0730 -0.0332
4 -4 13 0.0201 0.0061
4 -4 14 -0.0555 0.0605
4 -4 15 -0.0709 0.0447
4 -3 0 -0.0175 -0.2278
4 -3 1 0.1308 -0.0625
4 -3 2 0.1746 0.0627
4 -3 3 0.1235 0.0344
4 -3 4 0.0880 -0.0338
4 -3 5 0.1089 -0.0250
4 -3 6 0.1482 0.0142
4 -3 7 0.1657 0.0083
4 -3 8 0.1372 -0.0108
4 -3 9 0.0683 0.0041
4 -3 10 0.0255 0.0155
4 -3 11 0.0690 -0.0116
4 -3 12 0.1353 -0.0287
4 -3 13 0.1016 0.0037
4 -3 14 -0.0149 0.0332
4 -3 15 -0.0595 0.0078
4 -3 16 0.0219 -0.0299
4 -2 0 -0.1086 -0.2368
4 -2 1 0.0695 -0.0663
4 -2 2 0.0606 0.0645
4 -2 3 -0.0803 0.0411
4 -2 4 -0.1866 -0.0307
4 -2 5 -0.2204 -0.0297
4 -2 6 -0.2270 0.0128
4 -2 7 -0.1947 0.0171
4 -2 8 -0.1045 -0.0048
4 -2 9 -0.0151 0.0000
4 -2 10 0.0150 0.0216
4 -2 11 0.0062 0.0186
4 -2 12 -0.0120 -0.0027
4 -2 13 -0.0475 -0.0101
4 -2 14 -0.0699 -0.0051
4 -2 15 -0.0112 -0.0070
4 -2 16 0.1042 -0.0086
4 -2 17 0.1553 0.0033
4 -1 0 -0.3229 -0.2042
4 -1 1 -0.2944 -0.0410
4 -1 2 -0.1875 0.0792
4 -1 3 -0.0447 0.0444
4 -1 4 0.0124 -0.0370
4 -1 5 -0.0817 -0.0366
4 -1 6 -0.2008 0.0137
4 -1 7 -0.1646 0.0173
4 -1 8 0.0022 -0.0203
4 -1 9 0.0963 -0.0249
4 -1 10 0.0191 0.0097
4 -1 11 -0.1203 0.0216
4 -1 12 -0.1903 -0.0052
4 -1 13 -0.1743 -0.0193
4 -1 14 -0.1059 0.0040
4 -1 15 -0.0116 0.0258
4 -1 16 0.0513 0.0152
4 -1 17 0.0252 -0.0057
4 -1 18 -0.0483 -0.0097
4 0 0 -0.0218 -0.2453
4 0 1 -0.0103 -0.0663
4 0 2 0.1719 0.0723
4 0 3 0.3484 0.0458
4 0 4 0.3170 -0.0352
4 0 5 0.0980 -0.0326
4 0 6 -0.0973 0.0206
4 0 7 -0.1287 0.0209
4 0 8 -0.0572 -0.0210
4 0 9 -0.0069 -0.0202
4 0 10 -0.0115 0.0223
4 0 11 -0.0414 0.0282
4 0 12 -0.0801 -0.0125
4 0 13 -0.1088 -0.0287
4 0 14 -0.0855 -0.0000
4 0 15 -0.0048 0.0112
4 0 16 0.0673 -0.0213
4 0 17 0.0703 -0.0377
4 0 18 0.0223 0.0039
4 0 19 -0.0155 0.0584
4 1 0 -0.0088 -0.2767
4 1 1 0.0838 -0.0853
4 1 2 0.1149 0.0662
4 1 3 0.0596 0.0456
4 1 4 0.0122 -0.0324
4 1 5 0.0386 -0.0275
4 1 6 0.0866 0.0233
4 1 7 0.0902 0.0178
4 1 8 0.0850 -0.0243
4 1 9 0.1292 -0.0182
4 1 10 0.1648 0.0233
4 1 11 0.0855 0.0206
4 1 12 -0.0749 -0.0220
4 1 13 -0.1643 -0.0275
4 1 14 -0.1268 0.0109
4 1 15 -0.0595 0.0224
4 1 16 -0.0333 -0.0087
4 1 17 -0.0003 -0.0148
4 1 18 0.0772 0.0338
4 1 19 0.1400 0.0791
4 2 0 -0.1501 -0.2425
4 2 1 0.0131 -0.0598
4 2 2 0.0316 0.0719
4 2 3 -0.0252 0.0331
4 2 4 -0.0252 -0.0483
4 2 5 0.0280 -0.0340
4 2 6 0.0220 0.0272
4 2 7 -0.0591 0.0274
4 2 8 -0.0880 -0.0129
4 2 9 -0.0093 -0.0099
4 2 10 0.0374 0.0247
4 2 11 -0.0668 0.0195
4 2 12 -0.2007 -0.0186
4 2 13 -0.1733 -0.0215
4 2 14 -0.0282 0.0134
4 2 15 0.0274 0.0247
4 2 16 -0.0502 0.0007
4 2 17 -0.1007 -0.0054
4 2 18 -0.0398 0.0268
4 2 19 0.0314 0.0546
4 3 0 -0.1269 -0.2739
4 3 1 -0.1136 -0.0844
4 3 2 -0.0413 0.0598
4 3 3 -0.0110 0.0340
4 3 4 -0.0521 -0.0389
4 3 5 -0.0711 -0.0238
4 3 6 -0.0307 0.0317
4 3 7 -0.0111 0.0249
4 3 8 -0.0420 -0.0214
4 3 9 -0.0457 -0.0236
4 3 10 -0.0023 0.0103
4 3 11 0.0023 0.0122
4 3 12 -0.0518 -0.0172
4 3 13 -0.0729 -0.0187
4 3 14 -0.0365 0.0126
4 3 15 -0.0358 0.0228
4 3 16 -0.0960 -0.0016
4 3 17 -0.1103 -0.0119
4 3 18 -0.0302 0.0198
4 3 19 0.0383 0.0569
4 4 0 -0.1425 -0.2664
4 4 1 -0.0235 -0.0801
4 4 2 0.1524 0.0692
4 4 3 0.1170 0.0478
4 4 4 -0.0876 -0.0325
4 4 5 -0.1597 -0.0330
4 4 6 -0.0429 0.0149
4 4 7 0.0037 0.0170
4 4 8 -0.1201 -0.0144
4 4 9 -0.1973 -0.0103
4 4 10 -0.1005 0.0199
4 4 11 0.0054 0.0167
4 4 12 -0.0074 -0.0147
4 4 13 -0.0249 -0.0174
4 4 14 0.0396 0.0113
4 4 15 0.0622 0.0158
4 4 16 -0.0429 -0.0186
4 4 17 -0.1365 -0.0343
4 4 18 -0.0873 0.0106
4 4 19 0.0084 0.0742
4 5 0 0.1471 -0.2270
4 5 1 0.2687 -0.0582
4 5 2 0.2988 0.0755
4 5 3 0.1569 0.0464
4 5 4 -0.0054 -0.0373
4 5 5 -0.0151 -0.0386
4 5 6 0.0322 0.0134
4 5 7 -0.0405 0.0222
4 5 8 -0.1451 -0.0092
4 5 9 -0.0817 -0.0154
4 5 10 0.0746 0.0061
4 5 11 0.0844 0.0081
4 5 12 -0.0327 -0.0107
4 5 13 -0.0380 -0.0099
4 5 14 0.0944 0.0142
4 5 15 0.1348 0.0212
4 5 16 0.0088 -0.0020
4 5 17 -0.0790 -0.0161
4 5 18 -0.0023 0.0117
4 5 19 0.0929 0.0580
4 6 0 -0.0722 -0.2417
4 6 1 -0.0937 -0.0693
4 6 2 -0.0918 0.0686
4 6 3 -0.0677 0.0472
4 6 4 -0.0086 -0.0272
4 6 5 0.0598 -0.0266
4 6 6 0.0586 0.0173
4 6 7 -0.0150 0.0170
4 6 8 -0.0461 -0.0176
4 6 9 0.0151 -0.0227
4 6 10 0.0553 0.0031
4 6 11 -0.0107 0.0136
4 6 12 -0.0827 -0.0006
4 6 13 -0.0396 -0.0102
4 6 14 0.0575 -0.0033
4 6 15 0.0763 0.0060
4 6 16 0.0315 0.0078
4 6 17 0.0378 0.0036
4 6 18 0.1041 -0.0072
4 7 0 -0.0554 -0.2307
4 7 1 0.0426 -0.0634
4 7 2 0.1617 0.0599
4 7 3 0.1496 0.0324
4 7 4 0.0002 -0.0339
4 7 5 -0.1281 -0.0245
4 7 6 -0.1179 0.0203
4 7 7 -0.0215 0.0214
4 7 8 0.0363 -0.0060
4 7 9 0.0168 -0.0093
4 7 10 -0.0135 0.0049
4 7 11 0.0019 0.0036
4 7 12 0.0310 -0.0068
4 7 13 0.0115 -0.0047
4 7 14 -0.0501 0.0008
4 7 15 -0.0873 -0.0042
4 7 16 -0.0696 -0.0022
4 7 17 -0.0358 0.0239
4 8 0 -0.0504 -0.1953
4 8 1 -0.0236 -0.0453
4 8 2 0.0249 0.0567
4 8 3 -0.0080 0.0233
4 8 4 -0.0719 -0.0348
4 8 5 -0.0297 -0.0171
4 8 6 0.1220 0.0292
4 8 7 0.2160 0.0272
4 8 8 0.1318 -0.0040
4 8 9 -0.0363 -0.0099
4 8 10 -0.1004 0.0041
4 8 11 -0.0198 0.0052
4 8 12 0.0719 -0.0001
4 8 13 0.0632 0.0065
4 8 14 -0.0116 0.0047
4 8 15 -0.0615 -0.0291
4 8 16 -0.0625 -0.0666
4 9 0 0.0137 -0.1728
4 9 1 0.0434 -0.0389
4 9 2 0.0332 0.0549
4 9 3 -0.0024 0.0240
4 9 4 -0.0234 -0.0339
4 9 5 -0.0358 -0.0201
4 9 6 -0.0835 0.0253
4 9 7 -0.1749 0.0227
4 9 8 -0.2535 -0.0129
4 9 9 -0.2523 -0.0170
4 9 10 -0.1619 0.0094
4 9 11 -0.0338 0.0116
4 9 12 0.0681 -0.0220
4 9 13 0.1030 -0.0465
4 9 14 0.0617 -0.0363
4 10 0 0.0122 -0.1515
4 10 1 0.0024 -0.0463
4 10 2 -0.0273 0.0382
4 10 3 -0.0216 0.0219
4 10 4 0.0076 -0.0247
4 10 5 -0.0153 -0.0180
4 10 6 -0.1040 0.0165
4 10 7 -0.1725 0.0139
4 10 8 -0.1512 -0.0167
4 10 9 -0.0773 -0.0197
4 10 10 -0.0292 0.0056
4 10 11 -0.0203 0.0048
4 10 12 -0.0099 -0.0362
4 11 0 -0.0113 -0.0982
4 11 1 -0.0497 -0.0392
4 11 2 -0.0825 0.0098
4 11 3 -0.0584 0.0087
4 11 4 -0.0045 -0.0100
4 11 5 0.0134 -0.0145
4 11 6 -0.0071 -0.0172
4 11 7 -0.0092 -0.0354
4 11 8 0.0299 -0.0525
5 -7 0 -0.0777 -0.1437
5 -7 1 -0.2019 -0.0454
5 -7 2 -0.3474 0.0323
5 -7 3 -0.4006 0.0232
5 -7 4 -0.3061 0.0005
5 -7 5 -0.1372 0.0264
5 -6 0 -0.0286 -0.2170
5 -6 1 -0.0135 -0.0634
5 -6 2 -0.0532 0.0654
5 -6 3 -0.1019 0.0543
5 -6 4 -0.0671 -0.0094
5 -6 5 0.0328 -0.0109
5 -6 6 0.0732 0.0237
5 -6 7 -0.0092 0.0186
5 -6 8 -0.1300 -0.0071
5 -6 9 -0.1698 0.0079
5 -5 0 0.0121 -0.2196
5 -5 1 0.0914 -0.0571
5 -5 2 0.0580 0.0727
5 -5 3 -0.0062 0.0414
5 -5 4 0.0065 -0.0427
5 -5 5 0.0594 -0.0375
5 -5 6 0.0436 0.0203
5 -5 7 -0.0376 0.0193
5 -5 8 -0.0709 -0.0272
5 -5 9 -0.0018 -0.0254
5 -5 10 0.0957 0.0292
5 -5 11 0.1310 0.0588
5 -4 0 -0.0256 -0.1878
5 -4 1 -0.0223 -0.0426
5 -4 2 -0.0663 0.0687
5 -4 3 -0.1145 0.0325
5 -4 4 -0.1170 -0.0405
5 -4 5 -0.0902 -0.0252
5 -4 6 -0.0696 0.0273
5 -4 7 -0.0486 0.0166
5 -4 8 -0.0192 -0.0265
5 -4 9 -0.0139 -0.0166
5 -4 10 -0.0452 0.0302
5 -4 11 -0.0607 0.0424
5 -4 12 -0.0233 0.0265
5 -4 13 0.0173 0.0379
5 -3 0 -0.0247 -0.1724
5 -3 1 0.2188 -0.0406
5 -3 2 0.3367 0.0601
5 -3 3 0.2400 0.0323
5 -3 4 0.0827 -0.0253
5 -3 5 0.0346 -0.0129
5 -3 6 0.0877 0.0236
5 -3 7 0.1196 0.0126
5 -3 8 0.0558 -0.0167
5 -3 9 -0.0633 -0.0134
5 -3 10 -0.1294 -0.0021
5 -3 11 -0.0792 -0.0159
5 -3 12 0.0180 -0.0195
5 -3 13 0.0304 0.0201
5 -3 14 -0.0560 0.0580
5 -3 15 -0.1087 0.0410
5 -2 0 0.1140 -0.2000
5 -2 1 0.3443 -0.0636
5 -2 2 0.3482 0.0409
5 -2 3 0.1110 0.0243
5 -2 4 -0.1215 -0.0231
5 -2 5 -0.1669 -0.0138
5 -2 6 -0.0844 0.0156
5 -2 7 -0.0306 0.0085
5 -2 8 -0.0708 -0.0124
5 -2 9 -0.1533 -0.0076
5 -2 10 -0.1853 0.0056
5 -2 11 -0.1216 -0.0021
5 -2 12 -0.0167 -0.0169
5 -2 13 0.0334 -0.0174
5 -2 14 0.0228 -0.0160
5 -2 15 0.0436 -0.0250
5 -2 16 0.1295 -0.0253
5 -1 0 0.1298 -0.2135
5 -1 1 0.0425 -0.0611
5 -1 2 -0.0199 0.0494
5 -1 3 -0.0263 0.0287
5 -1 4 -0.0281 -0.0255
5 -1 5 -0.0506 -0.0154
5 -1 6 -0.0288 0.0255
5 -1 7 0.0806 0.0266
5 -1 8 0.1842 -0.0029
5 -1 9 0.1543 -0.0129
5 -1 10 0.0125 0.0005
5 -1 11 -0.0960 0.0052
5 -1 12 -0.1001 -0.0038
5 -1 13 -0.0654 -0.0029
5 -1 14 -0.0553 0.0149
5 -1 15 -0.0396 0.0314
5 -1 16 0.0193 0.0329
5 -1 17 0.0782 0.0231
5 0 0 0.1745 -0.2765
5 0 1 0.0884 -0.0950
5 0 2 0.1987 0.0461
5 0 3 0.4045 0.0342
5 0 4 0.4180 -0.0297
5 0 5 0.1934 -0.0265
5 0 6 -0.0182 0.0196
5 0 7 -0.0323 0.0269
5 0 8 0.0603 -0.0037
5 0 9 0.0912 -0.0144
5 0 10 0.0412 0.0037
5 0 11 -0.0052 0.0103
5 0 12 -0.0139 -0.0044
5 0 13 -0.0225 -0.0090
5 0 14 -0.0571 0.0065
5 0 15 -0.0857 0.0121
5 0 16 -0.0584 -0.0110
5 0 17 0.0147 -0.0410
5 0 18 0.0524 -0.0509
5 1 0 -0.1158 -0.2515
5 1 1 -0.1503 -0.0710
5 1 2 -0.0940 0.0645
5 1 3 0.0040 0.0425
5 1 4 0.0499 -0.0296
5 1 5 0.0468 -0.0287
5 1 6 0.0452 0.0161
5 1 7 0.0510 0.0191
5 1 8 0.0556 -0.0139
5 1 9 0.0637 -0.0206
5 1 10 0.0497 0.0033
5 1 11 -0.0092 0.0119
5 1 12 -0.0507 -0.0030
5 1 13 -0.0050 -0.0067
5 1 14 0.0589 0.0104
5 1 15 0.0209 0.0185
5 1 16 -0.0762 0.0006
5 1 17 -0.0833 -0.0257
5 1 18 0.0026 -0.0389
5 2 0 -0.0895 -0.2075
5 2 1 -0.1178 -0.0482
5 2 2 -0.1319 0.0598
5 2 3 -0.1147 0.0264
5 2 4 -0.0290 -0.0377
5 2 5 0.1050 -0.0248
5 2 6 0.1723 0.0230
5 2 7 0.1126 0.0226
5 2 8 0.0310 -0.0120
5 2 9 0.0288 -0.0187
5 2 10 0.0342 0.0040
5 2 11 -0.0350 0.0134
5 2 12 -0.0745 0.0010
5 2 13 0.0276 -0.0065
5 2 14 0.1414 0.0001
5 2 15 0.0762 0.0035
5 2 16 -0.0895 -0.0086
5 2 17 -0.1273 -0.0330
5 2 18 -0.0301 -0.0561
5 3 0 0.0768 -0.1987
5 3 1 -0.0206 -0.0502
5 3 2 -0.0399 0.0540
5 3 3 -0.0579 0.0286
5 3 4 -0.0708 -0.0257
5 3 5 -0.0081 -0.0134
5 3 6 0.0864 0.0241
5 3 7 0.0968 0.0152
5 3 8 0.0389 -0.0201
5 3 9 0.0316 -0.0242
5 3 10 0.0906 0.0010
5 3 11 0.1262 0.0136
5 3 12 0.1110 0.0036
5 3 13 0.0780 -0.0069
5 3 14 0.0026 -0.0059
5 3 15 -0.1338 -0.0023
5 3 16 -0.2174 -0.0091
5 3 17 -0.1271 -0.0327
5 3 18 0.0514 -0.0610
5 4 0 -0.1459 -0.1786
5 4 1 -0.1289 -0.0374
5 4 2 -0.0276 0.0623
5 4 3 -0.0511 0.0318
5 4 4 -0.1691 -0.0294
5 4 5 -0.1676 -0.0219
5 4 6 -0.0246 0.0168
5 4 7 0.0618 0.0155
5 4 8 0.0127 -0.0104
5 4 9 -0.0387 -0.0096
5 4 10 -0.0099 0.0121
5 4 11 0.0216 0.0166
5 4 12 0.0075 0.0023
5 4 13 0.0136 -0.0050
5 4 14 0.0639 0.0013
5 4 15 0.0827 0.0046
5 4 16 0.0443 -0.0086
5 4 17 0.0270 -0.0350
5 4 18 0.0665 -0.0568
5 5 0 -0.0215 -0.2089
5 5 1 -0.0263 -0.0617
5 5 2 -0.0467 0.0467
5 5 3 -0.1260 0.0220
5 5 4 -0.1706 -0.0346
5 5 5 -0.0947 -0.0211
5 5 6 0.0161 0.0223
5 5 7 0.0419 0.0213
5 5 8 0.0181 -0.0075
5 5 9 0.0291 -0.0116
5 5 10 0.0265 0.0046
5 5 11 -0.0659 0.0075
5 5 12 -0.1588 -0.0011
5 5 13 -0.1035 0.0008
5 5 14 0.0598 0.0113
5 5 15 0.1446 0.0132
5 5 16 0.0896 0.0025
5 5 17 0.0169 -0.0132
5 5 18 0.0179 -0.0258
5 6 0 -0.0197 -0.2416
5 6 1 -0.0785 -0.0773
5 6 2 -0.1585 0.0488
5 6 3 -0.1792 0.0340
5 6 4 -0.0941 -0.0206
5 6 5 0.0156 -0.0127
5 6 6 0.0466 0.0196
5 6 7 0.0282 0.0097
5 6 8 0.0538 -0.0189
5 6 9 0.1016 -0.0159
5 6 10 0.0697 0.0061
5 6 11 -0.0301 0.0089
5 6 12 -0.0681 -0.0046
5 6 13 -0.0007 -0.0108
5 6 14 0.0621 -0.0088
5 6 15 0.0307 -0.0080
5 6 16 -0.0398 -0.0035
5 6 17 -0.0561 0.0073
5 7 0 -0.0309 -0.2187
5 7 1 0.0603 -0.0569
5 7 2 0.0973 0.0536
5 7 3 0.0750 0.0239
5 7 4 0.0213 -0.0337
5 7 5 -0.0618 -0.0194
5 7 6 -0.1382 0.0207
5 7 7 -0.1289 0.0165
5 7 8 -0.0307 -0.0086
5 7 9 0.0485 -0.0054
5 7 10 0.0381 0.0121
5 7 11 -0.0025 0.0094
5 7 12 0.0021 -0.0015
5 7 13 0.0274 0.0064
5 7 14 0.0155 0.0207
5 7 15 -0.0183 0.0143
5 7 16 -0.0188 -0.0042
5 8 0 0.0053 -0.1911
5 8 1 0.0898 -0.0421
5 8 2 0.1160 0.0516
5 8 3 0.1054 0.0170
5 8 4 0.1086 -0.0347
5 8 5 0.0999 -0.0156
5 8 6 0.0470 0.0218
5 8 7 -0.0063 0.0085
5 8 8 -0.0087 -0.0260
5 8 9 0.0152 -0.0239
5 8 10 0.0196 0.0022
5 8 11 0.0241 0.0065
5 8 12 0.0780 -0.0078
5 8 13 0.1653 -0.0057
5 8 14 0.2042 0.0117
5 8 15 0.1465 0.0121
5 9 0 0.0063 -0.1579
5 9 1 0.1077 -0.0294
5 9 2 0.1152 0.0504
5 9 3 0.1082 0.0227
5 9 4 0.1532 -0.0201
5 9 5 0.1654 -0.0061
5 9 6 0.0655 0.0200
5 9 7 -0.0561 0.0013
5 9 8 -0.0672 -0.0323
5 9 9 0.0007 -0.0228
5 9 10 0.0168 0.0200
5 9 11 -0.0251 0.0372
5 9 12 0.0025 0.0082
5 9 13 0.1350 -0.0289
5 9 14 0.2261 -0.0364
5 10 0 -0.0267 -0.1033
5 10 1 0.0299 -0.0208
5 10 2 0.0134 0.0280
5 10 3 0.0117 0.0124
5 10 4 0.0604 -0.0102
5 10 5 0.0655 -0.0024
5 10 6 -0.0132 0.0087
5 10 7 -0.0568 -0.0022
5 10 8 0.0297 -0.0133
5 10 9 0.1447 0.0059
5 10 10 0.1289 0.0447
5 10 11 0.0046 0.0629
5 11 1 -0.1556 0.0215
5 11 2 -0.1547 0.0213
5 11 3 -0.0822 0.0102
5 11 4 0.0164 0.0042
5 11 5 0.0387 -0.0088
5 11 6 -0.0189 -0.0368
6 -6 0 -0.0792 -0.1163
6 -6 1 -0.1112 -0.0458
6 -6 2 -0.1264 0.0325
6 -6 3 -0.1223 0.0416
6 -5 0 0.0446 -0.1578
6 -5 1 0.0561 -0.0509
6 -5 2 0.0503 0.0508
6 -5 3 0.0459 0.0459
6 -5 4 0.0681 -0.0093
6 -5 5 0.0937 -0.0178
6 -5 6 0.0799 0.0055
6 -5 7 0.0367 -0.0099
6 -5 8 0.0153 -0.0534
6 -4 0 -0.0546 -0.1914
6 -4 1 -0.1183 -0.0599
6 -4 2 -0.1381 0.0491
6 -4 3 -0.1055 0.0324
6 -4 4 -0.0514 -0.0279
6 -4 5 -0.0165 -0.0237
6 -4 6 -0.0046 0.0141
6 -4 7 0.0232 0.0023
6 -4 8 0.0826 -0.0388
6 -4 9 0.1224 -0.0303
6 -4 10 0.0944 0.0269
6 -4 11 0.0379 0.0617
6 -3 0 -0.1969 -0.1892
6 -3 1 -0.1266 -0.0537
6 -3 2 -0.0240 0.0453
6 -3 3 0.0209 0.0183
6 -3 4 0.0309 -0.0333
6 -3 5 0.0654 -0.0101
6 -3 6 0.1084 0.0373
6 -3 7 0.1095 0.0280
6 -3 8 0.0758 -0.0099
6 -3 9 0.0543 -0.0080
6 -3 10 0.0626 0.0228
6 -3 11 0.0810 0.0311
6 -3 12 0.0832 0.0190
6 -3 13 0.0522 0.0203
6 -2 0 -0.0371 -0.1824
6 -2 1 0.0831 -0.0440
6 -2 2 0.1177 0.0460
6 -2 3 0.0266 0.0130
6 -2 4 -0.0473 -0.0331
6 -2 5 -0.0018 -0.0094
6 -2 6 0.0711 0.0235
6 -2 7 0.0346 0.0003
6 -2 8 -0.0896 -0.0355
6 -2 9 -0.1616 -0.0218
6 -2 10 -0.1128 0.0178
6 -2 11 -0.0102 0.0279
6 -2 12 0.0477 0.0072
6 -2 13 0.0361 -0.0140
6 -2 14 0.0003 -0.0289
6 -1 0 -0.0240 -0.1909
6 -1 1 -0.0764 -0.0415
6 -1 2 -0.1368 0.0528
6 -1 3 -0.1675 0.0202
6 -1 4 -0.1367 -0.0286
6 -1 5 -0.0367 -0.0101
6 -1 6 0.0955 0.0228
6 -1 7 0.1813 0.0085
6 -1 8 0.1682 -0.0200
6 -1 9 0.0916 -0.0127
6 -1 10 0.0326 0.0121
6 -1 11 0.0175 0.0144
6 -1 12 0.0035 0.0018
6 -1 13 -0.0420 0.0022
6 -1 14 -0.0971 0.0131
6 -1 15 -0.1210 0.0177
6 0 0 0.1376 -0.2156
6 0 1 0.1457 -0.0577
6 0 2 0.1939 0.0539
6 0 3 0.2649 0.0295
6 0 4 0.2334 -0.0293
6 0 5 0.1045 -0.0241
6 0 6 0.0175 0.0101
6 0 7 0.0306 0.0084
6 0 8 0.0739 -0.0130
6 0 9 0.0990 -0.0101
6 0 10 0.1247 0.0063
6 0 11 0.1487 0.0032
6 0 12 0.1343 -0.0122
6 0 13 0.0764 -0.0151
6 0 14 0.0024 -0.0099
6 0 15 -0.0625 -0.0139
6 0 16 -0.0856 -0.0203
6 1 0 -0.0333 -0.1720
6 1 1 -0.0679 -0.0271
6 1 2 -0.0656 0.0721
6 1 3 -0.0144 0.0361
6 1 4 0.0050 -0.0309
6 1 5 -0.0182 -0.0255
6 1 6 -0.0382 0.0146
6 1 7 -0.0399 0.0158
6 1 8 -0.0192 -0.0076
6 1 9 0.0276 -0.0059
6 1 10 0.0525 0.0129
6 1 11 0.0126 0.0122
6 1 12 -0.0182 -0.0037
6 1 13 0.0527 -0.0078
6 1 14 0.1452 0.0007
6 1 15 0.1034 0.0096
6 1 16 -0.0369 0.0231
6 1 17 -0.0914 0.0411
6 2 0 -0.0392 -0.1848
6 2 1 -0.1126 -0.0453
6 2 2 -0.1162 0.0538
6 2 3 -0.0476 0.0271
6 2 4 0.0357 -0.0270
6 2 5 0.0775 -0.0156
6 2 6 0.0360 0.0197
6 2 7 -0.0569 0.0135
6 2 8 -0.0900 -0.0115
6 2 9 -0.0312 -0.0087
6 2 10 -0.0005 0.0070
6 2 11 -0.0613 0.0017
6 2 12 -0.0793 -0.0134
6 2 13 0.0430 -0.0128
6 2 14 0.1495 -0.0008
6 2 15 0.0643 0.0123
6 2 16 -0.1018 0.0320
6 2 17 -0.1261 0.0502
6 3 0 0.0806 -0.1967
6 3 1 -0.0026 -0.0574
6 3 2 -0.0140 0.0458
6 3 3 0.0148 0.0256
6 3 4 0.0427 -0.0250
6 3 5 0.0672 -0.0165
6 3 6 0.0687 0.0132
6 3 7 0.0296 0.0062
6 3 8 -0.0097 -0.0121
6 3 9 -0.0024 -0.0012
6 3 10 0.0365 0.0183
6 3 11 0.0787 0.0133
6 3 12 0.1213 -0.0035
6 3 13 0.1209 -0.0088
6 3 14 0.0026 -0.0047
6 3 15 -0.1888 0.0076
6 3 16 -0.2728 0.0365
6 3 17 -0.1650 0.0630
6 4 0 -0.0040 -0.2024
6 4 1 -0.0022 -0.0508
6 4 2 0.0480 0.0573
6 4 3 0.0540 0.0290
6 4 4 -0.0031 -0.0296
6 4 5 -0.0367 -0.0186
6 4 6 -0.0036 0.0180
6 4 7 0.0362 0.0113
6 4 8 0.0258 -0.0137
6 4 9 -0.0121 -0.0092
6 4 10 -0.0251 0.0078
6 4 11 -0.0041 0.0031
6 4 12 0.0163 -0.0122
6 4 13 0.0058 -0.0142
6 4 14 -0.0217 -0.0043
6 4 15 -0.0212 0.0152
6 4 16 0.0230 0.0501
6 4 17 0.0664 0.0789
6 5 0 0.0378 -0.2330
6 5 1 -0.0102 -0.0660
6 5 2 -0.0387 0.0506
6 5 3 -0.0542 0.0232
6 5 4 -0.0578 -0.0319
6 5 5 -0.0493 -0.0132
6 5 6 -0.0400 0.0271
6 5 7 -0.0317 0.0173
6 5 8 -0.0156 -0.0130
6 5 9 -0.0023 -0.0125
6 5 10 -0.0203 0.0016
6 5 11 -0.0763 -0.0035
6 5 12 -0.1385 -0.0145
6 5 13 -0.1600 -0.0111
6 5 14 -0.1117 -0.0034
6 5 15 -0.0071 0.0039
6 5 16 0.0948 0.0274
6 5 17 0.1341 0.0568
6 6 0 0.1341 -0.2129
6 6 1 0.1238 -0.0536
6 6 2 0.0258 0.0533
6 6 3 -0.0499 0.0243
6 6 4 -0.0291 -0.0288
6 6 5 0.0272 -0.0154
6 6 6 0.0423 0.0156
6 6 7 0.0421 0.0053
6 6 8 0.0769 -0.0144
6 6 9 0.1191 -0.0028
6 6 10 0.1210 0.0153
6 6 11 0.0974 0.0089
6 6 12 0.0776 -0.0047
6 6 13 0.0458 -0.0076
6 6 14 -0.0103 -0.0157
6 6 15 -0.0535 -0.0324
6 6 16 -0.0527 -0.0268
6 7 0 0.0059 -0.1749
6 7 1 0.0967 -0.0301
6 7 2 0.0543 0.0608
6 7 3 -0.0253 0.0270
6 7 4 -0.0295 -0.0258
6 7 5 0.0068 -0.0154
6 7 6 0.0116 0.0131
6 7 7 0.0106 0.0066
6 7 8 0.0544 -0.0068
6 7 9 0.1154 0.0064
6 7 10 0.1402 0.0194
6 7 11 0.1276 0.0052
6 7 12 0.0981 -0.0079
6 7 13 0.0517 0.0096
6 7 14 -0.0014 0.0318
6 7 15 -0.0272 0.0207
6 8 0 -0.0130 -0.1789
6 8 1 0.0533 -0.0432
6 8 2 0.0225 0.0498
6 8 3 -0.0251 0.0280
6 8 4 0.0104 -0.0179
6 8 5 0.0708 -0.0130
6 8 6 0.0460 0.0061
6 8 7 -0.0400 -0.0031
6 8 8 -0.0735 -0.0107
6 8 9 -0.0274 0.0114
6 8 10 0.0162 0.0244
6 8 11 0.0065 -0.0101
6 8 12 -0.0062 -0.0557
6 8 13 0.0364 -0.0522
6 8 14 0.1015 -0.0052
6 9 0 -0.0079 -0.1610
6 9 1 0.0756 -0.0485
6 9 2 0.0502 0.0317
6 9 3 -0.0170 0.0188
6 9 4 -0.0105 -0.0139
6 9 5 0.0378 -0.0091
6 9 6 0.0253 0.0045
6 9 7 -0.0287 -0.0016
6 9 8 -0.0209 -0.0014
6 9 9 0.0374 0.0226
6 9 10 0.0198 0.0345
6 9 11 -0.0995 0.0005
6 9 12 -0.1748 -0.0521
6 10 0 0.1567 -0.1074
6 10 1 0.2363 -0.0373
6 10 2 0.1807 0.0043
6 10 3 0.0647 -0.0018
6 10 4 0.0002 -0.0100
6 10 5 -0.0127 -0.0025
6 10 6 -0.0230 0.0029
6 10 7 -0.0042 0.0061
6 10 8 0.0873 0.0239
6 10 9 0.1823 0.0483
7 -4 0 0.0213 -0.1248
7 -4 1 -0.0148 -0.0455
7 -4 2 -0.0052 0.0252
7 -4 3 0.0475 0.0246
7 -4 4 0.0771 -0.0105
7 -4 5 0.0470 -0.0252
7 -4 6 -0.0064 -0.0225
7 -3 0 -0.0008 -0.1696
7 -3 1 -0.0770 -0.0512
7 -3 2 -0.0638 0.0433
7 -3 3 0.0194 0.0276
7 -3 4 0.0998 -0.0255
7 -3 5 0.1268 -0.0296
7 -3 6 0.0954 -0.0015
7 -3 7 0.0397 0.0113
7 -3 8 0.0103 0.0172
7 -3 9 0.0276 0.0383
7 -2 0 0.1529 -0.1829
7 -2 1 0.0865 -0.0375
7 -2 2 0.0494 0.0665
7 -2 3 0.0450 0.0371
7 -2 4 0.0714 -0.0257
7 -2 5 0.1046 -0.0259
7 -2 6 0.0863 0.0010
7 -2 7 -0.0097 -0.0029
7 -2 8 -0.1115 -0.0127
7 -2 9 -0.1138 0.0119
7 -2 10 -0.0144 0.0477
7 -2 11 0.0762 0.0554
7 -1 0 -0.0792 -0.1859
7 -1 1 -0.1131 -0.0388
7 -1 2 -0.1304 0.0625
7 -1 3 -0.1363 0.0328
7 -1 4 -0.1127 -0.0249
7 -1 5 -0.0304 -0.0174
7 -1 6 0.0805 0.0160
7 -1 7 0.1204 0.0147
7 -1 8 0.0489 -0.0009
7 -1 9 -0.0354 0.0073
7 -1 10 -0.0285 0.0234
7 -1 11 0.0241 0.0214
7 -1 12 0.0116 0.0156
7 -1 13 -0.0614 0.0240
7 0 0 -0.0348 -0.1718
7 0 1 0.0616 -0.0436
7 0 2 0.1247 0.0505
7 0 3 0.1036 0.0270
7 0 4 0.0093 -0.0236
7 0 5 -0.0408 -0.0126
7 0 6 0.0178 0.0213
7 0 7 0.0776 0.0120
7 0 8 0.0349 -0.0214
7 0 9 -0.0282 -0.0284
7 0 10 0.0084 -0.0131
7 0 11 0.0865 -0.0081
7 0 12 0.0762 -0.0132
7 0 13 -0.0003 -0.0110
7 0 14 -0.0250 -0.0064
7 1 0 0.0198 -0.1634
7 1 1 0.0111 -0.0423
7 1 2 0.0115 0.0436
7 1 3 -0.0192 0.0130
7 1 4 -0.0908 -0.0361
7 1 5 -0.1205 -0.0120
7 1 6 -0.0742 0.0337
7 1 7 -0.0326 0.0225
7 1 8 -0.0385 -0.0160
7 1 9 -0.0296 -0.0117
7 1 10 0.0111 0.0250
7 1 11 0.0083 0.0349
7 1 12 -0.0382 0.0123
7 1 13 -0.0185 0.0005
7 1 14 0.0857 0.0146
7 1 15 0.1421 0.0305
7 2 0 0.0008 -0.2100
7 2 1 0.0077 -0.0699
7 2 2 0.1043 0.0368
7 2 3 0.1797 0.0177
7 2 4 0.1396 -0.0274
7 2 5 0.0048 -0.0052
7 2 6 -0.1481 0.0300
7 2 7 -0.2420 0.0065
7 2 8 -0.2205 -0.0317
7 2 9 -0.1168 -0.0168
7 2 10 -0.0566 0.0175
7 2 11 -0.0950 0.0042
7 2 12 -0.1221 -0.0353
7 2 13 -0.0385 -0.0295
7 2 14 0.0706 0.0254
7 2 15 0.0724 0.0672
7 3 0 0.0274 -0.1905
7 3 1 0.0434 -0.0496
7 3 2 0.0794 0.0527
7 3 3 0.0971 0.0212
7 3 4 0.0614 -0.0355
7 3 5 -0.0094 -0.0161
7 3 6 -0.0536 0.0233
7 3 7 -0.0233 0.0069
7 3 8 0.0496 -0.0222
7 3 9 0.0658 -0.0004
7 3 10 -0.0160 0.0330
7 3 11 -0.1026 0.0129
7 3 12 -0.0885 -0.0291
7 3 13 -0.0133 -0.0189
7 3 14 0.0021 0.0380
7 3 15 -0.0562 0.0732
7 4 0 0.0101 -0.2092
7 4 1 0.0686 -0.0521
7 4 2 0.0639 0.0622
7 4 3 0.0315 0.0263
7 4 4 -0.0204 -0.0391
7 4 5 -0.0705 -0.0186
7 4 6 -0.0414 0.0272
7 4 7 0.1083 0.0096
7 4 8 0.2698 -0.0300
7 4 9 0.2762 -0.0161
7 4 10 0.1166 0.0220
7 4 11 -0.0495 0.0159
7 4 12 -0.1022 -0.0166
7 4 13 -0.0702 -0.0105
7 4 14 -0.0200 0.0346
7 4 15 0.0329 0.0639
7 5 0 -0.0285 -0.2130
7 5 1 -0.0493 -0.0469
7 5 2 -0.0784 0.0734
7 5 3 -0.0620 0.0389
7 5 4 -0.0489 -0.0290
7 5 5 -0.1063 -0.0153
7 5 6 -0.1688 0.0245
7 5 7 -0.1119 0.0077
7 5 8 0.0437 -0.0275
7 5 9 0.1448 -0.0133
7 5 10 0.1176 0.0230
7 5 11 0.0322 0.0200
7 5 12 -0.0388 -0.0094
7 5 13 -0.0880 -0.0134
7 5 14 -0.1012 0.0084
7 5 15 -0.0521 0.0203
7 6 0 0.0965 -0.1652
7 6 1 0.1145 -0.0270
7 6 2 0.0416 0.0633
7 6 3 -0.0200 0.0244
7 6 4 -0.0243 -0.0349
7 6 5 -0.0230 -0.0205
7 6 6 -0.0332 0.0189
7 6 7 -0.0082 0.0137
7 6 8 0.0487 -0.0109
7 6 9 0.0749 -0.0040
7 6 10 0.0601 0.0196
7 6 11 0.0505 0.0215
7 6 12 0.0431 0.0072
7 6 13 -0.0060 -0.0011
7 6 14 -0.0757 -0.0118
7 7 0 0.0022 -0.1482
7 7 1 0.0599 -0.0304
7 7 2 -0.0056 0.0433
7 7 3 -0.0962 0.0125
7 7 4 -0.0940 -0.0312
7 7 5 -0.0046 -0.0124
7 7 6 0.0945 0.0247
7 7 7 0.1496 0.0167
7 7 8 0.1457 -0.0192
7 7 9 0.0985 -0.0334
7 7 10 0.0487 -0.0238
7 7 11 0.0208 -0.0157
7 7 12 -0.0046 -0.0076
7 7 13 -0.0416 0.0136
7 8 0 0.0240 -0.1503
7 8 1 0.0895 -0.0474
7 8 2 0.0822 0.0280
7 8 3 0.0326 0.0142
7 8 4 0.0272 -0.0180
7 8 5 0.0841 -0.0059
7 8 6 0.1356 0.0172
7 8 7 0.1213 0.0067
7 8 8 0.0588 -0.0126
7 8 9 0.0100 -0.0026
7 8 10 -0.0000 0.0151
7 8 11 0.0030 -0.0005
7 8 12 0.0023 -0.0347
7 9 0 -0.0726 -0.1109
7 9 1 0.0104 -0.0374
7 9 2 0.0546 0.0189
7 9 3 0.0291 0.0101
7 9 4 -0.0013 -0.0101
7 9 5 0.0124 0.0003
7 9 6 0.0318 0.0156
7 9 7 0.0050 0.0125
7 9 8 -0.0458 0.0142
7 9 9 -0.0678 0.0358
8 -2 0 0.1789 -0.1425
8 -2 1 0.0725 -0.0506
8 -2 2 -0.0124 0.0302
8 -2 3 0.0040 0.0275
8 -2 4 0.0650 -0.0081
8 -2 5 0.0720 -0.0214
8 -2 6 0.0115 -0.0262
8 -1 0 -0.0036 -0.1670
8 -1 1 -0.0658 -0.0680
8 -1 2 -0.1102 0.0172
8 -1 3 -0.0962 0.0152
8 -1 4 -0.0647 -0.0198
8 -1 5 -0.0453 -0.0246
8 -1 6 -0.0192 -0.0094
8 -1 7 0.0050 0.0010
8 -1 8 -0.0160 0.0143
8 -1 9 -0.0678 0.0314
8 0 0 -0.0176 -0.1108
8 0 1 0.0157 -0.0344
8 0 2 0.0185 0.0276
8 0 3 -0.0097 0.0157
8 0 4 -0.0628 -0.0168
8 0 5 -0.0707 -0.0102
8 0 6 0.0064 0.0153
8 0 7 0.0739 0.0156
8 0 8 0.0293 -0.0055
8 0 9 -0.0674 -0.0202
8 0 10 -0.0873 -0.0226
8 1 0 0.0838 -0.1111
8 1 1 -0.0291 -0.0201
8 1 2 -0.0942 0.0410
8 1 3 -0.1246 0.0119
8 1 4 -0.1482 -0.0332
8 1 5 -0.1209 -0.0194
8 1 6 -0.0218 0.0182
8 1 7 0.0708 0.0152
8 1 8 0.0898 -0.0118
8 1 9 0.0705 -0.0059
8 1 10 0.0591 0.0314
8 1 11 0.0312 0.0485
8 2 0 -0.0589 -0.1898
8 2 1 -0.1242 -0.0465
8 2 2 -0.0338 0.0575
8 2 3 0.0887 0.0365
8 2 4 0.0965 -0.0200
8 2 5 -0.0148 -0.0181
8 2 6 -0.1321 0.0061
8 2 7 -0.1525 -0.0109
8 2 8 -0.0709 -0.0368
8 2 9 0.0269 -0.0139
8 2 10 0.0546 0.0243
8 2 11 0.0178 0.0051
8 2 12 -0.0080 -0.0562
8 3 0 0.0210 -0.1680
8 3 1 -0.0375 -0.0158
8 3 2 -0.0481 0.0819
8 3 3 -0.0117 0.0386
8 3 4 0.0060 -0.0326
8 3 5 -0.0331 -0.0210
8 3 6 -0.0525 0.0264
8 3 7 0.0458 0.0241
8 3 8 0.2022 -0.0042
8 3 9 0.2355 0.0030
8 3 10 0.0947 0.0172
8 3 11 -0.0557 -0.0252
8 3 12 -0.0666 -0.0940
8 4 0 0.0602 -0.1894
8 4 1 0.0478 -0.0401
8 4 2 -0.0367 0.0583
8 4 3 -0.0622 0.0158
8 4 4 -0.0412 -0.0496
8 4 5 -0.0562 -0.0234
8 4 6 -0.0343 0.0397
8 4 7 0.1676 0.0398
8 4 8 0.4618 -0.0025
8 4 9 0.5598 -0.0111
8 4 10 0.3516 0.0033
8 4 11 0.0498 -0.0228
8 4 12 -0.1043 -0.0763
8 5 0 -0.0336 -0.1723
8 5 1 -0.0460 -0.0472
8 5 2 -0.0836 0.0456
8 5 3 -0.0542 0.0199
8 5 4 -0.0347 -0.0338
8 5 5 -0.1437 -0.0220
8 5 6 -0.2713 0.0161
8 5 7 -0.1869 0.0094
8 5 8 0.1004 -0.0189
8 5 9 0.3232 -0.0096
8 5 10 0.3156 0.0192
8 5 11 0.1817 0.0071
8 5 12 0.0804 -0.0398
8 6 0 0.0350 -0.1359
8 6 1 0.0744 -0.0463
8 6 2 0.0407 0.0256
8 6 3 0.0009 0.0169
8 6 4 -0.0254 -0.0175
8 6 5 -0.0699 -0.0145
8 6 6 -0.1002 0.0084
8 6 7 -0.0528 0.0087
8 6 8 0.0340 -0.0045
8 6 9 0.0590 0.0028
8 6 10 0.0184 0.0256
8 6 11 -0.0015 0.0303
8 7 0 -0.0005 -0.1284
8 7 1 0.0228 -0.0487
8 7 2 -0.0375 0.0149
8 7 3 -0.1430 0.0142
8 7 4 -0.2010 -0.0107
8 7 5 -0.1598 -0.0065
8 7 6 -0.0470 0.0170
8 7 7 0.0468 0.0156
8 7 8 0.0402 -0.0182
8 7 9 -0.0527 -0.0472
8 7 10 -0.1349 -0.0454
8 8 0 0.0817 -0.0791
8 8 1 0.1341 -0.0185
8 8 2 0.1230 0.0260
8 8 3 0.0136 0.0153
8 8 4 -0.1202 -0.0118
8 8 5 -0.1559 -0.0098
8 8 6 -0.0634 0.0066
8 8 7 0.0532 -0.0022
8 8 8 0.0849 -0.0321
9 1 1 -0.0388 0.0335
9 1 2 -0.0980 0.0320
9 1 3 -0.1077 -0.0062
9 1 4 -0.0939 -0.0396
9 2 0 -0.1560 -0.1152
9 2 1 -0.1924 -0.0267
9 2 2 -0.1232 0.0277
9 2 3 -0.0228 0.0092
9 2 4 0.0107 -0.0309
9 2 5 -0.0393 -0.0402
9 2 6 -0.1028 -0.0290
9 3 0 -0.0002 -0.1588
9 3 1 -0.0378 -0.0412
9 3 2 -0.0665 0.0350
9 3 3 -0.0479 0.0167
9 3 4 -0.0100 -0.0273
9 3 5 -0.0116 -0.0221
9 3 6 -0.0398 0.0190
9 3 7 -0.0302 0.0422
9 4 0 0.1297 -0.1583
9 4 1 0.0699 -0.0443
9 4 2 -0.0384 0.0307
9 4 3 -0.0356 0.0115
9 4 4 0.0570 -0.0294
9 4 5 0.0814 -0.0095
9 4 6 0.0162 0.0542
9 4 7 0.0047 0.0890
9 5 0 0.1189 -0.0687
9 5 1 0.0693 -0.0047
9 5 2 0.0030 0.0364
9 5 3 0.0276 0.0192
9 5 4 0.0654 -0.0119
9 5 5 -0.0437 -0.0057
9 5 6 -0.2565 0.0288
9 5 7 -0.3444 0.0479
0 0 0 0.0 0.0
;
_shelx_fab_checksum              1748
_olex2_exptl_crystal_mounting_method 'mounted on a cryoloop'
_olex2_submission_original_sample_id ND1-Act_Cu
_olex2_submission_special_instructions 'No special instructions were received'
loop_
_space_group_symop_operation_xyz
'x, y, z'
'-x, -y, -z'
loop_
_atom_site_label
_atom_site_type_symbol
_atom_site_fract_x
_atom_site_fract_y
_atom_site_fract_z
_atom_site_U_iso_or_equiv
_atom_site_adp_type
_atom_site_occupancy
_atom_site_site_symmetry_order
_atom_site_calc_flag
_atom_site_refinement_flags_posn
_atom_site_refinement_flags_adp
_atom_site_refinement_flags_occupancy
_atom_site_disorder_assembly
_atom_site_disorder_group
Cu1 Cu 0.000000 0.000000 0.500000 0.02164(10) Uani 1 2 d S . P . .
O1 O 0.18816(14) 0.15982(11) 0.43907(6) 0.0276(2) Uani 1 1 d . . . . .
O2 O 0.18978(15) 0.39008(11) 0.45525(6) 0.0267(2) Uani 1 1 d . . . . .
O3 O 0.79999(14) 0.65186(12) 0.39683(6) 0.0289(2) Uani 1 1 d . . . . .
O4 O 0.59274(15) 0.87447(11) 0.37380(6) 0.0281(2) Uani 1 1 d . . . . .
N1 N 0.22513(16) -0.16500(13) 0.46450(7) 0.0245(3) Uani 1 1 d . . . . .
H1 H 0.325623 -0.117374 0.441089 0.029 Uiso 1 1 calc R U . . .
N2 N -0.09072(17) -0.00843(13) 0.39506(7) 0.0243(3) Uani 1 1 d . . . . .
H2A H -0.184287 -0.066158 0.408447 0.029 Uiso 1 1 calc R U . . .
C1 C 0.6028(2) 0.60090(16) -0.01122(9) 0.0258(3) Uani 1 1 d . . . . .
H1A H 0.672993 0.670747 -0.019033 0.031 Uiso 1 1 calc R U . . .
C2 C 0.5376(2) 0.55407(15) 0.06715(9) 0.0251(3) Uani 1 1 d . . . . .
C3 C 0.4320(2) 0.45166(16) 0.07854(9) 0.0253(3) Uani 1 1 d . . . . .
C4 C 0.5864(2) 0.60681(16) 0.13777(8) 0.0248(3) Uani 1 1 d . . . . .
C5 C 0.5296(2) 0.75706(17) 0.14988(9) 0.0288(3) Uani 1 1 d . . . . .
H5 H 0.467516 0.828635 0.110251 0.035 Uiso 1 1 calc R U . . .
C6 C 0.5627(2) 0.80313(16) 0.21906(9) 0.0278(3) Uani 1 1 d . . . . .
H6 H 0.520455 0.905603 0.226952 0.033 Uiso 1 1 calc R U . . .
C7 C 0.65758(19) 0.70040(16) 0.27724(8) 0.0238(3) Uani 1 1 d . . . . .
C8 C 0.72190(19) 0.55124(16) 0.26332(9) 0.0251(3) Uani 1 1 d . . . . .
H8 H 0.791274 0.480540 0.301209 0.030 Uiso 1 1 calc R U . . .
C9 C 0.6860(2) 0.50486(16) 0.19508(9) 0.0262(3) Uani 1 1 d . . . . .
H9 H 0.729571 0.402480 0.187002 0.031 Uiso 1 1 calc R U . . .
C10 C 0.68392(19) 0.74822(16) 0.35548(8) 0.0239(3) Uani 1 1 d . . . . .
C11 C 0.3526(2) 0.40509(16) 0.16133(8) 0.0245(3) Uani 1 1 d . . . . .
C12 C 0.2371(2) 0.51211(16) 0.20953(9) 0.0253(3) Uani 1 1 d . . . . .
H12 H 0.196293 0.612565 0.186806 0.030 Uiso 1 1 calc R U . . .
C13 C 0.18130(19) 0.47428(16) 0.28971(9) 0.0242(3) Uani 1 1 d . . . . .
H13 H 0.105255 0.548782 0.322155 0.029 Uiso 1 1 calc R U . . .
C14 C 0.23675(19) 0.32639(15) 0.32304(8) 0.0225(3) Uani 1 1 d . . . . .
C15 C 0.3420(2) 0.21645(16) 0.27426(9) 0.0249(3) Uani 1 1 d . . . . .
H15 H 0.374220 0.114961 0.295953 0.030 Uiso 1 1 calc R U . . .
C16 C 0.3994(2) 0.25604(16) 0.19386(9) 0.0258(3) Uani 1 1 d . . . . .
H16 H 0.471076 0.181195 0.160712 0.031 Uiso 1 1 calc R U . . .
C17 C 0.20006(18) 0.28458(15) 0.41184(9) 0.0228(3) Uani 1 1 d . . . . .
C18 C 0.0684(2) -0.09827(17) 0.34399(9) 0.0285(3) Uani 1 1 d . . . . .
H18A H 0.148936 -0.036048 0.316702 0.034 Uiso 1 1 calc R U . . .
H18B H 0.022506 -0.136574 0.302103 0.034 Uiso 1 1 calc R U . . .
C19 C 0.1777(2) -0.22627(16) 0.39748(9) 0.0281(3) Uani 1 1 d . . . . .
H19A H 0.102469 -0.295682 0.419181 0.034 Uiso 1 1 calc R U . . .
H19B H 0.292592 -0.281454 0.366013 0.034 Uiso 1 1 calc R U . . .
C20 C 0.3038(2) -0.28489(16) 0.52700(10) 0.0288(3) Uani 1 1 d . . . . .
H20A H 0.418021 -0.353933 0.502373 0.035 Uiso 1 1 calc R U . . .
H20B H 0.213046 -0.341907 0.547712 0.035 Uiso 1 1 calc R U . . .
C21 C 0.3502(2) -0.22312(17) 0.59675(10) 0.0303(3) Uani 1 1 d . . . . .
H21A H 0.430832 -0.158042 0.574607 0.036 Uiso 1 1 calc R U . . .
H21B H 0.422853 -0.307004 0.631449 0.036 Uiso 1 1 calc R U . . .
C22 C -0.1835(2) 0.13508(17) 0.35082(9) 0.0293(3) Uani 1 1 d . . . . .
H22A H -0.225061 0.116082 0.301614 0.035 Uiso 1 1 calc R U . . .
H22B H -0.093702 0.194195 0.333851 0.035 Uiso 1 1 calc R U . . .
H2 H 0.194(4) 0.364(3) 0.5057(17) 0.073(8) Uiso 1 1 d . . . . .
loop_
_atom_site_aniso_label
_atom_site_aniso_U_11
_atom_site_aniso_U_22
_atom_site_aniso_U_33
_atom_site_aniso_U_23
_atom_site_aniso_U_13
_atom_site_aniso_U_12
Cu1 0.02519(16) 0.02127(16) 0.01765(17) -0.00018(11) -0.00290(11) -0.00607(11)
O1 0.0350(5) 0.0290(5) 0.0197(5) 0.0012(4) -0.0009(4) -0.0134(4)
O2 0.0370(6) 0.0266(5) 0.0158(5) -0.0007(4) -0.0029(4) -0.0087(4)
O3 0.0305(5) 0.0360(6) 0.0188(5) -0.0040(4) -0.0046(4) -0.0061(4)
O4 0.0341(5) 0.0291(5) 0.0224(5) -0.0047(4) -0.0031(4) -0.0099(4)
N1 0.0263(6) 0.0222(6) 0.0243(7) -0.0018(5) -0.0016(5) -0.0067(5)
N2 0.0293(6) 0.0266(6) 0.0178(6) 0.0007(4) -0.0035(5) -0.0101(5)
C1 0.0322(7) 0.0253(7) 0.0205(7) -0.0002(5) -0.0034(5) -0.0103(6)
C2 0.0310(7) 0.0250(7) 0.0185(7) -0.0011(5) -0.0036(5) -0.0071(6)
C3 0.0309(7) 0.0247(7) 0.0189(7) 0.0003(5) -0.0025(5) -0.0072(6)
C4 0.0302(7) 0.0283(7) 0.0169(7) -0.0003(5) -0.0011(5) -0.0115(6)
C5 0.0382(8) 0.0272(7) 0.0209(7) 0.0027(5) -0.0078(6) -0.0094(6)
C6 0.0364(8) 0.0236(7) 0.0227(8) -0.0019(5) -0.0039(6) -0.0076(6)
C7 0.0267(7) 0.0284(7) 0.0172(7) -0.0011(5) -0.0005(5) -0.0109(6)
C8 0.0279(7) 0.0267(7) 0.0203(7) 0.0020(5) -0.0043(5) -0.0082(6)
C9 0.0320(7) 0.0243(7) 0.0218(7) -0.0015(5) -0.0022(6) -0.0082(6)
C10 0.0257(7) 0.0295(7) 0.0178(7) -0.0013(5) 0.0001(5) -0.0118(6)
C11 0.0304(7) 0.0290(7) 0.0162(7) -0.0002(5) -0.0047(5) -0.0115(6)
C12 0.0311(7) 0.0245(7) 0.0197(7) 0.0016(5) -0.0053(5) -0.0076(6)
C13 0.0264(7) 0.0255(7) 0.0205(7) -0.0032(5) -0.0026(5) -0.0066(5)
C14 0.0251(6) 0.0266(7) 0.0175(7) -0.0006(5) -0.0028(5) -0.0105(5)
C15 0.0313(7) 0.0234(7) 0.0206(7) 0.0001(5) -0.0029(5) -0.0099(6)
C16 0.0325(7) 0.0256(7) 0.0195(7) -0.0044(5) -0.0004(5) -0.0091(6)
C17 0.0217(6) 0.0251(7) 0.0205(7) -0.0002(5) -0.0026(5) -0.0062(5)
C18 0.0346(8) 0.0341(8) 0.0191(7) -0.0046(6) 0.0014(6) -0.0145(6)
C19 0.0305(7) 0.0270(7) 0.0274(8) -0.0073(6) 0.0023(6) -0.0099(6)
C20 0.0281(7) 0.0227(7) 0.0328(8) 0.0022(6) -0.0038(6) -0.0055(5)
C21 0.0290(7) 0.0286(7) 0.0324(8) 0.0066(6) -0.0093(6) -0.0086(6)
C22 0.0348(8) 0.0318(8) 0.0227(8) 0.0057(6) -0.0089(6) -0.0127(6)
loop_
_atom_type_symbol
_atom_type_description
_atom_type_scat_dispersion_real
_atom_type_scat_dispersion_imag
_atom_type_scat_source
C C 0.0181 0.0091 'International Tables Vol C Tables 4.2.6.8 and 6.1.1.4'
H H 0.0000 0.0000 'International Tables Vol C Tables 4.2.6.8 and 6.1.1.4'
Cu Cu -1.9646 0.5888 'International Tables Vol C Tables 4.2.6.8 and 6.1.1.4'
N N 0.0311 0.0180 'International Tables Vol C Tables 4.2.6.8 and 6.1.1.4'
O O 0.0492 0.0322 'International Tables Vol C Tables 4.2.6.8 and 6.1.1.4'
loop_
_geom_angle_atom_site_label_1
_geom_angle_atom_site_label_2
_geom_angle_atom_site_label_3
_geom_angle
_geom_angle_site_symmetry_1
_geom_angle_site_symmetry_3
_geom_angle_publ_flag
O1 Cu1 O1 180.0 2_556 . ?
N1 Cu1 O1 95.75(4) . 2_556 ?
N1 Cu1 O1 84.25(4) . . ?
N1 Cu1 O1 84.25(4) 2_556 2_556 ?
N1 Cu1 O1 95.75(4) 2_556 . ?
N1 Cu1 N1 180.0 2_556 . ?
N2 Cu1 O1 86.45(4) 2_556 . ?
N2 Cu1 O1 93.55(4) 2_556 2_556 ?
N2 Cu1 O1 93.55(4) . . ?
N2 Cu1 O1 86.45(4) . 2_556 ?
N2 Cu1 N1 94.16(5) 2_556 . ?
N2 Cu1 N1 94.16(5) . 2_556 ?
N2 Cu1 N1 85.84(5) . . ?
N2 Cu1 N1 85.84(5) 2_556 2_556 ?
N2 Cu1 N2 180.00(7) . 2_556 ?
C17 O1 Cu1 149.43(10) . . ?
C17 O2 H2 115.4(18) . . ?
Cu1 N1 H1 106.7 . . ?
C19 N1 Cu1 107.21(9) . . ?
C19 N1 H1 106.7 . . ?
C19 N1 C20 111.21(11) . . ?
C20 N1 Cu1 117.67(9) . . ?
C20 N1 H1 106.7 . . ?
Cu1 N2 H2A 106.6 . . ?
C18 N2 Cu1 107.46(9) . . ?
C18 N2 H2A 106.6 . . ?
C22 N2 Cu1 117.13(9) . . ?
C22 N2 H2A 106.6 . . ?
C22 N2 C18 111.94(11) . . ?
C2 C1 H1A 119.0 . . ?
C2 C1 C3 122.00(14) . 2_665 ?
C3 C1 H1A 119.0 2_665 . ?
C1 C2 C3 118.89(13) . . ?
C1 C2 C4 120.30(13) . . ?
C3 C2 C4 120.75(13) . . ?
C1 C3 C2 119.11(13) 2_665 . ?
C1 C3 C11 120.71(13) 2_665 . ?
C2 C3 C11 120.14(13) . . ?
C5 C4 C2 121.40(13) . . ?
C5 C4 C9 118.32(13) . . ?
C9 C4 C2 120.25(13) . . ?
C4 C5 H5 119.6 . . ?
C6 C5 C4 120.77(13) . . ?
C6 C5 H5 119.6 . . ?
C5 C6 H6 119.7 . . ?
C5 C6 C7 120.65(13) . . ?
C7 C6 H6 119.7 . . ?
C6 C7 C10 121.05(13) . . ?
C8 C7 C6 118.53(13) . . ?
C8 C7 C10 120.38(13) . . ?
C7 C8 H8 119.6 . . ?
C9 C8 C7 120.83(13) . . ?
C9 C8 H8 119.6 . . ?
C4 C9 H9 119.6 . . ?
C8 C9 C4 120.80(13) . . ?
C8 C9 H9 119.6 . . ?
O3 C10 C7 115.13(12) . . ?
O4 C10 O3 126.11(13) . . ?
O4 C10 C7 118.77(13) . . ?
C12 C11 C3 119.88(13) . . ?
C12 C11 C16 118.74(13) . . ?
C16 C11 C3 121.29(13) . . ?
C11 C12 H12 119.5 . . ?
C13 C12 C11 121.01(13) . . ?
C13 C12 H12 119.5 . . ?
C12 C13 H13 120.1 . . ?
C12 C13 C14 119.87(13) . . ?
C14 C13 H13 120.1 . . ?
C13 C14 C15 119.81(13) . . ?
C13 C14 C17 121.11(13) . . ?
C15 C14 C17 118.86(12) . . ?
C14 C15 H15 120.1 . . ?
C16 C15 C14 119.77(13) . . ?
C16 C15 H15 120.1 . . ?
C11 C16 H16 119.7 . . ?
C15 C16 C11 120.56(13) . . ?
C15 C16 H16 119.7 . . ?
O1 C17 O2 124.92(14) . . ?
O1 C17 C14 121.55(13) . . ?
O2 C17 C14 113.48(12) . . ?
N2 C18 H18A 110.0 . . ?
N2 C18 H18B 110.0 . . ?
N2 C18 C19 108.42(11) . . ?
H18A C18 H18B 108.4 . . ?
C19 C18 H18A 110.0 . . ?
C19 C18 H18B 110.0 . . ?
N1 C19 C18 108.23(11) . . ?
N1 C19 H19A 110.1 . . ?
N1 C19 H19B 110.1 . . ?
C18 C19 H19A 110.1 . . ?
C18 C19 H19B 110.1 . . ?
H19A C19 H19B 108.4 . . ?
N1 C20 H20A 109.3 . . ?
N1 C20 H20B 109.3 . . ?
N1 C20 C21 111.68(12) . . ?
H20A C20 H20B 107.9 . . ?
C21 C20 H20A 109.3 . . ?
C21 C20 H20B 109.3 . . ?
C20 C21 H21A 108.5 . . ?
C20 C21 H21B 108.5 . . ?
C20 C21 C22 115.28(12) . 2_556 ?
H21A C21 H21B 107.5 . . ?
C22 C21 H21A 108.5 2_556 . ?
C22 C21 H21B 108.5 2_556 . ?
N2 C22 C21 111.12(12) . 2_556 ?
N2 C22 H22A 109.4 . . ?
N2 C22 H22B 109.4 . . ?
C21 C22 H22A 109.4 2_556 . ?
C21 C22 H22B 109.4 2_556 . ?
H22A C22 H22B 108.0 . . ?
loop_
_geom_bond_atom_site_label_1
_geom_bond_atom_site_label_2
_geom_bond_distance
_geom_bond_site_symmetry_2
_geom_bond_publ_flag
Cu1 O1 2.4005(10) 2_556 ?
Cu1 O1 2.4005(10) . ?
Cu1 N1 2.0204(12) 2_556 ?
Cu1 N1 2.0204(12) . ?
Cu1 N2 2.0168(12) . ?
Cu1 N2 2.0169(12) 2_556 ?
O1 C17 1.2279(17) . ?
O2 C17 1.3012(18) . ?
O2 H2 0.85(3) . ?
O3 C10 1.2727(18) . ?
O4 C10 1.2463(18) . ?
N1 H1 1.0000 . ?
N1 C19 1.4799(18) . ?
N1 C20 1.4821(18) . ?
N2 H2A 1.0000 . ?
N2 C18 1.4837(19) . ?
N2 C22 1.4816(18) . ?
C1 H1A 0.9500 . ?
C1 C2 1.393(2) . ?
C1 C3 1.395(2) 2_665 ?
C2 C3 1.408(2) . ?
C2 C4 1.4930(19) . ?
C3 C11 1.490(2) . ?
C4 C5 1.395(2) . ?
C4 C9 1.398(2) . ?
C5 H5 0.9500 . ?
C5 C6 1.387(2) . ?
C6 H6 0.9500 . ?
C6 C7 1.396(2) . ?
C7 C8 1.393(2) . ?
C7 C10 1.5163(19) . ?
C8 H8 0.9500 . ?
C8 C9 1.382(2) . ?
C9 H9 0.9500 . ?
C11 C12 1.395(2) . ?
C11 C16 1.398(2) . ?
C12 H12 0.9500 . ?
C12 C13 1.380(2) . ?
C13 H13 0.9500 . ?
C13 C14 1.395(2) . ?
C14 C15 1.396(2) . ?
C14 C17 1.4956(19) . ?
C15 H15 0.9500 . ?
C15 C16 1.390(2) . ?
C16 H16 0.9500 . ?
C18 H18A 0.9900 . ?
C18 H18B 0.9900 . ?
C18 C19 1.511(2) . ?
C19 H19A 0.9900 . ?
C19 H19B 0.9900 . ?
C20 H20A 0.9900 . ?
C20 H20B 0.9900 . ?
C20 C21 1.519(2) . ?
C21 H21A 0.9900 . ?
C21 H21B 0.9900 . ?
C21 C22 1.521(2) 2_556 ?
C22 H22A 0.9900 . ?
C22 H22B 0.9900 . ?
loop_
_geom_hbond_atom_site_label_D
_geom_hbond_atom_site_label_H
_geom_hbond_atom_site_label_A
_geom_hbond_distance_DH
_geom_hbond_distance_HA
_geom_hbond_distance_DA
_geom_hbond_angle_DHA
_geom_hbond_site_symmetry_A
_geom_hbond_publ_flag
N1 H1 O4 1.00 2.15 3.0626(16) 151.2 1_545 yes
N2 H2A O4 1.00 2.12 3.0183(15) 148.4 1_445 yes
C19 H19A O3 0.99 2.58 3.3969(18) 139.6 1_445 yes
O2 H2 O3 0.85(3) 1.63(3) 2.4769(14) 168(3) 2_666 yes
loop_
_geom_torsion_atom_site_label_1
_geom_torsion_atom_site_label_2
_geom_torsion_atom_site_label_3
_geom_torsion_atom_site_label_4
_geom_torsion
_geom_torsion_site_symmetry_1
_geom_torsion_site_symmetry_2
_geom_torsion_site_symmetry_3
_geom_torsion_site_symmetry_4
_geom_torsion_publ_flag
Cu1 O1 C17 O2 76.3(2) . . . . ?
Cu1 O1 C17 C14 -106.41(19) . . . . ?
Cu1 N1 C19 C18 40.31(13) . . . . ?
Cu1 N1 C20 C21 -54.90(14) . . . . ?
Cu1 N2 C18 C19 38.78(13) . . . . ?
Cu1 N2 C22 C21 -57.22(14) . . . 2_556 ?
N1 C20 C21 C22 68.52(16) . . . 2_556 ?
N2 C18 C19 N1 -53.30(15) . . . . ?
C1 C2 C3 C1 0.6(2) . . . 2_665 ?
C1 C2 C3 C11 -177.05(13) . . . . ?
C1 C2 C4 C5 62.8(2) . . . . ?
C1 C2 C4 C9 -119.22(16) . . . . ?
C1 C3 C11 C12 -121.53(15) 2_665 . . . ?
C1 C3 C11 C16 62.0(2) 2_665 . . . ?
C2 C3 C11 C12 56.10(19) . . . . ?
C2 C3 C11 C16 -120.42(15) . . . . ?
C2 C4 C5 C6 174.70(14) . . . . ?
C2 C4 C9 C8 -175.90(13) . . . . ?
C3 C1 C2 C3 -0.6(2) 2_665 . . . ?
C3 C1 C2 C4 176.73(13) 2_665 . . . ?
C3 C2 C4 C5 -119.85(16) . . . . ?
C3 C2 C4 C9 58.10(19) . . . . ?
C3 C11 C12 C13 -171.58(13) . . . . ?
C3 C11 C16 C15 172.38(13) . . . . ?
C4 C2 C3 C1 -176.73(13) . . . 2_665 ?
C4 C2 C3 C11 5.6(2) . . . . ?
C4 C5 C6 C7 1.5(2) . . . . ?
C5 C4 C9 C8 2.1(2) . . . . ?
C5 C6 C7 C8 1.5(2) . . . . ?
C5 C6 C7 C10 -176.13(13) . . . . ?
C6 C7 C8 C9 -2.7(2) . . . . ?
C6 C7 C10 O3 -167.79(13) . . . . ?
C6 C7 C10 O4 12.4(2) . . . . ?
C7 C8 C9 C4 0.9(2) . . . . ?
C8 C7 C10 O3 14.65(19) . . . . ?
C8 C7 C10 O4 -165.11(13) . . . . ?
C9 C4 C5 C6 -3.3(2) . . . . ?
C10 C7 C8 C9 174.96(13) . . . . ?
C11 C12 C13 C14 -1.6(2) . . . . ?
C12 C11 C16 C15 -4.2(2) . . . . ?
C12 C13 C14 C15 -2.7(2) . . . . ?
C12 C13 C14 C17 171.84(13) . . . . ?
C13 C14 C15 C16 3.5(2) . . . . ?
C13 C14 C17 O1 154.98(14) . . . . ?
C13 C14 C17 O2 -27.42(18) . . . . ?
C14 C15 C16 C11 0.0(2) . . . . ?
C15 C14 C17 O1 -30.4(2) . . . . ?
C15 C14 C17 O2 147.15(13) . . . . ?
C16 C11 C12 C13 5.0(2) . . . . ?
C17 C14 C15 C16 -171.15(13) . . . . ?
C18 N2 C22 C21 178.04(12) . . . 2_556 ?
C19 N1 C20 C21 -179.08(12) . . . . ?
C20 N1 C19 C18 170.23(11) . . . . ?
C22 N2 C18 C19 168.73(11) . . . . ?
loop_
_smtbx_masks_void_nr
_smtbx_masks_void_average_x
_smtbx_masks_void_average_y
_smtbx_masks_void_average_z
_smtbx_masks_void_volume
_smtbx_masks_void_count_electrons
_smtbx_masks_void_content
1 -0.068 -0.020 0.000 293.8 4.5 ?
