#------------------------------------------------------------------------------
#$Date: 2021-09-06 13:59:22 +0300 (Mon, 06 Sep 2021) $
#$Revision: 268725 $
#$URL: file:///home/coder/svn-repositories/cod/cif/7/70/76/7707694.cif $
#------------------------------------------------------------------------------
#
# This file is available in the Crystallography Open Database (COD),
# http://www.crystallography.net/
#
# All data on this site have been placed in the public domain by the
# contributors.
#
data_7707694
loop_
_publ_author_name
'Liu, Qian-Qian'
'Wang, Xiu-Li'
'Lin, Hong-Yan'
'Chang, Zhi-Han'
'Zhang, Yu-Chen'
'Tian, Yuan'
'Lu, Jun-Jun'
'Yu, Le'
_publ_section_title
;
 Two new polyoxometalate-based metal-organic complexes for the detection
 of trace Cr(VI) and their capacitor performance.
;
_journal_issue                   27
_journal_name_full
'Dalton transactions (Cambridge, England : 2003)'
_journal_page_first              9450
_journal_page_last               9456
_journal_paper_doi               10.1039/d1dt01247a
_journal_volume                  50
_journal_year                    2021
_chemical_formula_moiety         'Mo12 O40 P, C24 H32 Cu2 N12 O8, 2(H2 O)'
_chemical_formula_sum            'C24 H36 Cu2 Mo12 N12 O50 P'
_chemical_formula_weight         2601.98
_space_group_crystal_system      triclinic
_space_group_IT_number           2
_space_group_name_Hall           '-P 1'
_space_group_name_H-M_alt        'P -1'
_atom_sites_solution_hydrogens   mixed
_atom_sites_solution_primary     dual
_audit_creation_date             2020-10-22
_audit_creation_method
;
Olex2 1.3-alpha
(compiled Nov 21 2019 18:26:39 for OlexSys, GUI svn.r6003)
;
_audit_update_record
;
2020-11-11 deposited with the CCDC.	2021-05-31 downloaded from the CCDC.
;
_cell_angle_alpha                67.854(2)
_cell_angle_beta                 74.137(2)
_cell_angle_gamma                75.682(2)
_cell_formula_units_Z            1
_cell_length_a                   11.6974(14)
_cell_length_b                   11.8807(13)
_cell_length_c                   12.1832(14)
_cell_measurement_reflns_used    2187
_cell_measurement_temperature    273.15
_cell_measurement_theta_max      25.127
_cell_measurement_theta_min      1.628
_cell_volume                     1488.6(3)
_computing_cell_refinement       'SAINT+ Ver. 2016.5-0 (Bruker-AXS, 2016)'
_computing_data_collection       'APEX3 Ver. 2016.5-0 (Bruker-AXS, 2016)'
_computing_data_reduction        'SAINT+ Ver. 2016.5-0 (Bruker-AXS, 2016)'
_computing_molecular_graphics    'OLEX2 (Dolomanov et al., 2009)'
_computing_publication_material  'OLEX2 (Dolomanov et al., 2009)'
_computing_structure_refinement  'XL (Sheldrick, 2015b)'
_computing_structure_solution    'XT (Sheldrick, 2015a)'
_diffrn_ambient_temperature      273.15
_diffrn_detector                 'charge-coupled device (CCD) area detector'
_diffrn_detector_area_resol_mean 7.9
_diffrn_detector_type            'Bruker APEX II'
_diffrn_measured_fraction_theta_full 1.000
_diffrn_measured_fraction_theta_max 0.995
_diffrn_measurement_device       'three-circle diffractometer'
_diffrn_measurement_device_type  'Bruker APEX II Quazar'
_diffrn_measurement_method       '0.5\% \w and 0.5\% \f scans'
_diffrn_radiation_collimation    'focusing mirrors'
_diffrn_radiation_detector       'Bruker APEX II'
_diffrn_radiation_monochromator  'mirror optics'
_diffrn_radiation_probe          x-ray
_diffrn_radiation_type           'Mo K\a'
_diffrn_radiation_wavelength     0.71073
_diffrn_radiation_xray_symbol    K-L~3~
_diffrn_reflns_av_R_equivalents  0.0292
_diffrn_reflns_av_unetI/netI     0.0629
_diffrn_reflns_Laue_measured_fraction_full 1.000
_diffrn_reflns_Laue_measured_fraction_max 0.995
_diffrn_reflns_limit_h_max       15
_diffrn_reflns_limit_h_min       -10
_diffrn_reflns_limit_k_max       15
_diffrn_reflns_limit_k_min       -15
_diffrn_reflns_limit_l_max       14
_diffrn_reflns_limit_l_min       -15
_diffrn_reflns_number            10628
_diffrn_reflns_point_group_measured_fraction_full 1.000
_diffrn_reflns_point_group_measured_fraction_max 0.995
_diffrn_reflns_theta_full        25.242
_diffrn_reflns_theta_max         27.734
_diffrn_reflns_theta_min         1.834
_diffrn_source                   'microfocus sealed X-ray tube'
_diffrn_source_current           30.0
_diffrn_source_power             1.2
_diffrn_source_type              'Incoatec I\ms'
_diffrn_source_voltage           40.0
_diffrn_standards_number         0
_exptl_absorpt_coefficient_mu    3.287
_exptl_absorpt_correction_T_max  0.87
_exptl_absorpt_correction_T_min  0.86
_exptl_absorpt_correction_type   multi-scan
_exptl_absorpt_process_details
;
SADABS-2016/2 (Krause et al., 2015) was used for absorption correction.
;
_exptl_crystal_colour            green
_exptl_crystal_colour_primary    green
_exptl_crystal_density_diffrn    2.903
_exptl_crystal_density_method    'not measured'
_exptl_crystal_description       block
_exptl_crystal_F_000             1241
_exptl_crystal_size_max          0.24
_exptl_crystal_size_mid          0.22
_exptl_crystal_size_min          0.2
_refine_diff_density_max         1.076
_refine_diff_density_min         -1.512
_refine_diff_density_rms         0.180
_refine_ls_extinction_method     none
_refine_ls_goodness_of_fit_ref   1.046
_refine_ls_hydrogen_treatment    constr
_refine_ls_matrix_type           full
_refine_ls_number_parameters     482
_refine_ls_number_reflns         6966
_refine_ls_number_restraints     2
_refine_ls_restrained_S_all      1.046
_refine_ls_R_factor_all          0.0786
_refine_ls_R_factor_gt           0.0505
_refine_ls_shift/su_max          0.001
_refine_ls_shift/su_mean         0.000
_refine_ls_structure_factor_coef Fsqd
_refine_ls_weighting_details
'w=1/[\s^2^(Fo^2^)+(0.0229P)^2^+9.4230P] where P=(Fo^2^+2Fc^2^)/3'
_refine_ls_weighting_scheme      calc
_refine_ls_wR_factor_gt          0.0931
_refine_ls_wR_factor_ref         0.1046
_reflns_Friedel_coverage         0.000
_reflns_number_gt                5049
_reflns_number_total             6966
_reflns_threshold_expression     'I > 2\s(I)'
_cod_data_source_file            d1dt01247a2.cif
_cod_data_source_block           2
_cod_depositor_comments
'Adding full bibliography for 7707694--7707695.cif.'
_cod_database_code               7707694
_shelx_shelxl_version_number     2018/3
_shelx_space_group_comment
;
The symmetry employed for this shelxl refinement is uniquely defined
by the following loop, which should always be used as a source of
symmetry information in preference to the above space-group names.
They are only intended as comments.
;
_olex2_refinement_description
;
1. Fixed Uiso
 At 1.2 times of:
  All C(H) groups, All C(H,H) groups, All N(H) groups
 At 1.5 times of:
  All O(H,H) groups
2. Restrained distances
 H1Wa-H3Wa
 2.4 with sigma of 0.01
 Cu1-H1Wa \\sim Cu1-H1Wb
 with sigma of 0.02
3. Others
 Fixed Sof: O24(0.5) O25(0.5) O26(0.5) O27(0.5)
4.a Free rotating group:
 O1W(H1Wa,H1Wb), O3W(H3Wa,H3Wb)
4.b Rotating group:
 O2W(H2Wa,H2Wb)
4.c Secondary CH2 refined with riding coordinates:
 C12(H12a,H12b), C11(H11a,H11b)
4.d Aromatic/amide H refined with riding coordinates:
 N6(H6), N5(H5), C2(H2), C8(H8), C1(H1), C7(H7), C3(H3), C6(H6a)
;
_shelx_res_file
;
TITL 2_a.res in P-1
    2.res
    created by SHELXL-2018/3 at 16:58:59 on 21-Oct-2020
REM Old TITL 2 in P-1
REM SHELXT solution in P-1: R1 0.178, Rweak 0.014, Alpha 0.062
REM <I/s> 0.000 for 0 systematic absences, Orientation as input
REM Formula found by SHELXT: C58 N22 O1W P Cu10 Mo4
CELL 0.71073 11.6974 11.8807 12.1832 67.854 74.137 75.682
ZERR 1 0.0014 0.0013 0.0014 0.002 0.002 0.002
LATT 1
SFAC C H Cu Mo N O P
UNIT 24 36 2 12 12 50 1
EQIV $1 2-X,1-Y,1-Z
SADI Cu1 H1Wa Cu1 H1Wb
DFIX 2.4 0.01 H1Wa H3Wa

L.S. 20
PLAN  5
TEMP 0
CONF
BIND O25 Mo3_$1
FREE O25 O27_$1
FREE O25 O26
FREE O27 O26
FREE O27 O24_$1
list 4
MORE -1
BOND $H
fmap 2 53
acta
REM <olex2.extras>
REM <HklSrc "%.\\2.hkl">
REM </olex2.extras>

WGHT    0.022900    9.423000
FVAR       0.25727
MO1   4    0.780200    0.589504    0.733641    11.00000    0.02606    0.02457 =
         0.02357   -0.01010    0.00112   -0.00198
MO2   4    1.078030    0.454195    0.777801    11.00000    0.03087    0.02927 =
         0.02605   -0.01147   -0.00606   -0.00274
MO3   4    0.708770    0.657585    0.444776    11.00000    0.01751    0.02067 =
         0.04715   -0.00816   -0.00904    0.00045
MO4   4    1.036002    0.195823    0.717743    11.00000    0.03083    0.02088 =
         0.02897    0.00088    0.00252    0.00391
MO5   4    1.020044    0.757169    0.570972    11.00000    0.03625    0.02585 =
         0.03577   -0.01389   -0.00893   -0.00174
MO6   4    0.748889    0.346588    0.643837    11.00000    0.02088    0.03683 =
         0.03846    0.00102   -0.00317   -0.01491
CU1   3    0.321397   -0.171568    0.887430    11.00000    0.04013    0.03669 =
         0.02802   -0.01279    0.00447   -0.01840
P1    7    1.000000    0.500000    0.500000    10.50000    0.01692    0.01532 =
         0.01946   -0.00481   -0.00165   -0.00140
O8    6    1.053459    0.055295    0.818043    11.00000    0.04600    0.02208 =
         0.03201   -0.00130   -0.00078    0.00136
O10   6    1.085638    0.620962    0.700778    11.00000    0.02882    0.03233 =
         0.07248    0.01000   -0.01436   -0.00626
AFIX   6
O1W   6    0.174952   -0.225640    1.000722    11.00000    0.05079    0.05645 =
         0.04145   -0.01852    0.01218   -0.02825
H1WA  2    0.150231   -0.257204    0.961157    11.00000   -1.50000
H1WB  2    0.128641   -0.156969    0.994509    11.00000   -1.50000
AFIX   0
O1    6    0.480867   -0.115671    0.793640    11.00000    0.04518    0.03520 =
         0.06200   -0.02821    0.01589   -0.02022

O7    6    0.571100    0.724436    0.417898    11.00000    0.02720    0.04226 =
         0.05248   -0.02650   -0.01569    0.00930
O4    6    0.865959    0.724447    0.661982    11.00000    0.02947    0.02844 =
         0.07321    0.00819   -0.01217   -0.00170
N6    5    0.644172    0.112304    0.478864    11.00000    0.04825    0.02597 =
         0.02694   -0.00935   -0.00182    0.00065
AFIX  43
H6    2    0.605076    0.165505    0.513520    11.00000   -1.20000
AFIX   0
N1    5    0.301340   -0.019151    0.928696    11.00000    0.02715    0.03065 =
         0.02842   -0.00928    0.00081   -0.00929

O14   6    0.904399    0.496932    0.814295    11.00000    0.03411    0.03564 =
         0.07959    0.00895   -0.01997   -0.00271
N5    5    0.591342    0.033049    0.743997    11.00000    0.02727    0.02110 =
         0.03302   -0.01206    0.00417   -0.00350
AFIX  43
H5    2    0.595075    0.101924    0.749815    11.00000   -1.20000
AFIX   0
O2    6    0.730542    0.082443    0.301109    11.00000    0.07186    0.03613 =
         0.03063   -0.01700   -0.00017    0.01007

O18   6    0.675426    0.633211    0.840037    11.00000    0.06131    0.03816 =
         0.03664   -0.00126    0.01478    0.01664
O3    6    0.633591    0.269140    0.717505    11.00000    0.03314    0.03764 =
         0.05342   -0.00552   -0.00036   -0.02016
N2    5    0.644001    0.312235    0.176592    11.00000    0.04750    0.02390 =
         0.02670   -0.00293   -0.00082   -0.01221
O11   6    0.795877    0.782373    0.360946    11.00000    0.05132    0.06345 =
         0.10421   -0.06515    0.05109   -0.04026
O12   6    0.680414    0.484972    0.536123    11.00000    0.12954    0.03101 =
         0.06134    0.00215   -0.05816   -0.03267
O13   6    0.870681    0.237641    0.738867    11.00000    0.03707    0.16336 =
         0.03878   -0.05273   -0.01708    0.04578
O20   6    1.113030    0.433346    0.909527    11.00000    0.05721    0.08110 =
         0.03767   -0.00373   -0.01698   -0.02303
O15   6    0.700109    0.668633    0.593555    11.00000    0.14763    0.02780 =
         0.05977    0.01007   -0.06817   -0.03608
N3    5    0.204194    0.124118    1.031996    11.00000    0.03623    0.04600 =
         0.03954   -0.02081    0.00451   -0.00514
C9    1    0.643345    0.284400    0.294734    11.00000    0.01965    0.03228 =
         0.03408   -0.01095    0.00248   -0.00045
O16   6    0.733664    0.441722    0.746855    11.00000    0.15108    0.03198 =
         0.05419    0.01189   -0.06032   -0.03593
C5    1    0.493354   -0.017013    0.799072    11.00000    0.02759    0.03096 =
         0.02618   -0.00849   -0.00068   -0.00510
O17   6    0.962481    0.837178    0.427355    11.00000    0.02895    0.15435 =
         0.03850   -0.04387   -0.01365    0.02526
C10   1    0.676939    0.149488    0.358990    11.00000    0.02674    0.03364 =
         0.02665   -0.01118   -0.00123   -0.00356
O6    6    0.773251    0.592462    0.312515    11.00000    0.05814    0.05138 =
         0.10073   -0.05560    0.04269   -0.03264
O19   6    1.042695    0.292219    0.806161    11.00000    0.05376    0.05341 =
         0.10125   -0.05325    0.04131   -0.03345
C4    1    0.393717    0.044217    0.876811    11.00000    0.02915    0.02171 =
         0.02921   -0.00818   -0.00229   -0.00322
O5    6    0.820328    0.272137    0.529141    11.00000    0.03758    0.16323 =
         0.04658   -0.04781   -0.01746    0.04066
N4    5    0.590538    0.524831    0.150982    11.00000    0.06128    0.03198 =
         0.05096   -0.00624   -0.01513   -0.00574
O9    6    1.034555    0.878472    0.605335    11.00000    0.06457    0.03099 =
         0.10798   -0.02294   -0.03722   -0.00362
C2    1    0.296437    0.185071    0.979037    11.00000    0.04166    0.03307 =
         0.04180   -0.01333   -0.00296   -0.00407
AFIX  43
H2    2    0.295262    0.255360    0.996139    11.00000   -1.20000
AFIX   0
C8    1    0.616197    0.377722    0.343631    11.00000    0.02994    0.03091 =
         0.03684   -0.01456   -0.00679   -0.00549
AFIX  43
H8    2    0.617667    0.361043    0.424241    11.00000   -1.20000
AFIX   0
C12   1    0.672520   -0.016253    0.553681    11.00000    0.04902    0.02389 =
         0.03028   -0.00886    0.00059    0.00599
AFIX  23
H12A  2    0.743734   -0.056209    0.511215    11.00000   -1.20000
H12B  2    0.606253   -0.058736    0.567702    11.00000   -1.20000
AFIX   6

O3W   6    0.033332   -0.244738    0.881822    11.00000    0.04990    0.12581 =
         0.07693   -0.07094    0.00380   -0.01897
H3WA  2    0.023370   -0.304183    0.864615    11.00000   -1.50000
H3WB  2   -0.036007   -0.219818    0.917842    11.00000   -1.50000
AFIX   0

O2W   6    0.431463   -0.282834    1.030980    11.00000    0.15557    0.07185 =
         0.10511   -0.04286   -0.08435    0.02216
AFIX   7
H2WA  2    0.404986   -0.259541    1.095298    11.00000   -1.50000
H2WB  2    0.421599   -0.360493    1.059583    11.00000   -1.50000
AFIX   0
C1    1    0.209396    0.024533    1.003132    11.00000    0.02683    0.03673 =
         0.04099   -0.01657   -0.00312   -0.00711
AFIX  43
H1    2    0.144102   -0.017557    1.037432    11.00000   -1.20000
AFIX   0
C7    1    0.586842    0.496438    0.268940    11.00000    0.03003    0.02808 =
         0.06064   -0.01790   -0.01149   -0.00331
AFIX  43
H7    2    0.563451    0.559541    0.301985    11.00000   -1.20000
AFIX   0
C3    1    0.394752    0.147876    0.898974    11.00000    0.03589    0.02632 =
         0.04171   -0.01248    0.00323   -0.00431
AFIX  43
H3    2    0.458515    0.191948    0.862127    11.00000   -1.20000
AFIX   0
C11   1    0.694280   -0.025419    0.673010    11.00000    0.03289    0.03070 =
         0.03782   -0.01167    0.00069    0.00369
AFIX  23
H11A  2    0.713160   -0.111650    0.719966    11.00000   -1.20000
H11B  2    0.763727    0.012858    0.658370    11.00000   -1.20000
AFIX   0
C6    1    0.618922    0.430337    0.110886    11.00000    0.07611    0.03618 =
         0.04027   -0.00380   -0.00489   -0.02209
AFIX  43
H6A   2    0.621619    0.448029    0.029159    11.00000   -1.20000
AFIX   0

O24   6    0.957082    0.370677    0.551014    10.50000    0.01532    0.01752 =
         0.01979   -0.00272    0.00027   -0.00617
O25   6    1.133737    0.480705    0.440285    10.50000    0.01069    0.02432 =
         0.01813   -0.00608    0.00278   -0.00904
O26   6    1.074192    0.414504    0.596823    10.50000    0.01008    0.02088 =
         0.02109   -0.00734    0.00298   -0.00400
O27   6    0.978888    0.549121    0.599900    10.50000    0.01671    0.02568 =
         0.02132   -0.00718    0.00215   -0.00152
HKLF 4




REM  2_a.res in P-1
REM wR2 = 0.1046, GooF = S = 1.046, Restrained GooF = 1.046 for all data
REM R1 = 0.0505 for 5049 Fo > 4sig(Fo) and 0.0786 for all 6966 data
REM 482 parameters refined using 2 restraints

END

WGHT      0.0229      9.4134

REM Highest difference peak  1.076,  deepest hole -1.512,  1-sigma level  0.180
Q1    1   0.8255  0.3221  0.5074  11.00000  0.05    1.08
Q2    1   0.7680  0.3151  0.5999  11.00000  0.05    1.03
Q3    1   0.7933  0.2325  0.5742  11.00000  0.05    0.85
Q4    1   0.7175  0.4446  0.5232  11.00000  0.05    0.84
Q5    1   0.7391  0.6534  0.5590  11.00000  0.05    0.83
;
_shelx_res_checksum              29279
_shelx_hkl_file
;
  -1   0   0 2402.16   49.80
   1   0   0 2406.56   52.59
   2   0   0  271.67    8.60
   2   0   0  285.37    7.90
   3   0   0 5188.08  107.29
   3   0   0 5048.69  113.39
   4   0   0 1491.45   38.10
   4   0   0 1560.54   35.80
   5   0   0   19.80    3.50
   5   0   0   21.30    4.20
   6   0   0   69.49    7.30
   6   0   0   77.79    6.60
   7   0   0   18.10    4.30
   7   0   0   12.10    4.30
   8   0   0   25.40    6.00
   8   0   0   28.80    5.50
   9   0   0   -1.00    3.60
   9   0   0    2.30    4.20
  10   0   0   33.70    6.50
  10   0   0   40.20    7.90
  11   0   0   80.99    9.90
  11   0   0   92.69   12.50
  12   0   0    8.80    7.00
  12   0   0    8.10    5.90
  13   0   0   18.10    8.60
  13   0   0   29.60    9.90
  14   0   0   10.10    8.20
  14  -1   0   55.69   13.20
  13  -1   0  604.94   30.80
  12  -1   0   82.89   13.00
  12  -1   0   80.99   10.80
  11  -1   0   18.60    6.30
  11  -1   0   16.20    7.00
  10  -1   0   23.70    5.90
  10  -1   0   27.00    7.70
   9  -1   0  452.25   21.00
   9  -1   0  440.16   17.90
   8  -1   0   -0.20    3.40
   8  -1   0    0.10    3.70
   7  -1   0  222.18   12.50
   7  -1   0  210.08   10.70
   6  -1   0  922.41   29.50
   6  -1   0 1041.60   27.30
   5  -1   0  608.84   17.60
   5  -1   0  573.94   19.60
   4  -1   0    5.50    2.40
   4  -1   0    2.40    2.30
   3  -1   0   40.20    3.80
   2  -1   0 1714.43   37.60
   1  -1   0  755.32   17.40
  -1   1   0  744.93   17.20
   0   1   0 2441.56   50.89
   1   1   0  549.74   13.00
   1   1   0  560.34   13.00
   2   1   0    0.50    1.50
   2   1   0    3.90    1.60
   3   1   0  106.29    5.40
   3   1   0   99.39    5.20
   4   1   0   49.30    5.00
   4   1   0   46.30    4.50
   5   1   0  130.19    7.50
   5   1   0  122.29    6.80
   6   1   0 1199.48   31.20
   6   1   0 1209.18   33.50
   7   1   0   21.30    5.00
   7   1   0   22.00    4.70
   8   1   0  127.49    9.60
   8   1   0  126.89    8.80
   9   1   0  148.39   13.10
   9   1   0  151.88   10.30
  10   1   0   13.70    5.30
  10   1   0    1.10    4.70
  11   1   0  329.97   16.80
  11   1   0  376.36   20.10
  12   1   0   -4.80    5.80
  12   1   0    2.90    4.70
  13   1   0   60.69   12.40
  13   1   0   65.39   10.50
  14   1   0   76.19   14.10
  14  -2   0   23.80   10.40
  13  -2   0  374.76   24.90
  12  -2   0  259.07   19.30
  12  -2   0  230.18   15.60
  11  -2   0   30.50    9.10
  11  -2   0   48.10    8.60
  10  -2   0   55.19   10.00
  10  -2   0   60.89    8.80
   9  -2   0  642.44   22.90
   9  -2   0  629.54   26.50
   8  -2   0   51.49    7.00
   8  -2   0   60.89    9.00
   7  -2   0 1000.40   32.30
   7  -2   0  971.40   28.00
   6  -2   0   77.89    7.00
   6  -2   0   65.89    7.80
   5  -2   0   43.70    5.00
   5  -2   0   43.00    5.80
   4  -2   0 1081.59   27.50
   3  -2   0  229.88    8.80
   2  -2   0   27.00    3.40
  -1   2   0 2012.60   44.50
   0  -2   0  623.14   15.20
  -1  -2   0  122.19    4.60
   1   2   0  100.99    5.00
   1   2   0  123.19    4.50
   2   2   0  246.38    7.60
   2   2   0  237.08    8.10
   3   2   0 1647.04   38.40
   3   2   0 1625.84   37.60
   4   2   0   13.20    3.10
   4   2   0   26.00    3.60
   5   2   0  686.63   20.60
   5   2   0  698.03   20.10
   6   2   0 2473.65   60.39
   6   2   0 2452.35   57.69
   7   2   0   68.19    7.70
   7   2   0   68.09    7.30
   8   2   0  261.07   13.60
   8   2   0  274.47   13.30
   9   2   0  425.46   17.90
   9   2   0  435.46   19.40
  10   2   0  177.18   12.40
  10   2   0  187.08   13.70
  11   2   0  163.88   13.70
  11   2   0  148.39   14.90
  12   2   0    4.10    5.20
  12   2   0    1.60    5.40
  13   2   0    7.80    7.40
  13   2   0    7.80    6.90
  14   2   0  225.78   21.90
  13  -3   0    8.30    7.80
  12  -3   0   16.00    8.90
  11  -3   0   97.49   13.90
  11  -3   0  100.99   11.60
  10  -3   0   25.80    6.60
  10  -3   0   20.20    7.70
   9  -3   0  209.18   15.00
   9  -3   0  173.98   11.70
   8  -3   0    3.90    4.60
   8  -3   0    7.90    4.20
   7  -3   0  160.88   11.90
   7  -3   0  173.68   10.20
   6  -3   0    1.80    2.90
   6  -3   0    5.00    3.90
   5  -3   0   16.00    4.00
   4  -3   0  183.88    8.90
   3  -3   0   46.20    5.10
  -2   3   0  702.33   19.50
  -1   3   0   77.69    5.60
   0  -3   0   16.00    2.60
   0   3   0   13.30    3.10
  -1  -3   0 4002.20   86.59
   1   3   0 4007.90   88.39
   1   3   0 4112.39   86.39
  -2  -3   0 5444.25  114.69
   2   3   0 5310.87  117.69
   2   3   0 5350.66  113.49
   3   3   0  172.48    6.90
   3   3   0  162.28    7.60
   4   3   0  264.57   10.40
   4   3   0  246.78    9.30
   5   3   0  181.98    8.60
   5   3   0  189.38    9.20
   6   3   0 1364.66   35.10
   6   3   0 1297.57   35.30
   7   3   0   64.09    7.50
   7   3   0   66.99    7.30
   8   3   0  733.43   24.40
   8   3   0  663.33   23.10
   9   3   0    1.70    3.80
   9   3   0   10.20    4.80
  10   3   0   55.69    8.80
  10   3   0   69.49    8.70
  11   3   0   -1.10    4.80
  11   3   0    6.00    4.90
  12   3   0   -6.40    4.90
  12   3   0   -0.50    4.60
  13   3   0    0.40    6.40
  13   3   0    7.30    6.80
  14   3   0   36.90   10.50
  14   3   0    8.70    7.70
  13  -4   0   19.80    9.60
  12  -4   0   23.10   10.60
  11  -4   0   90.79   11.30
  11  -4   0   87.59   14.00
  10  -4   0   -1.70    4.60
  10  -4   0  -14.50    4.00
   9  -4   0   54.19    8.20
   9  -4   0   74.99   11.40
   8  -4   0  106.69   10.30
   8  -4   0   90.09   11.80
   7  -4   0  304.27   14.30
   7  -4   0  296.07   16.40
   6  -4   0  247.58   12.30
   6  -4   0  286.87   15.20
   5  -4   0  232.08   11.20
   4  -4   0   81.59    7.50
   3  -4   0   94.49    7.80
  -3   4   0   93.69    6.80
  -2   4   0  354.26   13.40
  -1   4   0  171.48    8.80
   0  -4   0   41.20    4.00
   0   4   0   44.80    5.10
  -1  -4   0 1630.34   37.20
   1   4   0 1569.54   38.40
   1   4   0 1628.64   37.60
  -2  -4   0 7108.19  152.98
   2   4   0 7427.76  156.48
   2   4   0 7011.30  151.58
  -3  -4   0  330.67   11.10
   3   4   0  351.76   12.40
   3   4   0  319.47   11.40
   4   4   0  739.13   20.00
   4   4   0  669.93   20.60
   5   4   0 2418.26   57.99
   5   4   0 2487.95   57.89
   6   4   0 2400.46   58.29
   6   4   0 2421.86   57.99
   7   4   0   54.29    7.00
   7   4   0   51.79    6.30
   8   4   0  162.28   10.40
   8   4   0  151.98   10.40
   9   4   0  185.28   12.00
   9   4   0  181.68   12.00
  10   4   0   22.80    6.40
  10   4   0   32.80    6.90
  11   4   0   14.10    6.00
  11   4   0    4.30    5.50
  12   4   0    5.40    5.70
  12   4   0    8.40    6.30
  13   4   0   -9.60    5.40
  13   4   0    3.10    6.20
  14   4   0    5.00    6.70
  14   4   0    7.20    7.10
  12  -5   0  229.58   23.70
  11  -5   0  918.91   39.50
  10  -5   0    8.60    7.40
  10  -5   0    3.10    5.50
   9  -5   0    7.10    4.80
   9  -5   0    6.10    5.80
   8  -5   0  758.52   30.80
   8  -5   0  752.02   26.40
   7  -5   0  728.03   24.80
   7  -5   0  673.33   27.70
   6  -5   0   88.59    8.90
   5  -5   0  322.47   14.50
   4  -5   0  198.58   11.20
  -3   5   0  122.49    8.80
  -2   5   0   94.89    8.30
  -1   5   0  858.01   25.50
   0  -5   0  397.86   13.00
   0   5   0  407.56   14.90
  -1  -5   0   54.99    4.80
   1   5   0   52.59    5.70
  -2  -5   0  631.14   17.60
   2   5   0  608.54   19.30
   2   5   0  648.64   17.20
  -3  -5   0   60.79    5.50
   3   5   0   54.09    5.90
   3   5   0   58.09    5.00
   4   5   0  336.57   12.60
   4   5   0  342.67   13.50
   5   5   0    3.00    2.80
   5   5   0   -0.80    2.80
   6   5   0   14.60    3.80
   6   5   0   20.00    4.60
   7   5   0   42.80    6.80
   7   5   0   38.30    5.70
   8   5   0  352.56   16.30
   8   5   0  347.67   15.20
   9   5   0   63.39    8.30
   9   5   0   80.09    9.60
  10   5   0    4.40    4.70
  10   5   0    2.80    4.50
  11   5   0   79.49   10.60
  11   5   0   58.49    9.40
  12   5   0   14.80    7.00
  12   5   0    7.40    5.80
  13   5   0   84.69   12.30
  14   5   0   -0.60    6.70
  12  -6   0    0.00    8.70
  11  -6   0   84.99   14.90
  10  -6   0   54.59   12.10
  10  -6   0   33.90    8.30
   9  -6   0   30.80    9.10
   9  -6   0   30.70    7.50
   8  -6   0   -2.60    4.80
   8  -6   0    6.70    5.90
   7  -6   0  738.23   26.50
   7  -6   0  765.82   30.30
   6  -6   0   45.00    7.40
   5  -6   0  817.32   27.20
   4  -6   0   15.30    4.80
  -3   6   0  136.29   11.10
  -2   6   0 1071.19   31.70
   1  -6   0  313.17   12.70
  -1   6   0  313.27   14.40
   0  -6   0  141.19    7.70
   0   6   0  154.98    9.50
  -1  -6   0  579.64   17.40
   1   6   0  605.34   20.00
  -2  -6   0   40.70    4.50
   2   6   0   30.90    3.80
   2   6   0   25.70    4.90
  -3  -6   0 1399.36   34.60
   3   6   0 1346.77   36.70
   3   6   0 1394.26   34.10
   4   6   0   -2.70    2.30
   4   6   0    1.70    2.60
   5   6   0  776.12   24.80
   5   6   0  783.82   23.40
   6   6   0   43.20    6.60
   6   6   0   29.60    5.70
   7   6   0   22.80    5.60
   7   6   0   26.70    5.20
   8   6   0  124.39   10.60
   8   6   0  131.99   11.80
   9   6   0  213.88   12.60
   9   6   0  214.98   13.70
  10   6   0   57.29    8.90
  10   6   0   46.40    8.90
  11   6   0  130.09   13.70
  12   6   0   24.00    8.00
  13   6   0   40.40    9.60
  14   6   0   27.50    8.80
  11  -7   0   24.10   10.70
  10  -7   0   12.40    8.60
   9  -7   0  123.29   16.10
   9  -7   0  132.49   13.80
   8  -7   0  141.89   16.00
   8  -7   0  138.29   13.70
   7  -7   0   39.60    7.60
   7  -7   0   34.90    8.60
   6  -7   0   37.80    7.70
   5  -7   0  329.87   17.30
   4  -7   0   83.89    9.70
  -3   7   0  109.79   10.90
   2  -7   0  165.68   10.30
  -2   7   0  157.08   11.30
   1  -7   0  106.19    7.70
  -1   7   0  115.69   11.00
   0  -7   0   98.39    7.10
   0   7   0  111.59   10.40
  -1  -7   0   73.09    6.50
   1   7   0   75.39    8.40
  -2  -7   0  159.08    8.40
   2   7   0  174.48   10.60
  -3  -7   0 2227.18   53.49
   3   7   0 2248.28   56.59
   3   7   0 2288.37   53.49
  -4  -7   0 1873.71   47.30
   4   7   0 1956.00   50.29
   4   7   0 1972.70   47.00
   5   7   0  162.28    8.90
   5   7   0  146.09   11.90
   6   7   0   24.70    6.10
   6   7   0   27.80    5.40
   7   7   0 1034.20   32.80
   7   7   0 1011.90   31.10
   8   7   0  615.94   24.00
   9   7   0   67.49    9.80
  10   7   0  140.59   13.90
  11   7   0  252.07   16.70
  12   7   0   78.69   11.60
  13   7   0   27.90    8.90
  10  -8   0  174.78   20.50
   9  -8   0  258.27   22.40
   9  -8   0  262.97   23.80
   8  -8   0   -4.60    5.50
   8  -8   0    1.90    6.30
   7  -8   0    5.90    5.60
   7  -8   0   -4.50    5.60
   6  -8   0  424.56   20.90
   5  -8   0  174.78   15.40
   4  -8   0  353.76   18.50
  -4   8   0  379.76   18.70
  -3   8   0  235.28   14.70
   2  -8   0  151.68   10.60
  -2   8   0  133.59   12.70
   1  -8   0    4.50    3.90
  -1   8   0    4.30    4.60
   0  -8   0   15.40    4.20
   0   8   0   23.10    6.20
  -1  -8   0   40.10    5.60
   1   8   0   43.10    6.80
  -2  -8   0   23.20    4.60
   2   8   0   14.80    4.70
  -3  -8   0  194.48   10.30
   3   8   0  190.28   12.20
  -4  -8   0  884.01   25.40
   4   8   0  850.61   23.90
   4   8   0  806.02   28.10
   5   8   0    5.40    4.00
   6   8   0   50.99    8.00
   7   8   0  504.35   21.70
   8   8   0  373.66   19.00
   9   8   0  172.88   15.60
  10   8   0   28.80    8.10
  11   8   0  158.88   16.20
  12   8   0    8.60    7.20
  13   8   0   61.39   12.00
   9  -9   0  410.76   26.00
   8  -9   0   32.80    9.00
   8  -9   0   27.30    9.60
   7  -9   0   17.50    7.00
   7  -9   0   16.00    8.40
   6  -9   0  468.75   23.20
   5  -9   0  639.64   27.30
  -4   9   0  114.39   13.00
   3  -9   0   26.50    6.80
  -3   9   0   27.70    7.50
   2  -9   0  215.58   12.70
  -2   9   0  189.58   16.00
   1  -9   0   -3.60    3.50
  -1   9   0   11.50    5.50
   0  -9   0  126.49    9.20
   0   9   0  135.99   13.20
  -1  -9   0  241.18   11.80
   1   9   0  252.97   15.10
  -2  -9   0   74.09    7.50
   2   9   0   47.20    8.40
  -3  -9   0   -0.50    4.00
   3   9   0   -1.40    3.20
  -4  -9   0  166.98   10.60
   4   9   0  208.38   13.50
   5   9   0  167.28   14.70
   6   9   0  114.69   11.80
   7   9   0   50.39    9.00
   8   9   0   27.40    7.90
   9   9   0   33.50    8.80
  10   9   0  195.98   17.90
  11   9   0  114.39   14.70
  12   9   0   11.70    7.70
   8 -10   0   12.10    8.30
   7 -10   0   67.69   12.40
   7 -10   0   83.29   12.90
   6 -10   0   -5.10    5.70
   6 -10   0    3.80    6.80
   5 -10   0   79.39   12.00
   4 -10   0    4.50    6.40
  -4  10   0   -5.10    5.30
   3 -10   0  349.77   18.20
  -3  10   0  365.96   21.00
   2 -10   0    6.40    5.80
  -2  10   0    9.40    6.50
   1 -10   0   85.99   10.40
  -1  10   0   91.89   12.20
   0  10   0  115.59   13.30
   1  10   0   86.59   11.40
   2  10   0  111.49   12.70
   3  10   0    8.00    5.60
  -4 -10   0   41.50    7.60
   4  10   0   36.80    8.00
   5  10   0  324.77   18.20
   6  10   0  100.49   12.10
   7  10   0  124.29   13.90
   8  10   0   58.89   10.60
   9  10   0  262.47   18.30
  10  10   0   11.50    7.70
  11  10   0  127.39   15.80
  12  10   0   10.20    8.50
   7 -11   0   23.30   10.30
   7 -11   0    5.70    8.50
   6 -11   0   39.80   11.30
   6 -11   0   61.29   12.30
   5 -11   0   35.90   10.70
   4 -11   0    8.60    7.30
  -4  11   0    7.70    7.00
  -3  11   0   69.99   12.10
  -2  11   0   73.59   12.20
  -1  11   0   -1.40    5.70
   0  11   0    9.70    6.90
   1  11   0    0.20    5.60
   2  11   0   -3.20    5.10
   3  11   0   25.80    7.20
   4  11   0   65.79   10.90
   5  11   0  678.83   28.40
   6  11   0  260.57   17.90
   7  11   0    5.10    6.30
   8  11   0   50.69   10.60
   9  11   0  348.67   21.80
  10  11   0  254.97   22.40
  11  11   0   44.10   11.40
   6 -12   0   11.40    9.80
   6 -12   0   -0.50    7.90
   5 -12   0    8.40    8.20
   5 -12   0   21.20   10.40
   4 -12   0  391.96   24.30
  -3  12   0   73.69   13.10
  -2  12   0  119.29   15.70
  -1  12   0   16.00    8.00
   0  12   0   52.49   11.40
   1  12   0   23.20    8.60
   2  12   0  324.77   20.90
   3  12   0   14.30    7.30
   4  12   0    2.30    5.80
   5  12   0    2.30    5.90
   6  12   0   21.90    7.80
   7  12   0   27.90    9.10
   8  12   0    8.10    7.40
   9  12   0  150.18   18.00
  10  12   0   12.90    8.80
   4 -13   0  198.48   21.00
  -3  13   0  150.18   18.60
  -2  13   0   31.10   10.30
  -1  13   0    9.70    8.50
   0  13   0  121.59   16.30
   1  13   0   -0.20    7.40
   2  13   0   86.49   14.00
   3  13   0   25.00    8.80
   4  13   0   -0.60    6.00
   5  13   0    4.00    6.50
   6  13   0   12.80    8.30
   7  13   0    3.20    7.10
   8  13   0    7.90    8.10
  -1  14   0  162.08   19.80
   0  14   0   21.10    9.90
   1  14   0   33.50   11.10
   2  14   0   36.10   11.10
   3  14   0   61.39   13.50
   4  14   0   25.00   10.30
   5  14   0   20.90    9.20
   2  14  -1   57.19   13.70
   7  13  -1   44.60   11.90
   6  13  -1   76.59   13.80
   5  13  -1   51.59   11.90
   4  13  -1  165.78   18.60
   3  13  -1   48.80   11.60
   2  13  -1  114.39   16.70
   1  13  -1    5.40    7.40
   0  13  -1  295.07   24.90
  -1  13  -1   32.90   10.80
  -2  13  -1    3.70    8.30
  -3  13  -1   30.10   11.90
   9  12  -1    7.10    7.90
   8  12  -1   53.79   11.80
   7  12  -1   -1.70    6.20
   6  12  -1  191.18   19.20
   5  12  -1   26.20    8.90
   4  12  -1   74.39   12.90
   3  12  -1   17.80    8.10
   2  12  -1   54.09   11.30
   1  12  -1   11.70    8.00
   0  12  -1  431.26   25.20
  -1  12  -1  355.26   23.30
  -2  12  -1   43.60   11.10
  -3  12  -1  132.19   16.80
   4 -12   1  358.56   24.90
   5 -12   1  101.89   15.90
  10  11  -1   19.10    9.50
   9  11  -1  336.87   22.30
   8  11  -1   87.09   13.60
   7  11  -1   13.60    7.70
   6  11  -1   -0.60    5.70
   5  11  -1   62.39   10.90
   4  11  -1   36.00    9.20
   3  11  -1   -2.10    5.80
   2  11  -1   61.79   11.10
   1  11  -1  273.97   18.90
   0  11  -1    1.60    6.10
  -1  11  -1   39.70    9.90
  -2  11  -1   48.30   10.30
  -3  11  -1    2.90    7.40
  -4  11  -1   45.60   10.50
   4 -11   1   24.00    9.60
   5 -11   1   20.60    8.90
   6 -11   1   -6.60    7.80
   7 -11   1    7.30    9.20
   7 -11   1    8.60    8.90
  11  10  -1   51.39   11.60
  10  10  -1   54.39   11.10
   9  10  -1  370.76   21.80
   8  10  -1    6.80    6.70
   7  10  -1   -1.70    5.60
   6  10  -1   43.10    9.40
   5  10  -1    3.80    5.40
   4  10  -1  323.17   18.70
   3  10  -1    7.90    5.50
   2  10  -1    5.10    5.20
   1  10  -1  135.19   14.50
   0  10  -1  194.58   17.20
  -1  10  -1    5.50    6.10
  -2  10  -1    0.80    6.00
  -3  10  -1   39.70    9.70
  -4  10  -1  115.59   14.30
   4 -10   1  113.99   15.00
   5 -10   1   19.70    8.00
   6 -10   1   23.50    9.50
   7 -10   1   59.39   12.00
   8 -10   1   55.59   12.40
   8 -10   1   73.69   13.30
  12   9  -1   39.20   11.10
  11   9  -1   37.40    9.70
  10   9  -1    2.80    6.50
   9   9  -1   20.90    7.50
   8   9  -1   17.30    7.10
   7   9  -1   -1.60    4.60
   6   9  -1    3.20    5.10
   5   9  -1   -3.20    4.60
   4   9  -1   95.99   11.10
   3   9  -1  268.87   16.00
   2   9  -1  334.97   17.60
   1   9  -1   74.89   10.30
   0   9  -1  310.67   18.10
  -1   9  -1  278.47   17.40
  -2   9  -1 1582.74   48.60
  -3   9  -1  130.59   14.30
  -4   9  -1   14.90    6.60
   5  -9   1  246.78   17.70
   6  -9   1  509.25   25.60
   7  -9   1   14.00    8.20
   8  -9   1    9.10    7.90
   8  -9   1   -1.00    7.10
   9  -9   1   -5.30    6.50
   9  -9   1   -0.50    7.30
  12   8  -1   10.70    7.20
  11   8  -1  253.47   18.00
  10   8  -1    4.00    6.10
   9   8  -1   42.30    8.80
   8   8  -1  107.89   12.30
   7   8  -1  128.69   13.00
   6   8  -1   41.00    7.80
   5   8  -1   -0.70    3.60
   5   8  -1    2.80    4.50
   4   8  -1  597.14   20.20
   4   8  -1  621.24   23.70
   3   8  -1    5.50    4.20
   3   8  -1    1.20    3.10
  -3  -8   1    4.00    3.70
   2   8  -1  291.97   15.50
  -2  -8   1  293.07   11.90
   1   8  -1   92.59   10.40
  -1  -8   1   99.59    7.00
   0   8  -1  205.88   13.60
   0  -8   1  151.28    8.60
  -1   8  -1   56.59    9.20
   1  -8   1   58.79    6.70
  -2   8  -1  758.62   28.50
   2  -8   1  734.73   23.60
  -3   8  -1  529.25   23.10
   3  -8   1  501.55   19.60
  -4   8  -1   20.90    6.50
   4  -8   1   35.30    8.10
   5  -8   1  225.88   15.90
   6  -8   1  492.25   23.50
   7  -8   1  194.58   17.10
   8  -8   1   10.90    6.60
   8  -8   1   -3.30    6.40
   9  -8   1   28.50    9.70
   9  -8   1   44.30   10.80
  10  -8   1   29.80   11.40
  13   7  -1  101.59   14.20
  12   7  -1    3.70    6.50
  11   7  -1  496.15   23.80
  10   7  -1  274.57   17.00
   9   7  -1    3.50    4.80
   8   7  -1  246.88   15.10
   7   7  -1 1394.96   40.50
   7   7  -1 1363.76   40.60
   6   7  -1  431.26   17.70
   6   7  -1  457.95   19.60
   5   7  -1  134.69   11.70
   5   7  -1  116.79    9.80
   4   7  -1  124.39    8.40
   4   7  -1  142.29   11.80
   3   7  -1   69.49    6.80
   3   7  -1   48.50    7.30
  -3  -7   1   65.99    6.30
   2   7  -1  477.15   19.40
   2   7  -1  515.95   17.20
  -2  -7   1  529.55   16.10
   1   7  -1  105.99   10.30
  -1  -7   1   99.49    6.30
   0   7  -1  141.49   12.10
   0  -7   1  142.99    7.60
  -1   7  -1 1056.89   33.60
   1  -7   1 1034.70   28.10
  -2   7  -1  167.68   13.80
   2  -7   1  189.98   10.20
  -3   7  -1   83.59   10.00
  -4   7  -1  180.08   12.80
   4  -7   1  152.48   13.70
   5  -7   1  206.98   14.80
   6  -7   1    7.10    5.50
   7  -7   1   18.00    6.70
   8  -7   1  124.29   15.10
   8  -7   1  126.99   13.70
   9  -7   1   26.20    9.30
   9  -7   1   32.00    9.00
  10  -7   1   52.49   12.00
  10  -7   1   55.89   10.90
  11  -7   1  159.28   20.40
  13   6  -1  195.68   17.70
  12   6  -1  108.99   13.20
  11   6  -1   34.70    8.70
  10   6  -1    7.30    5.40
  10   6  -1    5.40    5.10
   9   6  -1  170.48   12.20
   9   6  -1  167.28   14.10
   8   6  -1   72.29    8.90
   8   6  -1   55.29    8.00
   7   6  -1  392.66   17.10
   7   6  -1  377.66   17.20
   6   6  -1   12.10    4.90
   6   6  -1    9.00    4.80
   5   6  -1    6.70    3.90
   5   6  -1   11.30    4.30
   4   6  -1  107.69    9.70
   4   6  -1  104.19    7.80
   3   6  -1    2.20    2.80
   3   6  -1    0.00    3.00
   2   6  -1  407.06   14.30
   2   6  -1  434.36   16.70
  -2  -6   1  437.26   13.40
   1   6  -1   10.90    4.10
   1   6  -1    8.70    3.20
  -1  -6   1    7.10    2.60
   0   6  -1   12.40    4.30
   0  -6   1   16.90    3.30
  -1   6  -1   77.69    8.70
   1  -6   1   75.89    6.40
  -2   6  -1   76.89    9.00
  -3   6  -1   35.70    6.50
   4  -6   1  521.75   21.20
   5  -6   1   12.40    5.40
   6  -6   1   40.80    7.70
   7  -6   1  143.89   13.00
   8  -6   1   74.39   10.10
   8  -6   1   79.09   12.20
   9  -6   1  134.19   15.50
   9  -6   1  131.59   13.80
  10  -6   1  265.27   23.20
  10  -6   1  213.38   17.70
  11  -6   1   91.69   15.70
  11  -6   1   66.59   11.30
  12  -6   1   28.50   10.70
  13   5  -1   20.40    7.80
  12   5  -1   71.09   11.50
  12   5  -1   61.69   10.10
  11   5  -1  195.68   16.00
  11   5  -1  192.58   14.50
  10   5  -1   52.09    8.30
  10   5  -1   43.40    8.00
   9   5  -1   29.60    6.70
   9   5  -1   18.40    6.00
   8   5  -1    0.20    3.70
   8   5  -1    9.20    4.70
   7   5  -1   11.60    4.50
   7   5  -1    5.00    4.10
   6   5  -1  252.57   12.50
   6   5  -1  249.97   12.50
   5   5  -1   31.90    5.40
   5   5  -1   23.50    5.40
   4   5  -1  220.88   10.90
   4   5  -1  210.68   10.70
   3   5  -1  108.49    7.10
   3   5  -1  126.69    8.20
   2   5  -1  870.21   24.20
   2   5  -1  884.11   25.60
  -2  -5   1  890.51   22.40
   1   5  -1   72.29    5.20
   1   5  -1   70.99    6.90
  -1  -5   1   75.99    4.60
   0   5  -1   12.80    4.10
   0  -5   1   26.70    3.30
  -1   5  -1   41.20    6.10
   1  -5   1   51.49    5.00
  -2   5  -1  518.95   19.00
  -3   5  -1  435.36   17.40
   4  -5   1 3435.36   81.19
   5  -5   1   55.09    7.70
   6  -5   1   43.10    7.10
   7  -5   1 1494.05   42.80
   8  -5   1 1179.78   40.40
   8  -5   1 1122.89   36.10
   9  -5   1   13.30    5.90
   9  -5   1    6.70    6.70
  10  -5   1   -2.80    6.00
  10  -5   1    5.80    5.60
  11  -5   1  140.59   14.50
  11  -5   1  153.48   18.70
  12  -5   1    9.00    8.20
  14   4  -1    4.00    7.80
  13   4  -1  157.88   15.40
  13   4  -1  140.79   16.00
  12   4  -1   -4.90    4.60
  12   4  -1    6.00    5.70
  11   4  -1  321.77   17.20
  11   4  -1  278.87   17.30
  10   4  -1  290.77   15.40
  10   4  -1  251.87   15.40
   9   4  -1 1234.28   36.80
   9   4  -1 1257.37   38.50
   8   4  -1   11.80    4.50
   8   4  -1   10.00    4.70
   7   4  -1   48.30    6.90
   7   4  -1   39.30    6.40
   6   4  -1 2773.82   64.89
   6   4  -1 2714.93   66.79
   5   4  -1 2391.26   57.79
   5   4  -1 2316.27   55.89
   4   4  -1   17.90    4.20
   4   4  -1   13.10    3.90
   3   4  -1  145.69    7.90
   3   4  -1  143.09    8.20
   2   4  -1   49.00    5.10
   2   4  -1   44.60    5.30
  -2  -4   1   54.39    4.20
   1   4  -1   22.80    3.50
   1   4  -1   20.00    3.90
  -1  -4   1   27.20    2.80
   0   4  -1  145.49    6.90
   0   4  -1  140.89    8.20
   0  -4   1  155.08    6.00
  -1   4  -1  503.15   17.30
  -2   4  -1  600.34   19.70
  -3   4  -1   57.59    6.60
   4  -4   1  228.78   11.70
   5  -4   1   22.90    5.20
   6  -4   1  187.48   11.20
   7  -4   1   36.00    7.10
   8  -4   1  288.97   15.20
   8  -4   1  296.87   17.80
   9  -4   1   36.70    8.80
   9  -4   1   41.80    7.80
  10  -4   1   35.70    7.80
  10  -4   1   34.40    9.20
  11  -4   1   22.80    8.70
  11  -4   1   25.40    8.00
  12  -4   1    6.40    8.20
  12  -4   1    9.20    7.40
  13  -4   1   40.40   12.00
  14   3  -1   28.60    9.50
  13   3  -1   23.80    7.90
  13   3  -1   35.40    9.60
  12   3  -1  146.09   15.70
  12   3  -1  123.39   12.90
  11   3  -1   79.69   10.00
  11   3  -1   87.79   11.90
  10   3  -1  104.79   11.90
  10   3  -1   82.89    9.90
   9   3  -1  459.55   18.50
   9   3  -1  414.76   19.20
   8   3  -1  144.69   10.70
   8   3  -1  131.79   10.80
   7   3  -1   31.30    5.70
   7   3  -1   37.10    5.80
   6   3  -1  976.20   27.50
   6   3  -1  962.00   28.30
   5   3  -1 3502.15   81.79
   5   3  -1 3501.75   78.39
   4   3  -1  693.83   20.00
   4   3  -1  699.13   20.50
   3   3  -1  303.27   11.20
   3   3  -1  328.67   11.70
   2   3  -1  545.75   15.70
   2   3  -1  507.35   16.00
   1   3  -1  576.94   16.70
   1   3  -1  583.24   16.30
  -1  -3   1  572.04   14.20
   0   3  -1  388.96   12.90
   0   3  -1  364.66   11.60
   0  -3   1  384.06   10.10
  -1   3  -1  167.38    8.60
  -2   3  -1  333.57   12.30
   3  -3   1  206.78    9.90
   4  -3   1  162.08    9.20
   5  -3   1  185.28    9.90
   6  -3   1   -0.10    3.20
   7  -3   1  578.04   20.70
   8  -3   1   -0.50    4.20
   8  -3   1    4.00    3.80
   9  -3   1   10.90    5.10
   9  -3   1    2.10    4.90
  10  -3   1  177.78   17.30
  10  -3   1  162.58   14.10
  11  -3   1  110.79   12.40
  11  -3   1  123.99   15.50
  12  -3   1   97.79   12.40
  12  -3   1   55.89   13.00
  13  -3   1  177.08   21.00
  14   2  -1    8.30    8.10
  13   2  -1   90.79   14.40
  12   2  -1  110.99   13.90
  12   2  -1  131.79   13.10
  11   2  -1  126.79   12.10
  11   2  -1   94.59   12.20
  10   2  -1  456.55   19.20
  10   2  -1  427.46   20.80
   9   2  -1   64.59    8.00
   9   2  -1   59.79    9.10
   8   2  -1   42.60    6.40
   8   2  -1   48.40    7.40
   7   2  -1 1182.18   34.60
   7   2  -1 1158.18   31.90
   6   2  -1   56.09    6.80
   6   2  -1   55.59    6.00
   5   2  -1  222.08    9.70
   5   2  -1  241.88   10.70
   4   2  -1  786.52   22.60
   4   2  -1  842.12   21.90
   3   2  -1    5.40    2.50
   3   2  -1    3.00    2.00
   2   2  -1    5.60    2.60
   2   2  -1    1.10    1.90
   1   2  -1   58.19    4.30
   1   2  -1   57.39    4.10
   0   2  -1 1225.18   28.60
   0   2  -1 1196.98   28.80
   0  -2   1 1202.78   26.20
  -1   2  -1   69.39    5.40
  -2   2  -1   63.29    5.40
   2  -2   1   63.49    5.60
   3  -2   1  239.28    9.80
   4  -2   1  158.58    8.10
   5  -2   1  929.31   26.20
   6  -2   1 1100.59   30.40
   7  -2   1   31.10    5.40
   7  -2   1   38.20    7.10
   8  -2   1   16.40    4.90
   8  -2   1   17.90    5.70
   9  -2   1  712.03   25.10
   9  -2   1  682.13   27.90
  10  -2   1  384.66   20.90
  10  -2   1  372.86   18.10
  11  -2   1   60.49    9.60
  11  -2   1   89.09   13.10
  12  -2   1   23.50    7.60
  12  -2   1   19.90    8.80
  13  -2   1   67.89   13.90
  13  -2   1   60.89   10.80
  14  -2   1    6.70    7.60
  14   1  -1   36.90   11.60
  13   1  -1    5.60    7.10
  12   1  -1   14.10    6.40
  12   1  -1   -2.80    5.60
  11   1  -1    3.50    5.60
  11   1  -1    0.30    4.60
  10   1  -1   17.60    6.60
  10   1  -1   13.10    5.10
   9   1  -1  274.17   13.60
   9   1  -1  294.67   16.10
   8   1  -1    6.90    4.80
   8   1  -1    3.10    3.50
   7   1  -1   50.29    6.20
   7   1  -1   48.20    7.00
   6   1  -1   27.10    5.10
   6   1  -1   27.80    4.50
   5   1  -1  564.44   16.90
   5   1  -1  554.54   18.60
   4   1  -1  353.06   12.90
   4   1  -1  358.26   11.60
   3   1  -1 1398.36   32.50
   3   1  -1 1445.76   35.00
   2   1  -1 1987.20   43.50
   2   1  -1 2024.30   46.30
   1   1  -1 1052.39   23.80
   1   1  -1 1069.39   25.70
   0   1  -1  280.47    8.10
   0   1  -1  269.47    8.10
  -1   1  -1  176.78    6.30
   2  -1   1  473.35   13.40
   3  -1   1  741.33   19.70
   4  -1   1   24.60    3.80
   5  -1   1  162.98    8.30
   6  -1   1 2398.56   56.39
   7  -1   1   16.60    4.40
   7  -1   1   15.50    5.10
   8  -1   1   29.60    6.40
   8  -1   1   31.20    5.70
   9  -1   1 1911.11   54.49
   9  -1   1 1852.91   49.50
  10  -1   1  870.31   29.50
  10  -1   1  945.91   34.10
  11  -1   1   17.50    6.20
  11  -1   1   19.90    7.30
  12  -1   1   28.50    9.00
  12  -1   1   23.60    7.40
  13  -1   1  252.67   17.40
  13  -1   1  295.67   20.90
  14  -1   1   69.29   13.90
  14   0  -1   10.50    9.40
  13   0  -1   -2.90    6.70
  12   0  -1   -2.80    5.70
  11   0  -1  110.49   14.00
  11   0  -1  118.69   11.30
  10   0  -1   51.59    7.80
  10   0  -1   49.50    9.50
   9   0  -1  100.39   11.60
   9   0  -1  103.99    9.50
   8   0  -1  724.23   26.80
   8   0  -1  793.92   23.80
   7   0  -1 2318.87   54.39
   7   0  -1 2276.67   59.89
   6   0  -1  150.48    9.60
   6   0  -1  156.08    7.90
   5   0  -1  629.14   20.60
   5   0  -1  638.44   18.00
   4   0  -1 7835.62  162.68
   4   0  -1 7807.12  173.18
   3   0  -1 8800.12  185.38
   3   0  -1 9211.88  197.08
   2   0  -1   15.70    2.70
   2   0  -1   12.40    1.80
   1   0  -1  877.31   18.60
   1   0  -1  865.21   20.80
  -1   0   1  859.01   18.70
   0   0  -1 2268.57   50.49
   0   0   1 2277.07   47.20
   1   0   1  740.13   16.90
   2   0   1   49.60    3.40
   3   0   1 1114.79   26.60
   4   0   1  163.48    7.50
   5   0   1  118.39    7.10
   6   0   1  125.99    8.30
   6   0   1  145.29    8.20
   7   0   1  119.59   10.30
   7   0   1  100.19    8.60
   8   0   1   28.30    6.00
   8   0   1   18.50    4.90
   9   0   1   16.40    5.00
   9   0   1   10.40    5.00
  10   0   1   36.60    7.10
  10   0   1   47.40    8.60
  11   0   1    0.80    4.90
  11   0   1   -1.40    5.30
  12   0   1   80.09   12.20
  12   0   1   75.99   10.80
  13   0   1   10.90    6.80
  13   0   1    6.40    7.10
  14   0   1    1.00    7.30
  14   0   1   10.30    8.20
  14  -1  -1    3.90    8.30
  13  -1  -1   31.60   10.50
  12  -1  -1    5.00    6.90
  11  -1  -1   59.39    8.70
  11  -1  -1   72.39   12.10
  10  -1  -1  284.37   17.60
  10  -1  -1  234.68   13.30
   9  -1  -1  270.67   13.30
   9  -1  -1  275.27   16.30
   8  -1  -1    1.90    3.50
   8  -1  -1    6.20    4.30
   7  -1  -1    3.20    3.80
   7  -1  -1    4.70    3.20
   6  -1  -1   79.29    6.50
   6  -1  -1   67.39    7.80
   5  -1  -1   26.60    4.90
   5  -1  -1   37.80    4.40
   4  -1  -1  656.03   20.50
   4  -1  -1  686.33   17.70
   3  -1  -1 2019.30   49.00
   3  -1  -1 2075.29   44.70
   2  -1  -1    4.20    1.40
   2  -1  -1    2.00    2.20
   1  -1  -1  263.07    6.30
   1  -1  -1  255.17    6.20
   1  -1  -1  257.87    7.90
   0  -1  -1 2036.60   44.20
   0   1   1 1996.20   41.50
  -1  -1  -1 2296.97   49.80
   1   1   1 2323.47   48.60
   2   1   1  927.81   21.70
   3   1   1 1521.95   34.80
   4   1   1  795.22   20.90
   4   1   1  765.12   21.20
   5   1   1    8.60    2.90
   5   1   1   13.30    3.30
   6   1   1 1012.60   27.40
   6   1   1  983.30   28.50
   7   1   1  793.72   25.30
   7   1   1  799.82   24.10
   8   1   1    2.30    3.70
   8   1   1   11.30    4.40
   9   1   1  239.58   13.90
   9   1   1  231.88   13.00
  10   1   1   57.49    8.40
  10   1   1   60.09    9.20
  11   1   1  100.39   12.50
  11   1   1  102.19   11.40
  12   1   1   78.99   10.70
  12   1   1   80.99   12.10
  13   1   1  102.79   14.40
  13   1   1  124.59   13.90
  14   1   1   13.00    7.40
  14   1   1   18.20    8.50
  13  -2  -1  208.08   22.40
  12  -2  -1   84.09   14.20
  11  -2  -1  230.98   15.60
  11  -2  -1  227.08   20.30
  10  -2  -1  204.48   15.60
  10  -2  -1  225.08   12.90
   9  -2  -1   12.40    5.80
   9  -2  -1    3.80    4.30
   8  -2  -1  361.06   15.00
   8  -2  -1  367.36   18.20
   7  -2  -1  367.66   14.20
   7  -2  -1  384.16   17.40
   6  -2  -1  124.19    7.50
   6  -2  -1  121.69    9.00
   5  -2  -1 1683.33   44.70
   5  -2  -1 1685.43   39.70
   4  -2  -1  112.39    5.90
   4  -2  -1  117.19    7.60
   3  -2  -1  247.08    8.40
   3  -2  -1  247.18   10.30
   2  -2  -1   19.60    3.30
   2  -2  -1   20.40    2.60
   1  -2  -1 1532.65   35.60
  -1   2   1 1522.75   33.50
   0  -2  -1  231.28    6.60
   0  -2  -1  231.58    7.90
   0   2   1  236.48    6.80
  -1  -2  -1  223.78    7.10
   1   2   1  210.78    6.70
  -2  -2  -1 1942.31   44.20
   2   2   1 1915.01   43.40
   2   2   1 2063.29   43.40
   3   2   1  170.88    7.20
   3   2   1  177.98    6.20
   4   2   1   38.00    3.80
   4   2   1   32.30    4.10
   5   2   1 1036.60   27.40
   5   2   1 1027.70   27.20
   6   2   1   80.09    6.90
   6   2   1   68.29    6.80
   7   2   1  912.91   27.00
   7   2   1  928.91   27.70
   8   2   1  188.58   11.30
   8   2   1  211.98   11.50
   9   2   1   14.60    4.90
   9   2   1   17.10    5.10
  10   2   1   60.59    9.00
  10   2   1   46.30    7.60
  11   2   1 1006.30   32.90
  11   2   1  961.70   34.70
  12   2   1  400.46   20.30
  12   2   1  427.46   22.10
  13   2   1   48.60   10.80
  13   2   1   68.39   11.20
  14   2   1    2.90    7.10
  14   2   1   12.70    7.70
  13  -3  -1   41.70   11.90
  12  -3  -1   31.00   10.30
  11  -3  -1   21.90    8.30
  10  -3  -1    8.40    6.20
  10  -3  -1    1.40    4.40
   9  -3  -1    1.70    4.10
   9  -3  -1    3.30    5.20
   8  -3  -1   -1.90    3.20
   8  -3  -1   -3.60    4.00
   7  -3  -1    4.30    3.10
   7  -3  -1    9.50    4.90
   6  -3  -1  177.08    9.20
   6  -3  -1  186.68   11.70
   5  -3  -1  596.24   17.80
   5  -3  -1  566.24   20.80
   4  -3  -1   54.09    5.10
   4  -3  -1   45.60    5.90
   3  -3  -1  287.07   10.10
   3  -3  -1  283.17   11.60
  -2   3   1 2973.60   64.69
  -1   3   1 4233.08   90.09
   0  -3  -1 1541.05   36.50
   0   3   1 1548.15   35.00
  -1  -3  -1   96.79    5.10
   1   3   1   94.59    5.10
  -2  -3  -1 3013.70   66.69
   2   3   1 3045.80   65.69
  -3  -3  -1   68.99    5.10
   3   3   1   82.29    3.70
   3   3   1   75.09    5.40
   4   3   1  525.05   16.10
   4   3   1  506.75   14.40
   5   3   1   77.99    5.40
   5   3   1   73.29    6.80
   6   3   1   66.39    6.90
   6   3   1   75.19    6.70
   7   3   1    6.60    3.20
   7   3   1    7.50    3.40
   8   3   1  106.09    9.90
   8   3   1  110.49    9.80
   9   3   1   12.40    5.10
   9   3   1    2.00    4.00
  10   3   1   47.40    8.10
  10   3   1   65.79    9.20
  11   3   1  606.54   24.90
  11   3   1  581.04   23.90
  12   3   1  209.68   17.00
  12   3   1  201.98   14.90
  13   3   1   76.99   11.90
  13   3   1   87.89   12.80
  14   3   1   44.20   10.80
  14   3   1   29.00    8.60
  13  -4  -1   66.19   14.60
  12  -4  -1   22.40    9.00
  11  -4  -1   44.50   10.80
  10  -4  -1    0.60    5.30
  10  -4  -1   -5.60    5.00
   9  -4  -1    2.00    4.60
   9  -4  -1   -5.30    5.00
   8  -4  -1   -2.10    3.50
   8  -4  -1   -3.20    4.10
   7  -4  -1    6.30    3.70
   7  -4  -1    3.80    4.60
   6  -4  -1  376.16   14.70
   6  -4  -1  375.56   17.90
   5  -4  -1  625.24   19.70
   5  -4  -1  665.13   23.30
   4  -4  -1   98.99    9.00
   4  -4  -1  103.69    6.90
   3  -4  -1   17.00    3.60
  -2   4   1 2626.04   59.49
  -1   4   1 1518.55   36.70
   0  -4  -1    6.90    3.10
   0   4   1    9.50    2.90
  -1  -4  -1  829.32   21.60
   1   4   1  817.42   21.60
  -2  -4  -1 2837.82   62.69
   2   4   1 2813.72   60.99
   2   4   1 2719.43   61.89
  -3  -4  -1  255.27    9.70
   3   4   1  247.48    8.20
   3   4   1  257.07   10.00
   4   4   1  215.88    7.60
   4   4   1  198.58    9.50
   5   4   1  321.87   12.90
   5   4   1  347.87   11.30
   6   4   1  356.86   12.90
   6   4   1  367.56   14.60
   7   4   1    5.80    3.40
   7   4   1    5.20    3.60
   8   4   1   82.19    9.10
   8   4   1   90.39    8.60
   9   4   1   21.90    5.40
   9   4   1   29.90    6.30
  10   4   1    5.50    4.50
  10   4   1    4.80    4.50
  11   4   1    3.40    5.20
  11   4   1    6.70    5.30
  12   4   1   -5.60    4.40
  12   4   1    2.10    5.90
  13   4   1    3.10    5.70
  13   4   1   -1.20    5.60
  14   4   1    8.20    7.40
  14   4   1    2.70    7.40
  12  -5  -1   41.90   11.40
  11  -5  -1  180.98   20.20
  10  -5  -1   22.00    8.40
   9  -5  -1  145.99   15.90
   9  -5  -1  141.19   11.90
   8  -5  -1  201.08   17.60
   8  -5  -1  192.48   11.90
   7  -5  -1    7.40    4.20
   7  -5  -1   16.90    6.60
   6  -5  -1   19.10    6.10
   6  -5  -1   11.80    4.40
   5  -5  -1  342.47   16.40
   5  -5  -1  368.46   14.70
   4  -5  -1  707.43   22.00
   4  -5  -1  669.13   23.60
  -3   5   1   70.09    7.00
  -2   5   1   83.89    7.30
  -1   5   1    9.50    3.50
   0  -5  -1  316.87   12.10
   0   5   1  334.67   12.50
  -1  -5  -1  410.06   13.50
   1   5   1  401.76   14.00
  -2  -5  -1  153.88    7.50
   2   5   1  179.28    8.70
  -3  -5  -1  502.65   16.00
   3   5   1  529.75   13.60
   3   5   1  528.25   17.00
  -4  -5  -1 1559.74   38.00
   4   5   1 1446.56   36.40
   4   5   1 1561.94   38.60
   5   5   1  765.62   23.20
   5   5   1  742.33   20.50
   6   5   1  166.58    8.00
   6   5   1  143.09    9.50
   7   5   1  141.99   10.10
   7   5   1  152.68    8.50
   8   5   1  317.67   15.50
   8   5   1  328.87   13.70
   9   5   1  211.08   12.20
   9   5   1  237.78   13.90
  10   5   1   44.60    7.60
  10   5   1   45.10    8.10
  11   5   1   93.09   11.60
  11   5   1   76.89   10.10
  12   5   1   70.89   10.60
  12   5   1   46.00    9.10
  13   5   1  263.77   17.80
  14   5   1    4.30    6.50
  12  -6  -1    4.40    8.40
  11  -6  -1  308.57   27.00
  10  -6  -1  136.29   17.40
   9  -6  -1  170.78   17.90
   9  -6  -1  162.58   14.60
   8  -6  -1   81.59   12.10
   8  -6  -1   69.59    9.00
   7  -6  -1   82.29    9.20
   7  -6  -1   91.99   12.20
   6  -6  -1  128.29   12.70
   6  -6  -1  145.79   10.30
   5  -6  -1  810.92   25.90
   5  -6  -1  793.22   28.40
   4  -6  -1   15.20    4.80
  -3   6   1  158.28    9.70
  -2   6   1  448.96   17.20
   1  -6  -1  110.09    9.00
  -1   6   1   97.59    8.60
   0  -6  -1    6.90    3.30
   0   6   1    5.90    3.20
  -1  -6  -1  497.25   16.40
   1   6   1  517.05   17.50
  -2  -6  -1  157.38    8.20
   2   6   1  156.88    9.00
  -3  -6  -1   29.40    4.40
   3   6   1   25.70    4.50
   3   6   1   26.20    2.80
  -4  -6  -1  130.39    8.30
   4   6   1  137.09    8.80
   4   6   1  149.09    6.20
   5   6   1  121.69    6.90
   5   6   1  147.89    9.40
   6   6   1  562.04   17.90
   6   6   1  572.14   20.50
   7   6   1  349.96   16.10
   7   6   1  362.56   13.80
   8   6   1    2.10    4.00
   8   6   1    3.70    3.70
   9   6   1   75.89    9.80
   9   6   1   76.09    8.30
  10   6   1    0.80    4.60
  11   6   1    2.60    5.20
  12   6   1  120.09   13.50
  13   6   1  396.76   22.40
  14   6   1   52.59   11.10
  11  -7  -1   17.00    9.70
  10  -7  -1   33.10   10.70
   9  -7  -1   45.40   10.90
   8  -7  -1   -2.50    5.60
   8  -7  -1   -6.30    4.70
   7  -7  -1   24.20    8.10
   7  -7  -1   19.90    6.00
   6  -7  -1   11.30    6.00
   6  -7  -1   15.20    5.50
   5  -7  -1   52.99    8.00
   5  -7  -1   61.59    9.20
   4  -7  -1   63.09    8.20
  -3   7   1  178.08   11.30
  -2   7   1  164.88   10.80
   1  -7  -1  352.06   15.00
  -1   7   1  355.26   16.10
   0  -7  -1 3509.55   82.49
   0   7   1 3630.34   83.19
  -1  -7  -1 1228.78   32.70
   1   7   1 1211.18   34.00
  -2  -7  -1   58.09    6.30
   2   7   1   50.89    6.90
  -3  -7  -1  360.16   13.80
   3   7   1  380.46   15.60
  -4  -7  -1 3092.29   72.59
   4   7   1 3090.89   73.59
   4   7   1 3161.08   70.09
   5   7   1   11.10    4.70
   5   7   1   15.10    3.10
   6   7   1  783.42   23.50
   6   7   1  911.51   27.90
   7   7   1   85.19    9.40
   8   7   1   73.99    9.70
   9   7   1   18.90    6.40
  10   7   1   12.30    5.80
  11   7   1   -2.40    5.20
  12   7   1   -6.40    4.60
  13   7   1  156.28   16.80
  14   7   1    4.90    7.20
  10  -8  -1   52.09   13.00
   9  -8  -1   99.89   15.20
   8  -8  -1   32.40    9.60
   7  -8  -1  137.49   15.50
   7  -8  -1   98.39   11.30
   6  -8  -1    5.90    5.30
   6  -8  -1   -0.10    5.40
   5  -8  -1    3.40    4.70
   5  -8  -1    5.50    5.20
   4  -8  -1   25.60    6.60
  -4   8   1   31.10    6.60
  -3   8   1   46.00    7.80
   2  -8  -1  165.28   11.60
  -2   8   1  153.58   12.80
   1  -8  -1   71.29    8.20
  -1   8   1   94.09   10.30
   0  -8  -1 2129.09   53.69
   0   8   1 2142.89   55.69
  -1  -8  -1  513.55   18.30
   1   8   1  535.05   20.50
  -2  -8  -1    5.40    3.70
   2   8   1   13.50    4.40
  -3  -8  -1  648.84   21.00
   3   8   1  630.94   22.90
  -4  -8  -1 1032.20   29.60
   4   8   1 1011.70   31.60
  -5  -8  -1   16.90    5.30
   5   8   1   19.60    5.30
   6   8   1   17.50    5.30
   7   8   1    8.00    5.30
   8   8   1   60.69    8.70
   9   8   1    0.10    4.80
  10   8   1   55.29    9.80
  11   8   1    5.60    6.00
  12   8   1   34.00    9.20
  13   8   1   27.50    9.50
   9  -9  -1  288.77   25.70
   8  -9  -1   21.00    9.50
   7  -9  -1  120.69   13.00
   7  -9  -1  131.79   15.70
   6  -9  -1   -0.70    5.70
   6  -9  -1    1.80    5.50
   5  -9  -1   68.79   10.40
   5  -9  -1   68.89   10.80
   4  -9  -1  153.98   14.40
  -4   9   1  133.29   13.10
   3  -9  -1  545.25   22.90
  -3   9   1  498.65   22.40
   2  -9  -1  327.97   16.40
  -2   9   1  299.87   16.90
   1  -9  -1   22.00    6.10
  -1   9   1   30.90    7.40
   0  -9  -1   92.19    9.10
   0   9   1   99.19   11.30
  -1  -9  -1  172.88   10.50
   1   9   1  156.38   13.40
  -2  -9  -1    4.40    4.10
   2   9   1   15.80    5.50
  -3  -9  -1  352.76   15.10
   3   9   1  363.76   17.40
  -4  -9  -1  129.09   10.60
   4   9   1  134.89   12.60
  -5  -9  -1    4.30    4.90
   5   9   1    4.90    4.70
   6   9   1  728.33   27.20
   7   9   1  247.38   15.40
   8   9   1   -2.90    4.70
   9   9   1   32.60    8.30
  10   9   1   77.89   11.70
  11   9   1  104.19   13.70
  12   9   1   29.30    9.10
  13   9   1   53.69   11.90
   8 -10  -1   53.89   12.60
   7 -10  -1  142.69   17.30
   6 -10  -1   13.60    7.30
   6 -10  -1   16.50    8.30
   5 -10  -1  110.69   13.40
   5 -10  -1  109.29   13.40
   4 -10  -1   -0.70    5.50
   4 -10  -1    4.80    6.60
  -4  10   1    6.80    6.20
   3 -10  -1  136.89   13.70
  -3  10   1  117.89   13.50
   2 -10  -1   13.50    6.30
  -2  10   1   14.50    6.20
   1 -10  -1    0.80    5.30
  -1  10   1   15.90    6.70
   0 -10  -1   22.20    6.10
   0  10   1   16.70    6.40
  -1 -10  -1   40.10    6.80
   1  10   1   30.20    7.70
  -2 -10  -1  457.85   18.40
   2  10   1  433.66   20.70
  -3 -10  -1    4.60    4.80
   3  10   1    6.80    5.00
  -4 -10  -1   49.80    7.80
   4  10   1   61.49    9.20
  -5 -10  -1   41.00    7.70
   5  10   1   23.40    6.90
   6  10   1    5.30    4.90
   7  10   1  190.68   16.30
   8  10   1  223.88   18.90
   9  10   1   25.40    8.20
  10  10   1   17.20    7.60
  11  10   1   -7.00    5.80
  12  10   1    8.50    8.20
   7 -11  -1   -2.00    7.30
   6 -11  -1   35.40   10.70
   6 -11  -1   27.60    9.70
   5 -11  -1   12.80    7.40
   5 -11  -1   10.50    8.30
   5 -11  -1   20.00    8.40
   4 -11  -1    4.80    6.90
   4 -11  -1   -5.10    6.10
   4 -11  -1   10.50    7.50
  -4  11   1    3.90    6.50
   3 -11  -1   11.60    6.60
  -3  11   1   15.30    8.20
   2 -11  -1    8.70    6.40
  -2  11   1   10.40    7.40
   1 -11  -1   71.09    9.80
  -1  11   1   73.29   11.60
   0 -11  -1   33.50    7.50
   0  11   1   54.89   10.30
  -1 -11  -1  237.28   14.00
   1  11   1  245.98   17.00
  -2 -11  -1  753.72   26.20
   2  11   1  778.32   30.40
  -3 -11  -1  320.77   16.40
   3  11   1  337.67   19.00
  -4 -11  -1   12.40    6.80
   4  11   1    9.90    5.50
  -5 -11  -1  421.66   19.00
   5  11   1  410.96   21.30
   6  11   1  672.83   28.50
   7  11   1    9.30    5.90
   8  11   1  237.68   19.90
   9  11   1  139.39   15.60
  10  11   1   86.99   13.50
  11  11   1   73.49   13.60
   6 -12  -1   36.70   10.40
   5 -12  -1   61.59   12.30
   5 -12  -1   78.69   13.80
   4 -12  -1    8.40    8.40
   4 -12  -1   25.20    9.80
  -3  12   1   -0.10    7.10
  -2  12   1  150.98   16.90
  -1  12   1   51.49   10.80
   0  12   1   -1.50    6.20
   1  12   1    1.70    6.20
   2  12   1  192.18   18.30
   3  12   1   11.20    6.50
   4  12   1    7.60    6.20
   5  12   1   66.69   11.20
   6  12   1  286.97   19.20
   7  12   1   49.30   10.40
   8  12   1  136.39   16.30
   9  12   1   13.60    7.50
  10  12   1    3.50    8.30
   4 -13  -1   10.60    9.10
  -3  13   1   23.70   10.00
  -2  13   1   26.10    9.20
  -1  13   1  266.27   23.00
   0  13   1   -0.40    6.90
   1  13   1   25.40    8.90
   2  13   1   46.70   11.10
   3  13   1   28.10    9.10
   4  13   1   -0.40    6.00
   5  13   1   36.90   10.20
   6  13   1   55.89   10.70
   7  13   1    6.20    7.50
   8  13   1   39.30   10.60
   9  13   1  129.29   17.30
  -2  14   1    4.70    8.40
  -1  14   1   27.60   11.10
   0  14   1   37.70   11.30
   1  14   1    6.30    8.70
   2  14   1   -7.90    6.40
   3  14   1  147.19   18.30
   4  14   1  118.89   16.30
   5  14   1   -0.70    7.00
   6  14   1   -0.60    6.90
   7  14   1   74.89   13.10
   5  13  -2   10.10    9.10
   4  13  -2   54.69   13.10
   3  13  -2   74.59   13.90
   2  13  -2   -7.30    7.40
   1  13  -2   10.40    8.80
   0  13  -2   14.60    9.60
  -1  13  -2   -7.50    7.80
  -2  13  -2  -12.00    7.50
   8  12  -2   12.30    8.50
   7  12  -2   83.69   14.70
   6  12  -2    3.70    7.50
   5  12  -2   14.10    8.60
   4  12  -2  133.29   17.10
   3  12  -2  883.01   37.00
   2  12  -2  185.78   19.90
   1  12  -2    1.90    7.00
   0  12  -2  388.16   24.30
  -1  12  -2  243.28   22.50
  -2  12  -2   -1.80    7.10
  -3  12  -2   20.80   10.20
   4 -12   2   13.80    9.20
   9  11  -2   33.30   10.40
   8  11  -2   41.60   10.80
   7  11  -2   14.40    8.10
   6  11  -2   14.10    7.80
   5  11  -2  174.48   17.90
   4  11  -2   15.80    8.10
   3  11  -2  133.39   15.90
   2  11  -2    5.10    6.60
   1  11  -2    3.40    6.60
   0  11  -2   83.79   13.00
  -1  11  -2   40.80   10.20
  -2  11  -2   34.20    9.60
  -3  11  -2    5.60    7.80
   4 -11   2   15.30    8.60
   5 -11   2   53.59   12.00
   6 -11   2   14.80    9.70
  10  10  -2    7.30    8.30
   9  10  -2    4.90    7.30
   8  10  -2    8.60    6.90
   7  10  -2  181.28   17.60
   6  10  -2   20.20    7.30
   5  10  -2   12.60    6.70
   4  10  -2  279.67   18.10
   3  10  -2  172.78   16.50
   2  10  -2   12.10    6.20
   1  10  -2    2.20    5.80
   0  10  -2  182.88   17.20
  -1  10  -2   66.59   11.30
  -2  10  -2   36.30    9.20
  -3  10  -2  158.58   16.80
  -4  10  -2   42.00   10.80
   4 -10   2   66.89   12.30
   5 -10   2  146.49   17.40
   6 -10   2  269.87   23.30
   7 -10   2    2.80    8.00
   8 -10   2   47.60   12.10
  11   9  -2    8.70    8.50
  10   9  -2    1.50    6.80
   9   9  -2  107.89   13.80
   8   9  -2   64.59   10.60
   7   9  -2  230.18   16.20
   6   9  -2  159.08   15.50
   5   9  -2  258.17   16.10
   4   9  -2  263.57   16.50
   3   9  -2   10.70    4.80
   3   9  -2    3.20    5.20
   2   9  -2  854.51   31.60
   1   9  -2  394.46   20.70
   0   9  -2    0.00    4.50
  -1   9  -2    5.40    5.30
  -2   9  -2  397.26   21.70
  -3   9  -2  111.29   13.10
  -4   9  -2   10.50    6.80
   4  -9   2   13.00    6.90
   5  -9   2   29.30    9.00
   6  -9   2   27.80    9.60
   7  -9   2    1.70    7.00
   8  -9   2    4.80    7.10
   9  -9   2    3.70    8.40
   9  -9   2    0.00    8.20
  12   8  -2   19.60    9.60
  11   8  -2   10.80    8.10
  10   8  -2  109.69   13.80
   9   8  -2   15.00    6.80
   8   8  -2  147.99   14.70
   7   8  -2   12.10    6.00
   6   8  -2   53.19    8.80
   5   8  -2  109.19   11.90
   5   8  -2  103.19   10.30
   4   8  -2    5.50    4.00
   4   8  -2   -2.80    3.10
   3   8  -2   18.60    6.10
   3   8  -2   22.70    5.40
   2   8  -2  418.66   19.70
   2   8  -2  425.66   17.10
   1   8  -2 1603.04   46.90
   0   8  -2  134.59   13.30
  -1   8  -2   17.20    6.30
  -2   8  -2  912.91   33.00
  -3   8  -2  808.42   30.80
  -4   8  -2   -7.10    4.30
   4  -8   2   13.40    6.40
   5  -8   2  101.69   13.00
   6  -8   2  143.89   15.40
   7  -8   2    2.70    6.30
   8  -8   2    1.90    6.50
   9  -8   2   49.20   11.30
  10  -8   2   29.10   10.30
  10  -8   2   21.50    9.80
  12   7  -2    4.20    7.20
  11   7  -2  461.85   23.10
  10   7  -2  264.77   17.50
   9   7  -2   34.60    8.10
   8   7  -2   -1.00    4.50
   8   7  -2    0.80    5.70
   7   7  -2    0.30    4.80
   7   7  -2    3.20    4.80
   6   7  -2   51.69    7.90
   6   7  -2   48.00    8.00
   5   7  -2   77.49    9.70
   5   7  -2   88.99    9.50
   4   7  -2  101.29   10.60
   4   7  -2   97.79    9.50
   3   7  -2  773.42   24.90
   3   7  -2  778.52   26.50
   2   7  -2  181.48   10.40
   2   7  -2  206.98   12.70
   1   7  -2   92.99    8.50
   1   7  -2   82.99    9.80
  -1  -7   2   93.59    5.90
   0   7  -2   53.89    8.10
   0  -7   2   70.89    5.10
  -1   7  -2  345.77   17.70
   1  -7   2  359.96   12.20
  -2   7  -2   -2.70    4.00
   2  -7   2    0.30    3.10
  -3   7  -2   -3.20    4.30
   4  -7   2   55.49    9.40
   5  -7   2   -4.60    4.70
   6  -7   2    3.40    5.60
   7  -7   2  151.98   15.20
   8  -7   2   64.09   10.70
   9  -7   2    8.90    7.90
  10  -7   2   -0.50    7.30
  10  -7   2    6.10    7.90
  11  -7   2   84.99   13.90
  11  -7   2   95.39   16.00
  13   6  -2   15.00    8.90
  12   6  -2   10.30    7.20
  11   6  -2  118.79   13.30
  10   6  -2   51.99    9.60
  10   6  -2   62.29    9.80
   9   6  -2   37.80    7.80
   9   6  -2   25.40    7.20
   8   6  -2    5.70    5.80
   8   6  -2    2.50    4.40
   7   6  -2   62.79    8.70
   7   6  -2   62.29    9.20
   6   6  -2    8.20    4.90
   6   6  -2    3.50    4.10
   5   6  -2  266.57   13.90
   5   6  -2  267.17   13.80
   4   6  -2    2.30    3.80
   4   6  -2    0.30    3.10
   3   6  -2   32.30    5.50
   3   6  -2   30.50    5.50
   2   6  -2  608.94   20.40
   2   6  -2  628.44   21.80
   1   6  -2  169.88   11.00
   1   6  -2  179.58    9.80
  -1  -6   2  167.88    6.90
   0   6  -2  968.70   30.10
   0  -6   2  925.61   23.30
  -1   6  -2  162.08   11.20
   1  -6   2  175.48    7.70
  -2   6  -2 1362.76   39.80
   2  -6   2 1360.06   34.50
  -3   6  -2    5.80    4.40
   4  -6   2  219.58   14.10
   5  -6   2  145.29   13.50
   6  -6   2  195.68   16.10
   7  -6   2  135.29   13.40
   8  -6   2  144.29   14.50
   9  -6   2   17.70    8.10
  10  -6   2    8.20    6.40
  10  -6   2    6.70    7.80
  11  -6   2  184.08   17.60
  11  -6   2  173.58   19.80
  12  -6   2   49.99   13.00
  12  -6   2   26.50    9.70
  12   5  -2   12.30    7.60
  12   5  -2   10.10    6.80
  11   5  -2   95.29   11.90
  11   5  -2  104.19   13.10
  10   5  -2   23.40    6.90
  10   5  -2   26.60    7.30
   9   5  -2   25.40    6.80
   9   5  -2   20.70    6.30
   8   5  -2   -0.30    4.70
   8   5  -2   -2.60    3.70
   7   5  -2    7.40    4.10
   7   5  -2    9.10    4.90
   6   5  -2  168.88   10.60
   6   5  -2  173.88   11.50
   5   5  -2  324.37   15.30
   5   5  -2  281.57   13.50
   4   5  -2  521.45   19.20
   4   5  -2  483.05   18.00
   3   5  -2  148.59    9.20
   3   5  -2  143.29    9.20
   2   5  -2 1152.68   32.50
   2   5  -2 1243.58   33.30
   1   5  -2   47.70    6.60
   1   5  -2   52.69    5.90
  -1  -5   2   50.29    3.80
   0   5  -2 3816.62   86.09
   0   5  -2 3591.74   86.49
   0  -5   2 3767.72   80.19
  -1   5  -2 1546.85   41.80
   1  -5   2 1531.35   35.80
  -2   5  -2   66.99    8.10
  -3   5  -2  691.23   24.20
   4  -5   2 2220.08   57.49
   5  -5   2  659.83   24.50
   6  -5   2   28.20    6.60
   7  -5   2   22.30    6.50
   8  -5   2   82.69   11.00
   9  -5   2    7.80    5.90
  10  -5   2   34.40    9.30
  10  -5   2   21.20    8.00
  11  -5   2   15.70    8.70
  11  -5   2   12.20    7.00
  12  -5   2    4.70    7.90
  12  -5   2    8.40    8.00
  13   4  -2  243.38   21.50
  12   4  -2  102.59   14.00
  12   4  -2  125.19   13.30
  11   4  -2    8.80    5.70
  11   4  -2   13.00    6.50
  10   4  -2   14.20    5.60
  10   4  -2   33.20    7.70
   9   4  -2  557.64   23.10
   9   4  -2  543.05   21.20
   8   4  -2  400.46   16.90
   8   4  -2  344.77   17.30
   7   4  -2   14.80    4.80
   7   4  -2   12.70    5.00
   6   4  -2  221.28   11.30
   6   4  -2  210.78   11.80
   5   4  -2   42.20    5.90
   5   4  -2   54.39    7.00
   4   4  -2   38.90    5.60
   4   4  -2   41.50    6.50
   3   4  -2  593.34   20.00
   3   4  -2  581.24   18.70
   2   4  -2  307.17   12.60
   2   4  -2  290.37   12.00
   1   4  -2  782.82   23.10
   1   4  -2  790.42   23.00
   0   4  -2   59.39    5.80
   0   4  -2   51.29    6.10
   0  -4   2   63.49    3.20
  -1   4  -2 1215.28   33.80
   1  -4   2 1264.77   29.10
  -2   4  -2  109.09    9.20
  -3   4  -2   63.49    7.40
   4  -4   2 2042.90   52.39
   5  -4   2  576.44   21.50
   6  -4   2   -0.70    3.60
   7  -4   2   68.89    8.90
   8  -4   2  161.48   13.80
   9  -4   2    3.80    4.80
  10  -4   2    7.70    6.00
  10  -4   2    8.10    5.60
  11  -4   2  176.08   19.00
  11  -4   2  114.29   13.20
  12  -4   2   -5.60    6.70
  12  -4   2    3.10    7.50
  13  -4   2   31.00   10.20
  13  -4   2   41.60   12.40
  13   3  -2  212.88   20.10
  12   3  -2  244.88   17.80
  12   3  -2  239.08   15.70
  11   3  -2   18.20    6.10
  11   3  -2   19.00    6.90
  10   3  -2   17.20    5.60
  10   3  -2    7.10    6.00
   9   3  -2 1300.97   37.60
   9   3  -2 1348.77   41.60
   8   3  -2  869.81   29.70
   8   3  -2  876.11   27.20
   7   3  -2   68.79    7.50
   7   3  -2   69.69    8.50
   6   3  -2  128.29    8.10
   6   3  -2  126.09    9.20
   5   3  -2 1178.98   31.00
   5   3  -2 1164.48   33.10
   4   3  -2  420.66   14.40
   4   3  -2  399.06   15.20
   3   3  -2  142.09    7.60
   3   3  -2  171.58    9.30
   2   3  -2  114.59    6.70
   2   3  -2  102.99    7.30
   1   3  -2  356.06   12.70
   1   3  -2  377.66   13.30
   0   3  -2   68.19    6.40
   0   3  -2   75.39    5.70
   0  -3   2   80.39    2.80
  -1   3  -2   15.50    3.30
  -1   3  -2   16.40    4.10
  -2   3  -2  520.85   17.30
   3  -3   2   65.59    7.10
   4  -3   2  204.88   10.90
   5  -3   2   62.59    7.30
   6  -3   2  109.79    9.80
   7  -3   2  313.27   15.40
   8  -3   2  266.57   14.40
   9  -3   2  315.87   16.40
   9  -3   2  315.77   18.90
  10  -3   2   80.99   10.70
  10  -3   2   87.99   12.60
  11  -3   2    5.00    6.20
  11  -3   2   -1.20    5.80
  12  -3   2   12.90    7.60
  12  -3   2    9.80    7.90
  13  -3   2  141.79   18.70
  13  -3   2  174.98   18.20
  14   2  -2   34.40   11.10
  13   2  -2   28.30    8.40
  12   2  -2    6.70    6.90
  11   2  -2  185.08   17.20
  11   2  -2  192.98   13.10
  10   2  -2  106.99   12.90
  10   2  -2  141.99   12.10
   9   2  -2  232.08   12.70
   9   2  -2  216.58   14.30
   8   2  -2   69.09    9.10
   8   2  -2   73.49    7.70
   7   2  -2   76.49    7.40
   7   2  -2   65.69    8.30
   6   2  -2   37.90    5.10
   6   2  -2   53.99    6.80
   5   2  -2  129.59    8.30
   5   2  -2  111.69    6.80
   4   2  -2   17.80    3.90
   4   2  -2   13.60    3.00
   3   2  -2  100.39    6.70
   3   2  -2   99.59    5.80
   2   2  -2   74.19    4.90
   2   2  -2   74.19    6.70
   1   2  -2    4.90    2.20
   1   2  -2    3.90    2.90
   0   2  -2 1303.17   31.80
   0   2  -2 1315.37   32.70
  -1   2  -2  257.57   10.00
  -1   2  -2  230.98    9.10
  -2   2  -2 1364.36   33.70
   2  -2   2 1351.06   34.00
   3  -2   2  204.68    9.60
   4  -2   2 1665.33   41.50
   5  -2   2  467.35   16.90
   6  -2   2 2367.46   57.89
   7  -2   2   13.50    4.50
   8  -2   2   83.99    9.40
   9  -2   2    1.60    4.10
   9  -2   2   11.40    5.60
  10  -2   2   -1.70    5.10
  10  -2   2    8.90    5.70
  11  -2   2   12.20    6.20
  11  -2   2    1.70    6.10
  12  -2   2  112.69   15.60
  12  -2   2   94.49   12.60
  13  -2   2   47.30   10.40
  13  -2   2   59.79   13.00
  14  -2   2    5.90    8.60
  14  -2   2   -0.50    7.80
  14   1  -2   -8.20    7.40
  13   1  -2  122.59   15.90
  12   1  -2   63.69   12.10
  11   1  -2   89.39   12.40
  11   1  -2   58.39    8.40
  10   1  -2   97.09   12.00
  10   1  -2   79.69    9.00
   9   1  -2  620.34   25.50
   9   1  -2  626.24   21.70
   8   1  -2  101.69   10.90
   8   1  -2   94.99    8.60
   7   1  -2  306.67   15.20
   7   1  -2  308.17   12.70
   6   1  -2  280.67   13.70
   6   1  -2  316.77   11.90
   5   1  -2  440.96   16.50
   5   1  -2  441.46   14.10
   4   1  -2    4.10    2.20
   4   1  -2    4.00    3.00
   3   1  -2   98.79    5.10
   3   1  -2  115.29    6.70
   2   1  -2   20.00    2.70
   2   1  -2   23.80    3.80
   1   1  -2    3.70    1.70
   1   1  -2    8.80    3.30
   0   1  -2 2639.24   57.59
   0   1  -2 2661.33   60.79
  -1   1  -2    9.00    2.60
  -1   1  -2    9.10    2.50
   2  -1   2 9999.00  207.78
   3  -1   2  522.25   16.00
   4  -1   2  219.98    9.80
   5  -1   2 1327.17   34.50
   6  -1   2 4695.93  104.29
   7  -1   2 1240.78   34.40
   8  -1   2  124.09   10.90
   9  -1   2  209.78   12.80
   9  -1   2  225.78   14.60
  10  -1   2  405.86   19.00
  10  -1   2  408.56   21.10
  11  -1   2    3.80    5.70
  11  -1   2    8.30    5.60
  12  -1   2   -4.40    5.30
  12  -1   2   -0.80    5.30
  13  -1   2   15.60    7.40
  13  -1   2   22.70    9.00
  14  -1   2    3.70    8.20
  14  -1   2   -3.10    7.20
  13   0  -2   50.49   12.40
  12   0  -2   53.89   11.60
  11   0  -2  577.54   27.10
  10   0  -2  118.99   13.70
  10   0  -2  128.39   11.40
   9   0  -2   37.70    6.30
   9   0  -2   36.80    8.20
   8   0  -2  161.38    9.50
   8   0  -2  138.69   12.80
   7   0  -2 2568.44   59.79
   7   0  -2 2587.94   66.79
   6   0  -2 1381.16   34.00
   6   0  -2 1353.66   38.90
   5   0  -2   30.10    3.90
   5   0  -2   28.20    5.30
   4   0  -2   16.10    2.80
   4   0  -2   13.70    3.70
   3   0  -2  564.64   14.30
   3   0  -2  544.75   17.30
   2   0  -2    5.60    2.70
   2   0  -2   11.30    1.70
   1   0  -2 2253.27   51.29
   1   0  -2 2191.08   46.70
   0   0  -2 1016.90   23.20
   0   0  -2 1058.29   26.20
  -1   0  -2   97.29    4.70
  -1   0  -2   97.09    3.70
   1   0   2   99.29    4.60
   2   0   2  595.04   15.90
   3   0   2   57.79    5.10
   4   0   2    3.30    2.60
   5   0   2   84.89    7.10
   6   0   2  687.43   21.40
   7   0   2  443.56   16.90
   8   0   2  351.76   15.40
   8   0   2  335.17   16.20
   9   0   2    3.70    4.50
   9   0   2   -0.10    4.20
  10   0   2  106.19   12.30
  10   0   2  107.79   11.10
  11   0   2   32.80    8.30
  11   0   2   39.10    7.70
  12   0   2  156.88   15.10
  12   0   2  207.48   19.30
  13   0   2   28.40    8.70
  13   0   2   31.20    9.60
  14   0   2   -0.10    7.20
  14   0   2   18.20    8.30
  13  -1  -2   21.10   10.00
  12  -1  -2   35.90   10.20
  11  -1  -2   41.00    9.50
  10  -1  -2   51.79   10.10
  10  -1  -2   39.20    6.60
   9  -1  -2  236.78   16.00
   9  -1  -2  266.87   12.90
   8  -1  -2    5.60    4.50
   8  -1  -2   12.00    4.10
   7  -1  -2 2545.15   57.79
   7  -1  -2 2426.56   65.09
   6  -1  -2 1076.89   27.40
   6  -1  -2 1039.60   32.40
   5  -1  -2  269.87    9.70
   5  -1  -2  262.27   12.70
   4  -1  -2  615.74   15.90
   4  -1  -2  588.44   19.50
   3  -1  -2 1316.57   34.30
   3  -1  -2 1322.97   29.30
   2  -1  -2   32.00    2.10
   2  -1  -2   27.70    3.90
   1  -1  -2 1238.88   30.00
   0  -1  -2    7.70    2.00
   0  -1  -2    5.90    1.10
   0   1   2    4.50    1.10
  -1  -1  -2  774.72   18.50
  -1  -1  -2  773.72   18.60
   1   1   2  746.23   17.60
  -2  -1  -2  732.43   18.10
   2   1   2  709.33   17.80
   3   1   2    2.90    2.30
   4   1   2  223.98    9.20
   5   1   2  537.85   17.10
   6   1   2   23.30    4.50
   7   1   2    2.50    3.20
   7   1   2    0.40    3.20
   8   1   2   16.70    4.80
   8   1   2   27.40    6.00
   9   1   2  104.19   10.90
   9   1   2  125.69   11.00
  10   1   2  324.47   16.70
  10   1   2  354.86   18.20
  11   1   2  150.48   14.80
  11   1   2   99.49   11.20
  12   1   2   18.10    7.20
  12   1   2   14.10    6.80
  13   1   2  121.99   14.00
  13   1   2  115.69   14.80
  14   1   2   64.09   12.00
  14   1   2   90.89   14.10
  13  -2  -2   42.50   12.00
  12  -2  -2  160.98   18.50
  11  -2  -2  106.09   15.00
  10  -2  -2  166.68   17.10
   9  -2  -2  165.18   15.80
   9  -2  -2  140.99    9.90
   8  -2  -2  121.59   13.30
   8  -2  -2  149.09    9.00
   7  -2  -2   12.70    4.60
   7  -2  -2   12.50    3.50
   6  -2  -2   14.20    4.40
   6  -2  -2   16.50    3.80
   5  -2  -2   39.10    6.10
   5  -2  -2   39.80    4.30
   4  -2  -2  496.45   17.30
   4  -2  -2  480.75   13.60
   3  -2  -2    5.80    2.90
   3  -2  -2    8.60    1.80
   2  -2  -2   45.40    2.60
   2  -2  -2   42.80    4.40
   1  -2  -2  168.78    4.70
   1  -2  -2  181.98    7.10
  -1   2   2  177.28    5.00
   0  -2  -2  334.17   11.10
   0  -2  -2  341.77    9.60
   0   2   2  340.27    8.40
  -1  -2  -2  101.89    5.20
  -1  -2  -2   99.69    4.10
   1   2   2   93.79    4.10
  -2  -2  -2 1556.54   36.40
   2   2   2 1594.54   35.40
  -3  -2  -2 1573.44   37.20
   3   2   2 1572.44   36.40
   4   2   2 1733.33   40.80
   5   2   2  128.09    6.80
   5   2   2  153.58    8.00
   6   2   2   16.70    3.60
   6   2   2   20.60    4.30
   7   2   2  926.71   27.50
   7   2   2  920.61   27.30
   8   2   2 2997.30   71.29
   8   2   2 2982.90   73.59
   9   2   2    5.80    4.40
   9   2   2    4.50    4.20
  10   2   2  253.37   14.50
  10   2   2  281.57   15.30
  11   2   2  243.28   15.50
  11   2   2  246.38   15.10
  12   2   2   92.79   11.90
  12   2   2   47.20    8.90
  13   2   2   58.69   11.10
  13   2   2   61.99   11.50
  14   2   2    9.10    7.00
  14   2   2    5.50    7.20
  15   2   2   -1.00    7.70
  15   2   2   -2.90    7.90
  13  -3  -2   -4.70    7.00
  12  -3  -2    4.50    7.70
  11  -3  -2   58.09   11.90
  10  -3  -2    5.20    6.30
   9  -3  -2  323.37   19.00
   9  -3  -2  330.47   14.80
   8  -3  -2   10.20    5.20
   8  -3  -2   -1.60    3.10
   7  -3  -2  232.88   10.80
   7  -3  -2  223.68   14.00
   6  -3  -2 1174.88   36.80
   6  -3  -2 1250.27   31.20
   5  -3  -2  819.02   21.80
   5  -3  -2  835.62   26.90
   4  -3  -2   10.20    3.80
   4  -3  -2   11.20    2.50
   3  -3  -2  174.98    6.70
   3  -3  -2  172.28    9.00
   2  -3  -2  142.49    5.80
   2  -3  -2  144.79    7.40
   1  -3  -2    1.10    2.00
  -1   3   2    2.00    1.80
   0  -3  -2  549.35   14.40
   0  -3  -2  536.45   16.40
   0   3   2  545.75   13.80
  -1  -3  -2  636.54   15.00
  -1  -3  -2  638.64   17.60
   1   3   2  618.54   16.10
  -2  -3  -2  710.13   18.90
   2   3   2  691.93   18.10
  -3  -3  -2  179.88    8.00
   3   3   2  172.28    7.60
   3   3   2  172.68    5.30
   4   3   2  284.37    8.90
   4   3   2  289.17   11.00
   5   3   2   10.00    3.30
   5   3   2    6.00    2.20
   6   3   2   34.80    4.50
   6   3   2   27.90    5.00
   7   3   2  866.31   26.40
   7   3   2  873.71   25.60
   8   3   2 2143.69   55.29
   8   3   2 2192.68   54.79
   9   3   2    1.70    3.90
   9   3   2    1.30    3.40
  10   3   2   25.20    6.30
  10   3   2   36.80    6.90
  11   3   2  263.97   15.80
  11   3   2  237.68   15.00
  12   3   2  180.38   15.80
  12   3   2  161.08   15.20
  13   3   2    1.80    5.30
  13   3   2   -3.50    5.70
  14   3   2    6.60    6.80
  14   3   2   11.50    7.60
  15   3   2   67.19   12.70
  15   3   2   26.20    9.70
  12  -4  -2   16.30    8.90
  11  -4  -2   35.30   10.60
  10  -4  -2   42.00    9.90
   9  -4  -2  488.65   24.40
   8  -4  -2    0.50    4.90
   8  -4  -2    2.20    3.80
   7  -4  -2   28.50    7.10
   7  -4  -2   15.20    4.20
   6  -4  -2 1616.44   46.90
   6  -4  -2 1630.94   40.10
   5  -4  -2 2913.61   73.59
   5  -4  -2 2944.11   65.99
   4  -4  -2  264.67   10.00
   4  -4  -2  245.68   12.40
   3  -4  -2   21.20    4.20
   3  -4  -2   17.90    3.30
   2  -4  -2  156.78    8.30
  -2   4   2  169.98    7.30
   1  -4  -2 1597.74   37.80
  -1   4   2 1484.55   35.90
   0  -4  -2   31.30    4.70
   0  -4  -2   33.10    3.30
   0   4   2   34.80    3.80
  -1  -4  -2  589.14   17.60
  -1  -4  -2  605.94   14.70
   1   4   2  599.14   16.40
  -2  -4  -2   36.00    4.40
   2   4   2   41.90    4.30
  -3  -4  -2  160.18    7.80
   3   4   2  154.98    7.50
  -4  -4  -2   95.99    6.70
   4   4   2   90.69    4.10
   4   4   2  100.99    6.70
   5   4   2  158.48    9.00
   5   4   2  159.58    6.70
   6   4   2    1.70    3.20
   6   4   2    6.60    2.60
   7   4   2   16.40    4.70
   7   4   2   23.90    4.30
   8   4   2    7.00    3.60
   8   4   2    9.80    4.60
   9   4   2   49.99    8.10
   9   4   2   79.59    8.60
  10   4   2   96.79   10.60
  10   4   2  116.69   11.10
  11   4   2   71.99   10.20
  11   4   2   71.29    9.80
  12   4   2    8.40    6.40
  12   4   2    7.20    5.40
  13   4   2   82.69   12.00
  13   4   2   52.19   10.20
  14   4   2   73.69   11.80
  15   4   2    0.00    6.90
  12  -5  -2  107.19   17.70
  11  -5  -2   22.50    9.60
  10  -5  -2   28.60    9.50
   9  -5  -2   83.19   13.10
   8  -5  -2   24.30    5.60
   8  -5  -2   17.70    7.40
   7  -5  -2  128.99   13.60
   7  -5  -2   94.89    8.80
   6  -5  -2   63.19    6.90
   6  -5  -2   66.89    9.60
   5  -5  -2 1050.39   33.20
   5  -5  -2 1045.80   28.40
   4  -5  -2  198.78   11.50
   4  -5  -2  184.18    9.30
   3  -5  -2  781.32   24.70
   3  -5  -2  796.82   22.60
  -3   5   2  787.82   22.20
   2  -5  -2   33.90    4.90
  -2   5   2   48.50    5.40
   1  -5  -2  521.25   16.30
  -1   5   2  550.94   16.90
   0  -5  -2  508.05   14.90
   0  -5  -2  524.25   17.40
   0   5   2  521.45   15.80
  -1  -5  -2  948.81   26.00
   1   5   2  946.81   25.00
  -2  -5  -2    8.00    3.30
   2   5   2    6.10    2.80
  -3  -5  -2  187.28    9.00
   3   5   2  196.68    9.00
  -4  -5  -2  477.25   16.20
   4   5   2  469.25   12.30
   4   5   2  487.05   16.30
  -5  -5  -2  190.58    9.90
   5   5   2  192.68    7.00
   5   5   2  190.58   10.10
   6   5   2  140.79    9.30
   6   5   2  149.79    6.90
   7   5   2  358.36   13.00
   7   5   2  336.47   15.30
   8   5   2   11.60    3.90
   8   5   2   14.50    4.80
   9   5   2  455.35   20.00
   9   5   2  486.15   18.10
  10   5   2   65.49    8.60
  10   5   2   66.19    9.40
  11   5   2  135.09   13.70
  11   5   2  105.09   11.50
  12   5   2   72.69   10.80
  13   5   2   11.40    7.00
  14   5   2   -1.30    6.10
  15   5   2   35.10   10.10
  11  -6  -2    7.30    7.80
  10  -6  -2   39.90   10.50
   9  -6  -2  169.38   17.90
   8  -6  -2   52.19   10.30
   7  -6  -2  192.58   16.90
   7  -6  -2  169.98   11.00
   6  -6  -2  271.57   16.10
   6  -6  -2  266.67   13.00
   5  -6  -2   66.09    7.30
   5  -6  -2   43.00    7.70
   4  -6  -2    2.50    3.60
   4  -6  -2    7.50    4.20
   3  -6  -2   -0.40    2.90
  -3   6   2    1.70    3.20
   2  -6  -2  309.67   13.00
  -2   6   2  301.17   12.90
   1  -6  -2  825.82   25.80
   1  -6  -2  810.42   23.50
  -1   6   2  792.42   23.90
   0  -6  -2    8.80    3.80
   0   6   2    5.60    3.00
  -1  -6  -2   69.19    6.90
   1   6   2   59.59    6.20
  -2  -6  -2 1841.12   45.10
   2   6   2 1792.72   44.40
  -3  -6  -2  622.24   19.80
   3   6   2  647.74   20.00
  -4  -6  -2   14.10    4.00
   4   6   2    4.00    3.00
  -5  -6  -2   12.60    4.40
   5   6   2   15.10    4.00
   5   6   2    7.80    2.50
   6   6   2  253.17    9.30
   6   6   2  234.08   12.50
   7   6   2   80.19    5.90
   7   6   2   73.59    8.70
   8   6   2    9.20    4.80
   8   6   2    1.60    3.20
   9   6   2  836.62   25.70
   9   6   2  783.72   28.20
  10   6   2 1126.09   36.70
  11   6   2    5.50    5.40
  12   6   2   31.90    8.50
  13   6   2  470.55   24.20
  14   6   2  122.29   15.40
  11  -7  -2    6.40    8.30
  10  -7  -2   -4.40    7.10
   9  -7  -2    6.20    7.20
   8  -7  -2   34.70    9.70
   7  -7  -2  180.88   11.90
   7  -7  -2  161.18   15.90
   6  -7  -2   33.80    6.40
   6  -7  -2   49.50    9.00
   5  -7  -2   11.40    5.10
   5  -7  -2   10.20    5.80
   4  -7  -2 1522.45   44.90
   4  -7  -2 1595.74   42.20
   3  -7  -2 1710.83   46.70
  -3   7   2 1725.93   44.80
   2  -7  -2   60.09    7.00
  -2   7   2   74.09    8.10
   1  -7  -2    8.50    4.40
  -1   7   2    0.90    3.70
   0  -7  -2 1030.70   30.30
   0   7   2 1063.49   30.30
  -1  -7  -2  105.79    8.80
   1   7   2  111.79    8.00
  -2  -7  -2  813.82   24.50
   2   7   2  802.42   24.60
  -3  -7  -2  160.38    9.20
   3   7   2  159.78    9.60
  -4  -7  -2   13.90    4.40
   4   7   2    7.70    3.80
  -5  -7  -2    6.80    4.20
   5   7   2    3.70    3.60
   6   7   2  187.08   11.40
   7   7   2   58.29    7.70
   8   7   2    9.50    5.10
   9   7   2  382.66   18.90
  10   7   2  233.68   15.50
  11   7   2   40.10    9.00
  12   7   2    6.00    6.20
  13   7   2   68.79   12.00
  14   7   2   -2.40    6.60
  10  -8  -2   -3.80    8.10
   9  -8  -2   10.00    8.20
   8  -8  -2   -9.90    6.10
   7  -8  -2   34.80    9.20
   6  -8  -2   43.00    9.40
   6  -8  -2   39.50    7.40
   5  -8  -2   19.00    6.50
   5  -8  -2   12.50    5.30
   4  -8  -2 1118.99   35.70
   4  -8  -2 1055.29   33.30
   3  -8  -2 1798.32   49.20
  -3   8   2 1757.22   47.70
   2  -8  -2    6.50    4.30
   2  -8  -2   20.90    6.20
  -2   8   2   13.60    4.90
   1  -8  -2  230.08   13.10
  -1   8   2  201.78   12.60
   0  -8  -2 1166.08   33.90
   0   8   2 1123.29   33.60
  -1  -8  -2  874.61   27.00
   1   8   2  858.51   27.20
  -2  -8  -2   37.60    6.10
   2   8   2   40.30    6.30
  -3  -8  -2  523.55   19.30
   3   8   2  590.94   20.80
  -4  -8  -2   58.99    7.50
   4   8   2   53.49    7.30
  -5  -8  -2  271.97   13.50
   5   8   2  281.77   14.40
  -6  -8  -2  406.46   17.20
   6   8   2  409.06   18.00
   7   8   2   68.49    9.10
   8   8   2   50.09    8.50
   9   8   2    3.70    4.70
  10   8   2   31.60    7.80
  11   8   2   20.50    7.40
  12   8   2   76.89   11.70
  13   8   2  130.09   15.80
  14   8   2   26.30    9.20
   9  -9  -2   20.80    9.90
   8  -9  -2   32.20   10.30
   7  -9  -2  188.28   18.60
   6  -9  -2  184.48   15.00
   6  -9  -2  200.08   18.10
   5  -9  -2  150.38   13.90
   5  -9  -2  163.08   15.30
   4  -9  -2    4.90    4.90
   4  -9  -2   -2.00    4.40
   3  -9  -2    7.10    4.90
   3  -9  -2   14.30    6.40
  -3   9   2    2.10    4.70
   2  -9  -2   34.40    6.70
   2  -9  -2   20.60    6.40
  -2   9   2   15.80    5.70
   1  -9  -2  442.16   18.90
  -1   9   2  416.26   19.30
   0  -9  -2  113.79   11.10
   0   9   2  135.09   12.20
  -1  -9  -2   87.89    9.30
   1   9   2   82.29    9.50
  -2  -9  -2  136.09    9.60
   2   9   2  107.79   10.60
  -3  -9  -2  533.45   19.90
   3   9   2  528.25   21.00
  -4  -9  -2   20.20    5.70
   4   9   2   28.00    6.30
  -5  -9  -2  123.09   11.10
   5   9   2  134.59   12.10
  -6  -9  -2   43.70    7.80
   6   9   2   36.00    7.30
   7   9   2   87.69   10.40
   8   9   2   60.99    9.70
   9   9   2   23.00    6.90
  10   9   2   26.50    8.30
  11   9   2  314.37   19.90
  12   9   2   17.30    8.20
  13   9   2   62.69   12.50
   8 -10  -2   -7.50    6.80
   7 -10  -2   51.29   11.70
   6 -10  -2    6.60    6.80
   5 -10  -2    6.20    6.30
   5 -10  -2   -8.00    5.20
   4 -10  -2   63.19    9.70
   4 -10  -2   47.80   10.40
   4 -10  -2   57.19    9.50
  -4  10   2   63.69    9.70
   3 -10  -2   74.89   11.20
   3 -10  -2   70.69    9.80
  -3  10   2   48.10    9.10
   2 -10  -2   53.49    9.00
   2 -10  -2   46.20    8.10
  -2  10   2   52.29    9.10
   1 -10  -2    8.00    5.90
  -1  10   2   10.90    5.90
   0 -10  -2  152.48   11.20
   0  10   2  173.28   15.30
  -1 -10  -2   27.30    6.80
   1  10   2   37.10    7.50
  -2 -10  -2   13.00    5.30
   2  10   2    8.90    5.10
  -3 -10  -2    8.20    5.00
   3  10   2    6.40    4.70
  -4 -10  -2  452.45   19.00
   4  10   2  450.65   20.50
  -5 -10  -2  328.87   16.20
   5  10   2  336.67   17.60
  -6 -10  -2   19.40    6.80
   6  10   2   14.30    6.00
   7  10   2   39.60    8.10
   8  10   2   13.50    6.00
   9  10   2   10.10    6.40
  10  10   2   10.60    6.70
  11  10   2  190.68   18.50
  12  10   2  243.68   21.30
  13  10   2   15.00    9.40
   7 -11  -2    1.00    8.20
   6 -11  -2   -0.70    7.00
   5 -11  -2   73.59   13.50
   5 -11  -2   96.09   13.10
   5 -11  -2   52.29   10.80
   4 -11  -2  150.38   16.30
   4 -11  -2  124.09   13.70
   4 -11  -2  178.38   16.30
   3 -11  -2   12.90    7.60
   3 -11  -2   19.30    7.00
  -3  11   2   22.50    8.10
   2 -11  -2  792.62   28.30
   2 -11  -2  770.72   29.20
  -2  11   2  726.23   30.30
   1 -11  -2  780.62   29.20
  -1  11   2  789.52   31.40
   0 -11  -2    9.80    6.20
   0  11   2    8.80    6.30
  -1 -11  -2   95.79   10.80
   1  11   2  101.19   12.40
  -2 -11  -2  895.81   30.00
   2  11   2  940.01   33.40
  -3 -11  -2  155.68   13.10
   3  11   2  147.09   13.90
  -4 -11  -2  257.97   15.30
   4  11   2  296.67   17.20
  -5 -11  -2   -8.70    5.50
   5  11   2    1.70    5.00
  -6 -11  -2  227.08   15.10
   6  11   2  192.98   16.60
   7  11   2   11.90    6.40
   8  11   2   17.80    6.80
   9  11   2   12.30    7.40
  10  11   2    3.60    7.00
  11  11   2   93.79   14.10
  12  11   2    1.80    7.40
   6 -12  -2    7.90   11.50
   6 -12  -2   -3.90    7.90
   5 -12  -2   23.20   10.20
   5 -12  -2   16.50    8.60
   4 -12  -2   41.50   10.00
   4 -12  -2   45.10   10.40
   3 -12  -2    2.50    6.80
  -3  12   2   -5.50    5.90
   2 -12  -2  152.38   15.50
  -2  12   2  118.99   15.10
   1 -12  -2  149.79   14.50
  -1  12   2  144.39   16.00
   0 -12  -2    3.20    6.50
   0  12   2    9.40    6.50
  -1 -12  -2   16.00    6.70
   1  12   2   21.40    7.70
  -2 -12  -2  172.08   14.40
   2  12   2  172.88   16.20
  -3 -12  -2  132.29   12.80
   3  12   2  122.99   13.80
  -4 -12  -2   43.50    9.10
   4  12   2   40.90    8.40
  -5 -12  -2  189.08   15.50
   5  12   2  138.09   15.00
  -6 -12  -2   52.49   10.20
   6  12   2   85.79   12.60
   7  12   2    2.10    5.50
   8  12   2  133.29   15.60
   9  12   2    2.40    6.90
  10  12   2   46.30   10.90
  11  12   2    4.10    8.60
  -3  13   2   -8.30    7.10
  -2  13   2   47.50   11.10
  -1  13   2   13.70    7.70
   0  13   2   -0.10    6.80
   1  13   2  109.99   15.20
   2  13   2   61.59   11.60
   3  13   2   59.39   11.50
   4  13   2   60.59   11.40
   5  13   2  308.17   19.70
   6  13   2    6.00    6.30
   7  13   2   18.40    8.40
   8  13   2   56.09   12.10
   9  13   2   -0.70    7.00
  -2  14   2   -7.20    6.60
  -1  14   2   12.50    8.60
   0  14   2   76.89   14.00
   1  14   2   16.90    7.90
   2  14   2   18.20    8.70
   3  14   2   31.00    9.80
   4  14   2   67.39   12.70
   5  14   2    1.90    6.90
   6  14   2  114.69   15.50
   7  14   2    0.10    6.80
   8  14   2   78.59   14.00
   2  15   2   20.70   10.30
   3  15   2   66.19   14.10
   2  13  -3    3.30    9.40
   1  13  -3   21.50    9.70
   6  12  -3  159.78   18.80
   5  12  -3    7.90    8.00
   4  12  -3  124.99   16.80
   3  12  -3  120.69   16.50
   2  12  -3   28.50   10.20
   1  12  -3   16.40    8.40
   0  12  -3    1.80    7.20
  -1  12  -3   25.20   10.20
  -2  12  -3   28.60   10.70
  -3  12  -3    5.30    8.60
   8  11  -3   -6.60    7.30
   7  11  -3   47.70   11.00
   6  11  -3   35.20   10.20
   5  11  -3   18.80    9.00
   4  11  -3    7.00    7.80
   3  11  -3  183.08   18.80
   2  11  -3   36.50   10.90
   1  11  -3   -8.00    6.30
   0  11  -3   67.79   12.20
  -1  11  -3   10.60    7.80
  -2  11  -3  124.19   16.50
  -3  11  -3    5.70    8.40
   4 -11   3   27.60   10.20
   5 -11   3   28.40   10.70
   6 -11   3  120.89   18.00
   9  10  -3    7.00    7.60
   8  10  -3  117.99   14.50
   7  10  -3  223.98   19.20
   6  10  -3   25.40    8.70
   5  10  -3   10.30    7.00
   4  10  -3   61.59   11.10
   3  10  -3   23.00    8.10
   2  10  -3   28.00    8.50
   1  10  -3   29.60    9.20
   0  10  -3   -3.10    4.90
  -1  10  -3    6.90    7.00
  -2  10  -3  323.17   20.90
  -3  10  -3   19.00    9.20
   4 -10   3  134.79   16.60
   5 -10   3   11.40    8.00
   6 -10   3   32.80   11.40
   7 -10   3   64.59   13.70
  10   9  -3   -0.60    7.20
   9   9  -3  151.98   16.30
   8   9  -3   21.40    8.10
   7   9  -3   60.79   10.50
   6   9  -3   44.80    9.00
   5   9  -3  301.47   18.50
   4   9  -3  108.39   13.30
   3   9  -3   -0.40    5.10
   3   9  -3   -1.10    4.40
   2   9  -3   12.00    6.80
   2   9  -3    4.60    4.70
   1   9  -3  466.95   23.00
   0   9  -3   11.90    6.90
  -1   9  -3   51.19    9.90
  -2   9  -3   30.40    8.70
  -3   9  -3   41.90    9.70
   4  -9   3    6.50    7.10
   5  -9   3   12.60    7.60
   6  -9   3   82.09   13.70
   7  -9   3    1.30    7.80
   8  -9   3  127.79   17.10
   9  -9   3   99.29   16.10
  11   8  -3   23.10    8.60
  10   8  -3    0.90    6.00
   9   8  -3  136.09   14.70
   8   8  -3  116.19   13.30
   7   8  -3  105.89   12.60
   6   8  -3   24.30    7.20
   6   8  -3   39.10    8.60
   5   8  -3 1214.68   37.80
   5   8  -3 1087.49   36.20
   4   8  -3  384.86   18.20
   4   8  -3  402.16   19.80
   3   8  -3   10.00    5.30
   3   8  -3   22.20    6.20
   2   8  -3  961.00   34.20
   2   8  -3 1064.29   32.90
   1   8  -3 1072.69   34.10
   1   8  -3 1146.39   37.60
   0   8  -3   67.29   10.40
  -1   8  -3   26.30    7.20
  -2   8  -3   57.69   10.20
  -3   8  -3   11.80    6.50
   4  -8   3   34.80    9.10
   5  -8   3    3.00    6.30
   6  -8   3    4.50    6.60
   7  -8   3  119.49   15.20
   8  -8   3   24.60    9.40
   9  -8   3    3.40    8.00
  10  -8   3    2.50    9.70
  12   7  -3   13.70    7.60
  11   7  -3   44.30    9.80
  10   7  -3   16.50    7.00
   9   7  -3    9.70    6.00
   8   7  -3  165.78   14.70
   8   7  -3  158.18   15.30
   7   7  -3  236.88   15.40
   7   7  -3  238.88   15.20
   6   7  -3   58.59    8.90
   6   7  -3   50.59    8.70
   5   7  -3    7.60    5.60
   5   7  -3    0.40    4.00
   4   7  -3   69.89    9.20
   4   7  -3   71.99    9.20
   3   7  -3    7.20    4.80
   3   7  -3    8.30    4.20
   2   7  -3    1.30    4.30
   2   7  -3   10.30    4.40
   1   7  -3    9.90    5.10
   1   7  -3    9.20    4.40
   0   7  -3  108.69   11.90
  -1   7  -3   27.00    7.10
  -2   7  -3    7.60    5.50
  -3   7  -3   10.30    5.70
   4  -7   3  111.99   13.00
   5  -7   3   13.40    6.80
   6  -7   3  103.49   13.20
   7  -7   3   22.80    7.90
   8  -7   3  163.88   16.90
   9  -7   3  218.98   20.20
  10  -7   3  183.38   18.90
  11  -7   3   13.40    9.40
  11  -7   3   14.90    9.50
  11   6  -3   41.80    8.90
  10   6  -3   50.79    9.30
  10   6  -3   34.40    9.50
   9   6  -3  233.28   15.10
   9   6  -3  247.48   17.10
   8   6  -3   34.20    8.40
   8   6  -3   38.40    7.40
   7   6  -3   15.90    6.80
   7   6  -3   18.10    5.90
   6   6  -3  295.27   16.40
   6   6  -3  282.47   15.10
   5   6  -3  481.85   19.80
   5   6  -3  497.85   20.80
   4   6  -3   53.39    8.10
   4   6  -3   64.19    8.10
   3   6  -3   23.50    5.40
   3   6  -3   10.00    4.90
   2   6  -3  517.65   19.50
   2   6  -3  490.35   19.70
   1   6  -3  137.09    9.50
   1   6  -3  150.38   10.60
   0   6  -3  115.99   11.30
   0   6  -3  116.29    8.60
  -1   6  -3   31.40    6.30
   1  -6   3   29.40    3.30
  -2   6  -3   66.29    9.00
   2  -6   3   74.19    5.30
  -3   6  -3  130.99   12.50
   4  -6   3  525.85   23.10
   5  -6   3   88.79   11.40
   6  -6   3   84.89   11.60
   7  -6   3  110.79   13.10
   8  -6   3   70.69   11.20
   9  -6   3  216.18   18.80
  10  -6   3  527.65   26.30
  11  -6   3   28.60   10.80
  11  -6   3   21.90    9.60
  12   5  -3   -8.70    6.20
  11   5  -3   49.50    9.20
  11   5  -3   49.90   10.70
  10   5  -3    0.60    6.20
  10   5  -3    4.10    5.20
   9   5  -3  125.39   13.60
   9   5  -3  141.89   12.90
   8   5  -3  107.29   10.90
   8   5  -3  105.49   11.80
   7   5  -3  277.07   14.70
   7   5  -3  275.77   16.30
   6   5  -3   29.30    6.10
   6   5  -3   37.30    8.00
   5   5  -3   24.30    6.50
   5   5  -3   33.90    6.00
   4   5  -3  810.82   27.00
   4   5  -3  747.73   24.80
   3   5  -3 2447.46   57.49
   3   5  -3 2209.38   59.59
   2   5  -3  411.96   16.50
   2   5  -3  358.36   15.60
   1   5  -3    6.50    3.80
   1   5  -3    5.30    3.70
   0   5  -3 2019.10   51.89
   0   5  -3 2072.49   52.49
   0  -5   3 2003.10   43.50
  -1   5  -3 3256.57   78.19
  -1   5  -3 3231.98   78.69
   1  -5   3 3324.17   70.29
  -2   5  -3   90.69    9.70
  -3   5  -3  149.29   12.30
   4  -5   3   33.50    7.00
   5  -5   3    1.30    4.40
   6  -5   3  124.09   12.80
   7  -5   3   29.40    7.00
   8  -5   3   20.10    7.40
   9  -5   3   53.09   10.10
  10  -5   3  101.79   12.90
  11  -5   3   60.09   12.80
  11  -5   3   66.49   11.70
  12  -5   3   42.40   10.70
  12  -5   3   39.00   12.20
  13   4  -3   53.69   11.90
  12   4  -3  271.67   19.50
  11   4  -3   -7.80    5.70
  11   4  -3    4.50    5.40
  10   4  -3  118.89   11.90
  10   4  -3   73.99   11.20
   9   4  -3    5.90    4.70
   9   4  -3   -0.70    5.20
   8   4  -3   10.00    4.70
   8   4  -3    0.60    5.30
   7   4  -3    0.20    4.70
   7   4  -3    3.60    3.70
   6   4  -3  144.59   10.80
   6   4  -3  156.58    9.80
   5   4  -3  430.96   18.60
   5   4  -3  445.36   16.80
   4   4  -3    6.10    3.40
   4   4  -3   11.00    5.30
   3   4  -3 1809.72   45.30
   3   4  -3 1836.52   48.80
   2   4  -3  376.56   15.60
   2   4  -3  379.16   14.60
   1   4  -3   80.49    7.60
   1   4  -3   87.79    8.20
   0   4  -3 1798.72   46.40
   0   4  -3 1816.62   46.10
  -1   4  -3 2978.20   69.49
  -1   4  -3 2857.91   70.29
   1  -4   3 2927.01   62.19
  -2   4  -3    2.80    3.70
  -3   4  -3    6.70    4.20
   3  -4   3    9.40    4.60
   4  -4   3  801.62   27.10
   5  -4   3    8.80    4.90
   6  -4   3   78.09    9.50
   7  -4   3   58.99    8.80
   8  -4   3    4.00    5.10
   9  -4   3  112.99   12.60
  10  -4   3    1.20    5.50
  11  -4   3   87.79   12.10
  11  -4   3  113.29   15.50
  12  -4   3   15.20    7.90
  12  -4   3    3.60    7.00
  13  -4   3   49.70   11.70
  13  -4   3   42.40   12.70
  13   3  -3  291.37   25.00
  12   3  -3  373.36   23.00
  11   3  -3   11.50    7.50
  10   3  -3   -0.50    4.10
  10   3  -3    4.90    5.90
   9   3  -3   66.39    8.30
   9   3  -3   60.69    9.60
   8   3  -3   -0.20    3.60
   8   3  -3    6.50    5.60
   7   3  -3   47.40    6.50
   7   3  -3   48.10    8.00
   6   3  -3  447.56   16.50
   6   3  -3  472.65   19.00
   5   3  -3  447.76   15.80
   5   3  -3  448.16   18.10
   4   3  -3  147.29    8.40
   4   3  -3  152.68   10.00
   3   3  -3  126.59    7.50
   3   3  -3  141.49    9.80
   2   3  -3  173.68   10.20
   2   3  -3  178.58    8.70
   1   3  -3  212.58   10.90
   1   3  -3  225.48   10.00
   0   3  -3  144.99    8.60
   0   3  -3  134.49    8.10
  -1   3  -3  777.02   23.30
  -1   3  -3  773.02   23.00
  -2   3  -3  134.09    8.70
   3  -3   3  171.88   10.30
   4  -3   3 1169.58   33.60
   5  -3   3  181.58   11.30
   6  -3   3  502.35   20.00
   7  -3   3   23.30    6.40
   8  -3   3    2.90    4.60
   9  -3   3   86.89   10.90
  10  -3   3   92.79   11.40
  11  -3   3  356.06   20.20
  11  -3   3  419.86   23.90
  12  -3   3  333.47   22.90
  12  -3   3  342.27   20.60
  13  -3   3   27.70   11.30
  13  -3   3   56.39   12.00
  13   2  -3    5.10    7.60
  12   2  -3   71.79   12.50
  11   2  -3   47.50   10.30
  10   2  -3   25.30    6.00
  10   2  -3   38.50    8.60
   9   2  -3    1.20    3.70
   9   2  -3    1.80    4.50
   8   2  -3  126.09   10.00
   8   2  -3   99.89   11.20
   7   2  -3  187.68   12.60
   7   2  -3  198.68   10.30
   6   2  -3   44.10    6.90
   6   2  -3   44.50    5.50
   5   2  -3  114.09   10.00
   5   2  -3  120.99    7.20
   4   2  -3  477.85   17.90
   4   2  -3  510.15   15.60
   3   2  -3 1039.80   26.90
   3   2  -3 1084.99   30.60
   2   2  -3  732.63   23.40
   2   2  -3  724.53   19.80
   1   2  -3  469.45   14.50
   1   2  -3  443.76   16.30
   0   2  -3  334.87   12.70
   0   2  -3  326.97   12.20
  -1   2  -3  226.38    9.90
  -1   2  -3  218.08    9.90
  -2   2  -3 1840.22   45.10
  -2   2  -3 1818.42   44.20
   2  -2   3 1790.12   44.50
   3  -2   3   56.29    6.70
   4  -2   3  546.75   19.00
   5  -2   3  262.67   12.70
   6  -2   3  113.99   10.00
   7  -2   3   32.90    6.30
   8  -2   3   67.09    8.70
   9  -2   3  181.18   12.80
  10  -2   3   30.90    7.50
  11  -2   3  105.59   12.90
  11  -2   3  131.19   15.50
  12  -2   3  222.38   18.90
  12  -2   3  218.08   21.20
  13  -2   3   -0.70    7.40
  13  -2   3    6.60    7.90
  14  -2   3  -11.90    6.80
  14  -2   3   13.00    8.50
  13   1  -3   51.69   11.20
  12   1  -3    1.00    6.20
  11   1  -3   24.40    8.00
  10   1  -3    5.50    5.80
   9   1  -3   13.30    4.70
   9   1  -3   14.80    6.30
   8   1  -3  101.49    8.70
   8   1  -3   88.99   10.80
   7   1  -3   64.69    8.60
   7   1  -3   61.29    6.50
   6   1  -3  245.78   10.40
   6   1  -3  244.28   13.10
   5   1  -3   96.09    9.10
   5   1  -3   82.39    5.60
   4   1  -3  408.96   15.70
   4   1  -3  409.16   12.70
   3   1  -3  119.19    7.70
   3   1  -3  112.79    5.80
   2   1  -3 1586.84   40.40
   2   1  -3 1549.94   35.80
   1   1  -3 3455.15   81.09
   1   1  -3 3451.15   74.29
   0   1  -3  577.74   13.80
   0   1  -3  588.74   16.50
   0   1  -3  620.54   18.70
  -1   1  -3 1475.75   35.60
  -1   1  -3 1328.67   33.50
  -2   1  -3 2657.43   63.09
   2  -1   3 2758.32   61.49
   3  -1   3 5934.41  127.39
   4  -1   3   62.19    6.20
   5  -1   3  116.29    8.20
   6  -1   3 1356.26   37.00
   7  -1   3  587.34   21.10
   8  -1   3   73.49    8.90
   9  -1   3   -0.10    4.10
  10  -1   3   57.89    9.30
  10  -1   3   47.80    8.90
  11  -1   3   20.70    7.40
  11  -1   3   -1.50    5.10
  12  -1   3   -7.20    5.20
  12  -1   3    2.00    5.90
  13  -1   3   42.50    9.90
  13  -1   3   13.90    8.40
  14  -1   3    5.10    8.00
  14  -1   3   18.90    9.70
  13   0  -3   -2.30    7.10
  12   0  -3   20.60    8.70
  11   0  -3  436.06   23.90
  10   0  -3  541.35   25.50
   9   0  -3  111.49    9.50
   9   0  -3   98.29   12.10
   8   0  -3   68.09    7.00
   8   0  -3   61.19    9.40
   7   0  -3   98.29    7.00
   7   0  -3   89.79   10.20
   6   0  -3   85.89    9.40
   6   0  -3   99.29    6.40
   5   0  -3  821.52   21.60
   5   0  -3  847.42   26.80
   4   0  -3  439.76   16.40
   4   0  -3  431.56   12.50
   3   0  -3    4.80    1.70
   3   0  -3   -0.80    2.60
   2   0  -3   36.80    4.70
   2   0  -3   34.40    2.90
   1   0  -3  738.13   21.40
   1   0  -3  742.13   17.80
   0   0  -3   11.50    2.40
   0   0  -3    7.10    2.20
   0   0  -3    7.50    3.40
  -1   0  -3 1327.07   29.30
  -1   0  -3 1291.67   32.30
   1   0   3 1272.77   30.40
  -2   0  -3 3421.26   78.59
  -2   0  -3 3592.54   75.29
   2   0   3 3424.76   75.49
   3   0   3 1955.60   45.60
   4   0   3  280.27   11.40
   5   0   3  146.19    8.60
   6   0   3  422.46   15.80
   7   0   3   16.50    4.70
   8   0   3  379.86   16.80
   9   0   3   11.80    5.10
  10   0   3    2.50    5.00
  10   0   3    3.00    4.60
  11   0   3  192.98   16.00
  11   0   3  216.08   15.70
  12   0   3    5.20    6.20
  12   0   3    0.90    5.40
  13   0   3  111.99   13.70
  13   0   3  113.99   15.10
  14   0   3    0.70    6.90
  14   0   3   11.40    8.40
  13  -1  -3    4.20    8.60
  12  -1  -3    4.90    7.80
  11  -1  -3  613.14   29.30
  10  -1  -3  716.93   30.40
   9  -1  -3    7.90    5.60
   8  -1  -3   98.09   11.60
   8  -1  -3  125.49    8.30
   7  -1  -3  519.85   21.90
   7  -1  -3  530.65   16.80
   6  -1  -3    5.40    3.70
   6  -1  -3    7.50    2.90
   5  -1  -3  297.87   14.00
   5  -1  -3  318.87   10.30
   4  -1  -3  527.95   13.70
   4  -1  -3  501.55   18.30
   3  -1  -3 1522.45   32.80
   3  -1  -3 1486.35   39.10
   2  -1  -3  513.15   11.80
   2  -1  -3  515.65   16.40
  -2   1   3  519.05   11.90
   1  -1  -3  580.24   17.10
   1  -1  -3  568.24   12.90
  -1   1   3  585.74   12.90
   0  -1  -3   56.39    5.30
   0  -1  -3   65.89    5.20
   0   1   3   54.89    3.00
  -1  -1  -3  242.08    9.10
  -1  -1  -3  238.78    8.30
   1   1   3  249.68    7.90
  -2  -1  -3 2461.95   53.89
  -2  -1  -3 2365.16   55.09
   2   1   3 2424.06   53.09
  -3  -1  -3   25.80    3.80
   3   1   3   20.30    3.30
   4   1   3  164.78    8.20
   5   1   3  163.28    8.80
   6   1   3 1190.88   32.50
   7   1   3  209.28   11.30
   8   1   3  125.99   11.10
   9   1   3  141.29   12.20
   9   1   3  148.59   11.10
  10   1   3   28.60    6.90
  10   1   3   16.80    6.40
  11   1   3  124.79   12.90
  11   1   3  106.19   12.80
  12   1   3   58.99   10.70
  12   1   3   36.10    8.40
  13   1   3  218.28   20.20
  13   1   3  212.38   18.60
  14   1   3  167.08   17.00
  14   1   3  151.58   18.00
  15   1   3   38.80   11.50
  15   1   3   31.80   10.70
  13  -2  -3   32.90   11.30
  12  -2  -3   56.19   13.00
  11  -2  -3   33.00    9.50
  10  -2  -3   14.50    7.10
   9  -2  -3   25.40    7.30
   8  -2  -3   33.30    8.00
   8  -2  -3   39.00    5.40
   7  -2  -3   55.09    8.60
   7  -2  -3   52.29    5.60
   6  -2  -3   71.99    8.90
   6  -2  -3   81.59    5.50
   5  -2  -3  103.39    5.50
   5  -2  -3  109.79   10.00
   4  -2  -3  600.84   15.10
   4  -2  -3  590.44   20.50
   3  -2  -3    8.30    1.60
   3  -2  -3   14.90    4.00
   2  -2  -3   54.19    5.60
   1  -2  -3  308.67   10.80
   0  -2  -3 4636.54  102.59
   0  -2  -3 4754.92   96.29
   0  -2  -3 4718.63  103.79
   0   2   3 4625.54   96.19
  -1  -2  -3 2626.74   58.29
  -1  -2  -3 2576.74   59.29
   1   2   3 2574.34   55.09
  -2  -2  -3  412.36   11.30
  -2  -2  -3  400.96   12.50
   2   2   3  401.66   11.80
  -3  -2  -3  527.75   15.60
   3   2   3  502.25   15.10
   4   2   3 2712.73   61.29
   5   2   3   95.49    6.90
   6   2   3  401.56   15.20
   7   2   3   51.09    6.60
   8   2   3   64.09    7.70
   8   2   3   53.49    7.10
   9   2   3    2.40    4.10
   9   2   3    4.70    4.00
  10   2   3   67.99    9.50
  10   2   3   45.10    8.00
  11   2   3   68.09   10.10
  11   2   3   70.79   10.40
  12   2   3   -4.60    4.30
  12   2   3    8.50    6.00
  13   2   3   31.10    8.60
  13   2   3   28.80    8.90
  14   2   3   49.70   10.70
  14   2   3   40.50   10.20
  15   2   3   -2.80    6.40
  15   2   3    5.20    7.30
  13  -3  -3   39.90   12.60
  12  -3  -3    5.70    7.90
  11  -3  -3  103.99   14.90
  10  -3  -3    2.90    5.80
   9  -3  -3  389.06   21.60
   8  -3  -3    6.40    5.30
   7  -3  -3   28.60    4.60
   7  -3  -3   31.30    7.50
   6  -3  -3    5.20    2.80
   6  -3  -3    1.60    4.00
   5  -3  -3   35.50    3.90
   5  -3  -3   37.10    6.60
   4  -3  -3    1.60    1.80
   4  -3  -3    0.90    3.00
   3  -3  -3  244.08   11.20
   3  -3  -3  226.48    7.00
   2  -3  -3  464.75   11.20
   2  -3  -3  450.55   15.50
   1  -3  -3  127.29    6.70
  -1   3   3  140.49    4.70
   0  -3  -3 2015.20   48.90
   0  -3  -3 2074.19   47.40
   0   3   3 2048.90   43.70
  -1  -3  -3  728.83   18.20
  -1  -3  -3  711.33   20.20
   1   3   3  701.33   17.50
  -2  -3  -3  112.99    6.50
  -2  -3  -3  120.39    4.50
   2   3   3  106.79    5.50
  -3  -3  -3  839.82   22.60
   3   3   3  800.42   21.50
  -4  -3  -3 2569.44   59.39
   4   3   3 2515.35   57.79
   5   3   3 1189.98   31.30
   6   3   3   54.29    6.30
   7   3   3   12.60    3.40
   7   3   3   14.30    4.40
   8   3   3 1929.81   50.49
   8   3   3 1983.60   50.69
   9   3   3  106.29   10.20
   9   3   3  102.89    9.60
  10   3   3  149.69   11.20
  10   3   3  166.38   13.60
  11   3   3   13.50    5.60
  11   3   3   10.10    5.50
  12   3   3   45.90    8.80
  12   3   3   74.39   10.70
  13   3   3   20.10    7.80
  13   3   3    3.70    5.50
  14   3   3    6.90    7.00
  14   3   3    4.70    6.30
  15   3   3   37.60   11.30
  15   3   3   72.99   13.20
  12  -4  -3  173.48   20.60
  11  -4  -3   19.20    9.30
  10  -4  -3   76.69   12.60
   9  -4  -3  828.92   33.80
   8  -4  -3  844.32   32.60
   7  -4  -3   82.29    7.20
   7  -4  -3   82.89   10.70
   6  -4  -3   30.90    4.50
   6  -4  -3   45.60    7.80
   5  -4  -3 1821.92   41.10
   5  -4  -3 1701.03   48.50
   4  -4  -3  147.79    6.60
   4  -4  -3  138.59    9.50
   3  -4  -3 1229.88   34.70
   3  -4  -3 1275.97   29.30
   2  -4  -3  160.48    8.50
  -2   4   3  169.88    6.40
   1  -4  -3  253.27   10.00
  -1   4   3  250.37    8.40
   0  -4  -3  422.26   12.60
   0  -4  -3  420.56   15.20
   0   4   3  407.26   11.80
  -1  -4  -3   15.30    4.10
  -1  -4  -3   14.10    2.20
   1   4   3    9.50    2.40
  -2  -4  -3    4.20    1.40
  -2  -4  -3    6.30    3.20
   2   4   3    2.00    2.20
  -3  -4  -3  233.28   10.10
   3   4   3  232.58    9.30
  -4  -4  -3   17.20    4.10
   4   4   3    7.30    3.20
   4   4   3   15.50    2.00
  -5  -4  -3    7.30    3.80
   5   4   3    7.60    2.10
   5   4   3    7.70    3.40
   6   4   3  592.34   17.30
   6   4   3  613.84   20.20
   7   4   3  302.77   11.80
   7   4   3  280.07   13.60
   8   4   3    6.10    4.30
   8   4   3    3.50    3.40
   9   4   3   90.99    9.00
   9   4   3   69.69    9.20
  10   4   3  174.88   14.50
  10   4   3  161.48   11.00
  11   4   3    7.00    5.50
  11   4   3    8.90    4.90
  12   4   3    4.40    5.90
  12   4   3   -3.80    4.70
  13   4   3   88.89   12.90
  13   4   3   89.69   12.20
  14   4   3    1.90    7.10
  15   4   3   94.49   14.30
  12  -5  -3    8.20   10.00
  11  -5  -3   16.70    9.50
  10  -5  -3   15.40    8.40
   9  -5  -3  299.07   20.20
   8  -5  -3  231.78   16.60
   7  -5  -3   77.29   11.00
   6  -5  -3    7.90    3.30
   6  -5  -3    4.10    4.50
   5  -5  -3  518.35   21.40
   5  -5  -3  547.35   16.80
   4  -5  -3   16.10    3.20
   4  -5  -3   10.00    4.50
   3  -5  -3  575.24   20.30
   3  -5  -3  592.44   17.00
   2  -5  -3  154.88    8.70
  -2   5   3  157.78    7.50
   1  -5  -3  354.06   12.70
  -1   5   3  344.97   11.90
   0  -5  -3  116.19    6.10
   0  -5  -3  115.69    8.20
   0   5   3  130.99    6.70
  -1  -5  -3    4.70    3.30
  -1  -5  -3    1.10    1.60
   1   5   3    1.70    2.10
  -2  -5  -3  165.38    8.60
   2   5   3  155.98    7.50
  -3  -5  -3   41.60    5.50
   3   5   3   39.30    4.70
  -4  -5  -3  287.17   12.20
   4   5   3  270.27   11.60
  -5  -5  -3    1.80    3.70
   5   5   3    1.40    1.40
   5   5   3   -2.60    2.20
   6   5   3  251.57   12.30
   6   5   3  238.28    8.80
   7   5   3  126.39   10.80
   7   5   3  122.09    7.00
   8   5   3  896.11   26.00
   8   5   3  901.31   29.20
   9   5   3   20.70    6.30
   9   5   3   25.00    5.10
  10   5   3   18.00    5.20
  10   5   3   15.40    6.20
  11   5   3  135.79   14.10
  11   5   3  150.78   12.90
  12   5   3  182.28   16.60
  13   5   3   35.80    8.70
  14   5   3    7.70    6.70
  15   5   3   25.70    9.60
  11  -6  -3   43.90   12.50
  10  -6  -3  136.89   17.60
   9  -6  -3   85.19   13.60
   8  -6  -3   15.40    6.90
   7  -6  -3   17.10    6.90
   6  -6  -3  240.98   15.40
   6  -6  -3  221.38   11.20
   5  -6  -3  228.48   14.30
   5  -6  -3  234.48   10.70
   4  -6  -3    5.80    3.40
   4  -6  -3   12.70    4.90
   3  -6  -3   48.60    6.60
  -3   6   3   63.39    6.10
   2  -6  -3  438.56   16.40
  -2   6   3  458.35   15.50
   1  -6  -3  179.38   11.00
   1  -6  -3  205.98    9.40
  -1   6   3  178.28    9.10
   0  -6  -3   11.00    4.10
   0  -6  -3    7.60    2.70
   0   6   3   10.10    3.10
  -1  -6  -3  217.58    7.70
  -1  -6  -3  209.08   10.80
   1   6   3  205.38    9.40
  -2  -6  -3  925.81   21.80
  -2  -6  -3  957.00   27.50
   2   6   3  950.20   25.90
  -3  -6  -3  556.64   18.70
   3   6   3  567.64   18.10
  -4  -6  -3  228.38   11.10
   4   6   3  243.78   11.30
  -5  -6  -3 1018.90   29.60
   5   6   3 1011.90   29.20
  -6  -6  -3 3931.31   93.09
   6   6   3 4077.99   92.29
   6   6   3 4034.70   88.49
   7   6   3  278.47   14.00
   7   6   3  246.48    9.50
   8   6   3   85.19    6.90
   8   6   3   87.09    9.80
   9   6   3  536.05   22.30
  10   6   3  702.93   27.20
  11   6   3    6.80    5.80
  12   6   3   35.20    8.50
  13   6   3    5.40    6.40
  14   6   3   35.30   10.00
  11  -7  -3   79.89   15.30
  10  -7  -3   12.10    8.80
   9  -7  -3    6.10    7.10
   8  -7  -3  161.78   17.10
   7  -7  -3  727.13   30.60
   6  -7  -3    4.50    4.50
   6  -7  -3    3.60    5.30
   5  -7  -3  112.49    9.50
   5  -7  -3  106.79   11.90
   4  -7  -3  129.19    8.80
   4  -7  -3  113.89   11.40
   3  -7  -3  128.89   11.00
  -3   7   3  163.98    9.50
   2  -7  -3   19.50    4.60
  -2   7   3   18.50    4.50
   1  -7  -3  437.56   15.90
   1  -7  -3  461.15   19.10
  -1   7   3  435.76   16.40
   0  -7  -3  242.48   12.80
   0  -7  -3  250.87   10.20
   0   7   3  238.78   11.40
  -1  -7  -3  152.68    9.90
  -1  -7  -3  145.69    6.70
   1   7   3  144.19    8.90
  -2  -7  -3  158.58    5.70
  -2  -7  -3  150.18    9.60
   2   7   3  159.38    9.20
  -3  -7  -3   23.40    4.90
   3   7   3   14.60    4.10
  -4  -7  -3   69.49    7.70
   4   7   3   64.39    7.20
  -5  -7  -3  767.62   24.50
   5   7   3  729.43   24.00
  -6  -7  -3  917.61   28.80
   6   7   3  938.11   29.10
   7   7   3  133.09   11.70
   8   7   3   35.30    6.80
   9   7   3   74.99   10.10
  10   7   3  313.97   18.00
  11   7   3   -5.60    4.70
  12   7   3  263.87   18.10
  13   7   3   -2.80    6.80
  14   7   3   37.60   10.50
  10  -8  -3   36.60   11.90
   9  -8  -3   34.10   10.90
   8  -8  -3  146.39   17.60
   7  -8  -3  857.61   35.00
   6  -8  -3  849.81   32.90
   5  -8  -3   16.60    5.30
   5  -8  -3   17.00    6.50
   4  -8  -3  299.27   14.70
   4  -8  -3  310.27   16.80
   3  -8  -3 1706.63   48.10
  -3   8   3 1748.72   45.40
   2  -8  -3   -4.70    4.10
   2  -8  -3    4.50    3.90
  -2   8   3    1.00    3.70
   1  -8  -3 1242.38   37.20
   1  -8  -3 1199.08   33.70
  -1   8   3 1183.48   34.60
   0  -8  -3   29.20    6.40
   0  -8  -3   20.40    4.30
   0   8   3   25.20    5.50
  -1  -8  -3   61.99    8.00
  -1  -8  -3   63.49    5.40
   1   8   3   64.89    7.40
  -2  -8  -3  408.76   16.70
  -2  -8  -3  378.66   11.60
   2   8   3  413.26   16.30
  -3  -8  -3  395.46   16.30
   3   8   3  391.96   16.30
  -4  -8  -3   -0.40    3.40
   4   8   3    2.30    3.40
  -5  -8  -3  273.77   14.40
   5   8   3  288.87   14.00
  -6  -8  -3   65.19    8.70
   6   8   3   70.29    8.60
   7   8   3   16.10    5.10
   8   8   3  107.99   11.60
   9   8   3  207.08   14.40
  10   8   3    5.70    5.50
  11   8   3   82.69   12.10
  12   8   3  168.78   17.10
  13   8   3   18.80    8.80
  14   8   3   32.00   10.40
   9  -9  -3   89.49   15.50
   8  -9  -3  102.39   15.60
   7  -9  -3   31.70    9.80
   6  -9  -3   32.50    9.00
   5  -9  -3   29.00    8.20
   5  -9  -3   41.60    7.70
   4  -9  -3   19.40    6.80
   4  -9  -3   11.10    5.40
   3  -9  -3   99.19   12.40
   3  -9  -3   99.59   10.60
  -3   9   3  106.09   10.70
   2  -9  -3    4.10    5.50
   2  -9  -3    0.20    4.20
  -2   9   3    8.10    4.80
   1  -9  -3  227.98   14.30
   1  -9  -3  237.18   12.30
  -1   9   3  231.48   13.80
   0  -9  -3   94.49    8.10
   0  -9  -3   99.29   10.90
   0   9   3   85.49    9.70
  -1  -9  -3   23.40    4.20
  -1  -9  -3   20.40    5.80
   1   9   3    6.70    4.50
  -2  -9  -3   90.39    9.60
   2   9   3   80.79    9.10
  -3  -9  -3    2.70    3.90
   3   9   3    4.00    3.80
  -4  -9  -3   85.79    9.30
   4   9   3  107.39   10.30
  -5  -9  -3   21.70    6.20
   5   9   3   12.50    5.10
  -6  -9  -3   -4.80    4.50
   6   9   3    1.20    3.70
   7   9   3   67.49    9.20
   8   9   3  214.58   14.40
   9   9   3   11.70    6.10
  10   9   3   97.49   12.40
  11   9   3    5.80    6.50
  12   9   3   90.89   13.50
  13   9   3  118.69   15.10
   8 -10  -3   13.30    8.80
   7 -10  -3   10.50    7.90
   6 -10  -3   -1.00    6.40
   5 -10  -3   19.00    7.80
   4 -10  -3   60.69   11.70
   4 -10  -3   69.29   10.30
   4 -10  -3   62.89    9.20
   3 -10  -3   98.69   13.20
   3 -10  -3   92.19   10.80
  -3  10   3   85.89   10.50
   2 -10  -3  150.48   14.90
   2 -10  -3  169.48   13.60
  -2  10   3  133.09   12.90
   1 -10  -3   70.09    8.40
   1 -10  -3   61.49   10.00
  -1  10   3   53.79    9.00
   0 -10  -3  307.17   16.70
   0  10   3  317.77   16.90
  -1 -10  -3   32.30    7.10
   1  10   3   30.70    6.90
  -2 -10  -3   21.60    6.30
   2  10   3   10.60    5.10
  -3 -10  -3   22.90    6.10
   3  10   3   23.20    6.50
  -4 -10  -3   35.70    7.20
   4  10   3   22.60    6.30
  -5 -10  -3   67.29    9.60
   5  10   3   92.59   10.70
  -6 -10  -3   40.50    8.10
   6  10   3   31.40    7.10
  -7 -10  -3  409.96   19.30
   7  10   3  368.36   19.20
   8  10   3  848.72   31.60
   9  10   3   39.10    9.30
  10  10   3   41.70    9.70
  11  10   3  408.46   23.00
  12  10   3  257.47   21.70
  13  10   3   35.10   10.50
   7 -11  -3   31.00   11.40
   6 -11  -3  281.87   20.60
   5 -11  -3  585.94   29.60
   5 -11  -3  615.54   28.50
   4 -11  -3   58.59   10.70
   4 -11  -3   67.39   12.70
   3 -11  -3    0.30    6.30
   3 -11  -3    2.80    6.00
  -3  11   3   -1.90    4.90
   2 -11  -3  571.94   25.20
   2 -11  -3  568.94   25.50
  -2  11   3  539.95   24.20
   1 -11  -3  334.37   18.90
  -1  11   3  251.17   17.20
   0 -11  -3   10.80    6.10
   0  11   3   19.60    6.70
  -1 -11  -3  194.88   14.30
   1  11   3  203.18   14.50
  -2 -11  -3    5.80    5.90
   2  11   3   -6.10    4.10
  -3 -11  -3   64.69    9.50
   3  11   3   67.39    9.50
  -4 -11  -3   23.30    6.60
   4  11   3   28.60    7.20
  -5 -11  -3  209.38   14.80
   5  11   3  213.88   14.60
  -6 -11  -3    8.70    6.70
   6  11   3    0.60    4.70
  -7 -11  -3   76.89   10.90
   7  11   3   58.79    9.90
   8  11   3  105.79   13.20
   9  11   3    8.00    6.60
  10  11   3    7.40    6.50
  11  11   3   -5.80    6.00
  12  11   3   19.90    9.60
   6 -12  -3   40.50   12.00
   6 -12  -3   37.00   12.60
   5 -12  -3  177.38   18.40
   5 -12  -3  162.98   19.40
   4 -12  -3   65.19   13.50
   3 -12  -3   -0.80    6.20
  -3  12   3    0.10    5.70
   2 -12  -3   78.89   12.50
  -2  12   3   92.99   12.90
   1 -12  -3  364.46   20.80
  -1  12   3  409.36   22.50
   0 -12  -3   29.50    8.40
   0  12   3   28.40    8.90
  -1 -12  -3  203.98   16.60
   1  12   3  209.48   18.30
  -2 -12  -3   13.20    6.50
   2  12   3    5.30    5.80
  -3 -12  -3  135.09   13.70
   3  12   3  163.58   15.40
  -4 -12  -3  260.57   16.90
   4  12   3  300.97   18.30
  -5 -12  -3   71.89   11.10
   5  12   3   61.49   10.00
  -6 -12  -3   30.40    8.40
   6  12   3   14.40    6.50
  -7 -12  -3   19.70    8.30
   7  12   3   12.50    6.60
   8  12   3    7.90    6.60
   9  12   3   31.90    8.60
  10  12   3    8.20    7.20
  11  12   3   22.30    9.60
   4 -13  -3   -2.70    7.80
   3 -13  -3   51.69   11.50
   2 -13  -3   57.39   11.90
  -2  13   3   50.69   10.90
   1 -13  -3   42.10   10.30
  -1  13   3   44.70   10.20
   0 -13  -3   14.00    7.70
   0  13   3    1.40    7.20
  -1 -13  -3  254.87   17.10
   1  13   3  252.17   21.30
  -2 -13  -3   33.10    8.90
   2  13   3   37.00    9.40
  -3 -13  -3   23.40    8.60
   3  13   3   27.60    8.40
  -4 -13  -3   38.40    9.60
   4  13   3   52.29   10.10
  -5 -13  -3   25.60    9.10
   5  13   3    0.80    5.90
  -6 -13  -3   12.00    8.60
   6  13   3   14.80    7.40
   7  13   3   -1.20    6.20
   8  13   3   17.60    7.70
   9  13   3   88.59   14.60
  10  13   3   97.39   14.60
  -1  14   3   10.40    8.10
   0  14   3   63.19   12.90
   1  14   3   -0.40    6.50
   2  14   3  136.99   16.50
   3  14   3    5.00    6.90
   4  14   3   56.89   11.50
   5  14   3    8.90    7.30
   6  14   3   18.50    8.40
   7  14   3   22.50    9.10
   8  14   3    1.70    7.00
   1  15   3  128.99   18.70
   2  15   3    2.90    9.30
   3  15   3   -5.90    7.30
   4  15   3   29.30   10.20
   5  15   3   17.80    9.50
   4  12  -4    4.00    8.50
   3  12  -4   59.29   13.60
   2  12  -4   23.10   10.20
   1  12  -4   13.30    8.80
   0  12  -4    4.10    8.40
  -1  12  -4   45.10   11.60
  -2  12  -4   12.70    9.60
   7  11  -4  144.49   18.00
   6  11  -4  146.69   18.40
   5  11  -4   -1.50    7.10
   4  11  -4   29.80   10.40
   3  11  -4    9.50    8.00
   2  11  -4   68.89   13.40
   1  11  -4   98.69   15.40
   0  11  -4    7.10    7.80
  -1  11  -4    6.10    7.70
  -2  11  -4  202.88   20.40
  -3  11  -4   15.20    9.40
   4 -11   4   13.70   10.30
   5 -11   4   25.60   11.20
   8  10  -4    5.50    7.60
   7  10  -4   41.40   10.30
   6  10  -4   25.40    8.80
   5  10  -4    9.00    7.40
   4  10  -4   34.20    9.50
   3  10  -4   14.10    7.30
   2  10  -4  199.58   19.10
   1  10  -4   56.49   11.70
   0  10  -4  131.29   16.00
  -1  10  -4  140.59   16.70
  -2  10  -4   13.10    7.80
  -3  10  -4    0.30    7.20
   4 -10   4  425.96   26.40
   5 -10   4  448.96   27.60
   6 -10   4    3.60    9.40
   7 -10   4   13.90   10.30
   9   9  -4   80.99   12.80
   8   9  -4  263.27   18.40
   7   9  -4   15.00    8.10
   6   9  -4   37.80    9.00
   5   9  -4   91.89   12.80
   4   9  -4   23.40    7.70
   4   9  -4   27.10    7.60
   3   9  -4   34.70    8.80
   3   9  -4   49.30    9.10
   2   9  -4    7.00    5.90
   2   9  -4   12.40    5.90
   1   9  -4  133.29   15.00
   0   9  -4   10.70    6.00
  -1   9  -4  128.99   15.40
  -2   9  -4   38.50    9.70
  -3   9  -4   38.90   10.10
   4  -9   4  318.77   21.70
   5  -9   4  338.47   23.10
   6  -9   4   17.90    9.40
   7  -9   4   33.40   11.10
   8  -9   4  226.48   22.70
  10   8  -4   25.20    9.60
   9   8  -4  573.14   26.70
   8   8  -4  411.16   22.00
   7   8  -4   11.20    6.30
   6   8  -4  137.99   14.00
   6   8  -4  114.39   13.00
   5   8  -4  412.86   20.90
   5   8  -4  372.46   20.00
   4   8  -4   79.59   11.20
   4   8  -4   70.39   10.30
   3   8  -4   34.70    7.90
   3   8  -4   37.90    8.60
   2   8  -4    5.40    5.30
   2   8  -4    1.70    5.50
   1   8  -4   25.50    7.60
   1   8  -4   42.90    7.90
   0   8  -4   23.10    7.40
  -1   8  -4   10.20    6.50
  -2   8  -4   32.70    8.20
  -3   8  -4  152.08   16.20
   4  -8   4   90.89   13.30
   5  -8   4   23.00    8.50
   6  -8   4    0.50    6.90
   7  -8   4   28.60    9.60
   8  -8   4   59.19   12.60
   9  -8   4   -6.30    7.30
  11   7  -4   90.49   13.30
  10   7  -4   66.79   11.50
   9   7  -4   -5.00    5.80
   8   7  -4    7.30    6.30
   8   7  -4    7.30    6.50
   7   7  -4   58.89   10.00
   7   7  -4   36.40    8.10
   6   7  -4    0.20    5.20
   6   7  -4   16.80    5.90
   5   7  -4   25.30    6.60
   5   7  -4   16.20    6.50
   4   7  -4   87.89   10.80
   4   7  -4  110.39   11.70
   3   7  -4   49.30    8.50
   3   7  -4   45.00    8.50
   2   7  -4    5.30    4.90
   2   7  -4   16.60    5.80
   1   7  -4   74.09    9.90
   1   7  -4   83.39    9.70
   0   7  -4  157.08   11.60
   0   7  -4  180.58   15.60
  -1   7  -4   66.09   10.20
  -2   7  -4  227.68   15.70
  -3   7  -4   15.50    6.90
   4  -7   4  479.65   24.00
   5  -7   4   12.90    7.50
   6  -7   4  281.07   19.40
   7  -7   4   -2.40    6.00
   8  -7   4   37.30   10.10
   9  -7   4    4.00    7.70
  10  -7   4    0.60    8.80
  10   6  -4   45.60   11.50
  10   6  -4   37.20    9.00
   9   6  -4  405.16   23.10
   9   6  -4  452.35   21.00
   8   6  -4   11.70    6.20
   8   6  -4   22.90    8.50
   7   6  -4   14.10    5.60
   7   6  -4   15.80    7.00
   6   6  -4   31.10    7.10
   6   6  -4   37.00    8.40
   5   6  -4   43.90    8.20
   5   6  -4   50.59    7.80
   4   6  -4  150.18   13.50
   4   6  -4  153.98   12.80
   3   6  -4   32.40    6.70
   3   6  -4   39.10    7.60
   2   6  -4  187.78   12.50
   2   6  -4  182.08   12.60
   1   6  -4   75.79    9.10
   1   6  -4   75.09    9.70
   0   6  -4  629.14   23.40
   0   6  -4  612.34   24.10
  -1   6  -4    5.50    4.50
  -1   6  -4    7.50    4.50
  -2   6  -4  300.57   16.30
  -3   6  -4   40.90    7.70
   4  -6   4   66.29    9.70
   5  -6   4   18.10    7.30
   6  -6   4  682.03   28.80
   7  -6   4  496.45   24.40
   8  -6   4   19.10    7.40
   9  -6   4   72.29   12.60
  10  -6   4  510.15   27.00
  11  -6   4   89.19   14.80
  12   5  -4    5.60    8.60
  11   5  -4  129.89   16.40
  10   5  -4   78.19   12.50
  10   5  -4   61.89    9.50
   9   5  -4   22.90    6.70
   9   5  -4   16.50    8.00
   8   5  -4    3.60    4.70
   8   5  -4    9.10    6.50
   7   5  -4  759.52   26.20
   7   5  -4  721.03   29.40
   6   5  -4  937.71   33.70
   6   5  -4  906.41   29.50
   5   5  -4   29.40    6.00
   5   5  -4   15.10    6.40
   4   5  -4   37.40    7.30
   4   5  -4   36.30    6.10
   3   5  -4 1623.74   46.10
   3   5  -4 1571.24   43.00
   2   5  -4  209.78   12.20
   2   5  -4  195.68   12.70
   1   5  -4  366.16   16.40
   1   5  -4  346.57   16.40
   0   5  -4   24.10    5.60
   0   5  -4   28.30    6.20
  -1   5  -4   17.40    5.60
  -1   5  -4   12.00    4.50
  -2   5  -4   43.10    7.60
  -3   5  -4   -7.70    3.40
   4  -5   4  189.88   13.70
   5  -5   4  140.49   13.40
   6  -5   4  100.89   12.30
   7  -5   4  172.78   15.80
   8  -5   4   -2.00    5.60
   9  -5   4    5.10    7.60
  10  -5   4  194.58   18.60
  11  -5   4   34.20   10.00
  12  -5   4    9.60    9.10
  12  -5   4   13.70    8.40
  12   4  -4    4.30    8.30
  11   4  -4   11.40    8.00
  10   4  -4   49.99    8.60
  10   4  -4   36.90    9.70
   9   4  -4  180.38   12.40
   9   4  -4  159.78   15.70
   8   4  -4   15.70    6.50
   8   4  -4   16.80    5.40
   7   4  -4  984.40   34.40
   7   4  -4 1013.40   30.70
   6   4  -4  545.15   19.60
   6   4  -4  492.85   22.30
   5   4  -4   28.70    5.60
   5   4  -4   18.80    6.50
   4   4  -4  476.75   20.70
   4   4  -4  493.25   18.00
   3   4  -4 2399.46   59.19
   3   4  -4 2522.25   64.39
   2   4  -4   74.19    8.80
   2   4  -4   89.59    8.50
   1   4  -4  151.68   10.40
   1   4  -4  144.99    9.60
   0   4  -4  373.56   16.20
   0   4  -4  400.66   16.50
  -1   4  -4   45.60    6.50
  -1   4  -4   41.70    6.40
  -2   4  -4   -1.50    3.20
  -2   4  -4    2.00    4.00
  -3   4  -4  160.78   10.90
   3  -4   4  185.88   12.10
   4  -4   4   19.70    6.10
   5  -4   4   74.79    9.40
   6  -4   4  179.48   12.60
   7  -4   4    5.90    5.40
   8  -4   4   26.90    7.50
   9  -4   4   64.59   10.70
  10  -4   4  115.19   13.80
  11  -4   4   -1.60    6.30
  12  -4   4   21.70    9.70
  12  -4   4    5.50    8.00
  13  -4   4   76.99   14.10
  13  -4   4   76.89   14.90
  12   3  -4  -11.90    7.00
  11   3  -4   11.20    7.60
  10   3  -4  282.27   18.70
   9   3  -4  210.88   12.60
   9   3  -4  204.08   15.30
   8   3  -4  149.59   14.50
   8   3  -4  144.39   11.60
   7   3  -4  103.09   11.80
   7   3  -4  100.49    9.20
   6   3  -4    5.50    3.50
   6   3  -4    5.60    4.40
   5   3  -4   64.59    8.90
   5   3  -4   57.49    6.60
   4   3  -4  449.16   15.70
   4   3  -4  394.26   18.40
   3   3  -4  267.17   14.60
   3   3  -4  302.97   12.10
   2   3  -4  136.49   10.00
   2   3  -4  141.79    8.50
   1   3  -4   74.19    8.30
   1   3  -4   83.99    7.60
   0   3  -4  153.28    9.70
   0   3  -4  152.48    9.30
  -1   3  -4   27.20    5.10
  -1   3  -4   23.80    4.80
  -2   3  -4  817.62   25.50
  -2   3  -4  802.62   25.30
   3  -3   4  291.77   14.20
   4  -3   4  379.76   16.60
   5  -3   4   -4.70    2.70
   6  -3   4  534.25   21.40
   7  -3   4  136.69   12.60
   8  -3   4 1261.97   39.90
   9  -3   4   15.40    6.50
  10  -3   4   75.69   11.10
  11  -3   4  179.48   17.30
  12  -3   4  149.79   18.00
  12  -3   4  125.69   15.60
  13  -3   4   33.00    9.90
  13  -3   4    1.40    7.90
  13   2  -4    1.00    7.20
  12   2  -4   47.40   11.40
  11   2  -4   88.69   13.50
  10   2  -4  149.79   16.00
   9   2  -4  158.28   10.60
   9   2  -4  152.78   15.20
   8   2  -4   89.99    8.80
   8   2  -4   93.39   11.60
   7   2  -4  720.73   22.60
   7   2  -4  739.03   27.60
   6   2  -4   83.59    9.90
   6   2  -4   99.19    8.00
   5   2  -4  354.36   16.40
   5   2  -4  331.57   12.90
   4   2  -4  155.88    8.10
   4   2  -4  142.79   10.10
   3   2  -4  142.49    7.50
   3   2  -4  142.29   10.20
   2   2  -4   46.50    7.10
   2   2  -4   49.20    5.20
   1   2  -4    1.00    2.40
   1   2  -4    1.20    3.40
   0   2  -4    9.10    3.90
   0   2  -4    7.80    3.10
  -1   2  -4  160.88    9.30
  -1   2  -4  164.48    9.00
  -2   2  -4 1252.67   33.70
   2  -2   4 1191.28   33.10
   3  -2   4   87.19    8.20
   4  -2   4  527.65   19.50
   5  -2   4  225.68   12.40
   6  -2   4  465.35   19.30
   7  -2   4  187.18   12.70
   8  -2   4  620.64   24.20
   9  -2   4  381.16   19.00
  10  -2   4   25.60    7.50
  11  -2   4  123.09   14.10
  12  -2   4  727.43   30.80
  12  -2   4  711.03   32.80
  13  -2   4   21.00    9.00
  13  -2   4   31.60   10.90
  14  -2   4    3.60    9.20
  14  -2   4   14.00    8.60
  13   1  -4   42.30   12.40
  12   1  -4   -5.30    6.90
  11   1  -4    2.00    6.10
  10   1  -4   61.99   10.50
   9   1  -4  106.99   12.80
   8   1  -4   28.30    5.00
   8   1  -4   40.20    8.30
   7   1  -4   24.40    4.60
   7   1  -4   28.80    7.00
   6   1  -4  172.48    8.70
   6   1  -4  185.88   12.20
   5   1  -4 2170.78   49.60
   5   1  -4 2121.09   56.69
   4   1  -4 1740.53   47.20
   4   1  -4 1778.82   41.10
   3   1  -4  117.69    8.60
   3   1  -4  110.19    5.90
   2   1  -4  300.47   10.40
   2   1  -4  310.77   13.80
   1   1  -4 3037.10   67.59
   1   1  -4 3100.29   74.69
   0   1  -4  371.66   12.60
   0   1  -4  371.96    9.90
   0   1  -4  342.07   14.40
  -1   1  -4   87.09    3.70
  -1   1  -4   79.19    6.40
  -1   1  -4   71.29    6.60
  -2   1  -4  664.43   20.00
   2  -1   4  605.74   19.40
  -3   1  -4 1776.12   44.90
   3  -1   4 1783.92   44.30
   4  -1   4  255.07   12.00
   5  -1   4  238.98   11.90
   6  -1   4    8.20    4.40
   7  -1   4  133.99   11.50
   8  -1   4    4.50    4.70
   9  -1   4  145.09   13.00
  10  -1   4   27.90    7.60
  11  -1   4    7.40    6.10
  11  -1   4    0.80    5.90
  12  -1   4   84.29   12.40
  12  -1   4   86.79   13.20
  13  -1   4    0.20    7.50
  13  -1   4   15.80    8.20
  14  -1   4   28.00    9.90
  14  -1   4   70.89   13.50
  13   0  -4  -12.40    6.40
  12   0  -4   63.69   12.60
  11   0  -4    2.90    6.20
  10   0  -4    9.70    6.20
   9   0  -4    4.10    5.30
   8   0  -4   20.90    6.70
   8   0  -4   13.50    4.10
   7   0  -4  261.87   15.20
   7   0  -4  259.77   10.80
   6   0  -4   42.90    7.20
   6   0  -4   28.10    4.10
   5   0  -4  842.82   21.50
   5   0  -4  809.62   27.40
   4   0  -4   43.30    6.20
   4   0  -4   49.20    4.20
   3   0  -4  353.76   10.40
   3   0  -4  340.37   14.40
   2   0  -4  190.78   10.20
   2   0  -4  214.68    7.30
   1   0  -4 1276.27   30.10
   1   0  -4 1320.27   35.70
   0   0  -4  285.57    9.60
   0   0  -4  275.37    9.20
   0   0  -4  270.77   11.90
  -1   0  -4   26.10    4.60
  -1   0  -4   26.70    3.10
   1   0   4   30.60    4.00
  -2   0  -4   22.30    3.00
  -2   0  -4   10.80    3.30
   2   0   4   10.50    3.10
  -3   0  -4  284.87   11.40
   3   0   4  313.67   12.00
   4   0   4   18.90    4.30
   5   0   4  230.08   11.20
   6   0   4   45.40    6.60
   7   0   4  150.28   10.30
   8   0   4  218.58   12.60
   9   0   4    5.70    5.10
  10   0   4  171.18   14.80
  11   0   4   25.00    8.20
  11   0   4   11.20    6.20
  12   0   4   74.99   12.30
  12   0   4   98.19   12.90
  13   0   4   60.69   11.10
  13   0   4   38.90   11.00
  14   0   4   38.20   11.60
  14   0   4   20.80    9.10
  13  -1  -4   43.20   12.20
  12  -1  -4   17.40    9.00
  11  -1  -4    5.70    6.80
  10  -1  -4   19.80    7.70
   9  -1  -4   56.89   10.00
   8  -1  -4  482.85   22.30
   7  -1  -4  226.88    9.80
   7  -1  -4  238.58   14.70
   6  -1  -4  398.36   18.30
   6  -1  -4  395.06   12.60
   5  -1  -4 1094.19   25.80
   5  -1  -4 1049.59   33.10
   4  -1  -4  546.65   14.00
   4  -1  -4  548.75   19.90
   3  -1  -4    7.10    1.50
   3  -1  -4    6.00    3.40
   2  -1  -4  851.71   25.40
   2  -1  -4  875.61   19.60
   1  -1  -4   33.00    4.90
   1  -1  -4   36.40    2.80
   0  -1  -4  114.99    6.50
   0  -1  -4  122.59    8.20
   0   1   4  115.79    5.20
  -1  -1  -4   12.50    3.10
  -1  -1  -4   15.30    3.80
   1   1   4   15.00    2.80
  -2  -1  -4  622.84   17.00
  -2  -1  -4  596.94   18.00
   2   1   4  624.14   17.50
  -3  -1  -4  139.39    7.10
  -3  -1  -4  130.39    6.90
   3   1   4  132.69    7.20
   4   1   4    9.20    3.20
   5   1   4  169.68    9.10
   6   1   4   16.60    4.50
   7   1   4   11.50    4.70
   8   1   4  888.11   28.60
   9   1   4  217.58   13.80
  10   1   4  993.60   34.20
  10   1   4  975.40   33.00
  11   1   4   14.90    6.20
  11   1   4   -1.50    4.90
  12   1   4   30.80    8.00
  12   1   4   26.50    7.60
  13   1   4  381.66   21.90
  13   1   4  484.65   24.70
  14   1   4  292.67   20.10
  14   1   4  252.27   22.70
  15   1   4   -2.20    7.90
  15   1   4   14.40    9.40
  12  -2  -4   10.80    8.90
  11  -2  -4    6.20    7.30
  10  -2  -4  114.69   14.40
   9  -2  -4   40.90    9.50
   8  -2  -4   66.49   10.20
   7  -2  -4  253.17   15.50
   7  -2  -4  235.98   10.40
   6  -2  -4   65.79    5.20
   6  -2  -4   63.99    9.00
   5  -2  -4  339.27   10.30
   5  -2  -4  364.96   16.50
   4  -2  -4  825.82   26.60
   4  -2  -4  835.82   19.20
   3  -2  -4  655.93   21.60
   2  -2  -4   44.80    5.50
   1  -2  -4  155.78    8.10
   0  -2  -4 2074.19   49.99
   0  -2  -4 2031.70   49.10
   0   2   4 2103.39   43.90
  -1  -2  -4 1465.85   36.60
  -1  -2  -4 1481.55   37.80
   1   2   4 1557.94   33.90
  -2  -2  -4    4.60    2.90
  -2  -2  -4    5.40    2.60
   2   2   4    9.50    2.70
  -3  -2  -4   19.30    3.00
  -3  -2  -4   21.40    3.70
   3   2   4   18.20    3.50
  -4  -2  -4   21.70    3.90
   4   2   4   16.10    3.70
   5   2   4   43.30    5.60
   6   2   4  145.59    9.00
   7   2   4 1193.98   34.10
   8   2   4   50.39    7.70
   9   2   4  194.08   12.70
  10   2   4  193.88   13.60
  10   2   4  168.48   14.30
  11   2   4   12.30    6.30
  11   2   4   14.00    5.70
  12   2   4   18.50    6.90
  12   2   4    2.90    5.90
  13   2   4   90.49   12.70
  13   2   4   81.49   12.50
  14   2   4  295.87   20.50
  14   2   4  293.57   20.00
  15   2   4   12.90    8.20
  15   2   4    4.70    8.20
  12  -3  -4    2.90    8.30
  11  -3  -4    0.20    6.90
  10  -3  -4   34.40    9.30
   9  -3  -4    2.60    5.60
   8  -3  -4   74.99   11.00
   7  -3  -4    7.90    5.50
   6  -3  -4  157.38    7.10
   6  -3  -4  162.18   13.80
   5  -3  -4    3.90    2.10
   5  -3  -4    3.50    4.00
   4  -3  -4  849.32   19.40
   4  -3  -4  840.42   27.30
   3  -3  -4 1810.22   47.30
   2  -3  -4  115.89    7.50
   1  -3  -4    5.90    2.80
   0  -3  -4 2313.97   56.39
   0  -3  -4 2367.36   55.59
   0   3   4 2413.46   49.99
  -1  -3  -4 8606.64  187.88
  -1  -3  -4 8841.62  191.18
   1   3   4 8744.23  179.98
  -2  -3  -4  532.95   15.00
  -2  -3  -4  518.55   16.60
   2   3   4  511.15   14.50
  -3  -3  -4    4.30    3.10
  -3  -3  -4    6.40    2.10
   3   3   4    2.10    2.40
  -4  -3  -4  477.95   16.10
   4   3   4  496.25   15.80
  -5  -3  -4  300.97   12.50
   5   3   4  283.57   12.00
   6   3   4  550.84   18.90
   7   3   4  123.39   10.20
   8   3   4   31.90    6.30
   9   3   4  106.09    9.80
   9   3   4  114.69   11.10
  10   3   4    8.40    4.50
  10   3   4    4.90    5.60
  11   3   4   82.89   10.30
  11   3   4   76.69   10.60
  12   3   4   -2.20    4.30
  12   3   4   -4.10    4.80
  13   3   4   17.70    7.90
  13   3   4    9.30    6.70
  14   3   4   16.70    7.90
  14   3   4   20.20    7.70
  15   3   4   -0.90    7.20
  15   3   4   -2.40    7.00
  12  -4  -4  454.55   28.70
  11  -4  -4   -3.00    6.90
  10  -4  -4   62.19   12.00
   9  -4  -4  141.89   15.70
   8  -4  -4  133.09   14.30
   7  -4  -4  351.46   19.10
   6  -4  -4  165.78   12.50
   5  -4  -4  128.49   12.00
   5  -4  -4  130.79    6.10
   4  -4  -4  687.03   17.00
   4  -4  -4  688.73   24.00
   3  -4  -4    7.60    3.80
   3  -4  -4   13.30    2.00
   2  -4  -4    1.10    1.20
   2  -4  -4    2.40    2.80
   1  -4  -4 1453.05   37.00
  -1   4   4 1435.06   31.90
   0  -4  -4   66.89    7.00
   0  -4  -4   78.99    5.30
   0   4   4   72.79    4.00
  -1  -4  -4  231.28   11.00
  -1  -4  -4  241.58    8.80
   1   4   4  232.68    8.10
  -2  -4  -4  149.99    8.50
  -2  -4  -4  135.69    6.20
   2   4   4  142.79    6.80
  -3  -4  -4   42.90    3.10
  -3  -4  -4   47.60    5.70
   3   4   4   45.90    4.70
  -4  -4  -4   13.20    4.00
   4   4   4   16.40    3.80
  -5  -4  -4   89.39    8.20
   5   4   4   99.89    8.30
   6   4   4  129.99    8.80
   7   4   4   55.19    7.30
   7   4   4   57.99    5.80
   8   4   4   44.80    7.00
   8   4   4   57.19    6.40
   9   4   4  116.79   11.70
   9   4   4  123.19    8.90
  10   4   4   59.99    9.40
  10   4   4   53.39    7.70
  11   4   4   73.59    9.10
  11   4   4   69.89   10.40
  12   4   4  204.08   14.30
  12   4   4  254.87   16.80
  13   4   4   24.70    8.20
  13   4   4   15.80    6.10
  14   4   4   49.40   10.70
  15   4   4  145.49   17.30
  11  -5  -4   79.89   15.00
  10  -5  -4    6.90    8.10
   9  -5  -4   15.60    7.40
   8  -5  -4  147.49   16.30
   7  -5  -4   17.00    7.10
   6  -5  -4  183.68   13.60
   5  -5  -4  124.99   12.00
   5  -5  -4  126.99    6.50
   4  -5  -4  147.79    6.70
   4  -5  -4  146.39   10.60
   3  -5  -4   96.69    9.10
   3  -5  -4  105.49    5.30
   2  -5  -4  375.06   14.80
  -2   5   4  380.56   11.40
   1  -5  -4   95.49    6.70
  -1   5   4  105.39    5.50
   0  -5  -4  132.89    7.00
   0  -5  -4  122.59   10.30
   0   5   4  148.89    6.50
  -1  -5  -4 2385.86   58.39
  -1  -5  -4 2392.86   54.69
   1   5   4 2373.36   53.09
  -2  -5  -4  419.86   15.90
  -2  -5  -4  434.06   12.20
   2   5   4  407.26   13.50
  -3  -5  -4    2.10    2.80
  -3  -5  -4    1.90    1.20
   3   5   4    3.00    2.50
  -4  -5  -4 1239.58   33.60
   4   5   4 1206.88   32.10
  -5  -5  -4  375.66   15.10
   5   5   4  369.46   10.40
   5   5   4  376.26   14.70
  -6  -5  -4    9.00    4.80
   6   5   4   11.80    2.60
   6   5   4   15.30    4.20
   7   5   4  378.36   12.90
   7   5   4  397.46   16.70
   8   5   4  335.77   13.20
   8   5   4  358.86   16.80
   9   5   4  121.09    8.60
   9   5   4  149.29   13.30
  10   5   4  142.69   13.60
  10   5   4  140.09    9.80
  11   5   4   93.69    9.90
  11   5   4   82.49   11.20
  12   5   4  291.97   18.70
  13   5   4    9.30    7.30
  14   5   4    0.60    6.60
  15   5   4  351.06   23.30
  11  -6  -4   75.59   14.90
  10  -6  -4   25.00   10.00
   9  -6  -4   -4.80    6.20
   8  -6  -4   52.19   10.80
   7  -6  -4    0.50    5.30
   6  -6  -4   46.60    9.00
   5  -6  -4   96.79   11.20
   5  -6  -4  103.09    7.60
   4  -6  -4    6.40    4.70
   4  -6  -4    5.30    2.80
   3  -6  -4  252.07   13.20
   3  -6  -4  269.67   10.20
   2  -6  -4  600.24   20.70
  -2   6   4  618.74   17.90
   1  -6  -4 1283.97   33.80
   1  -6  -4 1237.58   37.10
  -1   6   4 1236.88   31.40
   0  -6  -4   42.20    6.70
   0  -6  -4   39.30    4.60
   0   6   4   42.70    4.90
  -1  -6  -4  340.97   15.10
  -1  -6  -4  345.17   11.00
   1   6   4  335.17   12.20
  -2  -6  -4 4434.16   96.89
  -2  -6  -4 4593.84  101.99
   2   6   4 4265.77   96.29
  -3  -6  -4 1597.74   42.30
   3   6   4 1612.94   39.80
  -4  -6  -4   19.90    4.80
   4   6   4   13.20    3.90
  -5  -6  -4   38.50    6.10
   5   6   4   48.00    6.10
  -6  -6  -4  437.66   17.90
   6   6   4  443.46   11.80
   6   6   4  412.16   17.10
   7   6   4  418.96   13.00
   7   6   4  427.86   18.00
   8   6   4  134.09   12.10
   9   6   4  286.67   16.30
  10   6   4   29.90    7.60
  11   6   4   21.10    7.50
  12   6   4    3.20    6.20
  13   6   4    3.50    6.60
  14   6   4   23.90    9.10
  15   6   4   58.19   12.50
  10  -7  -4   71.79   15.00
   9  -7  -4   39.60   11.40
   8  -7  -4    4.60    6.90
   7  -7  -4  112.69   14.30
   6  -7  -4   70.09   10.50
   5  -7  -4  186.78   13.80
   4  -7  -4  310.17   12.60
   4  -7  -4  329.67   16.50
   3  -7  -4   18.90    5.40
  -3   7   4   15.90    3.90
   2  -7  -4  100.59    9.10
  -2   7   4   99.89    8.00
   1  -7  -4    3.30    4.90
   1  -7  -4    8.80    3.70
  -1   7   4   12.60    3.90
   0  -7  -4   46.70    5.20
   0  -7  -4   56.89    7.70
   0   7   4   59.29    6.10
  -1  -7  -4  293.47   10.20
  -1  -7  -4  277.07   14.20
   1   7   4  276.77   11.80
  -2  -7  -4 1505.75   35.00
  -2  -7  -4 1543.95   41.70
   2   7   4 1511.05   38.60
  -3  -7  -4 2863.01   68.89
   3   7   4 2762.02   65.39
  -4  -7  -4  141.39   10.00
   4   7   4  143.89    9.00
  -5  -7  -4  130.29   10.70
   5   7   4  133.79    9.30
  -6  -7  -4  816.32   26.90
   6   7   4  776.32   26.00
  -7  -7  -4  766.12   26.60
   7   7   4  771.92   26.50
   8   7   4  629.44   24.20
   9   7   4   36.80    7.90
  10   7   4  121.09   13.10
  11   7   4   49.50    9.70
  12   7   4   44.80   10.00
  13   7   4   41.70   10.10
  14   7   4    4.70    6.90
  10  -8  -4  449.95   28.90
   9  -8  -4   22.10    9.70
   8  -8  -4   13.20    8.10
   7  -8  -4  354.06   21.90
   6  -8  -4  153.38   15.60
   5  -8  -4  225.98   15.10
   4  -8  -4  318.97   17.00
   4  -8  -4  309.67   13.90
   3  -8  -4  172.78   12.00
  -3   8   4  166.38    9.80
   2  -8  -4  235.38   15.60
   2  -8  -4  247.58   13.00
  -2   8   4  259.57   12.50
   1  -8  -4  304.87   13.10
   1  -8  -4  294.87   16.20
  -1   8   4  268.17   13.30
   0  -8  -4  157.98   13.30
   0  -8  -4  133.89    8.10
   0   8   4  135.59    9.30
  -1  -8  -4  719.03   25.40
  -1  -8  -4  704.53   19.90
   1   8   4  701.33   22.70
  -2  -8  -4   82.79    9.30
  -2  -8  -4   62.49    4.20
   2   8   4   70.39    7.50
  -3  -8  -4  237.58   13.20
   3   8   4  248.68   12.30
  -4  -8  -4   62.19    8.50
   4   8   4   54.49    7.20
  -5  -8  -4  122.19   11.00
   5   8   4  132.49   10.90
  -6  -8  -4   14.50    5.50
   6   8   4   23.30    5.60
  -7  -8  -4  293.27   15.80
   7   8   4  309.97   15.90
   8   8   4   79.99   10.00
   9   8   4   68.29   10.00
  10   8   4   57.39    9.70
  11   8   4   94.99   12.80
  12   8   4    8.70    6.30
  13   8   4   18.90    8.40
  14   8   4   31.20    9.90
   9  -9  -4    0.40    8.60
   8  -9  -4   -1.00    8.20
   7  -9  -4   37.00   10.10
   6  -9  -4   82.99   12.20
   5  -9  -4    5.50    5.90
   4  -9  -4  141.59   13.70
   3  -9  -4   13.70    5.70
   3  -9  -4   21.70    8.20
  -3   9   4   10.60    4.80
   2  -9  -4    7.70    4.60
   2  -9  -4   13.70    6.80
  -2   9   4   15.70    5.00
   1  -9  -4   55.69    7.20
   1  -9  -4   60.59    9.70
  -1   9   4   65.69    8.50
   0  -9  -4   11.50    5.80
   0  -9  -4   14.90    4.00
   0   9   4   16.00    5.00
  -1  -9  -4   92.99    6.40
  -1  -9  -4  103.29   10.80
   1   9   4   88.19    9.10
  -2  -9  -4    5.90    4.90
   2   9   4   11.70    4.60
  -3  -9  -4   21.80    6.10
   3   9   4   19.10    5.20
  -4  -9  -4  613.54   23.30
   4   9   4  636.14   22.80
  -5  -9  -4  108.49   11.00
   5   9   4   99.19   10.20
  -6  -9  -4  505.15   21.20
   6   9   4  501.95   20.70
  -7  -9  -4    4.60    5.60
   7   9   4    3.60    4.60
   8   9   4   34.80    7.20
   9   9   4   32.40    7.80
  10   9   4  215.48   18.00
  11   9   4    4.70    6.10
  12   9   4    4.10    6.50
  13   9   4    9.30    7.90
  14   9   4   19.70    8.80
   8 -10  -4   31.00   10.80
   7 -10  -4   79.99   13.50
   6 -10  -4   53.99   10.80
   5 -10  -4   51.49   10.10
   4 -10  -4  136.79   16.30
   4 -10  -4  155.08   14.90
   3 -10  -4    5.20    5.70
   3 -10  -4    3.10    6.70
  -3  10   4    3.40    4.70
   2 -10  -4    8.80    5.30
   2 -10  -4   -1.00    6.10
  -2  10   4   11.60    5.30
   1 -10  -4   34.10    8.10
   1 -10  -4   34.00    6.40
  -1  10   4   27.00    6.70
   0 -10  -4  481.65   22.30
   0  10   4  453.55   20.20
  -1 -10  -4  262.27   15.80
   1  10   4  298.97   15.70
  -2 -10  -4   19.70    6.50
   2  10   4   34.70    6.60
  -3 -10  -4  276.77   15.50
   3  10   4  243.68   14.20
  -4 -10  -4 1734.43   48.90
   4  10   4 1751.42   48.40
  -5 -10  -4  513.15   21.70
   5  10   4  500.35   21.20
  -6 -10  -4   -4.40    5.10
   6  10   4    3.70    4.40
  -7 -10  -4   98.89   11.80
   7  10   4   90.39   11.00
   8  10   4  572.04   24.70
   9  10   4   22.70    7.60
  10  10   4  111.19   13.60
  11  10   4   40.50    9.90
  12  10   4   92.19   13.90
  13  10   4    4.00    8.40
   7 -11  -4   20.80    9.70
   6 -11  -4   15.00    8.50
   5 -11  -4  260.17   24.00
   5 -11  -4  261.47   18.70
   4 -11  -4   41.70   11.10
   4 -11  -4   52.89   10.40
   3 -11  -4  151.88   17.00
   3 -11  -4  165.28   14.80
   2 -11  -4  178.18   17.40
  -2  11   4  112.59   12.10
   1 -11  -4   53.99    9.90
  -1  11   4   57.09    9.40
   0 -11  -4   -0.30    5.50
   0  11   4   -6.40    4.80
  -1 -11  -4   97.29   11.80
   1  11   4   97.29   11.30
  -2 -11  -4    5.80    5.80
   2  11   4    8.60    4.80
  -3 -11  -4    4.00    5.40
   3  11   4    9.60    5.70
  -4 -11  -4   18.70    6.90
   4  11   4   26.40    6.60
  -5 -11  -4  298.17   16.90
   5  11   4  279.47   16.40
  -6 -11  -4    3.20    6.10
   6  11   4    6.90    5.40
  -7 -11  -4   26.60    8.20
   7  11   4    9.90    6.20
   8  11   4   64.69   10.40
   9  11   4   53.89    9.80
  10  11   4  124.39   14.30
  11  11   4   15.30    8.50
  12  11   4   81.39   13.90
   6 -12  -4    0.20    9.50
   6 -12  -4    8.90    8.70
   5 -12  -4  273.87   24.10
   5 -12  -4  256.67   24.20
   4 -12  -4  161.98   18.70
   3 -12  -4  127.49   16.50
   2 -12  -4   13.70    8.00
   1 -12  -4   13.10    8.20
  -1  12   4   31.70    8.40
   0 -12  -4   38.20    9.10
   0  12   4   37.30    8.80
  -1 -12  -4  122.39   14.00
   1  12   4  162.38   15.70
  -2 -12  -4   21.30    7.50
   2  12   4    5.30    5.80
  -3 -12  -4   25.40    7.50
   3  12   4   22.60    7.20
  -4 -12  -4   24.30    7.70
   4  12   4   15.00    6.40
  -5 -12  -4   29.40    8.30
   5  12   4   13.80    6.10
  -6 -12  -4   14.40    7.40
   6  12   4   22.30    7.20
  -7 -12  -4   68.99   11.60
   7  12   4   78.29   11.50
   8  12   4   34.50    8.60
   9  12   4   21.70    7.80
  10  12   4   -1.70    5.80
  11  12   4   51.39   11.30
  12  12   4   72.49   13.50
   4 -13  -4    9.00    9.40
   3 -13  -4    5.40    8.80
   2 -13  -4  143.69   16.80
   1 -13  -4   38.70   10.30
  -1  13   4   26.90    8.30
   0 -13  -4    8.20    7.70
   0  13   4    4.20    6.20
  -1 -13  -4   60.59   11.30
   1  13   4   47.40   10.80
  -2 -13  -4   36.60    9.30
   2  13   4   21.00    8.10
  -3 -13  -4   31.50    9.10
   3  13   4   26.40    8.90
  -4 -13  -4    9.60    6.90
   4  13   4    4.40    5.60
  -5 -13  -4   14.40    8.40
   5  13   4    6.70    6.20
  -6 -13  -4  248.38   18.10
   6  13   4  195.88   18.40
  -7 -13  -4   67.29   12.20
   7  13   4   99.79   13.30
   8  13   4   67.89   11.80
   9  13   4   27.50    9.00
  10  13   4  277.47   23.60
   3 -14  -4   37.30   12.10
   2 -14  -4   29.10   10.10
   1 -14  -4   60.89   12.10
   0 -14  -4    3.20    8.50
   0  14   4   -0.60    6.30
  -1 -14  -4   -0.30    7.40
   1  14   4    1.50    7.50
  -2 -14  -4    5.70    8.00
   2  14   4    1.20    7.60
  -3 -14  -4   12.80    8.80
   3  14   4   18.80    8.20
  -4 -14  -4   -3.60    8.10
   4  14   4   -2.80    6.80
  -5 -14  -4   96.99   14.00
   5  14   4   91.39   13.30
  -6 -14  -4  417.36   23.70
   6  14   4  406.36   24.20
  -7 -14  -4   89.59   14.00
   7  14   4   72.69   12.90
   8  14   4    9.30    8.00
   9  14   4   89.39   14.10
   1  15   4   15.80    9.30
   2  15   4    4.10    8.20
   3  15   4   80.79   14.00
   4  15   4    7.00    7.30
   5  15   4    4.20    7.70
   6  15   4   -0.40    6.40
   5  11  -5  109.99   16.40
   4  11  -5    2.40    8.10
   3  11  -5    9.40    8.80
   2  11  -5  127.89   17.30
   1  11  -5  196.48   21.00
   0  11  -5   24.70   10.80
  -1  11  -5   17.50    8.60
  -2  11  -5   31.50   11.90
  -3  11  -5   44.30   11.90
   3 -11   5   36.90   12.30
   7  10  -5   48.30   11.30
   6  10  -5   -2.30    6.60
   5  10  -5   27.10    9.70
   4  10  -5    3.50    7.90
   3  10  -5  239.48   21.60
   2  10  -5   31.60    9.10
   1  10  -5   45.40   11.00
   0  10  -5   45.20   11.30
  -1  10  -5  561.34   28.60
  -2  10  -5   27.80    9.20
  -3  10  -5   10.30    8.20
   4 -10   5   99.09   16.20
   5 -10   5   22.00   10.70
   6 -10   5   22.50   11.70
   8   9  -5   17.60    8.30
   7   9  -5   11.50    8.20
   6   9  -5   -3.80    6.50
   5   9  -5  146.89   16.20
   4   9  -5   31.50    9.20
   4   9  -5   25.10    8.10
   3   9  -5  153.78   16.60
   3   9  -5  153.38   16.10
   2   9  -5    2.00    6.90
   2   9  -5   12.60    7.00
   1   9  -5   54.79   11.00
   1   9  -5   61.79   10.20
   0   9  -5  253.97   20.90
  -1   9  -5  546.55   26.80
  -2   9  -5  168.18   17.30
  -3   9  -5   64.19   12.60
   4  -9   5  210.18   20.40
   5  -9   5  258.47   23.70
   6  -9   5   77.19   14.70
   7  -9   5   40.10   12.40
   9   8  -5   42.50   10.50
   8   8  -5  162.48   16.90
   7   8  -5   59.69   10.80
   6   8  -5   48.70    9.70
   6   8  -5   59.59   10.60
   5   8  -5   23.40    7.80
   5   8  -5   16.60    7.10
   4   8  -5   35.50    8.90
   4   8  -5   53.29   10.20
   3   8  -5   70.89   11.10
   3   8  -5   68.69   10.90
   2   8  -5   57.79   10.20
   2   8  -5   64.89   10.90
   1   8  -5   40.70    8.70
   1   8  -5   52.69    9.50
   0   8  -5  173.88   16.30
  -1   8  -5   49.40   10.10
  -2   8  -5   41.80    9.40
  -3   8  -5    6.00    6.90
   4  -8   5   49.80   11.10
   5  -8   5    2.30    7.50
   6  -8   5   47.50   12.10
   7  -8   5    9.30    8.80
   8  -8   5   14.80    9.90
   9  -8   5   17.50   10.70
   9   7  -5   42.90    9.60
   8   7  -5  162.78   15.50
   8   7  -5   99.69   13.90
   7   7  -5   20.90    7.50
   7   7  -5    6.50    6.80
   6   7  -5    7.80    6.10
   6   7  -5    3.20    5.80
   5   7  -5  113.89   12.70
   5   7  -5  114.29   13.60
   4   7  -5   18.50    6.70
   4   7  -5   17.60    7.40
   3   7  -5  277.77   17.50
   3   7  -5  340.67   18.40
   2   7  -5   47.10    8.80
   2   7  -5   35.50    8.00
   1   7  -5   45.80    9.00
   1   7  -5   53.89    9.60
   0   7  -5  322.27   18.30
   0   7  -5  352.76   19.10
  -1   7  -5  163.78   15.70
  -2   7  -5  225.88   16.20
  -3   7  -5   26.80    7.30
   4  -7   5   14.80    7.90
   5  -7   5   47.50   10.80
   6  -7   5   27.80    9.30
   7  -7   5    8.30    7.50
   8  -7   5    3.40    7.50
   9  -7   5   69.29   13.60
  10  -7   5   74.99   15.10
  10   6  -5    7.10    8.00
   9   6  -5   43.60   11.30
   9   6  -5   33.40    8.40
   8   6  -5  159.38   17.00
   8   6  -5  135.49   13.60
   7   6  -5    6.90    6.90
   7   6  -5    3.60    5.10
   6   6  -5   57.49   10.20
   6   6  -5   45.50    8.20
   5   6  -5   39.40    7.70
   5   6  -5   47.70    9.40
   4   6  -5   77.59   10.00
   4   6  -5   99.69   12.20
   3   6  -5   87.59   11.00
   3   6  -5  105.59   11.40
   2   6  -5  141.29   13.20
   2   6  -5  130.39   12.90
   1   6  -5  329.17   17.60
   1   6  -5  357.56   18.30
   0   6  -5    6.10    4.70
   0   6  -5    6.20    5.50
  -1   6  -5   81.79   10.50
  -1   6  -5   89.79   10.60
  -2   6  -5  626.74   25.50
  -3   6  -5 1920.71   54.79
   4  -6   5   82.59   11.30
   5  -6   5    0.80    6.10
   6  -6   5  639.34   28.80
   7  -6   5  403.56   22.90
   8  -6   5   14.20    7.80
   9  -6   5    6.20    7.70
  10  -6   5   18.40    9.90
  11  -6   5   40.40   11.70
  11   5  -5   52.09   13.00
  10   5  -5  387.76   24.10
   9   5  -5   27.50    7.50
   9   5  -5   12.90    9.10
   8   5  -5   78.49   10.10
   8   5  -5   67.09   12.30
   7   5  -5  215.98   13.90
   7   5  -5  221.58   16.80
   6   5  -5  246.58   16.60
   6   5  -5  227.88   13.40
   5   5  -5   12.00    6.40
   5   5  -5   12.80    5.20
   4   5  -5   91.69    9.80
   4   5  -5   96.49   11.60
   3   5  -5  103.39   10.40
   3   5  -5  122.79   12.70
   2   5  -5   19.40    5.60
   2   5  -5   16.10    6.10
   1   5  -5   31.40    7.20
   1   5  -5   20.30    6.00
   0   5  -5  117.49   11.20
   0   5  -5  129.89   12.00
  -1   5  -5  299.17   16.20
  -1   5  -5  352.16   17.00
  -2   5  -5   55.29    8.60
  -2   5  -5   60.59    8.30
  -3   5  -5  764.32   28.40
   3  -5   5  824.12   29.60
   4  -5   5  105.89   12.40
   5  -5   5   59.89    9.90
   6  -5   5  549.15   25.30
   7  -5   5  210.98   17.90
   8  -5   5    0.90    6.30
   9  -5   5   -5.70    5.80
  10  -5   5   26.80    9.40
  11  -5   5   16.20    9.20
  12  -5   5   21.50   10.40
  12   4  -5   47.90   11.70
  11   4  -5  111.99   16.00
  10   4  -5  362.16   23.10
   9   4  -5   48.20   10.40
   8   4  -5   30.60    9.00
   8   4  -5   43.40    7.60
   7   4  -5  374.26   21.10
   7   4  -5  422.56   18.00
   6   4  -5  802.72   26.60
   6   4  -5  824.62   32.30
   5   4  -5  275.07   16.90
   5   4  -5  222.68   12.10
   4   4  -5   62.89    9.30
   4   4  -5   43.50    6.90
   3   4  -5    4.30    5.20
   3   4  -5    3.40    3.40
   2   4  -5   23.00    6.30
   2   4  -5   35.90    6.20
   1   4  -5  455.75   20.00
   1   4  -5  487.35   19.00
   0   4  -5  201.78   12.70
   0   4  -5  209.68   12.20
  -1   4  -5  107.49   10.50
  -1   4  -5   83.69    9.30
  -2   4  -5  826.42   28.50
  -2   4  -5  890.81   28.80
   3  -4   5  199.18   13.20
   4  -4   5   49.40    8.50
   5  -4   5   37.20    7.50
   6  -4   5  186.88   15.70
   7  -4   5   -2.50    4.80
   8  -4   5    3.40    5.30
   9  -4   5   93.29   13.20
  10  -4   5   50.99   10.60
  11  -4   5  130.79   16.30
  12  -4   5  204.08   20.20
  12   3  -5   50.79   12.40
  11   3  -5   94.29   14.80
  10   3  -5   13.00    7.40
   9   3  -5   37.30    9.40
   8   3  -5   44.10    9.50
   8   3  -5   45.50    7.30
   7   3  -5   12.70    6.80
   7   3  -5   10.60    4.50
   6   3  -5  338.97   14.60
   6   3  -5  321.57   18.20
   5   3  -5    1.20    5.00
   5   3  -5    8.80    4.00
   4   3  -5   69.49    7.20
   4   3  -5   80.99   10.50
   3   3  -5  355.66   17.50
   3   3  -5  304.37   13.50
   2   3  -5  179.58   10.30
   2   3  -5  193.68   12.50
   1   3  -5  968.20   28.20
   1   3  -5  910.91   30.60
   0   3  -5  341.47   16.20
   0   3  -5  353.86   15.00
  -1   3  -5   91.29    9.20
  -1   3  -5   94.59    8.60
  -2   3  -5  570.04   20.60
  -2   3  -5  525.35   20.30
  -3   3  -5  230.18   12.70
   3  -3   5  222.18   12.70
   4  -3   5  950.90   30.90
   5  -3   5  449.46   20.00
   6  -3   5  118.69   12.00
   7  -3   5    3.40    4.70
   8  -3   5  172.28   15.70
   9  -3   5   57.89   10.50
  10  -3   5   98.29   13.00
  11  -3   5  121.89   15.10
  12  -3   5   16.50    8.60
  13  -3   5   16.60    9.70
  13  -3   5   30.40   10.90
  12   2  -5  -10.40    6.50
  11   2  -5  152.88   18.20
  10   2  -5   62.29   11.90
   9   2  -5    9.60    6.80
   8   2  -5    8.60    5.70
   7   2  -5    9.70    5.70
   7   2  -5    9.10    4.00
   6   2  -5  199.38   10.20
   6   2  -5  189.88   13.60
   5   2  -5   71.49    6.90
   5   2  -5   48.20    8.30
   4   2  -5  246.28   14.60
   4   2  -5  239.68   10.50
   3   2  -5  479.45   20.90
   3   2  -5  500.65   16.50
   2   2  -5  585.24   18.80
   2   2  -5  611.54   22.80
   1   2  -5   49.40    7.30
   1   2  -5   48.90    5.80
   0   2  -5    4.30    3.80
   0   2  -5    0.60    2.70
  -1   2  -5    8.60    3.30
  -1   2  -5   -0.90    3.40
  -2   2  -5  227.68   11.90
   2  -2   5  230.68   11.80
  -3   2  -5    8.10    4.00
   3  -2   5    8.50    3.90
   4  -2   5 1372.76   38.80
   5  -2   5 2349.26   59.79
   6  -2   5   56.59    8.50
   7  -2   5  174.28   14.50
   8  -2   5 1501.95   45.10
   9  -2   5  760.92   29.50
  10  -2   5    6.20    6.30
  11  -2   5    9.20    6.20
  12  -2   5  136.89   16.00
  13  -2   5  -10.00    6.70
  13  -2   5   -0.80    7.30
  12   1  -5   57.29   12.50
  11   1  -5    9.80    7.70
  10   1  -5   26.40    8.60
   9   1  -5  415.66   22.60
   8   1  -5 1009.30   36.50
   7   1  -5  112.69    7.80
   7   1  -5  134.29   13.90
   6   1  -5    9.40    3.30
   6   1  -5    5.60    5.10
   5   1  -5 2446.66   55.09
   5   1  -5 2323.47   63.39
   4   1  -5  951.80   30.90
   4   1  -5  938.71   24.70
   3   1  -5  441.66   18.90
   3   1  -5  449.86   14.30
   2   1  -5   18.70    5.80
   2   1  -5   19.90    3.60
   1   1  -5   -1.20    2.40
   1   1  -5    8.90    4.60
   0   1  -5  314.97    9.60
   0   1  -5  301.17   14.40
   0   1  -5  322.67   12.10
  -1   1  -5   19.10    4.00
  -1   1  -5   17.70    4.80
  -1   1  -5   24.60    2.80
   1  -1   5   20.80    4.20
  -2   1  -5  415.86   16.00
   2  -1   5  408.36   15.50
  -3   1  -5 1283.87   35.30
   3  -1   5 1229.08   34.30
   4  -1   5  423.96   16.90
   5  -1   5  307.17   14.70
   6  -1   5    9.00    5.00
   7  -1   5   47.90    7.40
   8  -1   5  148.39   13.40
   9  -1   5   62.89    9.50
  10  -1   5    9.00    6.10
  11  -1   5    3.30    6.10
  12  -1   5    2.00    6.50
  13  -1   5   40.00   11.10
  13  -1   5   28.10   10.00
  14  -1   5   17.90    9.30
  14  -1   5   16.90    9.90
  12   0  -5   -6.70    7.10
  11   0  -5  116.39   16.00
  10   0  -5   66.69   11.80
   9   0  -5  170.08   17.10
   8   0  -5  408.36   21.40
   7   0  -5   -1.40    4.80
   6   0  -5   17.20    3.50
   6   0  -5   20.60    5.50
   5   0  -5  895.51   23.10
   5   0  -5  907.01   30.60
   4   0  -5  793.72   20.60
   4   0  -5  822.12   27.40
   3   0  -5  177.18    7.20
   3   0  -5  189.38   11.00
   2   0  -5  122.59    9.20
   2   0  -5  117.69    6.00
   1   0  -5   58.79    7.70
   1   0  -5   58.59    4.90
   0   0  -5   14.20    4.60
   0   0  -5   27.90    3.80
   0   0  -5   29.80    3.60
  -1   0  -5  271.47   12.70
  -1   0  -5  271.17    9.30
   1   0   5  262.27   10.60
  -2   0  -5  801.72   20.00
  -2   0  -5  746.13   23.40
   2   0   5  715.53   21.80
  -3   0  -5   61.29    6.70
   3   0   5   54.49    6.20
   4   0   5 1946.21   48.50
   5   0   5  268.07   12.90
   6   0   5  523.85   19.80
   7   0   5    6.10    4.20
   8   0   5  289.27   15.40
   9   0   5   -1.70    4.50
  10   0   5   50.89    9.00
  11   0   5  115.29   13.70
  12   0   5  232.78   20.60
  12   0   5  233.58   19.60
  13   0   5   50.29   11.20
  13   0   5   50.09   11.00
  14   0   5   83.69   14.80
  14   0   5   75.89   13.80
  12  -1  -5  108.39   16.50
  11  -1  -5  219.98   21.10
  10  -1  -5   62.59   11.70
   9  -1  -5  383.86   21.50
   8  -1  -5  127.09   14.20
   7  -1  -5    7.50    5.50
   6  -1  -5  118.19    6.30
   6  -1  -5  141.39   13.30
   5  -1  -5  229.38    8.20
   5  -1  -5  252.97   14.10
   4  -1  -5  187.58    6.60
   4  -1  -5  201.28   11.60
   3  -1  -5    3.70    1.60
   3  -1  -5    3.60    3.70
   2  -1  -5  161.58    9.90
   2  -1  -5  157.78    5.80
   1  -1  -5   25.60    5.30
  -1   1   5   28.90    3.10
   0  -1  -5    7.80    4.40
   0  -1  -5    8.10    3.10
   0   1   5    8.80    2.60
  -1  -1  -5  705.23   22.70
  -1  -1  -5  721.83   20.00
   1   1   5  748.33   19.60
  -2  -1  -5  355.96   12.10
  -2  -1  -5  365.26   13.90
   2   1   5  364.56   12.70
  -3  -1  -5   92.09    6.70
  -3  -1  -5  106.89    6.50
   3   1   5  112.79    7.20
  -4  -1  -5 1534.75   38.60
   4   1   5 1425.46   37.60
   5   1   5   23.90    4.60
   6   1   5 1888.71   48.30
   7   1   5  327.17   15.10
   8   1   5   26.40    6.20
   9   1   5  266.37   15.00
  10   1   5  722.43   28.00
  11   1   5   78.09   11.20
  12   1   5  143.49   15.50
  12   1   5  128.19   14.60
  13   1   5   19.80    8.70
  13   1   5   15.10    7.60
  14   1   5   59.39   11.30
  14   1   5   52.29   11.50
  12  -2  -5    8.60    7.90
  11  -2  -5   34.60   10.50
  10  -2  -5    5.70    6.80
   9  -2  -5  179.18   17.60
   8  -2  -5   17.40    6.80
   7  -2  -5  340.07   18.70
   6  -2  -5   31.90    7.20
   5  -2  -5   98.59   10.40
   5  -2  -5   77.79    4.00
   4  -2  -5    6.10    1.30
   4  -2  -5    5.10    3.90
   3  -2  -5 1393.36   39.10
   2  -2  -5  140.89    9.10
   1  -2  -5 1358.86   36.90
  -1   2   5 1381.06   29.30
   0  -2  -5   63.79    6.30
   0  -2  -5   75.49    7.50
   0   2   5   59.99    3.60
  -1  -2  -5   33.90    4.80
  -1  -2  -5   31.40    5.20
   1   2   5   28.10    3.40
  -2  -2  -5  202.58    9.90
  -2  -2  -5  237.88    9.80
   2   2   5  221.38    8.80
  -3  -2  -5  754.22   21.50
  -3  -2  -5  749.03   21.30
   3   2   5  716.03   20.70
  -4  -2  -5  228.08   10.70
  -4  -2  -5  238.08   10.10
   4   2   5  238.68   10.70
   5   2   5   14.70    4.30
   6   2   5  246.68   12.40
   7   2   5  798.12   26.10
   8   2   5    3.30    3.90
   9   2   5   62.99    9.30
  10   2   5 1383.06   42.10
  11   2   5  384.76   20.20
  11   2   5  376.26   19.60
  12   2   5   52.79    9.60
  12   2   5   50.19   10.10
  13   2   5    4.50    7.20
  13   2   5    6.00    6.70
  14   2   5  143.09   16.50
  14   2   5   94.79   14.40
  15   2   5    7.30    8.10
  15   2   5    4.80    8.30
  12  -3  -5   48.20   13.10
  11  -3  -5   -3.10    6.30
  10  -3  -5    2.50    7.20
   9  -3  -5    4.50    6.20
   8  -3  -5    0.50    5.50
   7  -3  -5  501.05   23.40
   6  -3  -5 1314.07   41.40
   5  -3  -5   43.40    7.70
   4  -3  -5  418.56   18.10
   3  -3  -5 6454.45  147.69
   2  -3  -5 1870.31   48.30
   1  -3  -5  612.04   19.80
   0  -3  -5  106.09    7.70
   0  -3  -5   96.39    6.90
   0   3   5   98.89    4.00
  -1  -3  -5  890.91   25.60
  -1  -3  -5  858.21   25.20
   1   3   5  870.41   21.10
  -2  -3  -5  111.29    7.00
  -2  -3  -5  111.99    7.50
   2   3   5  120.59    6.10
  -3  -3  -5  281.57   10.20
  -3  -3  -5  279.17   11.70
   3   3   5  263.57   10.50
  -4  -3  -5   27.10    3.80
  -4  -3  -5   40.40    5.50
   4   3   5   32.70    4.70
  -5  -3  -5  352.16   14.40
   5   3   5  338.07   13.80
   6   3   5  201.28   11.10
   7   3   5   18.10    4.90
   8   3   5   28.70    6.40
   9   3   5   19.80    6.10
  10   3   5   36.40    7.00
  10   3   5   44.80    8.60
  11   3   5   -0.10    4.00
  11   3   5    0.20    5.00
  12   3   5    2.70    5.70
  12   3   5    0.70    5.60
  13   3   5   52.89    9.90
  13   3   5   65.69   11.50
  14   3   5   32.80   10.20
  14   3   5   35.90    9.40
  15   3   5    8.10    9.40
  11  -4  -5   -6.30    7.00
  10  -4  -5  104.59   15.40
   9  -4  -5  291.37   20.30
   8  -4  -5  102.49   13.70
   7  -4  -5    8.40    5.80
   6  -4  -5    5.90    4.70
   5  -4  -5  252.77   14.80
   4  -4  -5   16.90    5.20
   3  -4  -5  796.42   26.10
   2  -4  -5  360.26   14.80
   1  -4  -5   15.30    3.90
   0  -4  -5   66.69    6.10
   0  -4  -5   54.79    6.90
   0   4   5   62.19    3.50
  -1  -4  -5  397.66   15.60
  -1  -4  -5  411.46   14.30
   1   4   5  424.06   12.10
  -2  -4  -5   31.80    4.40
  -2  -4  -5   38.30    5.40
   2   4   5   33.00    3.90
  -3  -4  -5    8.70    2.70
  -3  -4  -5    7.80    3.70
   3   4   5    9.70    3.20
  -4  -4  -5   44.90    5.90
   4   4   5   61.39    6.10
  -5  -4  -5   73.49    7.80
   5   4   5   92.49    8.20
  -6  -4  -5  107.99    9.50
   6   4   5  107.99    9.30
   7   4   5   46.50    7.10
   8   4   5  450.55   19.00
   9   4   5   -2.70    4.00
   9   4   5    1.70    3.50
  10   4   5  364.16   16.40
  10   4   5  350.56   18.00
  11   4   5   14.80    5.70
  11   4   5   29.10    7.90
  12   4   5  211.18   18.20
  12   4   5  199.38   14.30
  13   4   5   64.69   10.30
  13   4   5   97.99   13.40
  14   4   5  286.97   20.10
  15   4   5    9.20    7.80
  11  -5  -5   38.60   11.80
  10  -5  -5  107.59   15.80
   9  -5  -5  136.89   16.50
   8  -5  -5    9.90    6.80
   7  -5  -5  317.57   19.10
   6  -5  -5   93.29   11.70
   5  -5  -5   23.00    6.40
   4  -5  -5  525.05   21.20
   3  -5  -5  628.34   22.30
   3  -5  -5  607.84   14.50
   2  -5  -5   18.30    4.70
   2  -5  -5   24.60    2.40
   1  -5  -5   16.00    4.00
  -1   5   5   18.30    2.50
   0  -5  -5 1123.29   30.10
   0  -5  -5 1111.49   33.30
   0   5   5 1155.18   26.80
  -1  -5  -5  431.86   17.10
  -1  -5  -5  443.26   14.30
   1   5   5  444.16   13.10
  -2  -5  -5  272.77   10.50
  -2  -5  -5  264.17   12.80
   2   5   5  268.77   10.10
  -3  -5  -5  939.21   28.70
  -3  -5  -5 1010.20   24.40
   3   5   5  991.70   26.30
  -4  -5  -5   14.90    4.10
   4   5   5   22.60    4.40
  -5  -5  -5  199.48   11.40
   5   5   5  201.78   10.60
  -6  -5  -5  787.02   26.10
   6   5   5  807.62   25.30
   7   5   5  180.98   11.20
   8   5   5 1018.70   32.20
   8   5   5 1057.69   29.00
   9   5   5   27.90    6.80
   9   5   5   13.40    4.20
  10   5   5   15.40    4.90
  10   5   5   12.20    6.00
  11   5   5  527.25   24.00
  12   5   5  727.83   29.90
  13   5   5   34.90    9.40
  14   5   5   14.40    8.30
  15   5   5   33.20   10.80
  11  -6  -5   39.40   12.50
  10  -6  -5   -9.30    6.70
   9  -6  -5   27.10    9.30
   8  -6  -5    4.80    6.40
   7  -6  -5    1.90    5.60
   6  -6  -5  158.78   15.10
   5  -6  -5  565.64   23.90
   4  -6  -5   65.49    9.00
   3  -6  -5    9.90    2.50
   3  -6  -5   12.70    4.60
   2  -6  -5  776.42   24.90
  -2   6   5  764.72   19.70
   1  -6  -5 2093.79   56.89
   1  -6  -5 2191.78   53.89
  -1   6   5 2158.98   48.60
   0  -6  -5  179.78   11.80
   0  -6  -5  190.18    9.20
   0   6   5  202.98    8.40
  -1  -6  -5  395.96   17.20
  -1  -6  -5  379.36   12.90
   1   6   5  403.76   13.10
  -2  -6  -5   42.00    4.40
  -2  -6  -5   35.60    6.30
   2   6   5   29.70    4.40
  -3  -6  -5  907.11   27.80
  -3  -6  -5  898.01   21.50
   3   6   5  878.61   25.00
  -4  -6  -5    9.40    4.40
   4   6   5    3.00    3.30
  -5  -6  -5  886.01   28.10
   5   6   5  896.01   26.80
  -6  -6  -5   72.29    9.00
   6   6   5   72.59    4.10
   6   6   5   77.59    8.40
  -7  -6  -5  135.89   11.80
   7   6   5  144.79    6.70
   7   6   5  149.69   10.70
   8   6   5   53.09    8.00
   9   6   5   40.70    8.30
  10   6   5   30.10    7.60
  11   6   5   24.90    7.60
  12   6   5  288.07   19.00
  13   6   5  125.49   15.70
  14   6   5   59.09   12.10
  15   6   5    4.10    8.20
  10  -7  -5  100.59   16.30
   9  -7  -5   28.80   10.30
   8  -7  -5   93.09   13.90
   7  -7  -5    3.40    6.30
   6  -7  -5    6.10    5.90
   5  -7  -5  209.28   17.40
   4  -7  -5  593.74   24.00
   3  -7  -5    8.70    4.90
   3  -7  -5    9.10    3.10
   2  -7  -5  344.07   15.30
  -2   7   5  346.07   12.40
   1  -7  -5 3165.68   74.29
   1  -7  -5 2931.41   77.39
  -1   7   5 3120.29   69.39
   0  -7  -5  842.12   24.20
   0  -7  -5  800.02   28.40
   0   7   5  846.02   23.30
  -1  -7  -5  172.28   12.10
  -1  -7  -5  178.98    8.10
   1   7   5  190.08    9.30
  -2  -7  -5  713.83   24.80
  -2  -7  -5  667.13   18.40
   2   7   5  684.83   20.80
  -3  -7  -5 1912.41   50.69
   3   7   5 1893.21   46.70
  -4  -7  -5   -3.10    3.90
   4   7   5    3.50    3.40
  -5  -7  -5  464.45   19.30
   5   7   5  486.55   18.20
  -6  -7  -5   24.90    6.60
   6   7   5   23.50    5.50
  -7  -7  -5   64.39    9.30
   7   7   5   73.29    9.00
   8   7   5  148.49   13.00
   9   7   5    7.70    5.30
  10   7   5   -1.80    4.60
  11   7   5   13.30    6.90
  12   7   5   11.80    7.00
  13   7   5   14.20    7.70
  14   7   5    0.80    7.10
   9  -8  -5   17.90    9.50
   8  -8  -5  153.08   17.90
   7  -8  -5  175.28   17.90
   6  -8  -5  110.09   14.00
   5  -8  -5   75.09   11.10
   4  -8  -5  135.39   13.20
   3  -8  -5  183.38   12.70
   2  -8  -5  124.49   11.00
   2  -8  -5  131.79   13.70
  -2   8   5  128.79    8.30
   1  -8  -5   93.09    8.50
   1  -8  -5   71.59   10.10
  -1   8   5   67.59    7.30
   0  -8  -5    6.00    5.40
   0  -8  -5   13.60    4.00
   0   8   5   11.60    4.10
  -1  -8  -5   12.90    3.50
  -1  -8  -5    4.10    4.90
   1   8   5   12.10    4.10
  -2  -8  -5  107.79    5.60
  -2  -8  -5  101.99   10.50
   2   8   5   95.29    8.60
  -3  -8  -5   65.39    8.60
   3   8   5   59.79    7.00
  -4  -8  -5    4.50    4.60
   4   8   5    6.40    3.60
  -5  -8  -5  347.67   16.50
   5   8   5  344.67   15.40
  -6  -8  -5  118.49   11.80
   6   8   5  125.69   11.00
  -7  -8  -5   10.10    5.50
   7   8   5   -0.30    3.30
   8   8   5  143.69   13.30
   9   8   5   24.20    6.70
  10   8   5  142.79   14.30
  11   8   5   14.70    7.20
  12   8   5   63.29   11.60
  13   8   5  105.99   14.80
  14   8   5  201.18   20.20
   9  -9  -5   25.90   11.00
   8  -9  -5   66.69   13.60
   7  -9  -5   53.09   11.70
   6  -9  -5   26.60    8.60
   5  -9  -5   65.79   10.60
   4  -9  -5  153.78   14.70
   3  -9  -5   17.10    6.00
   3  -9  -5   10.00    7.10
   2  -9  -5   20.90    7.70
   2  -9  -5   33.80    6.70
  -2   9   5   33.40    6.00
   1  -9  -5  200.28   11.70
   1  -9  -5  198.88   16.80
  -1   9   5  193.68   11.60
   0  -9  -5  425.86   20.50
   0  -9  -5  428.86   15.80
   0   9   5  407.66   16.90
  -1  -9  -5   86.89   10.80
  -1  -9  -5   89.89    6.70
   1   9   5   97.49    9.20
  -2  -9  -5  640.04   25.10
   2   9   5  670.13   22.70
  -3  -9  -5   28.60    7.10
   3   9   5   46.00    6.70
  -4  -9  -5  177.78   13.00
   4   9   5  212.48   12.10
  -5  -9  -5   20.40    6.40
   5   9   5   27.00    6.10
  -6  -9  -5   81.19   10.70
   6   9   5   75.09    9.20
  -7  -9  -5  161.58   14.70
   7   9   5  145.89   13.30
  -8  -9  -5    4.60    6.80
   8   9   5   23.50    6.60
   9   9   5   32.70    7.70
  10   9   5  127.19   14.00
  11   9   5   -8.40    5.40
  12   9   5   -3.30    6.00
  13   9   5  279.17   23.00
  14   9   5  147.39   18.10
   8 -10  -5  -10.70    8.50
   7 -10  -5    3.10    8.10
   6 -10  -5    0.60    6.90
   5 -10  -5    5.70    6.20
   4 -10  -5  149.29   14.90
   4 -10  -5  116.79   15.90
   3 -10  -5  335.37   21.30
   3 -10  -5  353.76   18.60
   2 -10  -5    8.10    5.40
   2 -10  -5   -4.90    5.30
   1 -10  -5  179.88   11.70
   1 -10  -5  203.78   17.40
  -1  10   5  190.78   12.40
   0 -10  -5 1063.19   36.70
   0  10   5 1022.60   32.50
  -1 -10  -5 1041.90   35.30
   1  10   5 1041.10   32.50
  -2 -10  -5  159.18   14.50
   2  10   5  145.89   12.20
  -3 -10  -5    7.40    5.80
   3  10   5   10.30    4.80
  -4 -10  -5  253.17   15.90
   4  10   5  293.97   15.30
  -5 -10  -5  540.85   23.20
   5  10   5  551.34   22.20
  -6 -10  -5    6.40    6.70
   6  10   5   -1.60    3.90
  -7 -10  -5  284.27   17.30
   7  10   5  301.67   16.60
  -8 -10  -5   11.50    7.00
   8  10   5   13.10    5.80
   9  10   5   87.69   11.80
  10  10   5   39.20    8.80
  11  10   5    4.90    6.70
  12  10   5    9.80    7.30
  13  10   5    0.40    7.30
   7 -11  -5   36.90   11.60
   6 -11  -5  142.09   17.50
   5 -11  -5    6.50    7.80
   5 -11  -5   -6.70    7.40
   4 -11  -5    2.60    8.20
   4 -11  -5   -1.20    6.40
   3 -11  -5    0.80    6.20
   3 -11  -5    9.10    7.80
   2 -11  -5   20.70    8.30
   1 -11  -5   22.70    8.60
  -1  11   5   12.20    5.50
   0 -11  -5   12.50    7.30
   0  11   5   15.90    6.00
  -1 -11  -5  576.64   25.90
   1  11   5  646.64   24.70
  -2 -11  -5  161.38   15.00
   2  11   5  190.48   13.10
  -3 -11  -5   90.29   11.40
   3  11   5   91.49   10.80
  -4 -11  -5  157.08   14.50
   4  11   5  138.59   13.00
  -5 -11  -5  476.25   22.50
   5  11   5  525.65   22.50
  -6 -11  -5  118.39   13.50
   6  11   5  122.19   12.70
  -7 -11  -5   36.50    9.10
   7  11   5   60.59    9.70
  -8 -11  -5    8.20    7.30
   8  11   5   13.90    6.50
   9  11   5    3.80    5.70
  10  11   5   55.89   10.40
  11  11   5    5.70    6.30
  12  11   5   32.50    9.50
  13  11   5   -3.00    7.10
   6 -12  -5   52.59   12.60
   6 -12  -5   63.19   14.80
   5 -12  -5   -2.30    8.70
   4 -12  -5    3.50    8.90
   3 -12  -5   20.90    8.90
   2 -12  -5   87.59   14.00
   1 -12  -5  132.89   16.10
   0 -12  -5   27.60    9.20
   0  12   5   16.30    7.00
  -1 -12  -5    1.10    6.20
   1  12   5   11.90    6.10
  -2 -12  -5   36.40    9.40
   2  12   5   31.00    7.80
  -3 -12  -5   45.00    9.20
   3  12   5   23.90    7.00
  -4 -12  -5   26.00    8.70
   4  12   5   38.10    8.30
  -5 -12  -5  104.49   13.50
   5  12   5  108.79   12.40
  -6 -12  -5   11.90    8.10
   6  12   5   21.20    7.10
  -7 -12  -5  117.89   14.20
   7  12   5  125.69   13.80
  -8 -12  -5  287.07   19.50
   8  12   5  264.87   18.10
   9  12   5    1.80    5.70
  10  12   5   12.30    7.40
  11  12   5   11.10    7.70
  12  12   5   19.20    9.20
   4 -13  -5   15.10   10.50
   3 -13  -5  -15.10    7.70
   2 -13  -5   25.40   10.90
   1 -13  -5   40.10   11.30
   0 -13  -5   -2.20    6.90
   0  13   5    4.20    6.00
  -1 -13  -5  -10.70    7.10
   1  13   5    9.20    7.50
  -2 -13  -5  272.67   18.80
   2  13   5  207.48   18.20
  -3 -13  -5  199.68   17.70
   3  13   5  226.18   16.20
  -4 -13  -5  106.99   13.80
   4  13   5   99.89   12.50
  -5 -13  -5    6.60    8.10
   5  13   5   13.90    6.90
  -6 -13  -5  287.47   19.50
   6  13   5  308.87   19.50
  -7 -13  -5   23.60   10.20
   7  13   5   20.90    7.60
  -8 -13  -5  110.79   14.50
   8  13   5  108.69   14.20
   9  13   5    2.60    6.40
  10  13   5    8.70    7.90
  11  13   5   22.10    9.10
   2 -14  -5   16.00    9.90
   1 -14  -5   12.20    9.50
   0 -14  -5   13.60    8.40
  -1 -14  -5   56.49   12.10
   1  14   5   57.09   11.80
  -2 -14  -5  386.16   23.00
   2  14   5  353.56   22.50
  -3 -14  -5  272.07   19.30
   3  14   5  224.28   19.80
  -4 -14  -5   72.39   12.70
   4  14   5   58.19   10.90
  -5 -14  -5    1.90    8.80
   5  14   5   32.80    9.20
  -6 -14  -5  226.28   20.00
   6  14   5  239.68   20.60
  -7 -14  -5  240.48   21.00
   7  14   5  230.78   20.50
  -8 -14  -5   26.30   10.70
   8  14   5    8.80    7.50
   9  14   5   53.29   11.90
   0 -15  -5   11.00   10.00
  -1 -15  -5   -3.90    8.40
  -2 -15  -5    3.00    8.60
   2  15   5    1.80    7.20
  -3 -15  -5   30.10   11.30
   3  15   5   37.60   10.90
  -4 -15  -5    8.40    9.70
   4  15   5   12.10    8.60
  -5 -15  -5   38.20   11.10
   5  15   5   28.10    9.50
  -6 -15  -5   11.90   10.30
   6  15   5    7.00    7.20
  -7 -15  -5   68.59   14.10
   7  15   5   47.90   11.50
   2  11  -6   10.20    8.60
   1  11  -6    3.50    8.80
   0  11  -6   24.80   11.10
  -1  11  -6    5.10    9.60
   5  10  -6   91.59   14.80
   4  10  -6   -3.00    7.00
   3  10  -6  252.67   22.90
   2  10  -6   94.79   14.40
   2  10  -6   72.29   13.20
   1  10  -6    0.20    7.30
   0  10  -6   13.90    9.00
  -1  10  -6   -6.10    6.60
  -2  10  -6   -8.50    7.60
   3 -10   6   13.90    9.10
   4 -10   6   61.99   15.10
   7   9  -6  152.28   17.90
   6   9  -6   34.60   10.20
   5   9  -6   18.00    8.70
   4   9  -6    7.10    7.70
   4   9  -6   19.40    8.30
   3   9  -6  392.36   24.20
   3   9  -6  380.96   22.70
   2   9  -6  395.76   23.40
   2   9  -6  415.26   23.60
   1   9  -6  235.88   20.30
   1   9  -6  237.88   21.20
   0   9  -6   96.59   14.50
  -1   9  -6  362.36   22.80
  -2   9  -6   94.29   14.40
  -3   9  -6   -4.80    6.70
   3  -9   6    4.10    7.50
   4  -9   6   17.10    9.40
   5  -9   6   20.20   10.80
   6  -9   6   51.39   13.50
   7  -9   6    2.10    9.50
   8   8  -6   12.00    8.90
   7   8  -6   99.99   14.00
   6   8  -6   25.80    8.90
   6   8  -6   28.50    8.90
   5   8  -6    9.80    7.60
   5   8  -6    5.20    6.80
   4   8  -6  205.28   18.40
   4   8  -6  213.28   19.00
   3   8  -6   36.90    9.30
   3   8  -6    7.00    6.70
   2   8  -6   43.70    9.90
   2   8  -6   36.70    9.40
   1   8  -6   27.70    8.40
   1   8  -6   27.30    8.00
   0   8  -6   -5.40    5.50
   0   8  -6    5.90    6.80
  -1   8  -6   60.89   10.90
  -2   8  -6    0.20    6.50
  -3   8  -6   39.40   10.30
   3  -8   6   52.29   11.30
   4  -8   6   59.59   11.70
   5  -8   6   14.60    9.40
   6  -8   6  154.18   18.90
   7  -8   6    6.20    8.70
   8  -8   6  138.59   18.40
   8   7  -6    1.20    7.00
   8   7  -6    7.20    7.60
   7   7  -6  147.39   15.60
   7   7  -6  123.39   15.30
   6   7  -6   61.99   10.70
   6   7  -6   65.99   11.40
   5   7  -6    7.30    6.30
   5   7  -6    3.60    5.90
   4   7  -6   19.70    8.10
   4   7  -6   28.40    8.40
   3   7  -6  236.98   16.80
   3   7  -6  210.98   18.60
   2   7  -6  103.69   12.70
   2   7  -6   96.29   12.70
   1   7  -6   91.29   12.40
   1   7  -6   93.19   12.10
   0   7  -6   15.60    6.80
   0   7  -6   11.80    6.90
  -1   7  -6  256.97   17.30
  -1   7  -6  258.97   17.20
  -2   7  -6   68.39   10.80
  -3   7  -6    6.60    6.80
   3  -7   6    9.40    7.00
   4  -7   6   29.80    8.80
   5  -7   6  126.99   16.00
   6  -7   6  145.99   17.50
   7  -7   6   72.89   13.60
   8  -7   6   13.20    9.70
   9  -7   6   80.79   15.30
  10   6  -6   16.30    9.70
   9   6  -6    9.00    8.20
   8   6  -6   30.20    8.70
   8   6  -6   25.70    9.50
   7   6  -6   91.39   13.60
   7   6  -6   84.89   11.60
   6   6  -6   42.30    8.70
   6   6  -6   38.80    9.40
   5   6  -6  363.36   19.30
   5   6  -6  406.96   21.90
   4   6  -6  125.49   14.20
   4   6  -6  155.98   14.20
   3   6  -6  112.99   12.30
   3   6  -6  128.39   14.00
   2   6  -6  125.49   13.10
   2   6  -6  123.49   13.80
   1   6  -6 1276.87   42.70
   1   6  -6 1339.37   41.20
   0   6  -6  382.56   19.80
   0   6  -6  441.16   21.50
  -1   6  -6   -4.90    4.20
  -1   6  -6   -3.40    4.40
  -2   6  -6  167.68   15.30
   3  -6   6  392.86   21.20
   4  -6   6   66.69   11.20
   5  -6   6    2.00    6.40
   6  -6   6   27.10    8.90
   7  -6   6   36.80   10.10
   8  -6   6    8.40    8.00
   9  -6   6    1.40    7.80
  10  -6   6  -10.10    8.20
  10   5  -6   -1.90    9.00
   9   5  -6    9.10    8.70
   8   5  -6   11.30    8.30
   8   5  -6    3.10    5.70
   7   5  -6  201.08   18.80
   7   5  -6  222.58   14.50
   6   5  -6    9.10    7.20
   6   5  -6    9.70    5.20
   5   5  -6   80.19    9.80
   5   5  -6   67.89   10.80
   4   5  -6    1.30    4.10
   4   5  -6    2.20    5.60
   3   5  -6   63.89    9.90
   3   5  -6   90.59   10.20
   2   5  -6    6.60    5.00
   2   5  -6   12.20    6.80
   1   5  -6  918.51   30.30
   1   5  -6  818.42   31.60
   0   5  -6  604.24   25.70
   0   5  -6  639.04   24.60
  -1   5  -6   81.59   10.60
  -1   5  -6   77.89   10.10
  -2   5  -6  301.17   17.10
  -2   5  -6  308.67   17.20
   3  -5   6  709.13   28.00
   4  -5   6  211.68   17.50
   5  -5   6   -0.90    5.40
   6  -5   6   33.50    9.30
   7  -5   6   28.10    9.20
   8  -5   6   89.09   13.60
   9  -5   6   -5.30    6.60
  10  -5   6   18.20    9.30
  11  -5   6   28.20   10.70
  11   4  -6    2.50    9.20
  10   4  -6  339.57   24.50
   9   4  -6  106.59   15.40
   8   4  -6   86.79   13.40
   7   4  -6    5.30    4.50
   7   4  -6   12.60    7.80
   6   4  -6   18.30    7.90
   6   4  -6   -1.40    4.10
   5   4  -6  310.87   19.20
   5   4  -6  275.97   14.60
   4   4  -6  259.57   13.90
   4   4  -6  259.17   16.70
   3   4  -6  114.49   12.60
   3   4  -6  139.19   11.70
   2   4  -6  840.42   27.70
   2   4  -6  838.92   31.00
   1   4  -6  415.26   20.40
   1   4  -6  473.75   19.10
   0   4  -6   19.90    6.50
   0   4  -6   16.60    5.30
  -1   4  -6    5.40    4.50
  -1   4  -6   -0.60    4.50
  -2   4  -6   57.39    8.70
  -2   4  -6   81.79    9.80
  -3   4  -6   47.30    8.20
   3  -4   6   45.00    8.10
   4  -4   6    5.70    5.70
   5  -4   6  108.59   12.30
   6  -4   6   -4.60    5.00
   7  -4   6   68.69   11.00
   8  -4   6  326.27   20.40
   9  -4   6   13.30    9.00
  10  -4   6   79.29   13.30
  11  -4   6   -4.60    7.30
  12  -4   6   53.59   12.50
  11   3  -6   15.80    9.60
  10   3  -6   95.49   15.10
   9   3  -6    3.20    7.10
   8   3  -6    8.10    6.90
   7   3  -6  196.88   18.30
   7   3  -6  207.78   12.10
   6   3  -6   -1.40    6.00
   6   3  -6    8.90    4.30
   5   3  -6  235.98   12.30
   5   3  -6  214.78   18.50
   4   3  -6   19.40    4.80
   4   3  -6   20.30    7.00
   3   3  -6   69.59    7.80
   3   3  -6   74.59   10.50
   2   3  -6  297.57   14.00
   2   3  -6  300.17   16.90
   1   3  -6  312.07   14.60
   1   3  -6  351.56   17.80
   0   3  -6    0.60    4.60
   0   3  -6    3.40    3.80
  -1   3  -6  512.85   19.50
  -1   3  -6  495.95   20.80
  -2   3  -6   17.80    5.30
  -2   3  -6    9.60    5.20
   2  -3   6   15.10    5.10
  -3   3  -6  352.46   16.90
   3  -3   6  311.17   16.20
   4  -3   6   12.30    5.40
   5  -3   6   91.39   10.70
   6  -3   6  194.48   13.50
   7  -3   6  455.65   22.40
   8  -3   6  138.59   15.20
   9  -3   6   16.60    7.30
  10  -3   6    8.10    7.50
  11  -3   6    8.70    7.40
  12  -3   6   13.80    9.40
  13  -3   6   -2.90    8.50
  11   2  -6   -5.00    6.90
  10   2  -6   72.69   13.60
   9   2  -6   -3.50    6.50
   8   2  -6  131.59   15.40
   7   2  -6   30.20    8.20
   6   2  -6   52.89    6.60
   6   2  -6   62.49   10.20
   5   2  -6   57.09    6.80
   5   2  -6   51.49    9.50
   4   2  -6   17.60    6.60
   4   2  -6   34.90    5.30
   3   2  -6  189.58   13.90
   3   2  -6  163.28    9.60
   2   2  -6  285.37   12.80
   2   2  -6  327.77   16.90
   1   2  -6  261.27    8.70
   1   2  -6  252.17   11.70
   1   2  -6  243.48   14.70
   0   2  -6  276.97   15.30
   0   2  -6  295.37   13.20
  -1   2  -6 3930.51   88.79
  -1   2  -6 3834.02   94.99
  -2   2  -6 1261.07   37.80
   2  -2   6 1249.68   35.70
  -3   2  -6    4.30    4.00
   3  -2   6    3.20    3.80
   4  -2   6 1659.03   45.80
   5  -2   6 1978.00   53.19
   6  -2   6    6.40    4.30
   7  -2   6   -5.40    4.50
   8  -2   6   38.30    8.20
   9  -2   6   23.00    8.00
  10  -2   6   17.00    7.70
  11  -2   6   -9.90    5.70
  12  -2   6   -8.30    6.60
  13  -2   6   23.00   10.70
  12   1  -6  272.67   25.90
  11   1  -6   42.60   12.20
  10   1  -6   14.00    8.90
   9   1  -6  147.09   16.50
   8   1  -6  294.27   19.10
   7   1  -6   63.49   10.60
   6   1  -6  150.58    8.60
   6   1  -6  149.49   14.80
   5   1  -6   77.49    6.90
   5   1  -6   66.69    9.80
   4   1  -6    5.10    5.20
   4   1  -6    2.80    2.90
   3   1  -6   40.90    7.60
   3   1  -6   33.10    5.00
   2   1  -6  210.98    9.80
   2   1  -6  218.88   14.10
   1   1  -6  670.73   24.80
   1   1  -6  651.73   20.00
   0   1  -6   23.20    4.20
   0   1  -6   20.60    5.70
   0   1  -6   21.90    3.10
  -1   1  -6  120.79   10.80
  -1   1  -6  102.69    5.20
   1  -1   6  108.89    8.80
  -2   1  -6   70.89    8.30
   2  -1   6   64.29    7.30
  -3   1  -6   73.79    8.00
   3  -1   6   74.29    8.30
  -4   1  -6   -0.20    3.70
   4  -1   6    5.80    3.90
   5  -1   6  274.07   14.50
   6  -1   6  199.48   12.80
   7  -1   6   18.50    6.20
   8  -1   6    0.50    4.30
   9  -1   6    6.30    5.80
  10  -1   6  131.39   14.60
  11  -1   6   10.20    7.50
  12  -1   6  167.28   18.00
  13  -1   6    5.30    8.30
  14  -1   6   80.19   14.90
  14  -1   6   54.49   13.40
  12   0  -6  111.69   16.70
  11   0  -6   97.59   15.90
  10   0  -6    5.30    7.40
   9   0  -6   64.19   11.70
   8   0  -6  669.63   29.40
   7   0  -6   43.30    9.30
   6   0  -6   18.60    6.40
   5   0  -6   36.50    7.30
   5   0  -6   38.00    4.40
   4   0  -6   99.19   10.90
   4   0  -6   94.59    5.80
   3   0  -6  489.05   14.70
   3   0  -6  472.65   20.30
   2   0  -6  770.02   27.70
   2   0  -6  802.42   21.20
   1   0  -6    9.30    2.80
   1   0  -6   10.40    5.30
   0   0  -6  787.42   26.60
   0   0  -6  777.02   21.20
   0   0   6  778.82   22.00
  -1   0  -6 1023.20   32.40
  -1   0  -6 1067.69   27.00
   1   0   6 1119.99   29.10
  -2   0  -6   21.40    3.70
  -2   0  -6   22.20    5.30
   2   0   6   21.50    4.60
  -3   0  -6   55.29    7.10
  -3   0  -6   53.29    5.20
   3   0   6   46.80    6.20
  -4   0  -6  628.84   22.00
   4   0   6  665.53   22.20
   5   0   6  200.08   12.10
   6   0   6   22.90    5.70
   7   0   6   79.99    9.70
   8   0   6  223.38   14.40
   9   0   6  222.98   15.10
  10   0   6  268.37   17.50
  11   0   6   10.10    6.80
  12   0   6    1.00    7.20
  13   0   6   34.60   10.50
  13   0   6   37.60   10.80
  14   0   6   41.70   11.60
  14   0   6   43.40   11.60
  12  -1  -6   -0.90    8.30
  11  -1  -6    5.50    8.10
  10  -1  -6   43.50   11.00
   9  -1  -6   70.29   12.20
   8  -1  -6   31.20    8.50
   7  -1  -6   42.30    8.70
   6  -1  -6    3.70    4.70
   5  -1  -6   71.79    9.70
   4  -1  -6  167.28    6.60
   4  -1  -6  154.38   11.20
   3  -1  -6   88.69    9.40
   3  -1  -6   87.59    4.70
   2  -1  -6   37.90    6.60
   2  -1  -6   27.00    3.30
   1  -1  -6   17.20    5.50
  -1   1   6   10.80    2.80
   0  -1  -6  281.37   14.40
   0  -1  -6  316.97   11.90
   0   1   6  279.67   10.50
  -1  -1  -6  238.28    9.90
  -1  -1  -6  222.68   12.40
   1   1   6  233.38    9.70
  -2  -1  -6 1046.30   30.80
  -2  -1  -6 1058.99   27.50
   2   1   6 1033.60   27.90
  -3  -1  -6  997.90   27.00
  -3  -1  -6  966.40   29.20
   3   1   6 1031.70   28.30
  -4  -1  -6   26.70    4.90
  -4  -1  -6   27.90    5.30
   4   1   6   23.40    4.80
   5   1   6   33.40    5.60
   6   1   6  941.71   29.30
   7   1   6  958.00   30.50
   8   1   6   34.60    7.00
   9   1   6  213.78   14.50
  10   1   6   62.49    9.90
  11   1   6   15.20    7.60
  12   1   6   82.59   12.80
  13   1   6   30.00    9.50
  13   1   6   29.10    9.40
  14   1   6   20.30    8.70
  14   1   6   15.40    8.60
  11  -2  -6    0.40    7.70
  10  -2  -6   20.50    8.70
   9  -2  -6   18.20    8.00
   8  -2  -6  122.59   14.20
   7  -2  -6   95.49   12.10
   6  -2  -6  359.16   19.20
   5  -2  -6  139.89   12.90
   4  -2  -6  374.56   17.50
   3  -2  -6  102.79   10.20
   2  -2  -6    3.40    3.90
   1  -2  -6    9.10    4.20
  -1   2   6    3.20    1.70
   0  -2  -6   75.19    7.30
   0  -2  -6   76.49    8.70
   0   2   6   75.09    4.60
  -1  -2  -6  294.57   12.20
  -1  -2  -6  286.57   13.50
   1   2   6  300.97   10.30
  -2  -2  -6   67.09    7.10
  -2  -2  -6   80.59    7.10
   2   2   6   74.59    6.10
  -3  -2  -6 3111.99   73.39
  -3  -2  -6 3086.69   71.29
   3   2   6 3048.09   69.69
  -4  -2  -6  740.13   22.90
  -4  -2  -6  753.12   22.80
   4   2   6  767.72   23.00
  -5  -2  -6    1.20    3.30
   5   2   6    4.30    3.60
   6   2   6 1700.53   45.10
   7   2   6 2721.93   67.69
   8   2   6   15.20    5.10
   9   2   6   23.60    7.00
  10   2   6  261.67   16.80
  11   2   6   24.30    7.70
  12   2   6   50.09   10.00
  12   2   6   63.49   11.10
  13   2   6  -10.10    5.80
  13   2   6    6.70    5.60
  14   2   6   32.00   10.10
  14   2   6    5.70    6.80
  15   2   6   -1.00    8.70
  11  -3  -6  114.79   16.80
  10  -3  -6  622.34   30.70
   9  -3  -6   66.69   11.90
   8  -3  -6   12.60    7.10
   7  -3  -6  769.22   30.70
   6  -3  -6 1180.28   39.00
   5  -3  -6   49.00    8.40
   4  -3  -6   49.80    7.90
   3  -3  -6  148.79   10.60
   2  -3  -6  141.09    9.80
   1  -3  -6  268.57   12.90
   0  -3  -6  723.73   23.00
   0  -3  -6  716.43   23.50
   0   3   6  700.23   17.00
  -1  -3  -6  676.33   22.00
  -1  -3  -6  695.23   22.90
   1   3   6  683.63   17.90
  -2  -3  -6   94.89    8.20
  -2  -3  -6   82.19    7.60
   2   3   6   87.49    5.90
  -3  -3  -6  225.18   10.40
  -3  -3  -6  226.68   10.90
   3   3   6  219.18    9.90
  -4  -3  -6   25.30    5.00
  -4  -3  -6   13.10    3.70
   4   3   6    8.80    3.60
  -5  -3  -6   34.00    5.80
   5   3   6   34.50    5.70
   6   3   6   35.90    6.20
   7   3   6  107.79   10.50
   8   3   6    9.40    4.60
   9   3   6  110.19   11.40
  10   3   6   47.30    8.70
  11   3   6   41.90    9.30
  12   3   6   65.39   10.30
  12   3   6   75.49   11.60
  13   3   6   50.69   10.10
  13   3   6   47.20   11.20
  14   3   6    1.80    6.90
  14   3   6    7.10    7.10
  15   3   6   12.60    9.00
  11  -4  -6    7.30    8.20
  10  -4  -6   -0.30    7.50
   9  -4  -6   -6.60    6.00
   8  -4  -6    4.00    6.70
   7  -4  -6   30.40    8.50
   6  -4  -6  543.85   24.40
   5  -4  -6  410.36   19.80
   4  -4  -6    4.60    4.20
   3  -4  -6  190.78   11.90
   2  -4  -6  580.24   21.00
   1  -4  -6  261.07   12.60
   0  -4  -6  375.66   16.00
   0  -4  -6  366.46   14.60
   0   4   6  352.66    9.80
  -1  -4  -6  584.44   21.10
  -1  -4  -6  613.14   20.80
   1   4   6  634.34   16.40
  -2  -4  -6  684.33   23.10
  -2  -4  -6  716.23   22.00
   2   4   6  744.03   19.60
  -3  -4  -6 1752.62   45.00
  -3  -4  -6 1711.83   42.70
   3   4   6 1711.03   41.30
  -4  -4  -6  507.85   18.70
  -4  -4  -6  529.25   16.20
   4   4   6  510.95   17.20
  -5  -4  -6    3.00    3.90
   5   4   6    5.10    3.50
  -6  -4  -6  893.01   28.70
   6   4   6  924.51   27.90
   7   4   6   43.20    7.00
   8   4   6  121.89   11.20
   9   4   6   34.50    6.90
  10   4   6  489.75   22.20
  11   4   6  160.68   15.30
  11   4   6  167.58   14.10
  12   4   6   18.50    6.70
  12   4   6   23.10    8.40
  13   4   6   25.10    8.70
  14   4   6   36.00   10.20
  15   4   6   64.59   12.50
  11  -5  -6  123.09   18.10
  10  -5  -6   78.59   14.60
   9  -5  -6   16.80    8.80
   8  -5  -6  117.79   15.40
   7  -5  -6  191.88   17.80
   6  -5  -6   -5.10    4.60
   5  -5  -6    1.00    4.50
   4  -5  -6  159.98   13.60
   3  -5  -6  170.28   11.40
   2  -5  -6  123.19    9.10
   1  -5  -6  150.88   12.70
   1  -5  -6  106.79    8.10
   0  -5  -6   11.30    3.70
   0  -5  -6    8.00    4.70
   0   5   6    4.00    1.80
  -1  -5  -6   28.40    6.20
  -1  -5  -6   29.60    4.60
   1   5   6   24.10    3.30
  -2  -5  -6  347.67   15.70
  -2  -5  -6  373.16   13.90
   2   5   6  356.76   12.20
  -3  -5  -6   31.60    5.80
  -3  -5  -6   25.90    4.00
   3   5   6   33.80    4.60
  -4  -5  -6  740.93   24.70
  -4  -5  -6  731.03   20.10
   4   5   6  754.62   22.40
  -5  -5  -6  630.74   22.10
   5   5   6  567.74   19.80
  -6  -5  -6   97.39   10.20
   6   5   6  101.29    9.30
  -7  -5  -6   77.49    9.30
   7   5   6   61.79    8.20
   8   5   6 1674.83   46.40
   9   5   6 1214.78   37.80
  10   5   6   21.20    5.20
  10   5   6   16.30    6.40
  11   5   6   11.00    6.80
  12   5   6  250.37   17.80
  13   5   6   41.90   10.10
  14   5   6   80.89   13.40
  15   5   6   -3.60    6.80
  10  -6  -6    3.80    8.50
   9  -6  -6   66.59   13.00
   8  -6  -6   78.99   13.40
   7  -6  -6    1.00    6.70
   6  -6  -6   -5.90    5.50
   5  -6  -6  563.54   24.60
   4  -6  -6  667.73   25.80
   3  -6  -6  157.88   11.50
   2  -6  -6  182.38   11.30
   1  -6  -6  615.54   21.00
   1  -6  -6  626.64   24.40
  -1   6   6  619.54   16.20
   0  -6  -6   46.80    5.80
   0  -6  -6   50.89    8.00
   0   6   6   48.30    4.30
  -1  -6  -6  509.75   20.80
  -1  -6  -6  542.55   17.70
   1   6   6  555.64   16.00
  -2  -6  -6   82.29    9.20
  -2  -6  -6   81.99    7.20
   2   6   6   93.59    6.20
  -3  -6  -6   74.99    8.70
  -3  -6  -6   74.59    5.40
   3   6   6   72.89    6.70
  -4  -6  -6   68.19    4.40
  -4  -6  -6   56.49    7.40
   4   6   6   54.19    6.50
  -5  -6  -6  327.07   15.80
   5   6   6  319.37   14.20
  -6  -6  -6   41.40    7.30
   6   6   6   50.19    7.20
  -7  -6  -6   22.80    6.80
   7   6   6   15.30    4.60
   8   6   6  827.42   28.60
   9   6   6 1098.69   35.70
  10   6   6    6.70    5.30
  11   6   6   11.80    6.70
  12   6   6  172.08   17.50
  13   6   6   -3.00    6.40
  14   6   6   40.70   11.40
  15   6   6    0.70    7.80
  10  -7  -6    5.60    9.30
   9  -7  -6  123.09   17.20
   8  -7  -6  263.67   23.30
   7  -7  -6   20.10    8.30
   6  -7  -6   -5.50    5.00
   5  -7  -6 1203.58   40.20
   4  -7  -6 1305.27   41.10
   3  -7  -6   92.99   10.30
   2  -7  -6   86.89    9.40
   2  -7  -6   60.39    9.50
   1  -7  -6  370.36   15.30
   1  -7  -6  360.86   18.70
  -1   7   6  356.36   12.20
   0  -7  -6  249.18   11.60
   0  -7  -6  245.58   14.90
   0   7   6  249.58   10.00
  -1  -7  -6  110.19    7.30
  -1  -7  -6  125.29   12.30
   1   7   6  118.39    7.20
  -2  -7  -6  375.66   13.80
  -2  -7  -6  432.26   18.90
   2   7   6  415.36   14.50
  -3  -7  -6   10.80    5.30
  -3  -7  -6   11.00    3.00
   3   7   6   12.00    3.90
  -4  -7  -6  174.58   11.80
   4   7   6  168.68    9.80
  -5  -7  -6  143.69   12.40
   5   7   6  126.99   10.30
  -6  -7  -6   72.89    9.70
   6   7   6   76.89    8.60
  -7  -7  -6    2.10    5.50
   7   7   6    5.20    4.70
  -8  -7  -6   42.40    8.30
   8   7   6   65.09    9.10
   9   7   6   68.19    9.90
  10   7   6   50.99    9.50
  11   7   6   26.00    7.90
  12   7   6  128.49   15.30
  13   7   6   22.40    9.60
  14   7   6   18.00    9.60
   9  -8  -6    6.60    9.50
   8  -8  -6   36.60   11.40
   7  -8  -6   79.19   13.60
   6  -8  -6   15.20    7.60
   5  -8  -6    2.30    6.00
   4  -8  -6   95.19   11.50
   3  -8  -6   33.50    7.50
   2  -8  -6   82.69   11.80
   2  -8  -6   78.89    9.40
   1  -8  -6    5.10    4.00
   1  -8  -6    1.20    5.00
  -1   8   6    8.60    3.40
   0  -8  -6  116.69   12.40
   0  -8  -6  102.79    7.80
   0   8   6  105.09    8.30
  -1  -8  -6  178.38    9.10
  -1  -8  -6  178.88   13.00
   1   8   6  186.88    9.80
  -2  -8  -6  587.24   17.60
  -2  -8  -6  610.84   24.30
   2   8   6  598.54   19.80
  -3  -8  -6   46.90    8.30
   3   8   6   59.49    7.00
  -4  -8  -6  133.79   12.30
   4   8   6  153.18   10.00
  -5  -8  -6  317.37   16.60
   5   8   6  315.57   14.80
  -6  -8  -6  260.17   15.60
   6   8   6  276.67   14.40
  -7  -8  -6  121.39   12.90
   7   8   6  130.39   12.10
  -8  -8  -6  254.47   15.90
   8   8   6  249.88   15.00
   9   8   6   68.69    9.80
  10   8   6  513.85   23.90
  11   8   6    8.90    5.50
  12   8   6  166.88   17.30
  13   8   6   11.90    6.60
  14   8   6   10.80    8.60
   8  -9  -6   69.59   13.60
   7  -9  -6    8.00    8.40
   6  -9  -6   57.79   12.00
   5  -9  -6  187.58   17.60
   4  -9  -6   -2.80    5.50
   3  -9  -6  134.69   15.60
   3  -9  -6  136.59   13.10
   2  -9  -6   48.50   10.20
   2  -9  -6   72.19    9.00
   1  -9  -6  165.68   11.20
   1  -9  -6  164.28   15.40
   0  -9  -6   17.60    4.80
   0  -9  -6   29.10    7.60
   0   9   6   17.20    4.90
  -1  -9  -6    6.40    5.10
   1   9   6    2.00    3.70
  -2  -9  -6   36.20    8.10
   2   9   6   35.20    6.00
  -3  -9  -6   55.39    9.20
   3   9   6   56.99    7.40
  -4  -9  -6   30.50    7.50
   4   9   6   32.40    6.00
  -5  -9  -6   -8.00    3.70
   5   9   6    7.40    4.70
  -6  -9  -6  245.98   15.80
   6   9   6  270.17   14.70
  -7  -9  -6  111.59   12.50
   7   9   6  107.99   11.50
  -8  -9  -6   46.50    9.30
   8   9   6   47.40    8.60
   9   9   6  131.69   13.80
  10   9   6  703.83   29.10
  11   9   6  291.17   19.00
  12   9   6   18.70    7.70
  13   9   6   17.50    8.90
  14   9   6  183.18   19.60
   8 -10  -6   47.10   12.80
   7 -10  -6   46.30   12.10
   6 -10  -6  107.79   15.00
   5 -10  -6  104.69   13.50
   4 -10  -6   56.19   12.30
   4 -10  -6   45.40    9.30
   3 -10  -6  787.32   29.60
   3 -10  -6  794.42   34.00
   2 -10  -6  530.35   26.20
   2 -10  -6  517.55   21.90
   1 -10  -6   18.80    7.70
   1 -10  -6   10.90    5.60
   0 -10  -6    6.90    6.80
   0  10   6    2.90    4.00
  -1 -10  -6  718.33   28.60
   1  10   6  694.83   24.10
  -2 -10  -6   19.20    6.90
   2  10   6   14.10    5.30
  -3 -10  -6  321.47   18.40
   3  10   6  316.77   15.50
  -4 -10  -6    5.70    5.90
   4  10   6    3.20    4.40
  -5 -10  -6   56.59    9.80
   5  10   6   54.99    8.40
  -6 -10  -6   29.80    8.30
   6  10   6   11.60    5.80
  -7 -10  -6   13.30    7.00
   7  10   6   18.80    6.00
  -8 -10  -6   36.40    9.40
   8  10   6   39.00    7.70
   9  10   6    1.50    5.30
  10  10   6   72.79   11.30
  11  10   6  152.38   16.60
  12  10   6   19.00    8.10
  13  10   6   -5.00    6.80
   7 -11  -6    5.60    8.60
   6 -11  -6   30.60   10.50
   5 -11  -6    0.70    6.70
   5 -11  -6    2.60    8.30
   4 -11  -6   23.90   10.40
   4 -11  -6   27.40    8.60
   3 -11  -6  422.36   21.20
   3 -11  -6  367.16   23.70
   2 -11  -6  334.97   21.50
   1 -11  -6    5.90    6.60
   0 -11  -6   12.60    7.50
  -1 -11  -6  374.56   21.10
   1  11   6  390.96   18.30
  -2 -11  -6   48.80    9.90
   2  11   6   54.59    8.40
  -3 -11  -6  167.78   15.50
   3  11   6  191.98   13.20
  -4 -11  -6   38.80    8.90
   4  11   6   36.10    7.20
  -5 -11  -6   14.50    7.10
   5  11   6   13.90    5.90
  -6 -11  -6    4.40    6.50
   6  11   6    1.80    4.60
  -7 -11  -6   40.20   10.10
   7  11   6   42.10    8.20
  -8 -11  -6   13.00    8.30
   8  11   6    2.10    5.10
   9  11   6    2.40    5.20
  10  11   6   13.60    6.80
  11  11   6    2.90    6.10
  12  11   6   21.40    8.80
  13  11   6   15.00    8.50
   5 -12  -6   83.39   15.50
   4 -12  -6   43.50   12.20
   3 -12  -6   24.70   10.10
   2 -12  -6    6.70    7.70
   1 -12  -6   16.20    8.90
   0 -12  -6  170.78   17.20
  -1 -12  -6  166.08   17.50
   1  12   6  126.99   13.00
  -2 -12  -6    7.10    7.40
   2  12   6    5.00    5.00
  -3 -12  -6   12.30    7.50
   3  12   6   14.20    6.20
  -4 -12  -6  384.36   21.60
   4  12   6  400.66   20.00
  -5 -12  -6   14.50    7.70
   5  12   6   -3.70    4.60
  -6 -12  -6   12.50    7.80
   6  12   6    6.60    5.80
  -7 -12  -6   51.69   11.20
   7  12   6   37.60    8.90
  -8 -12  -6    8.00    8.50
   8  12   6   24.90    7.90
  -9 -12  -6   37.80   11.20
   9  12   6   50.29   10.10
  10  12   6   38.60    9.70
  11  12   6   22.00    9.20
  12  12   6  307.57   21.90
   4 -13  -6   10.90    9.70
   3 -13  -6    4.00    8.70
   2 -13  -6   55.79   12.80
   1 -13  -6  118.79   16.60
   0 -13  -6   22.10    9.40
  -1 -13  -6   47.70   11.20
  -2 -13  -6   12.20    8.30
   2  13   6    2.50    5.50
  -3 -13  -6   11.90    7.70
   3  13   6   23.00    7.20
  -4 -13  -6   11.10    9.00
   4  13   6   17.50    7.20
  -5 -13  -6   99.39   13.90
   5  13   6   91.89   12.20
  -6 -13  -6    4.10    9.00
   6  13   6    9.60    6.80
  -7 -13  -6   28.10   10.00
   7  13   6    8.60    6.90
  -8 -13  -6    6.60    8.80
   8  13   6   14.60    8.10
  -9 -13  -6   -0.10    8.60
   9  13   6   -7.90    5.80
  10  13   6   15.70    8.40
  11  13   6  108.59   15.70
   2 -14  -6   74.79   15.40
   1 -14  -6  377.76   25.00
   0 -14  -6  259.57   23.20
  -1 -14  -6    4.10    9.40
  -2 -14  -6   44.00   11.30
   2  14   6   64.69   11.80
  -3 -14  -6  486.45   25.70
   3  14   6  455.85   24.20
  -4 -14  -6   19.30   10.60
   4  14   6   22.00    8.30
  -5 -14  -6  207.48   20.00
   5  14   6  174.18   17.70
  -6 -14  -6   11.30   10.40
   6  14   6   28.10    8.90
  -7 -14  -6   64.99   13.10
   7  14   6   46.00   10.60
  -8 -14  -6   56.59   12.90
   8  14   6   43.50   10.20
   9  14   6   14.50    8.80
   0 -15  -6   28.30   11.80
  -1 -15  -6   -5.00    9.00
  -2 -15  -6   -7.70    8.30
  -3 -15  -6   57.59   13.10
   3  15   6   43.30   11.00
  -4 -15  -6   -2.10    8.40
   4  15   6   -2.80    7.20
  -5 -15  -6  108.09   16.50
   5  15   6   86.29   13.30
  -6 -15  -6   11.70   10.00
   6  15   6    7.20    7.50
  -7 -15  -6   -4.00   10.10
   7  15   6   -6.40    6.80
   3  10  -7   21.00   10.50
   2  10  -7   -1.70    7.30
   2  10  -7    0.30    8.10
   1  10  -7   -5.50    8.00
   0  10  -7   48.60   12.20
  -1  10  -7   87.29   15.50
  -2  10  -7   14.60    9.70
   2 -10   7   15.50    9.70
   5   9  -7  197.18   20.30
   4   9  -7    1.60    7.90
   4   9  -7    9.80    7.90
   3   9  -7  118.39   15.60
   3   9  -7  138.09   16.60
   2   9  -7  152.68   17.50
   2   9  -7  145.19   17.10
   1   9  -7   -6.80    7.10
   1   9  -7   22.90    9.10
   0   9  -7    5.60    7.10
  -1   9  -7    2.20    7.30
  -2   9  -7  199.98   20.40
   3  -9   7   74.29   13.60
   4  -9   7    3.20    7.90
   5  -9   7   24.00   11.80
   7   8  -7   10.60    9.10
   6   8  -7   32.10   10.20
   6   8  -7   39.20   10.20
   5   8  -7   -0.70    7.30
   5   8  -7   -0.70    7.50
   4   8  -7   16.40    8.80
   4   8  -7   10.90    8.30
   3   8  -7   59.19   11.60
   3   8  -7   79.99   12.90
   2   8  -7   12.30    7.40
   2   8  -7   -1.90    7.30
   1   8  -7   21.00    8.60
   1   8  -7    7.70    7.40
   0   8  -7   19.00    8.20
   0   8  -7   12.30    7.60
  -1   8  -7   64.49   12.00
  -2   8  -7   52.09   11.10
   3  -8   7  107.09   15.70
   4  -8   7   56.89   12.30
   5  -8   7   68.09   13.80
   6  -8   7   19.90   10.10
   7  -8   7   54.99   13.80
   8   7  -7   14.10    8.90
   7   7  -7  158.08   17.90
   7   7  -7  139.09   15.70
   6   7  -7  271.77   21.40
   6   7  -7  266.87   20.30
   5   7  -7   25.00    8.80
   5   7  -7   39.30    9.80
   4   7  -7   15.80    8.00
   4   7  -7   40.50    9.60
   3   7  -7   80.19   12.10
   3   7  -7   83.59   13.00
   2   7  -7   58.49   11.00
   2   7  -7   89.29   12.50
   1   7  -7   22.70    7.80
   1   7  -7   28.20    8.60
   0   7  -7   25.30    8.70
   0   7  -7   42.40    9.30
  -1   7  -7    7.70    6.80
  -1   7  -7    5.60    6.40
  -2   7  -7   31.70    9.00
   3  -7   7  231.98   20.60
   4  -7   7   13.00    8.00
   5  -7   7  337.07   22.40
   6  -7   7   -3.80    7.40
   7  -7   7    4.20    8.60
   8  -7   7  276.07   25.30
   9  -7   7  254.97   25.10
   9   6  -7   90.49   15.30
   8   6  -7  228.68   21.80
   7   6  -7   64.89   11.20
   7   6  -7   77.69   12.60
   6   6  -7   13.10    8.40
   6   6  -7   22.00    7.90
   5   6  -7  270.97   19.40
   5   6  -7  286.07   18.00
   4   6  -7  478.85   24.50
   4   6  -7  471.75   22.60
   3   6  -7   17.50    6.90
   3   6  -7   28.00    9.10
   2   6  -7    1.50    6.40
   2   6  -7    1.30    5.50
   1   6  -7   60.79   11.00
   1   6  -7   94.19   11.80
   0   6  -7  124.19   13.30
   0   6  -7  132.59   15.10
  -1   6  -7    5.50    6.40
  -1   6  -7   14.20    6.90
  -2   6  -7   73.69   11.10
  -2   6  -7  109.19   13.30
   3  -6   7   54.19   10.60
   4  -6   7   28.60    8.70
   5  -6   7    0.90    6.40
   6  -6   7    1.20    7.30
   7  -6   7   19.00    9.10
   8  -6   7   20.60    9.30
   9  -6   7   67.59   14.10
  10  -6   7   24.40   12.10
   9   5  -7   25.60   10.60
   8   5  -7   11.20    8.50
   7   5  -7   17.20    8.50
   6   5  -7    1.00    6.70
   6   5  -7    4.70    5.60
   5   5  -7   41.40    8.20
   5   5  -7   35.10    9.00
   4   5  -7  962.20   33.10
   4   5  -7 1033.80   37.60
   3   5  -7  248.88   17.20
   3   5  -7  210.18   14.10
   2   5  -7    0.50    4.60
   2   5  -7    2.30    6.10
   1   5  -7  675.03   29.00
   1   5  -7  697.33   26.70
   0   5  -7  649.83   25.90
   0   5  -7  677.93   28.60
  -1   5  -7    5.20    5.90
  -1   5  -7   -1.20    4.60
  -2   5  -7   22.80    7.00
  -2   5  -7   19.50    6.70
   3  -5   7   73.29   10.90
   4  -5   7  205.68   17.60
   5  -5   7  146.79   15.70
   6  -5   7   41.90   10.00
   7  -5   7    0.30    7.00
   8  -5   7  179.48   19.20
   9  -5   7    8.30    9.00
  10  -5   7   20.20   10.30
  11  -5   7    6.40   10.00
  10   4  -7    3.00    8.80
   9   4  -7  146.29   19.30
   8   4  -7  113.89   16.50
   7   4  -7   50.09   11.50
   6   4  -7  291.17   15.70
   6   4  -7  296.57   20.00
   5   4  -7  241.78   17.80
   5   4  -7  276.87   15.00
   4   4  -7    7.00    5.30
   4   4  -7   14.20    6.80
   3   4  -7   19.70    5.90
   3   4  -7   23.40    7.50
   2   4  -7    8.90    5.10
   2   4  -7   -2.00    5.60
   1   4  -7   31.30    8.10
   1   4  -7   34.20    6.70
   0   4  -7   81.99    9.80
   0   4  -7   74.89   11.10
  -1   4  -7   40.80    7.50
  -1   4  -7   28.30    7.50
  -2   4  -7    9.10    5.90
  -2   4  -7   10.30    5.40
   2  -4   7   11.40    5.60
  -3   4  -7   30.10    7.70
   3  -4   7   21.30    7.00
   4  -4   7   83.29   11.10
   5  -4   7  254.47   17.00
   6  -4   7    5.80    5.90
   7  -4   7   53.29   10.30
   8  -4   7   62.49   11.70
   9  -4   7   32.70   10.80
  10  -4   7  197.48   20.20
  11  -4   7  137.19   18.10
  10   3  -7   24.00   10.80
   9   3  -7    5.00    8.80
   8   3  -7   41.10   11.60
   7   3  -7   23.60    9.60
   6   3  -7   -6.90    6.10
   5   3  -7  185.18   17.70
   5   3  -7  187.98   11.70
   4   3  -7  343.77   16.00
   4   3  -7  358.66   20.30
   3   3  -7  175.18   11.40
   3   3  -7  180.58   16.40
   2   3  -7  160.68   15.30
   2   3  -7  164.68   10.90
   1   3  -7  828.92   31.20
   1   3  -7  819.82   26.80
   0   3  -7   54.19    7.70
   0   3  -7   43.40    8.90
  -1   3  -7  253.07   15.70
  -1   3  -7  234.48   13.50
  -2   3  -7   60.59    9.70
   2  -3   7   58.79    8.50
  -3   3  -7  105.49   11.60
   3  -3   7  101.99   11.10
   4  -3   7  163.18   14.20
   5  -3   7  285.67   17.00
   6  -3   7    4.20    5.40
   7  -3   7   26.60    8.30
   8  -3   7   48.60   10.50
   9  -3   7    8.10    7.10
  10  -3   7  316.67   21.70
  11  -3   7  394.76   24.50
  12  -3   7   15.30    9.60
  11   2  -7   37.30   12.00
  10   2  -7   22.50   10.20
   9   2  -7    2.40    7.50
   8   2  -7   60.69   12.00
   7   2  -7  303.97   20.70
   6   2  -7  501.55   25.60
   5   2  -7  157.98   16.40
   5   2  -7  171.08   10.40
   4   2  -7    7.20    4.20
   4   2  -7   19.00    7.70
   3   2  -7 2162.18   52.99
   3   2  -7 2101.59   60.89
   2   2  -7 1448.06   44.70
   2   2  -7 1416.86   38.10
   1   2  -7   50.59    6.80
   1   2  -7   62.59    9.60
   0   2  -7  296.17   16.70
   0   2  -7  302.47   13.70
  -1   2  -7 1547.65   46.60
   1  -2   7 1576.24   42.60
  -2   2  -7  666.13   25.50
   2  -2   7  648.14   23.60
  -3   2  -7    1.20    3.70
   3  -2   7    6.10    4.60
  -4   2  -7    0.00    4.50
   4  -2   7   12.50    5.40
   5  -2   7   76.79   10.00
   6  -2   7   21.10    6.40
   7  -2   7  127.19   13.70
   8  -2   7   19.10    7.40
   9  -2   7    7.20    6.10
  10  -2   7   24.70    8.60
  11  -2   7   41.10   10.90
  12  -2   7   18.80   10.00
  13  -2   7   11.10   10.00
  11   1  -7  166.58   20.30
  10   1  -7   -0.10    8.20
   9   1  -7  129.29   16.50
   8   1  -7    3.60    6.30
   7   1  -7    4.40    6.40
   6   1  -7   37.00    8.80
   5   1  -7  111.29   13.40
   4   1  -7  156.08   15.00
   4   1  -7  159.78    9.10
   3   1  -7    6.00    3.20
   3   1  -7   -3.90    5.20
   2   1  -7  480.95   16.60
   2   1  -7  472.15   22.00
   1   1  -7  239.68   11.10
   1   1  -7  216.68   14.30
   1   1  -7  233.38    9.70
   0   1  -7   17.90    4.30
   0   1  -7    4.60    2.60
   0   1  -7   14.10    5.60
  -1   1  -7  538.85   15.10
  -1   1  -7  537.85   22.50
   1  -1   7  567.64   19.70
  -2   1  -7  562.84   15.70
  -2   1  -7  573.04   22.80
   2  -1   7  578.24   20.90
  -3   1  -7    9.30    5.20
   3  -1   7    3.70    4.10
  -4   1  -7    9.90    5.20
   4  -1   7   20.30    5.00
   5  -1   7  204.88   13.10
   6  -1   7  238.78   14.90
   7  -1   7  190.88   15.90
   8  -1   7  199.38   16.50
   9  -1   7    2.90    4.70
  10  -1   7  197.48   17.70
  11  -1   7    1.80    6.30
  12  -1   7  107.89   15.80
  13  -1   7    5.70    8.60
  11   0  -7  164.28   20.50
  10   0  -7   15.90    9.20
   9   0  -7   -2.00    6.60
   8   0  -7   18.50    8.50
   7   0  -7  170.88   16.60
   6   0  -7  142.19   15.00
   5   0  -7   93.49   11.90
   4   0  -7  366.76   12.90
   4   0  -7  378.36   19.60
   3   0  -7 1048.20   35.70
   3   0  -7 1017.60   26.60
   2   0  -7   30.50    4.50
   2   0  -7   33.10    7.40
   1   0  -7   44.20    5.60
   1   0  -7   44.20    5.30
   1   0  -7   40.10    8.10
   0   0  -7  624.74   23.70
   0   0  -7  570.64   17.70
   0   0   7  560.84   18.50
  -1   0  -7  133.99    7.30
  -1   0  -7  156.88   13.00
   1   0   7  148.19    9.00
  -2   0  -7   34.50    4.70
  -2   0  -7   36.60    7.00
   2   0   7   37.10    5.80
  -3   0  -7    7.40    3.30
  -3   0  -7    9.40    4.90
   3   0   7   17.40    4.80
  -4   0  -7   41.20    6.90
   4   0   7   40.50    6.70
   5   0   7  708.43   25.20
   6   0   7  340.27   17.00
   7   0   7   33.90    7.60
   8   0   7   11.70    6.10
   9   0   7   19.00    6.20
  10   0   7   19.70    7.90
  11   0   7   10.70    7.50
  12   0   7  352.26   22.20
  13   0   7  193.58   20.30
  14   0   7    7.60    9.70
  14   0   7   15.70    9.60
  11  -1  -7   36.30   11.60
  10  -1  -7   48.10   11.80
   9  -1  -7   -0.50    6.50
   8  -1  -7    4.60    6.20
   7  -1  -7   -4.80    4.80
   6  -1  -7    3.60    5.80
   5  -1  -7   71.49   10.70
   4  -1  -7   71.09   10.30
   3  -1  -7  272.87    9.30
   3  -1  -7  261.07   15.20
   2  -1  -7  129.49   12.70
  -2   1   7  138.79    6.70
   1  -1  -7 1634.14   49.00
   1  -1  -7 1735.73   43.80
  -1   1   7 1733.43   40.20
   0  -1  -7  377.76   14.10
   0  -1  -7  388.56   18.00
   0   1   7  376.56   13.20
  -1  -1  -7  123.09    7.50
  -1  -1  -7  115.69   10.60
   1   1   7  103.89    7.30
  -2  -1  -7  174.58    8.90
  -2  -1  -7  168.88   11.20
   2   1   7  164.28    9.40
  -3  -1  -7 2580.84   61.79
  -3  -1  -7 2700.43   66.79
   3   1   7 2644.24   63.09
  -4  -1  -7  141.49   10.40
  -4  -1  -7  151.78    9.00
   4   1   7  155.98   10.00
  -5  -1  -7  572.04   21.20
   5   1   7  595.74   21.60
   6   1   7   13.80    5.30
   7   1   7    9.50    5.00
   8   1   7  143.09   13.40
   9   1   7    1.30    5.00
  10   1   7   30.50    8.30
  11   1   7    7.70    7.10
  12   1   7  155.68   17.00
  13   1   7  110.09   16.00
  14   1   7   -4.40    7.50
  14   1   7   11.80    8.40
  11  -2  -7   19.60    9.90
  10  -2  -7  127.59   17.40
   9  -2  -7   13.40    8.10
   8  -2  -7   -0.40    5.50
   7  -2  -7   -7.90    4.10
   6  -2  -7    3.80    5.80
   5  -2  -7  168.38   15.30
   4  -2  -7    6.60    5.40
   3  -2  -7  339.47   17.30
   2  -2  -7   50.59    8.00
  -2   2   7   44.80    3.30
   1  -2  -7 2004.60   54.29
   1  -2  -7 2002.20   50.49
  -1   2   7 1905.51   43.50
   0  -2  -7 1599.74   45.00
   0  -2  -7 1555.14   40.60
   0   2   7 1486.55   36.00
  -1  -2  -7    0.10    4.10
  -1  -2  -7    5.90    3.50
   1   2   7   12.60    3.20
  -2  -2  -7  881.21   26.80
  -2  -2  -7  933.01   29.70
   2   2   7 1039.20   26.40
  -3  -2  -7 3365.86   81.19
  -3  -2  -7 3349.47   77.69
   3   2   7 3320.87   76.09
  -4  -2  -7 1592.94   41.90
  -4  -2  -7 1631.74   43.50
   4   2   7 1627.74   41.90
  -5  -2  -7    6.80    4.20
  -5  -2  -7   16.40    4.80
   5   2   7    9.50    4.30
   6   2   7   39.20    6.70
   7   2   7  172.88   12.20
   8   2   7   25.20    7.00
   9   2   7   97.89   11.90
  10   2   7   -4.30    5.10
  11   2   7   20.70    7.90
  12   2   7   57.89   10.90
  13   2   7   -5.90    6.20
  13   2   7   -5.70    5.90
  14   2   7   52.89   11.80
  14   2   7   39.40   10.60
  11  -3  -7   47.10   13.40
  10  -3  -7  202.78   21.30
   9  -3  -7  286.57   21.00
   8  -3  -7   47.30   10.50
   7  -3  -7   65.39   11.30
   6  -3  -7   27.60    8.30
   5  -3  -7    8.00    6.00
   4  -3  -7  589.64   24.20
   3  -3  -7  405.06   18.80
   2  -3  -7  110.59   11.20
   1  -3  -7   40.90    7.20
   1  -3  -7   56.49    7.70
   0  -3  -7   10.30    4.20
   0  -3  -7    3.60    4.50
   0   3   7    7.60    2.10
  -1  -3  -7    4.60    4.40
  -1  -3  -7    6.70    3.90
   1   3   7    3.20    2.40
  -2  -3  -7  110.99    9.80
  -2  -3  -7   99.59    8.90
   2   3   7  118.19    7.30
  -3  -3  -7  115.79    8.50
  -3  -3  -7  130.99    8.80
   3   3   7  117.59    8.00
  -4  -3  -7  493.85   17.60
  -4  -3  -7  498.15   18.50
   4   3   7  503.05   18.00
  -5  -3  -7   12.10    3.90
  -5  -3  -7   11.90    5.00
   5   3   7    3.60    3.60
  -6  -3  -7  128.89   11.00
   6   3   7  121.99   10.50
   7   3   7   13.70    5.30
   8   3   7  134.89   12.60
   9   3   7  192.78   16.10
  10   3   7   11.30    6.60
  11   3   7   23.50    7.50
  12   3   7  160.08   16.70
  13   3   7   19.60    8.00
  13   3   7   13.40    7.00
  14   3   7  183.28   19.80
  14   3   7  186.18   18.60
  10  -4  -7  317.07   23.60
   9  -4  -7  359.66   23.70
   8  -4  -7   11.10    7.60
   7  -4  -7   -2.80    5.80
   6  -4  -7  174.28   16.50
   5  -4  -7   69.29   10.60
   4  -4  -7   38.40    7.80
   3  -4  -7   32.00    6.50
   2  -4  -7  583.14   22.30
   1  -4  -7 1052.29   32.50
   1  -4  -7 1070.59   33.20
   0  -4  -7    2.90    4.00
   0  -4  -7    0.10    3.70
   0   4   7    2.20    1.60
  -1  -4  -7  104.29    9.80
  -1  -4  -7   96.79    9.90
   1   4   7   98.59    5.40
  -2  -4  -7  524.85   20.20
  -2  -4  -7  594.94   20.30
   2   4   7  577.04   16.80
  -3  -4  -7  178.98    9.90
  -3  -4  -7  176.78   10.90
   3   4   7  173.18    8.90
  -4  -4  -7    5.70    3.40
  -4  -4  -7   -0.10    3.70
   4   4   7    8.00    3.70
  -5  -4  -7    5.30    3.40
  -5  -4  -7    3.60    4.30
   5   4   7    8.70    4.10
  -6  -4  -7  213.18   13.20
   6   4   7  250.87   12.90
   7   4   7  664.23   24.00
   8   4   7  318.27   16.60
   9   4   7   35.20    7.70
  10   4   7   17.20    6.50
  11   4   7  103.69   12.60
  12   4   7   12.50    7.50
  12   4   7   16.00    6.50
  13   4   7   42.40   10.70
  14   4   7  178.98   19.50
  15   4   7   15.20   10.10
  10  -5  -7   26.80   10.60
   9  -5  -7   -0.80    6.90
   8  -5  -7    5.20    7.20
   7  -5  -7   25.30    8.50
   6  -5  -7   23.70    7.50
   5  -5  -7   11.00    6.30
   4  -5  -7  126.49   12.70
   3  -5  -7    0.60    4.30
   2  -5  -7   18.30    5.30
   1  -5  -7   -0.70    4.80
   1  -5  -7   -1.10    3.50
   0  -5  -7   71.19    8.80
   0  -5  -7   92.49    8.60
   0   5   7   80.99    4.20
  -1  -5  -7 2424.06   62.59
  -1  -5  -7 2522.15   63.89
   1   5   7 2535.05   55.19
  -2  -5  -7 1263.17   37.80
  -2  -5  -7 1303.87   36.20
   2   5   7 1338.97   32.30
  -3  -5  -7   46.20    6.00
  -3  -5  -7   34.60    6.50
   3   5   7   53.79    5.80
  -4  -5  -7  582.94   22.00
  -4  -5  -7  590.44   18.50
   4   5   7  601.54   19.40
  -5  -5  -7 3482.05   84.59
  -5  -5  -7 3547.85   80.99
   5   5   7 3486.45   80.79
  -6  -5  -7   93.69   10.40
   6   5   7  100.09    9.60
  -7  -5  -7  601.84   23.30
   7   5   7  550.84   21.40
   8   5   7  120.99   11.90
   9   5   7  192.68   15.60
  10   5   7   65.09   10.10
  11   5   7    8.90    6.70
  12   5   7    5.50    7.10
  13   5   7    6.90    7.90
  14   5   7   23.20   10.00
  15   5   7   13.30    9.20
  10  -6  -7   65.69   14.70
   9  -6  -7   33.00   10.50
   8  -6  -7  318.47   22.60
   7  -6  -7   11.30    7.70
   6  -6  -7  114.09   14.10
   5  -6  -7   47.30    9.30
   4  -6  -7   -0.90    4.60
   3  -6  -7    3.30    4.80
   2  -6  -7    9.10    5.20
   1  -6  -7  317.07   17.30
   1  -6  -7  323.77   14.80
   0  -6  -7   37.90    6.00
   0  -6  -7   47.30    8.30
   0   6   7   49.80    4.20
  -1  -6  -7 1010.30   29.70
  -1  -6  -7 1029.20   33.10
   1   6   7  992.20   25.40
  -2  -6  -7  159.38   10.00
  -2  -6  -7  162.78   11.40
   2   6   7  175.08    8.50
  -3  -6  -7    4.00    4.80
  -3  -6  -7    2.30    3.10
   3   6   7    3.30    3.00
  -4  -6  -7 1151.68   29.50
  -4  -6  -7 1152.98   35.00
   4   6   7 1109.09   31.20
  -5  -6  -7 1499.25   43.00
   5   6   7 1489.65   39.80
  -6  -6  -7  256.57   15.00
   6   6   7  240.68   12.90
  -7  -6  -7    4.50    4.80
   7   6   7    2.50    4.00
   8   6   7   26.70    6.60
   9   6   7  125.09   12.70
  10   6   7    2.30    5.30
  11   6   7   33.00    8.60
  12   6   7   10.90    6.10
  13   6   7    4.50    7.20
  14   6   7   22.20    9.70
  15   6   7   -8.90    8.20
   9  -7  -7  136.49   18.00
   8  -7  -7  592.74   30.30
   7  -7  -7  130.89   16.10
   6  -7  -7   18.10    8.10
   5  -7  -7    8.60    6.60
   4  -7  -7  181.88   15.70
   3  -7  -7   -0.10    4.80
   2  -7  -7  540.45   21.20
   2  -7  -7  508.95   23.50
   1  -7  -7  113.99   12.80
   1  -7  -7   97.29    9.50
   0  -7  -7   26.80    7.10
   0  -7  -7   47.80    6.60
   0   7   7   45.10    4.70
  -1  -7  -7  429.26   20.20
  -1  -7  -7  461.25   16.90
   1   7   7  463.95   14.90
  -2  -7  -7  144.79   12.90
  -2  -7  -7  154.08    9.60
   2   7   7  166.88    8.70
  -3  -7  -7   -1.00    4.50
  -3  -7  -7    2.40    3.30
   3   7   7    4.20    3.00
  -4  -7  -7  228.88    8.80
  -4  -7  -7  216.58   13.90
   4   7   7  231.38   11.40
  -5  -7  -7   22.60    6.70
   5   7   7   22.80    5.40
  -6  -7  -7  154.28   13.80
   6   7   7  147.19   12.10
  -7  -7  -7  108.19   11.50
   7   7   7  121.79   11.40
  -8  -7  -7  491.35   22.50
   8   7   7  498.35   21.60
   9   7   7    0.90    5.10
  10   7   7   69.49   10.90
  11   7   7  124.69   14.50
  12   7   7   -8.50    5.30
  13   7   7   -1.70    7.30
  14   7   7   53.89   13.00
   9  -8  -7   13.70   10.10
   8  -8  -7  105.29   15.80
   7  -8  -7   92.19   14.80
   6  -8  -7   59.59   11.70
   5  -8  -7   31.20    8.80
   4  -8  -7  114.09   12.90
   3  -8  -7    4.00    5.20
   2  -8  -7  197.08   17.90
   2  -8  -7  185.48   12.40
   1  -8  -7  207.48   12.20
   1  -8  -7  211.28   17.70
   0  -8  -7   87.89    8.50
   0  -8  -7   50.69    8.70
   0   8   7   70.79    6.90
  -1  -8  -7  199.88   10.40
  -1  -8  -7  202.68   14.60
   1   8   7  180.18    9.40
  -2  -8  -7  120.39   12.70
  -2  -8  -7  122.39    8.50
   2   8   7  119.09    8.10
  -3  -8  -7   74.89   10.30
   3   8   7   70.19    7.30
  -4  -8  -7   56.69    8.60
   4   8   7   78.69    8.20
  -5  -8  -7   -2.00    5.30
   5   8   7    4.50    3.70
  -6  -8  -7  386.66   19.40
   6   8   7  366.16   17.20
  -7  -8  -7  283.47   17.30
   7   8   7  272.87   15.20
  -8  -8  -7   48.80   10.00
   8   8   7   37.80    7.80
   9   8   7  373.86   19.60
  10   8   7   33.50    8.80
  11   8   7   10.60    7.10
  12   8   7   29.70    9.30
  13   8   7   67.29   12.70
  14   8   7    2.10    7.20
   8  -9  -7   -4.00    8.30
   7  -9  -7   25.30   10.00
   6  -9  -7   -0.50    7.50
   5  -9  -7   56.99   10.80
   4  -9  -7   32.50    8.30
   3  -9  -7    3.20    5.40
   3  -9  -7   -3.80    6.30
   2  -9  -7   25.00    9.00
   2  -9  -7   15.40    6.30
   1  -9  -7    4.10    4.30
   1  -9  -7   10.50    6.30
   0  -9  -7  209.78   17.80
   0  -9  -7  207.28   11.60
  -1  -9  -7   85.39   11.40
   1   9   7   78.49    8.00
  -2  -9  -7   84.69   11.60
   2   9   7   97.99    8.90
  -3  -9  -7  524.15   23.70
   3   9   7  523.35   19.40
  -4  -9  -7  317.87   18.10
   4   9   7  308.57   14.80
  -5  -9  -7    2.30    6.40
   5   9   7   18.70    5.30
  -6  -9  -7  568.04   24.80
   6   9   7  531.25   21.60
  -7  -9  -7 1596.74   48.30
   7   9   7 1555.74   45.40
  -8  -9  -7   38.10    9.70
   8   9   7   26.60    7.30
  -9  -9  -7   72.19   12.10
   9   9   7   62.09   10.40
  10   9   7  210.28   18.00
  11   9   7  167.68   16.90
  12   9   7   74.99   12.50
  13   9   7    9.90    7.70
  14   9   7   22.50   10.00
   7 -10  -7  115.39   16.90
   6 -10  -7  482.25   26.50
   5 -10  -7    8.60    7.50
   4 -10  -7   34.80   10.70
   4 -10  -7   54.59   10.30
   3 -10  -7  157.68   17.70
   3 -10  -7  162.28   14.90
   2 -10  -7   78.69   12.70
   2 -10  -7   84.89   10.60
   1 -10  -7  127.59   15.10
   1 -10  -7  136.49   11.90
   0 -10  -7   37.70    9.50
  -1 -10  -7   25.40    8.00
   1  10   7   28.40    5.80
  -2 -10  -7    5.90    6.70
   2  10   7   10.60    5.00
  -3 -10  -7   71.09   10.50
   3  10   7   65.79    8.50
  -4 -10  -7   36.90    8.30
   4  10   7   41.00    7.10
  -5 -10  -7   -1.00    5.90
   5  10   7    3.30    4.40
  -6 -10  -7  149.88   15.20
   6  10   7  174.38   12.50
  -7 -10  -7  307.47   19.00
   7  10   7  297.77   16.70
  -8 -10  -7    4.40    7.00
   8  10   7    0.90    4.90
  -9 -10  -7   18.20    8.60
   9  10   7    6.40    5.80
  10  10   7   13.80    6.60
  11  10   7    2.40    6.10
  12  10   7   20.70    8.70
  13  10   7   38.30   10.50
   6 -11  -7  242.38   25.40
   6 -11  -7  242.48   22.40
   5 -11  -7   87.69   15.60
   5 -11  -7   77.79   13.30
   4 -11  -7    3.40    8.30
   4 -11  -7    0.10    6.90
   3 -11  -7   40.60   11.50
   2 -11  -7  164.48   18.40
   1 -11  -7   -2.30    6.50
   0 -11  -7  284.27   19.90
  -1 -11  -7   27.40    8.40
  -2 -11  -7   10.90    6.90
   2  11   7    3.40    4.70
  -3 -11  -7  124.29   14.20
   3  11   7  147.49   12.70
  -4 -11  -7   27.10    8.40
   4  11   7   52.49    8.40
  -5 -11  -7   -1.80    6.60
   5  11   7   -2.30    4.60
  -6 -11  -7   56.69   10.80
   6  11   7   44.60    8.00
  -7 -11  -7   45.30   10.00
   7  11   7   39.60    8.40
  -8 -11  -7   61.59   11.50
   8  11   7   39.30    8.40
  -9 -11  -7   14.10    9.10
   9  11   7    6.30    5.70
  10  11   7  281.77   19.10
  11  11   7    8.70    6.70
  12  11   7    7.60    6.90
  13  11   7   22.90    9.10
   5 -12  -7    5.80   10.30
   4 -12  -7   61.19   13.70
   3 -12  -7   51.09   12.70
   2 -12  -7   48.90   12.00
   1 -12  -7    4.50    7.90
   0 -12  -7   94.99   14.00
  -1 -12  -7   28.20    9.40
  -2 -12  -7    9.00    8.00
   2  12   7   15.10    5.90
  -3 -12  -7   26.80    8.90
   3  12   7   19.30    6.70
  -4 -12  -7   28.20    9.00
   4  12   7   41.60    8.00
  -5 -12  -7   57.89   11.70
   5  12   7   53.19    9.50
  -6 -12  -7    1.20    7.50
   6  12   7    9.60    6.10
  -7 -12  -7   27.50    9.90
   7  12   7   27.30    7.60
  -8 -12  -7  230.08   20.40
   8  12   7  224.08   18.70
  -9 -12  -7   67.59   12.70
   9  12   7   47.60   10.00
  10  12   7   15.70    7.40
  11  12   7   12.70    7.90
  12  12   7   54.79   12.40
   4 -13  -7   14.60   10.10
   3 -13  -7   34.20   12.30
   2 -13  -7    7.80    8.90
   1 -13  -7   27.00   11.30
   0 -13  -7    6.00    8.40
  -1 -13  -7  171.08   18.90
  -2 -13  -7   99.69   14.60
  -3 -13  -7   41.70   10.60
   3  13   7   42.80    9.00
  -4 -13  -7   30.80   10.00
   4  13   7   44.10    9.30
  -5 -13  -7   12.60    8.60
   5  13   7    5.90    6.30
  -6 -13  -7   90.39   14.50
   6  13   7   81.19   11.70
  -7 -13  -7   22.90   10.40
   7  13   7   37.00    9.30
  -8 -13  -7  194.18   19.60
   8  13   7  226.38   19.60
  -9 -13  -7  348.37   23.40
   9  13   7  403.86   23.40
  10  13   7    6.40    7.20
  11  13   7    2.20    7.00
   2 -14  -7   -3.60    9.40
   1 -14  -7  198.58   21.00
   0 -14  -7  110.09   17.00
  -1 -14  -7   47.70   12.20
  -2 -14  -7   75.49   13.80
  -3 -14  -7   22.20   10.10
  -4 -14  -7    1.10    8.80
   4  14   7   -8.10    4.70
  -5 -14  -7   35.20   10.60
   5  14   7   25.30    8.30
  -6 -14  -7   13.50    9.50
   6  14   7    8.50    7.40
  -7 -14  -7    6.00    9.10
   7  14   7    9.90    7.30
  -8 -14  -7   13.00   10.00
   8  14   7   21.00    8.90
  -9 -14  -7   12.20   10.40
   9  14   7   18.40    8.90
  -1 -15  -7    2.80    9.60
  -2 -15  -7  111.19   16.40
  -3 -15  -7   13.70   10.50
  -4 -15  -7   -2.70    9.40
   4  15   7   -4.10    7.60
  -5 -15  -7   41.30   12.00
   5  15   7   59.49   11.50
  -6 -15  -7   46.30   13.60
   6  15   7   27.30    9.60
  -7 -15  -7  -10.00    9.70
   7  15   7   -7.80    6.20
   3   9  -8   -8.50    7.20
   3   9  -8    2.90    7.80
   2   9  -8   71.59   13.90
   2   9  -8   69.29   13.60
   1   9  -8  197.08   20.30
   1   9  -8  149.79   18.70
   0   9  -8   19.90    9.80
  -1   9  -8   24.50    9.80
   2  -9   8   67.09   13.20
   3  -9   8    9.10    9.10
   5   8  -8   19.00    9.00
   5   8  -8   12.60    8.50
   4   8  -8   -0.90    7.60
   4   8  -8   -0.50    7.90
   3   8  -8    6.40    7.60
   3   8  -8    8.10    8.20
   2   8  -8    7.10    7.40
   2   8  -8   -9.60    7.10
   1   8  -8  124.09   16.90
   1   8  -8  130.99   15.80
   0   8  -8  125.69   16.00
   0   8  -8  149.49   17.60
  -1   8  -8   46.20   12.00
   2  -8   8    3.00    7.40
   3  -8   8  210.88   21.20
   4  -8   8   14.40   10.60
   5  -8   8  148.79   19.70
   6  -8   8   -0.10    8.70
   7   7  -8   -1.20    8.20
   6   7  -8    0.90    6.60
   6   7  -8   13.50    8.90
   5   7  -8   32.30   10.40
   5   7  -8   25.50    9.70
   4   7  -8    1.20    7.60
   4   7  -8    5.00    7.40
   3   7  -8   24.80    8.90
   3   7  -8   32.10    9.90
   2   7  -8    1.00    6.20
   2   7  -8   -3.90    6.50
   1   7  -8  267.47   18.90
   1   7  -8  194.38   19.30
   0   7  -8   15.30    8.20
   0   7  -8   13.10    7.40
  -1   7  -8  282.07   19.70
  -1   7  -8  361.96   22.50
   2  -7   8  103.09   14.50
   3  -7   8   13.00    8.00
   4  -7   8  117.79   15.80
   5  -7   8  623.84   31.30
   6  -7   8  213.88   22.50
   7  -7   8   11.10    9.20
   8  -7   8   29.10   11.80
   8   6  -8  127.49   17.00
   7   6  -8  152.68   18.40
   6   6  -8   37.90   10.20
   5   6  -8   12.30    7.60
   5   6  -8    2.30    7.50
   4   6  -8  107.99   14.40
   4   6  -8  118.49   13.90
   3   6  -8   46.60   10.90
   3   6  -8   20.50    7.60
   2   6  -8   76.19   11.60
   2   6  -8   68.89   12.50
   1   6  -8   80.59   12.80
   1   6  -8   74.79   11.20
   0   6  -8   33.30    9.70
   0   6  -8   32.10    8.40
  -1   6  -8   16.90    7.60
  -1   6  -8    7.40    6.30
  -2   6  -8    8.60    7.70
   2  -6   8    8.20    6.30
   3  -6   8   -5.80    5.50
   4  -6   8   20.90    8.60
   5  -6   8  191.98   19.70
   6  -6   8  182.58   19.70
   7  -6   8   -1.10    7.30
   8  -6   8   59.39   12.70
   9  -6   8  112.59   17.70
   8   5  -8  306.27   22.90
   7   5  -8  254.47   22.50
   6   5  -8   -3.10    7.10
   5   5  -8  161.88   17.30
   5   5  -8  136.59   13.90
   4   5  -8  429.56   21.20
   4   5  -8  422.86   23.70
   3   5  -8    4.50    5.90
   3   5  -8    6.00    6.50
   2   5  -8   -2.90    6.10
   2   5  -8    2.90    5.10
   1   5  -8   -3.90    4.50
   1   5  -8    8.80    7.60
   0   5  -8   76.79   10.50
   0   5  -8   56.59   10.60
  -1   5  -8  205.28   16.90
  -1   5  -8  180.08   17.60
  -2   5  -8   -2.00    5.60
   2  -5   8    2.50    5.70
  -3   5  -8   -3.50    5.50
   3  -5   8    0.00    5.50
   4  -5   8  159.88   15.70
   5  -5   8  124.89   15.30
   6  -5   8    4.90    7.20
   7  -5   8   -6.30    5.30
   8  -5   8   38.00   11.60
   9  -5   8   49.60   12.60
  10  -5   8    3.70    9.60
   9   4  -8   29.50   11.90
   8   4  -8   14.90    9.00
   7   4  -8   -3.70    6.50
   6   4  -8    2.80    7.40
   5   4  -8   79.89   10.40
   5   4  -8   89.39   13.30
   4   4  -8   11.00    7.50
   4   4  -8    9.90    5.20
   3   4  -8   19.90    6.60
   3   4  -8   22.10    7.90
   2   4  -8   69.79   11.50
   2   4  -8   83.19   10.10
   1   4  -8   19.30    6.00
   1   4  -8   18.20    7.60
   0   4  -8   17.40    7.40
   0   4  -8   16.20    5.70
  -1   4  -8   26.20    7.10
  -1   4  -8   37.50    9.40
  -2   4  -8  103.79   13.20
   2  -4   8  101.79   12.10
  -3   4  -8  250.07   17.00
   3  -4   8  198.18   16.90
   4  -4   8   10.10    6.20
   5  -4   8  289.47   18.30
   6  -4   8   70.09   11.40
   7  -4   8  454.05   24.50
   8  -4   8   -2.80    5.10
   9  -4   8   75.59   14.10
  10  -4   8   16.70   10.50
  11  -4   8   35.70   11.80
   9   3  -8   56.09   14.40
   8   3  -8  409.46   26.90
   7   3  -8   -2.30    7.60
   6   3  -8  165.18   18.40
   5   3  -8   88.99   13.20
   4   3  -8  146.69   16.00
   4   3  -8  130.09   11.70
   3   3  -8   25.30    8.10
   3   3  -8   37.70    6.70
   2   3  -8   18.40    5.70
   2   3  -8   32.60    8.40
   1   3  -8   20.70    5.70
   1   3  -8   26.60    7.90
   0   3  -8   40.60    9.10
   0   3  -8   43.30    7.60
  -1   3  -8  479.85   23.60
   1  -3   8  524.35   21.50
  -2   3  -8   42.00    8.30
   2  -3   8   48.80    8.20
  -3   3  -8  413.66   21.60
   3  -3   8  423.36   20.30
  -4   3  -8   10.50    6.40
   4  -3   8   15.50    6.80
   5  -3   8   43.50    8.90
   6  -3   8  393.86   21.20
   7  -3   8  679.03   29.30
   8  -3   8  225.38   20.60
   9  -3   8   13.60    8.70
  10  -3   8  118.59   16.10
  11  -3   8  238.28   22.80
  12  -3   8   22.40   11.10
  10   2  -8  175.28   22.20
   9   2  -8  -12.10    7.10
   8   2  -8    6.90    8.10
   7   2  -8  183.78   19.80
   6   2  -8  437.26   25.40
   5   2  -8  488.75   26.20
   4   2  -8    4.70    6.40
   4   2  -8    7.40    4.60
   3   2  -8  153.68   10.20
   3   2  -8  176.28   16.80
   2   2  -8 1052.29   31.00
   2   2  -8 1024.20   37.10
   1   2  -8   37.00    9.00
   1   2  -8   30.20    5.90
   0   2  -8  467.85   22.30
   0   2  -8  429.46   17.80
  -1   2  -8   29.80    8.00
   1  -2   8   38.80    7.20
  -2   2  -8   -0.90    5.30
   2  -2   8    8.30    4.70
  -3   2  -8  302.87   17.80
   3  -2   8  284.67   15.80
  -4   2  -8   46.60    8.90
   4  -2   8   37.70    7.70
   5  -2   8   66.49   10.10
   6  -2   8  306.97   18.10
   7  -2   8    5.40    6.30
   8  -2   8  178.98   17.10
   9  -2   8   -3.00    5.50
  10  -2   8   -1.90    5.70
  11  -2   8   55.09   12.20
  12  -2   8    3.50    8.50
  10   1  -8    1.70    9.10
   9   1  -8   -6.30    6.70
   8   1  -8   64.89   12.90
   7   1  -8    1.00    6.60
   6   1  -8  452.65   25.20
   5   1  -8  175.28   18.00
   4   1  -8   12.30    7.70
   3   1  -8  269.17   18.00
   3   1  -8  267.37   12.30
   2   1  -8 1021.80   29.20
   2   1  -8 1054.19   37.00
   1   1  -8   -1.30    3.60
   1   1  -8   10.80    6.40
   0   1  -8    2.70    4.80
   0  -1   8    9.60    4.20
  -1   1  -8   80.59   11.00
   1  -1   8  100.99    9.60
  -2   1  -8   21.10    7.00
   2  -1   8   34.10    6.50
  -3   1  -8  148.29   13.30
   3  -1   8  178.18   11.90
  -4   1  -8    5.20    5.30
   4  -1   8    2.70    4.50
   5  -1   8    8.00    5.20
   6  -1   8  296.97   17.30
   7  -1   8   41.10    8.70
   8  -1   8   43.60    9.50
   9  -1   8    9.10    6.90
  10  -1   8   65.69   11.40
  11  -1   8  141.19   16.90
  12  -1   8   11.10    9.20
  13  -1   8   -0.40    8.40
  10   0  -8    9.30    9.70
   9   0  -8   68.89   13.60
   8   0  -8  249.28   22.20
   7   0  -8  117.79   15.00
   6   0  -8   60.99   11.30
   5   0  -8    4.70    6.60
   4   0  -8   10.40    7.50
   3   0  -8  110.39   13.10
   2   0  -8  274.97   11.50
   2   0  -8  295.17   18.00
   1   0  -8   24.50    4.90
   1   0  -8   13.10    6.20
  -1   0   8    8.60    4.00
   0   0  -8    8.20    3.50
   0   0  -8    8.20    5.30
   0   0   8    5.60    3.80
  -1   0  -8  289.77   11.40
  -1   0  -8  275.57   16.40
   1   0   8  287.97   13.40
  -2   0  -8  218.88   14.40
  -2   0  -8  208.28    9.80
   2   0   8  219.58   12.10
  -3   0  -8  170.18   14.10
  -3   0  -8  132.99    8.10
   3   0   8  142.79   11.40
  -4   0  -8    6.40    4.90
   4   0   8   22.20    6.00
  -5   0  -8  365.16   17.70
   5   0   8  358.76   17.80
   6   0   8   10.90    5.70
   7   0   8   54.89    9.00
   8   0   8  464.75   22.40
   9   0   8  719.73   29.60
  10   0   8    1.40    5.20
  11   0   8   59.49   11.80
  12   0   8  268.07   23.10
  13   0   8  101.79   16.10
  10  -1  -8    5.30    8.30
   9  -1  -8    2.00    8.00
   8  -1  -8   81.69   13.90
   7  -1  -8   40.80   10.20
   6  -1  -8  266.77   18.60
   5  -1  -8  179.58   16.60
   4  -1  -8  908.11   34.20
   3  -1  -8  103.39   12.40
   2  -1  -8   72.59   10.80
  -2   1   8   65.59    5.90
   1  -1  -8  613.44   21.20
   1  -1  -8  643.04   25.90
  -1   1   8  641.34   19.00
   0  -1  -8  129.79   12.50
   0  -1  -8  123.19    8.50
   0   1   8  106.59    7.50
  -1  -1  -8  141.89   13.10
  -1  -1  -8  148.29    8.70
   1   1   8  140.89    8.90
  -2  -1  -8  465.45   20.80
  -2  -1  -8  522.75   17.30
   2   1   8  504.85   18.20
  -3  -1  -8   93.19   10.40
  -3  -1  -8   90.59    8.10
   3   1   8   84.59    8.90
  -4  -1  -8   50.19    8.10
  -4  -1  -8   47.10    6.50
   4   1   8   34.10    6.50
  -5  -1  -8   12.30    5.30
   5   1   8    2.60    4.10
   6   1   8   21.20    6.20
   7   1   8   64.89    9.30
   8   1   8  134.09   13.60
   9   1   8  302.17   18.30
  10   1   8   25.10    8.20
  11   1   8   15.40    7.70
  12   1   8  165.08   18.00
  13   1   8  167.88   19.50
  14   1   8   -1.00    8.50
  10  -2  -8   10.00    9.50
   9  -2  -8   91.49   15.20
   8  -2  -8  116.99   16.20
   7  -2  -8   40.90   10.00
   6  -2  -8    2.30    5.90
   5  -2  -8  683.03   29.20
   4  -2  -8  695.53   28.50
   3  -2  -8  375.46   19.70
   2  -2  -8  253.97   16.20
   1  -2  -8  720.53   24.00
   1  -2  -8  716.33   27.70
  -1   2   8  676.83   18.70
   0  -2  -8 1943.21   53.69
   0  -2  -8 1892.01   48.30
   0   2   8 1824.72   44.00
  -1  -2  -8  100.49   11.10
  -1  -2  -8  108.79    9.10
   1   2   8   98.69    7.10
  -2  -2  -8  163.08    9.70
  -2  -2  -8  160.68   11.70
   2   2   8  157.48    9.20
  -3  -2  -8  387.56   17.50
  -3  -2  -8  345.07   14.90
   3   2   8  382.36   15.40
  -4  -2  -8  220.48   12.10
  -4  -2  -8  249.68   13.40
   4   2   8  224.88   12.20
  -5  -2  -8  279.27   13.90
  -5  -2  -8  268.37   14.10
   5   2   8  252.47   14.10
   6   2   8   23.20    6.00
   7   2   8    5.00    4.80
   8   2   8   95.89   11.30
   9   2   8    6.60    4.90
  10   2   8  169.78   16.40
  11   2   8   -7.50    5.40
  12   2   8   60.49   12.10
  13   2   8   -3.40    8.00
  14   2   8   -1.20    6.90
  14   2   8   12.70    9.50
  10  -3  -8    0.50    8.10
   9  -3  -8    5.40    7.20
   8  -3  -8  210.28   20.90
   7  -3  -8   51.09   11.10
   6  -3  -8   55.49   11.10
   5  -3  -8  203.08   17.70
   4  -3  -8   91.39   11.70
   3  -3  -8  148.39   13.80
   2  -3  -8  151.58   13.30
   1  -3  -8   84.69   10.40
   1  -3  -8   96.19   10.10
   0  -3  -8 1336.37   37.80
   0  -3  -8 1363.46   41.50
   0   3   8 1316.17   31.40
  -1  -3  -8    8.10    4.50
  -1  -3  -8    3.70    4.80
   1   3   8    9.20    3.20
  -2  -3  -8   74.59    8.90
  -2  -3  -8   64.39    7.60
   2   3   8   77.59    6.80
  -3  -3  -8  181.28   10.80
  -3  -3  -8  187.48   12.20
   3   3   8  180.68   10.10
  -4  -3  -8  101.19    9.60
  -4  -3  -8   88.09    9.40
   4   3   8  102.49    9.20
  -5  -3  -8  319.67   15.30
  -5  -3  -8  320.57   14.80
   5   3   8  345.17   16.00
  -6  -3  -8    0.10    4.60
   6   3   8   -2.80    3.40
   7   3   8   33.80    7.00
   8   3   8  197.48   14.10
   9   3   8   40.50    8.70
  10   3   8  236.98   19.00
  11   3   8   44.80   10.40
  12   3   8   68.49   12.20
  13   3   8   23.30    9.20
  14   3   8   57.29   11.80
  14   3   8   86.69   15.10
  10  -4  -8   18.90   10.40
   9  -4  -8    0.50    8.00
   8  -4  -8   27.40   10.10
   7  -4  -8   78.59   13.10
   6  -4  -8  244.68   17.80
   5  -4  -8  170.68   16.50
   4  -4  -8   80.09   11.50
   3  -4  -8  126.99   13.10
   2  -4  -8   11.80    5.40
   1  -4  -8  189.68   12.90
   1  -4  -8  210.48   13.10
   0  -4  -8  153.48   13.20
   0  -4  -8  166.48   11.30
   0   4   8  145.79    5.90
  -1  -4  -8  165.58   11.40
  -1  -4  -8  169.68   11.80
   1   4   8  171.98    7.50
  -2  -4  -8    3.00    4.50
  -2  -4  -8    0.70    4.20
   2   4   8   14.70    3.50
  -3  -4  -8  952.20   30.60
  -3  -4  -8  954.80   30.00
   3   4   8 1023.60   27.50
  -4  -4  -8  456.75   18.90
  -4  -4  -8  444.96   17.40
   4   4   8  463.65   17.10
  -5  -4  -8    7.40    5.10
  -5  -4  -8    5.60    4.10
   5   4   8    8.90    4.30
  -6  -4  -8  107.39   11.20
   6   4   8  120.89   11.00
  -7  -4  -8   12.90    6.00
   7   4   8    1.80    4.70
   8   4   8    6.20    5.70
   9   4   8   78.39   10.50
  10   4   8  341.87   19.60
  11   4   8  374.26   20.70
  12   4   8    7.30    7.20
  13   4   8  -10.80    6.50
  14   4   8  268.37   23.10
   9  -5  -8   16.60    9.90
   8  -5  -8    9.40    8.80
   7  -5  -8    5.00    7.10
   6  -5  -8   41.90    9.80
   5  -5  -8   -0.60    5.70
   4  -5  -8    6.70    5.80
   3  -5  -8  762.12   28.70
   2  -5  -8 1051.19   35.00
   2  -5  -8 1041.30   34.20
   1  -5  -8   47.60    8.20
   1  -5  -8   42.50    7.40
   0  -5  -8   15.90    5.40
   0  -5  -8   12.20    5.70
  -1  -5  -8 2282.77   59.59
  -1  -5  -8 2231.48   59.49
   1   5   8 2221.18   50.19
  -2  -5  -8  321.47   16.40
  -2  -5  -8  337.57   15.60
   2   5   8  325.67   11.90
  -3  -5  -8  220.98   13.60
  -3  -5  -8  254.97   12.80
   3   5   8  254.87   11.10
  -4  -5  -8    4.30    5.00
  -4  -5  -8   -1.40    3.40
   4   5   8    9.30    4.00
  -5  -5  -8    2.20    3.60
  -5  -5  -8    1.10    4.70
   5   5   8    7.00    4.20
  -6  -5  -8   25.70    7.20
   6   5   8   23.80    5.80
  -7  -5  -8   58.29    9.60
   7   5   8   53.29    8.10
   8   5   8   49.30    8.30
   9   5   8    2.00    5.30
  10   5   8  190.08   16.70
  11   5   8  108.29   13.10
  12   5   8    9.70    7.30
  13   5   8   16.60    8.50
  14   5   8   22.80    9.80
   9  -6  -8   29.40   11.10
   8  -6  -8    5.20    8.20
   7  -6  -8   39.00   10.30
   6  -6  -8   -2.00    5.80
   5  -6  -8   45.20    9.60
   4  -6  -8    1.80    5.70
   3  -6  -8  429.16   20.70
   2  -6  -8  422.86   19.20
   2  -6  -8  381.36   19.70
   1  -6  -8  113.19   12.50
   1  -6  -8  126.79   11.30
   0  -6  -8  183.58   13.10
   0  -6  -8  172.88   11.40
  -1  -6  -8 1069.19   33.00
  -1  -6  -8 1061.69   34.80
   1   6   8 1028.40   26.10
  -2  -6  -8  962.60   32.80
  -2  -6  -8 1011.70   30.80
   2   6   8 1007.70   26.50
  -3  -6  -8  197.98   11.10
  -3  -6  -8  201.68   13.70
   3   6   8  213.38   10.20
  -4  -6  -8   14.10    5.80
  -4  -6  -8   19.40    4.60
   4   6   8   14.60    4.50
  -5  -6  -8  150.18   13.00
  -5  -6  -8  134.99    8.30
   5   6   8  152.68    9.90
  -6  -6  -8  121.79   12.60
   6   6   8  154.78   10.80
  -7  -6  -8  219.78   15.30
   7   6   8  250.87   14.30
  -8  -6  -8   92.49   11.90
   8   6   8  108.89   11.60
   9   6   8   70.39   10.20
  10   6   8   22.60    7.80
  11   6   8   27.60    8.60
  12   6   8  101.89   13.80
  13   6   8    6.30    7.30
  14   6   8   55.99   12.40
   9  -7  -8   54.69   13.60
   8  -7  -8   66.99   13.90
   7  -7  -8    8.20    8.10
   6  -7  -8  243.38   18.50
   5  -7  -8  137.99   15.20
   4  -7  -8   75.09   11.00
   3  -7  -8  209.58   14.40
   2  -7  -8   -0.20    5.80
   2  -7  -8    8.90    5.40
   1  -7  -8    5.30    4.50
   1  -7  -8   12.80    6.30
   0  -7  -8  145.09   14.10
   0  -7  -8  172.78   11.60
  -1  -7  -8   31.40    6.40
  -1  -7  -8   19.00    6.90
   1   7   8   37.20    4.60
  -2  -7  -8  231.28   12.90
  -2  -7  -8  251.77   15.60
   2   7   8  239.38   10.60
  -3  -7  -8    5.20    5.50
  -3  -7  -8    3.00    4.00
   3   7   8    6.00    3.40
  -4  -7  -8  349.77   18.00
  -4  -7  -8  373.46   13.80
   4   7   8  377.86   15.30
  -5  -7  -8    7.20    5.40
   5   7   8   -0.10    3.60
  -6  -7  -8   10.90    6.60
   6   7   8    8.90    4.70
  -7  -7  -8  259.07   16.60
   7   7   8  221.28   13.90
  -8  -7  -8    0.90    6.40
   8   7   8   11.00    5.60
   9   7   8   35.90    8.10
  10   7   8  143.09   14.60
  11   7   8   16.40    7.40
  12   7   8  117.49   14.60
  13   7   8   22.80    9.40
  14   7   8    4.90    8.30
   8  -8  -8   10.40    9.50
   7  -8  -8    6.20    7.80
   6  -8  -8   35.00    9.60
   5  -8  -8   97.79   13.00
   4  -8  -8   81.19   11.30
   3  -8  -8   77.79   10.70
   3  -8  -8   90.39   13.30
   2  -8  -8   30.20    8.60
   2  -8  -8   22.50    6.90
   1  -8  -8   15.80    7.20
   1  -8  -8   21.00    6.10
   0  -8  -8    6.80    5.60
   0  -8  -8    4.70    4.40
  -1  -8  -8   63.79   10.70
  -1  -8  -8   65.09    7.80
  -2  -8  -8    4.20    4.60
  -2  -8  -8   -6.10    4.80
   2   8   8    6.10    3.30
  -3  -8  -8  373.26   19.60
   3   8   8  356.96   14.50
  -4  -8  -8   26.60    7.60
   4   8   8   27.90    5.40
  -5  -8  -8  358.66   19.20
   5   8   8  325.57   15.40
  -6  -8  -8   81.39   11.40
   6   8   8  110.59   10.80
  -7  -8  -8   87.29   11.50
   7   8   8  107.99   11.20
  -8  -8  -8   75.29   10.90
   8   8   8   84.39   10.80
  -9  -8  -8  166.58   16.50
   9   8   8  187.38   16.40
  10   8   8   -1.20    5.80
  11   8   8    6.50    6.80
  12   8   8  101.69   14.60
  13   8   8  105.49   15.40
  14   8   8   -2.00    7.20
   7  -9  -8    4.20    7.80
   6  -9  -8   10.70    8.40
   5  -9  -8   35.50    9.50
   4  -9  -8   -0.60    7.30
   4  -9  -8   10.70    6.60
   3  -9  -8    6.50    5.90
   3  -9  -8    8.70    7.60
   2  -9  -8    0.30    5.20
   2  -9  -8   -0.10    6.30
   1  -9  -8  238.78   17.50
   1  -9  -8  263.07   14.60
   0  -9  -8  400.76   21.80
   0  -9  -8  392.06   17.10
  -1  -9  -8   -3.70    5.90
  -2  -9  -8  263.47   17.70
   2   9   8  257.87   12.50
  -3  -9  -8 1947.11   56.19
   3   9   8 1852.21   48.10
  -4  -9  -8  379.76   20.90
   4   9   8  410.66   17.00
  -5  -9  -8   47.70    9.30
   5   9   8   60.39    8.20
  -6  -9  -8   65.79   11.10
   6   9   8   81.49    9.60
  -7  -9  -8  335.97   20.10
   7   9   8  349.47   17.80
  -8  -9  -8    5.20    7.10
   8   9   8   10.10    5.70
  -9  -9  -8   60.09   11.20
   9   9   8   98.39   12.30
  10   9   8    6.50    6.30
  11   9   8   11.80    6.90
  12   9   8   -3.70    6.40
  13   9   8    3.10    7.20
  14   9   8    8.30    8.70
   7 -10  -8    1.80    9.50
   6 -10  -8   41.00   12.40
   5 -10  -8   -1.30    6.80
   5 -10  -8    5.60    8.60
   4 -10  -8   80.49   12.20
   4 -10  -8   68.79   13.60
   3 -10  -8   90.19   11.60
   3 -10  -8   77.39   13.40
   2 -10  -8   11.30    6.20
   2 -10  -8   13.40    7.90
   1 -10  -8   38.70   10.20
   0 -10  -8   -6.30    6.10
  -1 -10  -8    8.70    7.00
  -2 -10  -8   53.89   10.50
  -3 -10  -8  336.37   20.30
   3  10   8  335.37   15.60
  -4 -10  -8  452.95   22.90
   4  10   8  459.75   19.20
  -5 -10  -8    9.20    7.10
   5  10   8    5.90    4.70
  -6 -10  -8   12.50    7.30
   6  10   8   14.40    5.50
  -7 -10  -8   28.00    9.50
   7  10   8   26.00    7.10
  -8 -10  -8   33.90   10.20
   8  10   8   33.30    8.10
  -9 -10  -8  142.69   16.70
   9  10   8  148.29   14.90
  10  10   8   57.09   11.20
  11  10   8   21.10    7.90
  12  10   8   21.40    8.80
  13  10   8   17.20    8.80
   6 -11  -8   38.00   12.40
   6 -11  -8   55.69   14.90
   5 -11  -8   58.99   12.40
   5 -11  -8   38.50   12.50
   4 -11  -8  237.88   20.20
   4 -11  -8  240.68   23.60
   3 -11  -8  136.19   17.50
   2 -11  -8   10.60    8.80
   1 -11  -8   56.49   11.70
   0 -11  -8   80.09   14.00
  -1 -11  -8    5.30    7.30
  -2 -11  -8  125.69   14.70
  -3 -11  -8   38.00    9.80
   3  11   8   59.39    8.30
  -4 -11  -8   47.50    9.90
   4  11   8   58.09    8.50
  -5 -11  -8    5.00    7.30
   5  11   8   12.90    5.60
  -6 -11  -8  194.78   18.00
   6  11   8  175.38   15.00
  -7 -11  -8   55.39   11.60
   7  11   8   60.69    9.80
  -8 -11  -8   69.59   12.50
   8  11   8   66.79   10.50
  -9 -11  -8   67.99   12.90
   9  11   8   81.99   11.90
  10  11   8   73.09   11.70
  11  11   8   21.70    8.30
  12  11   8   22.00    8.90
  13  11   8   15.50    8.70
   5 -12  -8    6.30   10.60
   4 -12  -8   13.10   10.10
   3 -12  -8   53.89   12.60
   2 -12  -8   14.40    9.60
   1 -12  -8   14.90    9.20
   0 -12  -8   13.90    8.80
  -1 -12  -8   14.90    8.30
  -2 -12  -8    1.90    7.10
  -3 -12  -8   24.50    9.30
  -4 -12  -8   45.10   11.20
   4  12   8   30.40    7.80
  -5 -12  -8  192.78   18.80
   5  12   8  190.98   15.90
  -6 -12  -8   31.70   10.30
   6  12   8   44.80    9.20
  -7 -12  -8  174.18   18.80
   7  12   8  160.68   15.20
  -8 -12  -8    1.70    8.60
   8  12   8   -4.30    5.80
  -9 -12  -8   83.59   14.50
   9  12   8   78.19   11.90
  10  12   8   27.00    8.60
  11  12   8  121.99   15.10
  12  12   8   18.70    8.50
   3 -13  -8   65.49   14.30
   2 -13  -8   19.60   10.30
   1 -13  -8    2.70    8.60
   0 -13  -8    1.40    7.60
  -1 -13  -8   61.29   13.20
  -2 -13  -8   96.49   15.20
  -3 -13  -8   33.40   10.40
  -4 -13  -8  130.99   16.60
   4  13   8  135.99   14.40
  -5 -13  -8  882.71   36.50
   5  13   8  795.32   31.60
  -6 -13  -8  111.99   16.20
   6  13   8  114.09   13.80
  -7 -13  -8   -4.00    8.50
   7  13   8   -2.10    5.90
  -8 -13  -8  149.29   17.90
   8  13   8  143.49   15.80
  -9 -13  -8  130.99   17.60
   9  13   8  157.08   16.80
 -10 -13  -8    3.50    9.70
  10  13   8    0.80    6.50
  11  13   8   19.50    9.30
   1 -14  -8    3.80    9.30
   0 -14  -8    9.80    9.50
  -1 -14  -8  -15.20    8.20
  -2 -14  -8   36.90   12.10
  -3 -14  -8    4.00    8.70
  -4 -14  -8   21.80   10.90
  -5 -14  -8    7.10    9.90
   5  14   8    7.20    7.20
  -6 -14  -8    9.40    9.90
   6  14   8   17.80    7.50
  -7 -14  -8   -0.60    9.70
   7  14   8    3.20    6.50
  -8 -14  -8   13.30   10.10
   8  14   8   20.30    8.50
  -9 -14  -8   -9.70   10.00
   9  14   8    2.70    6.90
  -1 -15  -8   41.90   13.20
  -2 -15  -8   39.70   12.60
  -3 -15  -8   14.50   11.60
  -4 -15  -8    5.50   10.80
  -5 -15  -8   15.30   10.50
  -6 -15  -8    1.20   11.00
   6  15   8    8.70    8.40
  -7 -15  -8   -1.10   11.00
   7  15   8    8.60    7.50
   3   8  -9    4.90    8.40
   3   8  -9   12.90    9.00
   2   8  -9   15.20    9.00
   2   8  -9   -6.20    8.30
   1   8  -9  125.99   16.40
   1   8  -9  115.09   17.00
   0   8  -9   80.09   14.20
   0   8  -9   84.39   13.80
  -1   8  -9    0.90    7.30
   1  -8   9   -1.10    7.40
   2  -8   9    5.50    9.00
   3  -8   9   47.10   12.70
   4  -8   9   44.60   11.80
   5   7  -9   51.49   12.70
   4   7  -9   21.20   10.40
   4   7  -9   30.00    9.40
   3   7  -9   48.20   11.80
   3   7  -9   64.19   12.50
   2   7  -9  193.98   20.00
   2   7  -9  172.28   17.60
   1   7  -9    9.40    9.00
   1   7  -9   23.30    8.80
   0   7  -9   15.70    8.10
   0   7  -9   14.40    8.80
  -1   7  -9  285.37   20.00
  -1   7  -9  233.68   22.70
   1  -7   9  248.98   21.30
   2  -7   9  462.05   26.00
   3  -7   9   12.50    8.30
   4  -7   9    8.30    8.30
   5  -7   9   54.89   13.20
   6  -7   9   31.50   11.40
   6   6  -9   39.50   11.40
   5   6  -9    2.40    6.80
   4   6  -9   43.10   11.30
   4   6  -9   48.90   10.60
   3   6  -9   38.10    9.70
   3   6  -9   28.60   10.40
   2   6  -9   89.39   14.40
   2   6  -9   51.89   10.10
   1   6  -9    3.70    6.70
   1   6  -9    6.90    7.50
   0   6  -9    3.00    7.70
   0   6  -9    7.70    6.90
  -1   6  -9  107.69   13.50
  -1   6  -9  114.09   16.00
   1  -6   9  105.19   14.00
   2  -6   9  420.66   24.20
   3  -6   9   54.19   11.80
   4  -6   9   35.40   10.30
   5  -6   9  162.68   18.60
   6  -6   9   43.80   11.70
   7  -6   9    3.50    8.50
   8  -6   9   56.59   13.60
   7   5  -9   -0.90    7.70
   6   5  -9    0.70    8.50
   5   5  -9    0.80    7.20
   4   5  -9   61.99   12.30
   4   5  -9   64.29   10.40
   3   5  -9   55.69   10.10
   3   5  -9   33.70   10.10
   2   5  -9   73.79   12.40
   2   5  -9   45.20    9.40
   1   5  -9   81.19   11.70
   1   5  -9   58.79   11.40
   0   5  -9   25.50    7.90
   0   5  -9   25.50    9.00
  -1   5  -9   59.89   11.90
   1  -5   9   84.79   11.60
  -2   5  -9   82.69   12.80
   2  -5   9   70.49   11.60
  -3   5  -9   -0.70    6.70
   3  -5   9    8.40    7.10
   4  -5   9   -2.80    6.10
   5  -5   9  100.39   14.50
   6  -5   9   51.39   11.40
   7  -5   9   21.30    9.40
   8  -5   9    1.10    8.60
   9  -5   9    2.10    8.60
   8   4  -9   20.90   11.10
   7   4  -9   24.40   10.00
   6   4  -9   -1.40    7.20
   5   4  -9   10.70    7.70
   4   4  -9   42.80   10.40
   3   4  -9   59.19    9.50
   3   4  -9   54.49   11.70
   2   4  -9  167.88   14.60
   2   4  -9  151.68   16.70
   1   4  -9   86.49   12.80
   1   4  -9   95.59   11.20
   0   4  -9   58.89   11.20
   0   4  -9   65.49    9.60
  -1   4  -9  424.56   24.20
   1  -4   9  447.66   21.60
  -2   4  -9    7.00    7.20
   2  -4   9   10.50    6.90
  -3   4  -9  312.37   20.70
   3  -4   9  275.97   18.10
   4  -4   9   30.00    8.60
   5  -4   9   46.70    9.90
   6  -4   9   28.10    9.40
   7  -4   9   10.70    7.80
   8  -4   9   11.30    8.50
   9  -4   9   54.39   13.40
  10  -4   9   52.09   13.40
   8   3  -9   41.50   13.10
   7   3  -9   30.20   10.70
   6   3  -9    1.80    7.60
   5   3  -9  119.49   15.80
   4   3  -9    2.80    6.90
   3   3  -9  145.89   12.80
   3   3  -9  136.29   15.70
   2   3  -9   34.70    7.20
   2   3  -9   23.60    8.40
   1   3  -9  320.27   16.60
   1   3  -9  361.26   21.10
   0   3  -9   95.79   10.90
   0   3  -9   89.49   12.50
   0  -3   9   77.79    9.90
  -1   3  -9   -3.50    4.50
   1  -3   9    2.20    4.80
  -2   3  -9   98.19   13.30
   2  -3   9   97.59   11.70
  -3   3  -9  443.66   23.90
   3  -3   9  474.75   22.30
  -4   3  -9  757.62   31.80
   4  -3   9  742.13   29.80
   5  -3   9  119.89   13.90
   6  -3   9   49.60   10.00
   7  -3   9  400.66   23.10
   8  -3   9  166.18   17.90
   9  -3   9   -0.60    7.30
  10  -3   9    2.30    8.10
  11  -3   9   11.90   10.90
   9   2  -9  226.88   25.00
   8   2  -9   21.60   10.80
   7   2  -9   -5.30    7.60
   6   2  -9  239.38   23.10
   5   2  -9   66.99   12.30
   4   2  -9   57.29   11.30
   3   2  -9   31.40    9.10
   2   2  -9   27.30    8.30
   2   2  -9   23.60    6.00
   1   2  -9   58.69    8.30
   1   2  -9   77.19   11.70
   0   2  -9    4.20    5.50
   0  -2   9    9.20    5.20
  -1   2  -9   -0.50    5.60
   1  -2   9    6.30    4.90
  -2   2  -9   53.09   10.00
   2  -2   9   47.70    8.30
  -3   2  -9    2.90    6.40
   3  -2   9   -1.00    4.50
  -4   2  -9  469.75   23.90
   4  -2   9  478.35   22.00
   5  -2   9   26.00    7.60
   6  -2   9   18.70    7.10
   7  -2   9  221.88   19.30
   8  -2   9   21.50    8.80
   9  -2   9    9.80    7.30
  10  -2   9    5.70    8.00
  11  -2   9   11.30    9.20
  12  -2   9   41.40   12.50
   9   1  -9  190.48   22.70
   8   1  -9   24.70   10.60
   7   1  -9   71.09   14.50
   6   1  -9  274.37   24.50
   5   1  -9  180.08   19.60
   4   1  -9   28.90    9.00
   3   1  -9   26.10    8.40
   2   1  -9   17.30    7.30
   2   1  -9   14.30    4.90
   1   1  -9  178.28   16.70
  -1  -1   9  190.68   11.90
   0   1  -9   85.09   11.50
   0  -1   9   97.29    9.70
  -1   1  -9   54.39    9.40
   1  -1   9   51.09    7.70
  -2   1  -9   77.29   11.50
   2  -1   9   70.39    8.90
  -3   1  -9  296.97   18.10
   3  -1   9  272.97   15.80
  -4   1  -9   35.90    8.60
   4  -1   9   39.40    7.80
  -5   1  -9   36.00    8.70
   5  -1   9   33.20    7.80
   6  -1   9   15.20    6.80
   7  -1   9  447.36   23.00
   8  -1   9   66.79   11.20
   9  -1   9   11.70    7.80
  10  -1   9   51.29   11.10
  11  -1   9  128.99   16.80
  12  -1   9   22.10   10.00
   9   0  -9    1.20    9.10
   8   0  -9   17.60    9.60
   7   0  -9    7.60    8.40
   6   0  -9   62.79   12.20
   5   0  -9    1.30    7.20
   4   0  -9   13.70    8.10
   3   0  -9    5.10    6.20
   2   0  -9    5.20    6.80
   1   0  -9  230.78   16.40
  -1   0   9  233.38   12.00
   0   0  -9  122.19   13.60
   0   0   9  149.49    9.90
  -1   0  -9  361.56   20.00
   1   0   9  383.96   16.30
  -2   0  -9   96.99   11.90
   2   0   9  128.89   10.90
  -3   0  -9  219.08   15.30
   3   0   9  203.48   13.00
  -4   0  -9   26.40    7.60
   4   0   9   30.00    7.20
  -5   0  -9 1439.16   44.20
   5   0   9 1319.87   41.70
   6   0   9   69.19   10.40
   7   0   9   72.39   10.60
   8   0   9   53.49   10.80
   9   0   9  224.18   19.10
  10   0   9    5.20    7.50
  11   0   9   16.60    8.90
  12   0   9   -1.30    8.10
  13   0   9    0.20    8.80
   9  -1  -9    4.60    8.80
   8  -1  -9  144.89   18.40
   7  -1  -9    7.70    7.90
   6  -1  -9   51.59   11.50
   5  -1  -9    3.70    7.00
   4  -1  -9   62.69   11.80
   3  -1  -9   47.10   10.50
   2  -1  -9  183.38   11.70
   2  -1  -9  180.78   17.10
   1  -1  -9  420.56   16.80
   1  -1  -9  380.06   21.00
  -1   1   9  420.96   16.30
   0  -1  -9   37.40    6.10
   0  -1  -9   41.00    8.50
   0   1   9   35.00    5.40
  -1  -1  -9   58.29    6.90
  -1  -1  -9   43.30    8.70
   1   1   9   46.90    6.40
  -2  -1  -9   23.50    5.40
  -2  -1  -9   31.70    7.60
   2   1   9   15.40    5.00
  -3  -1  -9   73.79    7.80
  -3  -1  -9   75.79   10.40
   3   1   9   83.69    9.40
  -4  -1  -9  179.58   11.00
  -4  -1  -9  227.88   14.90
   4   1   9  211.88   13.50
  -5  -1  -9  586.24   24.20
   5   1   9  552.04   22.70
   6   1   9  610.84   24.80
   7   1   9  170.38   15.00
   8   1   9   68.49   10.50
   9   1   9  438.36   22.70
  10   1   9  195.78   18.30
  11   1   9    2.30    7.40
  12   1   9   24.40    9.90
  13   1   9   36.10   11.00
   9  -2  -9   26.70   11.40
   8  -2  -9  251.87   23.60
   7  -2  -9  458.85   26.60
   6  -2  -9    5.30    7.90
   5  -2  -9   41.30   10.30
   4  -2  -9  858.71   34.40
   3  -2  -9  500.05   24.90
   2  -2  -9   84.39   12.30
   2  -2  -9  105.89   10.70
   1  -2  -9   12.30    6.00
   1  -2  -9   11.40    4.90
   0  -2  -9   28.50    7.30
   0  -2  -9   31.40    6.30
   0   2   9   42.40    5.50
  -1  -2  -9   57.69    9.40
  -1  -2  -9   59.19    7.50
   1   2   9   59.09    6.60
  -2  -2  -9  177.78   13.30
  -2  -2  -9  159.88   10.60
   2   2   9  177.28   10.30
  -3  -2  -9   32.90    6.20
  -3  -2  -9   29.50    7.10
   3   2   9   23.60    5.60
  -4  -2  -9   17.80    5.30
  -4  -2  -9   32.80    7.20
   4   2   9   28.40    6.40
  -5  -2  -9    4.50    5.10
  -5  -2  -9   10.70    5.40
   5   2   9    6.20    4.60
   6   2   9  152.68   13.20
   7   2   9    4.40    5.40
   8   2   9   45.90    9.10
   9   2   9   12.90    7.70
  10   2   9    1.60    6.00
  11   2   9    6.90    6.70
  12   2   9    9.90    8.10
  13   2   9   12.70    9.90
  14   2   9   84.79   15.50
   9  -3  -9  115.09   17.70
   8  -3  -9   53.99   13.00
   7  -3  -9  197.28   20.60
   6  -3  -9   19.80    8.90
   5  -3  -9   33.10    9.20
   4  -3  -9  455.05   23.50
   3  -3  -9  113.79   13.60
   2  -3  -9   58.09    8.50
   2  -3  -9   38.90    8.70
   1  -3  -9   14.40    6.80
   1  -3  -9    7.10    4.90
   0  -3  -9   91.79    9.70
   0  -3  -9   72.09   10.10
  -1  -3  -9  189.78   13.60
  -1  -3  -9  222.18   12.50
   1   3   9  174.48    9.00
  -2  -3  -9    9.00    4.80
  -2  -3  -9   13.70    6.10
   2   3   9   13.50    4.10
  -3  -3  -9   27.20    7.10
  -3  -3  -9   52.59    7.40
   3   3   9   59.79    6.80
  -4  -3  -9   20.30    5.80
  -4  -3  -9   22.40    6.10
   4   3   9   21.60    5.30
  -5  -3  -9  182.68   12.60
  -5  -3  -9  201.58   12.70
   5   3   9  186.58   12.60
  -6  -3  -9   27.40    7.10
  -6  -3  -9   22.30    6.50
   6   3   9   15.40    6.00
   7   3   9  260.67   15.80
   8   3   9    8.40    6.20
   9   3   9  224.68   18.30
  10   3   9   18.70    8.20
  11   3   9   56.59   11.10
  12   3   9  117.89   15.70
  13   3   9  198.28   19.90
  14   3   9   15.70   10.40
   9  -4  -9   98.29   16.70
   8  -4  -9  177.08   20.10
   7  -4  -9   18.00    9.20
   6  -4  -9    0.00    6.90
   5  -4  -9    3.50    7.00
   4  -4  -9  199.88   17.50
   3  -4  -9   39.20    9.10
   2  -4  -9  310.17   18.00
   2  -4  -9  305.77   16.90
   1  -4  -9  363.26   18.00
   1  -4  -9  345.47   19.10
   0  -4  -9  274.87   14.70
   0  -4  -9  237.48   15.70
  -1  -4  -9    5.50    4.90
  -1  -4  -9   -5.70    4.40
   1   4   9    2.10    2.60
  -2  -4  -9  145.99   12.70
  -2  -4  -9  117.09   11.20
   2   4   9  128.79    7.90
  -3  -4  -9   49.30    7.70
  -3  -4  -9   37.30    6.90
   3   4   9   27.60    5.30
  -4  -4  -9    7.80    5.40
  -4  -4  -9    5.30    4.80
   4   4   9    4.70    4.20
  -5  -4  -9  314.77   15.40
  -5  -4  -9  309.27   16.20
   5   4   9  289.97   14.70
  -6  -4  -9   90.79   10.90
  -6  -4  -9   88.99    9.60
   6   4   9   93.99   10.30
  -7  -4  -9 1459.55   44.20
   7   4   9 1511.85   43.90
   8   4   9  150.58   14.10
   9   4   9   29.50    7.90
  10   4   9  355.86   20.50
  11   4   9  428.06   23.40
  12   4   9    1.70    6.90
  13   4   9   12.40    8.90
  14   4   9   -2.40    8.60
   9  -5  -9   -6.70    8.40
   8  -5  -9   66.69   13.50
   7  -5  -9   13.20    9.10
   6  -5  -9  335.57   21.90
   5  -5  -9    0.00    6.40
   4  -5  -9   41.50    9.50
   3  -5  -9  379.96   20.90
   2  -5  -9  216.88   15.20
   2  -5  -9  244.98   15.70
   1  -5  -9   10.40    6.40
   1  -5  -9   17.20    6.40
   0  -5  -9   12.80    6.10
   0  -5  -9    6.40    5.50
  -1  -5  -9  194.08   13.10
  -1  -5  -9  162.18   13.80
  -2  -5  -9    5.60    5.00
  -2  -5  -9   10.90    5.70
   2   5   9   10.10    3.50
  -3  -5  -9   24.50    6.60
  -3  -5  -9   35.20    7.40
   3   5   9   38.70    5.60
  -4  -5  -9  329.27   15.40
  -4  -5  -9  288.57   16.10
   4   5   9  318.27   14.10
  -5  -5  -9   22.40    6.80
  -5  -5  -9    9.90    4.80
   5   5   9   13.70    5.10
  -6  -5  -9  268.17   16.30
  -6  -5  -9  279.67   13.70
   6   5   9  280.87   14.90
  -7  -5  -9  306.47   17.80
   7   5   9  301.57   16.40
   8   5   9  236.38   15.30
   9   5   9   38.90    8.40
  10   5   9  102.69   13.10
  11   5   9  186.08   17.40
  12   5   9   98.39   13.80
  13   5   9   -4.00    7.50
  14   5   9   -9.20    7.10
   8  -6  -9   -0.80    8.10
   7  -6  -9   43.50   11.90
   6  -6  -9  257.57   19.40
   5  -6  -9  314.37   20.30
   4  -6  -9   58.09   10.70
   3  -6  -9  190.88   16.40
   2  -6  -9 1651.93   49.70
   2  -6  -9 1572.54   48.30
   1  -6  -9  597.14   24.40
   1  -6  -9  583.74   25.10
   0  -6  -9  145.59   13.40
   0  -6  -9  191.58   15.70
  -1  -6  -9    3.10    5.10
  -1  -6  -9   -1.40    5.20
  -2  -6  -9  174.78   15.00
  -2  -6  -9  204.18   13.10
   2   6   9  180.38    9.10
  -3  -6  -9  262.77   13.90
  -3  -6  -9  231.38   15.10
   3   6   9  242.38   11.40
  -4  -6  -9  184.58   13.60
  -4  -6  -9  190.08   11.40
   4   6   9  182.08   10.50
  -5  -6  -9    4.30    5.30
  -5  -6  -9   -1.30    4.10
   5   6   9   -0.30    4.10
  -6  -6  -9   96.99   11.80
   6   6   9  100.19   10.20
  -7  -6  -9   62.39   10.20
   7   6   9   40.70    7.80
  -8  -6  -9   60.59   10.30
   8   6   9   49.40    8.80
   9   6   9   -4.00    4.90
  10   6   9   75.49   11.40
  11   6   9    3.50    6.40
  12   6   9   10.30    7.70
  13   6   9    8.80    8.60
  14   6   9   60.59   13.00
   8  -7  -9   62.49   14.30
   7  -7  -9   60.79   13.10
   6  -7  -9   -4.50    6.80
   5  -7  -9   12.10    7.60
   4  -7  -9  106.69   13.30
   3  -7  -9    6.80    6.10
   3  -7  -9    4.60    6.30
   2  -7  -9   81.89   10.80
   2  -7  -9   89.99   12.50
   1  -7  -9   37.60    8.00
   1  -7  -9   40.70    8.30
   0  -7  -9    3.00    4.80
   0  -7  -9    1.60    5.00
  -1  -7  -9  186.58   16.10
  -1  -7  -9  205.38   13.60
  -2  -7  -9  113.39   10.80
  -2  -7  -9   80.99   11.20
   2   7   9   99.09    7.80
  -3  -7  -9   71.59    8.40
  -3  -7  -9   78.39   10.80
   3   7   9   74.39    7.30
  -4  -7  -9    5.40    4.50
  -4  -7  -9   -0.10    5.40
   4   7   9    8.60    4.40
  -5  -7  -9  120.09   13.10
   5   7   9   99.29    9.70
  -6  -7  -9  160.98   14.80
   6   7   9  173.28   12.10
  -7  -7  -9   20.60    7.80
   7   7   9    8.40    5.80
  -8  -7  -9   28.10    8.90
   8   7   9   16.80    6.50
   9   7   9  196.38   16.80
  10   7   9    0.20    5.20
  11   7   9  129.29   15.20
  12   7   9   85.29   13.40
  13   7   9  106.39   15.40
  14   7   9   36.70   10.50
   7  -8  -9   35.30   12.00
   6  -8  -9   88.49   14.10
   5  -8  -9   25.20    9.20
   4  -8  -9   18.90    8.40
   4  -8  -9   28.00    8.20
   3  -8  -9   69.39   12.30
   3  -8  -9   61.69   10.20
   2  -8  -9  142.09   14.00
   2  -8  -9  163.78   17.10
   1  -8  -9   56.39   10.40
   1  -8  -9   75.09    9.80
   0  -8  -9  131.79   12.00
   0  -8  -9  112.99   13.40
  -1  -8  -9  211.28   13.40
  -1  -8  -9  181.58   16.30
  -2  -8  -9  333.87   16.40
  -2  -8  -9  317.27   19.00
  -3  -8  -9   14.40    6.90
   3   8   9    5.40    4.10
  -4  -8  -9   33.50    8.70
   4   8   9   28.40    5.70
  -5  -8  -9   82.29   11.60
   5   8   9   77.39    8.90
  -6  -8  -9   40.80    9.60
   6   8   9   29.20    6.70
  -7  -8  -9    4.60    6.50
   7   8   9    6.20    5.20
  -8  -8  -9   94.39   13.20
   8   8   9  121.29   12.90
  -9  -8  -9  404.46   22.80
   9   8   9  415.86   21.50
  10   8   9   52.29   10.40
  11   8   9   -3.10    6.40
  12   8   9  288.57   20.80
  13   8   9  252.47   22.90
  14   8   9    8.30    8.70
   7  -9  -9   -5.40    9.00
   6  -9  -9    9.40    8.80
   5  -9  -9   78.39   13.40
   5  -9  -9   78.29   14.30
   4  -9  -9  337.47   20.60
   4  -9  -9  362.56   23.60
   3  -9  -9    2.70    5.90
   3  -9  -9    9.60    7.50
   2  -9  -9   25.10    8.50
   2  -9  -9   56.09    9.50
   1  -9  -9  644.74   29.20
   1  -9  -9  655.43   25.70
   0  -9  -9  649.04   24.60
   0  -9  -9  654.23   29.20
  -1  -9  -9   19.40    7.80
  -2  -9  -9   12.50    7.40
  -3  -9  -9   24.40    8.10
   3   9   9   29.60    6.00
  -4  -9  -9   76.99   11.80
   4   9   9   92.99    9.40
  -5  -9  -9   19.30    8.30
   5   9   9   19.00    5.80
  -6  -9  -9  161.88   16.40
   6   9   9  138.49   12.60
  -7  -9  -9    5.10    6.80
   7   9   9   12.80    5.50
  -8  -9  -9   65.29   11.50
   8   9   9   81.79   11.00
  -9  -9  -9    0.30    6.10
   9   9   9   10.40    6.00
  10   9   9   38.50    9.30
  11   9   9   20.20    8.40
  12   9   9   42.70   10.80
  13   9   9   42.10   11.10
   6 -10  -9   -0.30    8.10
   6 -10  -9   11.60   10.40
   5 -10  -9   42.20   11.90
   5 -10  -9    5.80    8.40
   4 -10  -9    4.50    7.70
   4 -10  -9   14.80    9.10
   3 -10  -9   73.69   13.60
   3 -10  -9   82.09   11.90
   2 -10  -9   19.50    8.80
   2 -10  -9   28.00    7.90
   1 -10  -9   55.09   10.80
   0 -10  -9  590.24   28.20
  -1 -10  -9  214.28   18.80
  -2 -10  -9  117.79   15.00
  -3 -10  -9   10.00    7.00
  -4 -10  -9  200.38   18.20
   4  10   9  200.78   12.40
  -5 -10  -9   62.59   11.70
   5  10   9   63.99    8.80
  -6 -10  -9  145.79   15.40
   6  10   9  174.78   14.40
  -7 -10  -9   12.40    7.30
   7  10   9   27.10    7.00
  -8 -10  -9   50.29   11.60
   8  10   9   45.20    9.00
  -9 -10  -9   70.29   13.10
   9  10   9   67.89   11.30
  10  10   9   49.99   10.50
  11  10   9   16.20    8.10
  12  10   9   82.19   13.60
  13  10   9   26.80    9.90
   5 -11  -9   96.89   14.80
   5 -11  -9   87.39   17.00
   4 -11  -9   30.50   11.40
   3 -11  -9   11.30    8.50
   2 -11  -9   95.29   15.00
   1 -11  -9   24.60    9.60
   0 -11  -9   68.79   13.10
  -1 -11  -9    5.90    7.40
  -2 -11  -9   19.50    8.90
  -3 -11  -9   66.89   12.30
  -4 -11  -9   58.99   12.00
   4  11   9   73.69    9.60
  -5 -11  -9   61.59   11.50
   5  11   9   48.00    8.20
  -6 -11  -9   26.60    9.50
   6  11   9    7.60    5.30
  -7 -11  -9  125.49   15.00
   7  11   9  130.89   13.40
  -8 -11  -9  111.19   15.60
   8  11   9  104.09   12.50
  -9 -11  -9    8.90    9.60
   9  11   9    1.80    6.00
 -10 -11  -9    2.50    9.60
  10  11   9    9.40    7.50
  11  11   9   10.70    8.00
  12  11   9    4.20    7.20
   4 -12  -9   13.20   10.40
   3 -12  -9    3.30    9.10
   2 -12  -9    2.10    7.90
   1 -12  -9    2.70    8.50
   0 -12  -9    6.60    8.70
  -1 -12  -9  215.68   21.10
  -2 -12  -9   74.99   13.90
  -3 -12  -9  216.38   21.10
  -4 -12  -9   41.10   10.00
  -5 -12  -9  102.59   15.60
   5  12   9  100.89   11.70
  -6 -12  -9    5.50    8.50
   6  12   9   16.70    6.10
  -7 -12  -9  138.79   17.20
   7  12   9   99.39   12.50
  -8 -12  -9   16.30   10.40
   8  12   9    8.00    6.80
  -9 -12  -9    2.30    9.30
   9  12   9    0.20    5.80
 -10 -12  -9   43.60   12.70
  10  12   9   16.50    8.20
  11  12   9   95.09   14.10
  12  12   9   -3.20    6.60
   2 -13  -9  104.19   17.30
   1 -13  -9   23.20   10.40
   0 -13  -9   66.99   13.70
  -1 -13  -9  391.96   25.60
  -2 -13  -9  377.96   25.10
  -3 -13  -9   37.10   11.00
  -4 -13  -9    6.70    8.80
  -5 -13  -9  164.98   19.20
  -6 -13  -9   54.69   12.90
   6  13   9   65.19   10.90
  -7 -13  -9   13.80   10.20
   7  13   9   15.20    7.00
  -8 -13  -9   70.79   14.50
   8  13   9   86.99   12.90
  -9 -13  -9   -3.40    9.90
   9  13   9   -1.60    6.50
 -10 -13  -9   28.90   12.90
  10  13   9   39.70   10.30
   1 -14  -9   -0.40    9.50
   0 -14  -9  -14.20    7.30
  -1 -14  -9    7.80    9.50
  -2 -14  -9   76.09   15.40
  -3 -14  -9   30.00   11.40
  -4 -14  -9   25.30   11.30
  -5 -14  -9   -1.40    9.70
  -6 -14  -9   49.10   13.40
   6  14   9    8.80    7.20
  -7 -14  -9   35.90   13.00
   7  14   9   25.20    9.50
  -8 -14  -9  115.99   18.20
   8  14   9  114.69   14.70
  -9 -14  -9    8.90   11.70
   9  14   9    1.90    7.20
  -3 -15  -9   10.80   10.30
  -4 -15  -9   33.10   13.20
  -5 -15  -9   40.60   13.60
  -6 -15  -9   -2.80   10.70
   2   7 -10  219.48   22.30
   2   7 -10  197.38   19.50
   1   7 -10   64.29   14.20
   1   7 -10   62.59   12.70
   0   7 -10   27.20   10.50
   0   7 -10    7.70    8.90
   0  -7  10   35.90   10.90
  -1   7 -10    7.20    8.20
   1  -7  10    2.90    8.00
   2  -7  10    1.20    8.20
   3  -7  10    1.80    9.10
   4  -7  10   -6.20    9.00
   4   6 -10    9.90    8.80
   3   6 -10   39.20   11.30
   2   6 -10  222.88   21.70
   2   6 -10  200.68   18.10
   1   6 -10  138.09   17.30
   1   6 -10  128.79   15.50
   0   6 -10   23.20    8.70
   0   6 -10   50.79   12.60
   0  -6  10   54.59   11.50
  -1   6 -10   77.49   14.70
   1  -6  10  102.89   14.30
  -2   6 -10   94.29   15.10
   2  -6  10   98.99   14.60
   3  -6  10   23.20    9.00
   4  -6  10   15.30    9.30
   5  -6  10    5.70    9.00
   6  -6  10    9.80    8.50
   5   5 -10   46.30   12.20
   4   5 -10   10.20    8.10
   3   5 -10   39.70   11.50
   2   5 -10   87.19   14.00
   2   5 -10   79.79   12.00
   1   5 -10    3.90    6.80
   1   5 -10    8.50    7.90
   0   5 -10    7.60    8.10
   0  -5  10   11.00    7.00
  -1   5 -10    8.40    8.40
   1  -5  10   12.30    7.60
  -2   5 -10    9.10    8.00
   2  -5  10    7.20    7.20
  -3   5 -10   12.70    8.60
   3  -5  10    1.50    7.50
   4  -5  10   -5.40    6.80
   5  -5  10   11.00    8.40
   6  -5  10   32.50   10.90
   7  -5  10  113.29   16.70
   8  -5  10   -2.90    8.40
   6   4 -10  185.68   20.90
   5   4 -10   10.20    8.40
   4   4 -10  113.09   15.80
   3   4 -10  101.09   15.00
   2   4 -10   98.59   14.70
   2   4 -10  111.79   12.20
   1   4 -10   10.60    8.50
   1   4 -10   18.90    7.20
   0   4 -10   70.19   12.70
   0  -4  10   66.69   10.30
  -1   4 -10    0.90    6.90
   1  -4  10   14.60    7.20
  -2   4 -10  124.39   16.60
   2  -4  10   89.99   12.20
  -3   4 -10   32.50    9.90
   3  -4  10   33.90    9.10
  -4   4 -10   10.10    7.90
   4  -4  10   12.60    8.10
   5  -4  10   14.50    7.80
   6  -4  10   50.49   11.10
   7  -4  10   95.09   14.60
   8  -4  10   19.10   10.20
   9  -4  10   14.30   10.40
   7   3 -10    8.20    9.00
   6   3 -10    9.10    8.70
   5   3 -10   27.60    9.60
   4   3 -10   93.79   14.30
   3   3 -10  157.28   17.70
   2   3 -10   -4.10    5.90
   1   3 -10  151.68   17.00
   1   3 -10  144.69   13.20
  -1  -3  10  140.29   13.20
   0   3 -10 1032.90   40.40
   0  -3  10 1025.00   34.70
  -1   3 -10  268.77   19.70
   1  -3  10  268.37   16.90
  -2   3 -10   -4.00    5.80
   2  -3  10   -2.30    5.40
  -3   3 -10  181.98   18.70
   3  -3  10  218.28   17.80
  -4   3 -10  260.87   19.50
   4  -3  10  289.77   18.50
   5  -3  10   -4.20    6.00
   6  -3  10   12.50    7.20
   7  -3  10    2.70    7.30
   8  -3  10   35.60   11.10
   9  -3  10   43.10   12.00
  10  -3  10    8.20    9.00
   8   2 -10    4.40   10.50
   7   2 -10   10.10   10.00
   6   2 -10   88.79   15.30
   5   2 -10   27.80   10.40
   4   2 -10   45.10   11.10
   3   2 -10   17.40    8.30
   2   2 -10   30.30    9.60
   1   2 -10   96.29   13.70
  -1  -2  10   95.49   10.60
   0   2 -10  218.48   19.70
   0  -2  10  248.08   15.10
  -1   2 -10  127.49   15.10
   1  -2  10  124.09   12.10
  -2   2 -10  104.29   13.90
   2  -2  10   79.39   10.70
  -3   2 -10   71.19   12.20
   3  -2  10   81.79   11.10
  -4   2 -10   75.59   12.20
   4  -2  10   97.79   12.10
  -5   2 -10    7.80    7.90
   5  -2  10    2.10    6.10
   6  -2  10   16.20    7.70
   7  -2  10   -1.00    6.80
   8  -2  10   60.29   11.80
   9  -2  10   56.29   11.80
  10  -2  10  -14.00    7.20
  11  -2  10    8.50    9.00
   8   1 -10   16.30   11.50
   7   1 -10   24.90   11.20
   6   1 -10   38.70   11.80
   5   1 -10   41.80   11.50
   4   1 -10  301.77   21.40
   3   1 -10   27.80    9.40
   2   1 -10   19.40    8.10
   1   1 -10  405.56   22.70
   0   1 -10  486.05   24.40
   0  -1  10  397.16   18.30
  -1   1 -10   40.90   10.00
   1  -1  10   59.39    8.60
  -2   1 -10   21.70    8.20
   2  -1  10   19.50    6.50
  -3   1 -10  198.38   18.50
   3  -1  10  192.78   13.60
  -4   1 -10   66.19   11.10
   4  -1  10   59.89    9.30
  -5   1 -10   11.40    6.50
   5  -1  10    0.70    5.40
   6  -1  10   21.10    8.20
   7  -1  10   13.00    7.20
   8  -1  10  194.88   18.60
   9  -1  10   75.99   13.20
  10  -1  10   -2.10    6.90
  11  -1  10   51.39   12.80
  12  -1  10   12.50    9.70
   8   0 -10   -3.50    9.10
   7   0 -10   20.60   10.30
   6   0 -10   30.30   11.40
   5   0 -10   22.80    9.80
   4   0 -10   88.69   14.10
   3   0 -10   45.90   11.10
   2   0 -10  159.48   16.20
   1   0 -10  146.99   16.00
   0   0 -10   27.70    8.50
   0   0  10   10.60    5.00
  -1   0 -10  416.96   22.30
   1   0  10  430.76   18.40
  -2   0 -10  416.56   22.60
   2   0  10  422.26   18.40
  -3   0 -10    3.80    6.00
   3   0  10   -0.40    4.10
  -4   0 -10   15.40    7.40
   4   0  10   29.70    7.00
  -5   0 -10   69.59   11.10
   5   0  10   47.10    9.30
   6   0  10  124.59   13.50
   7   0  10   73.99   11.50
   8   0  10   92.99   13.10
   9   0  10   24.00    8.30
  10   0  10   13.30    8.60
  11   0  10   15.20    9.30
  12   0  10   17.10   10.00
   8  -1 -10    0.10    8.60
   7  -1 -10  111.59   17.70
   6  -1 -10   29.30   10.30
   5  -1 -10  133.29   16.90
   4  -1 -10   28.10    9.50
   3  -1 -10   38.40   10.20
   2  -1 -10   52.89   10.70
   1  -1 -10   45.20    9.70
   0  -1 -10   14.60    7.20
  -1  -1 -10  591.24   26.70
   1   1  10  586.64   20.90
  -2  -1 -10 1448.66   47.20
   2   1  10 1485.55   40.90
  -3  -1 -10  245.58   17.50
   3   1  10  262.67   15.10
  -4  -1 -10    7.90    6.60
   4   1  10   15.50    6.10
  -5  -1 -10  671.53   27.80
   5   1  10  622.14   25.60
  -6  -1 -10  575.74   25.50
   6   1  10  553.94   24.20
   7   1  10    7.70    5.60
   8   1  10   -3.70    5.40
   9   1  10   44.40    9.80
  10   1  10   10.00    8.20
  11   1  10   15.50    9.20
  12   1  10   30.60   10.30
  13   1  10   14.70    9.90
   8  -2 -10  239.58   24.00
   7  -2 -10  184.38   21.30
   6  -2 -10   46.90   12.10
   5  -2 -10   74.59   13.20
   4  -2 -10   10.50    7.90
   3  -2 -10   59.79   11.50
   3  -2 -10   88.59   10.70
   2  -2 -10   35.50    9.90
   2  -2 -10   33.70    7.50
   1  -2 -10   17.80    6.10
   1  -2 -10   29.30    8.40
   0  -2 -10  278.67   17.90
   0  -2 -10  269.67   14.20
  -1  -2 -10    5.00    4.90
  -1  -2 -10   13.10    6.90
   1   2  10   -2.00    3.70
  -2  -2 -10  115.99   10.30
  -2  -2 -10   93.49   11.80
   2   2  10  104.29    9.40
  -3  -2 -10    4.60    6.30
  -3  -2 -10    5.40    4.70
   3   2  10   -1.70    4.00
  -4  -2 -10   10.00    6.60
  -4  -2 -10    9.40    5.60
   4   2  10   -1.30    4.70
  -5  -2 -10   19.40    6.30
  -5  -2 -10   19.90    7.20
   5   2  10   11.30    5.70
  -6  -2 -10   15.50    6.70
   6   2  10   14.70    6.30
   7   2  10   -3.70    4.90
   8   2  10    0.40    5.80
   9   2  10   28.70    8.50
  10   2  10   67.59   12.30
  11   2  10   38.50   11.00
  12   2  10   -4.10    7.90
  13   2  10   17.10   10.00
   8  -3 -10   19.10   11.40
   7  -3 -10  137.79   19.00
   6  -3 -10   37.60   11.00
   5  -3 -10    0.40    6.90
   4  -3 -10   44.30   10.50
   3  -3 -10    4.70    6.40
   3  -3 -10    3.10    6.90
   2  -3 -10  139.39   13.20
   2  -3 -10  116.79   14.50
   1  -3 -10  232.28   17.50
   1  -3 -10  258.47   14.50
   0  -3 -10   28.10    7.00
   0  -3 -10   33.50    8.60
  -1  -3 -10  337.27   16.60
  -1  -3 -10  384.06   20.00
  -2  -3 -10  205.38   14.90
  -2  -3 -10  190.38   12.70
   2   3  10  176.78   10.50
  -3  -3 -10  172.48   12.10
  -3  -3 -10  168.38   14.80
   3   3  10  176.58   11.20
  -4  -3 -10  128.29   11.90
  -4  -3 -10  128.09   13.00
   4   3  10  112.39   10.70
  -5  -3 -10  410.96   19.50
  -5  -3 -10  344.47   17.70
   5   3  10  373.46   17.80
  -6  -3 -10  101.39   11.30
  -6  -3 -10   74.19   10.40
   6   3  10  105.79   11.70
   7   3  10  172.48   15.50
   8   3  10   34.10    8.10
   9   3  10  184.68   17.40
  10   3  10   87.89   13.10
  11   3  10    9.00    7.30
  12   3  10    4.70    7.60
  13   3  10    0.80    8.10
   8  -4 -10   29.70   12.10
   7  -4 -10   26.80   10.50
   6  -4 -10   72.59   13.90
   5  -4 -10   -4.80    6.30
   4  -4 -10   -0.70    6.70
   3  -4 -10   21.30    7.40
   3  -4 -10   32.60    9.70
   2  -4 -10   39.60    9.80
   2  -4 -10   48.00    9.00
   1  -4 -10   38.70    7.80
   1  -4 -10   80.79   12.00
   0  -4 -10   50.99    8.60
   0  -4 -10   33.80    8.70
  -1  -4 -10  172.28   15.50
  -1  -4 -10  193.98   13.10
  -2  -4 -10   20.30    7.10
  -2  -4 -10   14.50    6.30
   2   4  10   12.60    4.50
  -3  -4 -10  996.00   32.30
  -3  -4 -10  986.50   33.50
   3   4  10  942.11   28.60
  -4  -4 -10  487.75   21.40
  -4  -4 -10  534.95   22.40
   4   4  10  529.55   20.10
  -5  -4 -10    8.90    5.70
  -5  -4 -10   16.40    6.70
   5   4  10   16.40    5.70
  -6  -4 -10   92.09   10.30
  -6  -4 -10   77.09   10.90
   6   4  10  102.09   11.10
  -7  -4 -10  346.87   18.80
   7   4  10  363.66   19.10
   8   4  10  199.18   16.90
   9   4  10    6.10    6.60
  10   4  10   46.30   10.20
  11   4  10   39.60   10.00
  12   4  10   17.60    9.00
  13   4  10   16.70    9.10
   8  -5 -10   13.70   10.60
   7  -5 -10    7.60    8.60
   6  -5 -10  199.98   20.40
   5  -5 -10  122.99   16.30
   4  -5 -10   26.60    9.20
   3  -5 -10   60.59   10.40
   3  -5 -10   77.59   12.10
   2  -5 -10   15.00    6.60
   2  -5 -10    7.30    6.40
   1  -5 -10   67.99   11.10
   1  -5 -10   62.99    9.80
   0  -5 -10    2.20    6.60
   0  -5 -10    5.40    5.60
  -1  -5 -10   10.60    5.90
  -1  -5 -10    6.50    6.80
  -2  -5 -10   60.29    9.30
  -2  -5 -10   54.59    9.00
  -3  -5 -10  291.87   16.30
  -3  -5 -10  276.07   16.20
   3   5  10  284.87   12.80
  -4  -5 -10  654.23   25.00
  -4  -5 -10  652.83   25.70
   4   5  10  650.43   22.40
  -5  -5 -10  239.38   14.60
  -5  -5 -10  257.37   16.00
   5   5  10  244.98   13.80
  -6  -5 -10    2.60    6.60
  -6  -5 -10    0.80    4.70
   6   5  10   12.00    5.10
  -7  -5 -10  514.45   23.60
   7   5  10  485.15   21.70
   8   5  10  503.75   22.90
   9   5  10   21.80    7.60
  10   5  10   13.00    7.20
  11   5  10   59.69   11.20
  12   5  10   12.30    8.70
  13   5  10   22.90    9.90
  14   5  10    5.50    9.30
   8  -6 -10   22.70   11.60
   7  -6 -10   -4.80    8.10
   6  -6 -10  440.96   26.20
   5  -6 -10  334.97   22.10
   4  -6 -10   32.60    9.90
   3  -6 -10   24.40    8.20
   3  -6 -10   24.90    8.10
   2  -6 -10   23.00    7.70
   2  -6 -10   17.40    7.70
   1  -6 -10    3.50    5.70
   1  -6 -10   28.00    8.20
   0  -6 -10  174.98   16.00
   0  -6 -10  231.78   15.50
  -1  -6 -10  102.29   11.90
  -1  -6 -10  120.49   13.10
  -2  -6 -10  242.78   15.30
  -2  -6 -10  251.07   16.00
  -3  -6 -10  226.58   14.40
  -3  -6 -10  228.78   15.50
   3   6  10  230.78   11.30
  -4  -6 -10   28.30    6.60
  -4  -6 -10   23.90    7.10
   4   6  10   28.50    6.10
  -5  -6 -10    2.70    4.50
  -5  -6 -10    6.50    5.90
   5   6  10    7.50    4.50
  -6  -6 -10   51.99    7.40
  -6  -6 -10   37.40    8.80
   6   6  10   34.80    7.40
  -7  -6 -10   18.00    8.00
   7   6  10    7.30    5.20
  -8  -6 -10   -0.40    6.70
   8   6  10   -5.00    5.10
   9   6  10   -4.50    6.10
  10   6  10    9.40    7.00
  11   6  10  127.69   15.20
  12   6  10   66.39   12.40
  13   6  10   -5.40    7.90
  14   6  10   -8.70    8.30
   7  -7 -10    6.70    8.30
   6  -7 -10    7.20    8.40
   5  -7 -10   97.29   14.20
   4  -7 -10   45.10   10.60
   4  -7 -10   31.60    9.70
   3  -7 -10    2.80    6.70
   3  -7 -10   13.10    7.40
   2  -7 -10   57.29   10.00
   2  -7 -10   51.89   10.30
   1  -7 -10    1.80    6.10
   1  -7 -10   -3.60    5.20
   0  -7 -10   93.39   11.80
   0  -7 -10   98.59   12.50
  -1  -7 -10   60.99   10.30
  -1  -7 -10   73.39   10.50
  -2  -7 -10  100.19   12.40
  -2  -7 -10  102.39   11.20
  -3  -7 -10  165.48   15.70
  -3  -7 -10  201.38   13.40
  -4  -7 -10    8.00    6.20
  -4  -7 -10   11.50    5.70
   4   7  10   12.30    4.80
  -5  -7 -10  144.69   15.00
   5   7  10  137.99   11.90
  -6  -7 -10   21.30    7.60
   6   7  10   20.40    6.30
  -7  -7 -10  122.99   14.30
   7   7  10  108.79   11.70
  -8  -7 -10   14.20    8.00
   8   7  10    5.20    5.30
  -9  -7 -10  263.47   19.30
   9   7  10  291.37   18.20
  10   7  10    5.50    6.20
  11   7  10  143.79   16.50
  12   7  10    9.70    7.80
  13   7  10   -1.50    7.90
   7  -8 -10   36.50   11.80
   6  -8 -10  119.69   16.80
   5  -8 -10   56.99   12.10
   5  -8 -10   46.20   11.90
   4  -8 -10   69.19   12.60
   4  -8 -10   71.29   12.40
   3  -8 -10   92.19   12.90
   3  -8 -10  116.09   14.80
   2  -8 -10   55.39   11.00
   2  -8 -10   49.30   10.00
   1  -8 -10    0.60    5.90
   1  -8 -10   -0.70    6.30
   0  -8 -10    2.70    6.20
   0  -8 -10    7.50    6.50
  -1  -8 -10    9.40    6.80
  -1  -8 -10   17.90    7.20
  -2  -8 -10    5.90    6.20
  -2  -8 -10    2.90    5.60
  -3  -8 -10  108.69   12.80
  -4  -8 -10  216.28   18.30
   4   8  10  210.48   12.00
  -5  -8 -10  591.94   26.90
   5   8  10  580.64   22.00
  -6  -8 -10  168.98   16.70
   6   8  10  173.68   12.40
  -7  -8 -10   33.90    9.60
   7   8  10   22.70    7.00
  -8  -8 -10  163.18   17.40
   8   8  10  150.48   14.10
  -9  -8 -10  696.53   30.90
   9   8  10  657.93   28.20
  10   8  10  127.49   15.10
  11   8  10   10.70    7.90
  12   8  10    9.80    8.30
  13   8  10   29.80   10.50
   6  -9 -10   -2.50    7.90
   6  -9 -10    3.30    8.90
   5  -9 -10   72.49   13.40
   5  -9 -10   51.29   12.80
   4  -9 -10  365.36   24.10
   4  -9 -10  337.27   22.40
   3  -9 -10  179.68   18.80
   3  -9 -10  180.18   17.50
   2  -9 -10   44.30   10.00
   2  -9 -10   34.10    8.80
   1  -9 -10   62.09   10.20
   1  -9 -10   59.69   11.10
   0  -9 -10  124.59   13.00
   0  -9 -10  134.89   15.70
  -1  -9 -10   34.70    9.00
  -2  -9 -10  406.76   22.90
  -3  -9 -10   55.49   10.70
  -4  -9 -10   30.90    8.90
  -5  -9 -10   -1.60    6.70
   5   9  10    1.30    4.40
  -6  -9 -10   95.39   13.10
   6   9  10   85.69   10.30
  -7  -9 -10   57.89   11.70
   7   9  10   35.10    7.80
  -8  -9 -10   -5.00    7.20
   8   9  10    2.70    5.50
  -9  -9 -10  124.69   16.00
   9   9  10  124.09   14.50
  10   9  10  138.49   15.80
  11   9  10   -5.10    6.30
  12   9  10    7.20    9.00
  13   9  10   11.80    8.90
   5 -10 -10   -3.30    8.10
   5 -10 -10   -9.20    7.60
   4 -10 -10  347.07   21.90
   4 -10 -10  347.17   24.20
   3 -10 -10  343.47   23.70
   3 -10 -10  395.36   22.50
   2 -10 -10   23.20    9.50
   2 -10 -10   16.50    7.90
   1 -10 -10   -1.90    6.40
   0 -10 -10  104.69   14.80
  -1 -10 -10   12.60    7.80
  -2 -10 -10   92.69   13.40
  -3 -10 -10   32.20    9.20
  -4 -10 -10  101.49   14.00
  -5 -10 -10   72.49   11.80
   5  10  10   84.89    9.90
  -6 -10 -10   10.50    7.80
   6  10  10    6.60    5.10
  -7 -10 -10    1.20    7.40
   7  10  10    1.60    4.80
  -8 -10 -10   20.50    9.60
   8  10  10    4.90    5.90
  -9 -10 -10   17.50   10.10
   9  10  10   26.20    8.20
 -10 -10 -10   10.90    9.50
  10  10  10   -0.70    6.10
  11  10  10   -2.70    6.80
  12  10  10   27.10    9.90
  13  10  10   72.99   14.40
   4 -11 -10    0.00    8.30
   3 -11 -10   14.80    9.00
   2 -11 -10   -1.20    5.80
   1 -11 -10   17.10    9.10
   0 -11 -10   48.90   11.70
  -1 -11 -10    0.60    7.20
  -2 -11 -10    4.00    6.90
  -3 -11 -10  172.48   18.50
  -4 -11 -10   32.70    9.30
  -5 -11 -10    8.80    7.90
  -6 -11 -10   14.00    8.80
   6  11  10    7.40    5.70
  -7 -11 -10   82.99   14.30
   7  11  10   85.89   11.40
  -8 -11 -10   31.20   11.40
   8  11  10   55.29   10.00
  -9 -11 -10   43.70   12.60
   9  11  10   30.20    9.00
 -10 -11 -10   35.40   12.20
  10  11  10   51.99   10.80
  11  11  10  236.08   21.50
  12  11  10   12.70    9.00
   3 -12 -10   39.50   12.50
   2 -12 -10   62.59   13.60
   1 -12 -10   40.30   11.00
   0 -12 -10   36.30   11.20
  -1 -12 -10   32.40   10.60
  -2 -12 -10    2.40    8.00
  -3 -12 -10   24.90   10.20
  -4 -12 -10   -4.50    7.30
  -5 -12 -10   14.80   10.40
  -6 -12 -10   39.30   11.40
   6  12  10   36.60    8.30
  -7 -12 -10  262.77   23.70
   7  12  10  228.18   16.40
  -8 -12 -10   -2.30    9.80
   8  12  10    9.40    6.30
  -9 -12 -10   14.20   11.10
   9  12  10   14.20    7.70
 -10 -12 -10  187.28   21.30
  10  12  10  155.08   16.80
  11  12  10  173.88   18.70
   2 -13 -10  257.37   25.90
   1 -13 -10   84.09   15.50
   0 -13 -10   10.00    9.80
  -1 -13 -10   15.10   10.00
  -2 -13 -10  119.99   17.00
  -3 -13 -10    7.00    8.90
  -4 -13 -10  175.78   20.50
  -5 -13 -10    7.70   10.30
  -6 -13 -10   53.49   13.40
  -7 -13 -10    5.00   10.70
   7  13  10    9.10    6.60
  -8 -13 -10   -0.10    9.90
   8  13  10   -6.10    5.70
  -9 -13 -10    9.70   12.30
   9  13  10    0.70    6.30
 -10 -13 -10   -5.90   10.40
  10  13  10   -5.10    6.40
   0 -14 -10   33.70   12.10
  -1 -14 -10   18.10   10.40
  -2 -14 -10   54.79   13.10
  -3 -14 -10    7.60    9.70
  -4 -14 -10  121.89   18.60
  -5 -14 -10   61.99   15.70
  -6 -14 -10   72.59   15.60
  -7 -14 -10   14.60   11.50
  -8 -14 -10    0.10   11.10
   8  14  10    7.40    7.80
   1   6 -11   19.20    9.90
  -1  -6  11   16.70    8.70
   0   6 -11   -8.10    9.00
   0  -6  11   -0.80    8.30
  -1   6 -11  -11.20    6.70
   1  -6  11    1.70    7.80
  -2   6 -11    4.10    8.40
   2  -6  11   13.10    8.90
   3  -6  11   90.99   14.80
   4  -6  11   57.99   13.20
   3   5 -11    5.10    8.70
   2   5 -11   33.10   11.20
   1   5 -11   30.90   10.60
  -1  -5  11   10.00    7.90
   0   5 -11   12.70    8.90
   0  -5  11   -5.10    6.50
  -1   5 -11   41.70   12.20
   1  -5  11   25.80    9.40
  -2   5 -11    8.50    8.40
   2  -5  11    8.00    8.10
  -3   5 -11   71.09   14.20
   3  -5  11  106.69   14.50
   4  -5  11   -3.10    7.30
   5  -5  11  100.99   14.90
   6  -5  11   15.70    9.20
   5   4 -11   48.00   12.40
   4   4 -11   12.50    9.50
   3   4 -11   62.09   13.30
   2   4 -11   13.60    8.90
   1   4 -11   62.79   12.90
   0   4 -11   -0.40    7.70
   0  -4  11    2.80    5.70
  -1   4 -11   15.40    8.30
   1  -4  11   -1.70    7.00
  -2   4 -11   24.10   10.60
   2  -4  11   40.50    9.80
  -3   4 -11   21.20    9.90
   3  -4  11   47.10   10.20
  -4   4 -11    7.60    8.30
   4  -4  11    0.90    7.60
   5  -4  11   12.40    8.20
   6  -4  11   74.89   13.50
   7  -4  11    5.90    8.40
   8  -4  11    9.70    9.60
   6   3 -11    0.10    8.10
   5   3 -11    2.80    8.90
   4   3 -11  436.66   26.80
   3   3 -11  220.48   21.60
   2   3 -11    0.20    6.40
   1   3 -11   15.50    8.80
   0   3 -11  118.69   16.20
   0  -3  11  130.99   13.90
  -1   3 -11   19.20    9.10
   1  -3  11   27.40    8.00
  -2   3 -11    3.90    7.30
   2  -3  11    3.90    6.20
  -3   3 -11   10.80    8.00
   3  -3  11   15.80    8.10
  -4   3 -11   40.50   10.70
   4  -3  11   48.70   10.50
   5  -3  11   22.20    8.80
   6  -3  11    1.30    7.20
   7  -3  11    3.90    7.70
   8  -3  11   -6.90    8.10
   9  -3  11   13.40    9.20
   6   2 -11   -9.40    8.20
   5   2 -11   11.40    8.90
   4   2 -11   72.39   13.90
   3   2 -11  245.28   22.50
   2   2 -11  133.09   16.90
   1   2 -11   72.79   12.70
   0   2 -11   40.50   10.50
   0  -2  11   50.19   10.10
  -1   2 -11   86.59   13.70
   1  -2  11   81.09   10.70
  -2   2 -11   -1.40    6.60
   2  -2  11   -6.30    5.70
  -3   2 -11   -2.10    7.20
   3  -2  11    3.20    6.20
  -4   2 -11    4.00    7.40
   4  -2  11    1.70    6.40
  -5   2 -11  193.98   19.70
   5  -2  11  197.18   17.70
   6  -2  11   97.39   13.80
   7  -2  11   23.30    9.90
   8  -2  11   16.60    8.50
   9  -2  11  153.78   18.20
  10  -2  11    3.10    9.50
   7   1 -11   44.90   13.70
   6   1 -11    4.00    8.40
   5   1 -11  136.39   18.00
   4   1 -11  135.79   17.10
   3   1 -11   -3.50    6.20
   2   1 -11   40.40   10.20
   1   1 -11    3.30    7.20
   0   1 -11    5.10    7.10
  -1   1 -11   17.10    8.80
   1  -1  11   29.50    7.60
  -2   1 -11   -2.30    5.70
   2  -1  11    9.30    6.10
  -3   1 -11   17.50    7.60
   3  -1  11   19.80    7.10
  -4   1 -11   24.00    9.10
   4  -1  11   22.40    7.60
  -5   1 -11  166.98   17.70
   5  -1  11  204.48   17.40
   6  -1  11    3.50    6.80
   7  -1  11   84.99   13.40
   8  -1  11   10.20    8.00
   9  -1  11   32.40   10.70
  10  -1  11   -2.80    7.60
  11  -1  11  154.78   19.70
   7   0 -11    1.60   10.10
   6   0 -11   14.70    9.80
   5   0 -11   14.20    9.00
   4   0 -11   18.00    9.30
   3   0 -11   -0.20    6.40
   2   0 -11  161.58   17.50
   1   0 -11  136.19   16.20
   0   0 -11  197.08   18.90
  -1   0 -11   39.60    9.20
   1   0  11   51.59    8.10
  -2   0 -11  207.58   19.30
   2   0  11  248.38   14.70
  -3   0 -11    0.20    7.00
   3   0  11   14.50    6.40
  -4   0 -11  118.99   15.00
   4   0  11  159.98   14.60
  -5   0 -11   34.40    9.20
   5   0  11   21.50    7.90
   6   0  11   -0.30    5.80
   7   0  11    9.40    7.50
   8   0  11    6.00    8.00
   9   0  11   -8.50    6.20
  10   0  11    7.00    8.30
  11   0  11  178.68   19.90
   7  -1 -11   -4.10    9.20
   6  -1 -11   90.39   17.40
   5  -1 -11  105.09   16.80
   4  -1 -11    7.90    8.70
   3  -1 -11   24.10    9.60
   2  -1 -11 1194.38   44.10
   1  -1 -11  354.36   21.90
   0  -1 -11   -0.80    5.60
  -1  -1 -11  308.47   20.00
  -2  -1 -11  410.16   23.20
   2   1  11  425.96   19.10
  -3  -1 -11   71.99   11.50
   3   1  11   69.79   10.10
  -4  -1 -11    3.60    5.90
   4   1  11    3.80    5.60
  -5  -1 -11    2.40    6.40
   5   1  11    5.00    5.10
  -6  -1 -11    7.70    7.80
   6   1  11   10.50    6.50
   7   1  11   32.10    9.00
   8   1  11   18.80    7.80
   9   1  11    6.20    7.30
  10   1  11   14.30    8.20
  11   1  11    1.70    8.60
  12   1  11   13.10   11.10
   7  -2 -11   41.20   13.10
   6  -2 -11    6.80   10.00
   5  -2 -11   72.09   14.40
   4  -2 -11  115.69   16.80
   3  -2 -11    3.40    7.90
   2  -2 -11    8.60    7.50
   1  -2 -11   66.79   12.00
   0  -2 -11  152.28   16.30
  -1  -2 -11    1.30    6.10
  -2  -2 -11   17.00    7.30
   2   2  11   10.30    5.30
  -3  -2 -11  103.99   13.60
   3   2  11  122.59   11.50
  -4  -2 -11   13.10    7.20
   4   2  11   15.80    6.20
  -5  -2 -11    9.10    6.80
   5   2  11   19.20    6.80
  -6  -2 -11   12.10    6.90
   6   2  11   -3.00    5.40
   7   2  11  103.39   12.40
   8   2  11   26.40    8.60
   9   2  11   22.40    8.60
  10   2  11   11.60    8.50
  11   2  11   69.59   13.00
  12   2  11    5.80    9.90
   7  -3 -11    1.60    8.80
   6  -3 -11  101.69   16.90
   5  -3 -11  149.39   19.10
   4  -3 -11   13.60    9.10
   4  -3 -11   28.20    8.30
   3  -3 -11  158.78   18.10
   3  -3 -11  185.48   16.20
   2  -3 -11  316.77   21.70
   2  -3 -11  312.37   17.50
   1  -3 -11   48.20   10.60
   1  -3 -11   35.90    8.00
   0  -3 -11   24.30    8.20
   0  -3 -11   29.10    7.20
  -1  -3 -11  200.18   13.10
  -1  -3 -11  159.88   15.90
  -2  -3 -11   83.99   12.10
  -2  -3 -11  106.19   10.90
  -3  -3 -11    6.80    6.40
  -3  -3 -11   -5.30    4.80
   3   3  11    6.30    4.90
  -4  -3 -11    3.00    6.20
  -4  -3 -11    1.60    5.40
   4   3  11    4.90    4.80
  -5  -3 -11    1.30    5.80
  -5  -3 -11    8.00    6.90
   5   3  11    0.90    5.40
  -6  -3 -11   80.39   11.20
  -6  -3 -11   84.19   11.10
   6   3  11   82.79   10.90
   7   3  11  232.78   16.70
   8   3  11   11.30    6.90
   9   3  11   22.20    8.80
  10   3  11   24.70    9.30
  11   3  11    5.60    8.40
  12   3  11   50.79   12.10
  13   3  11  227.38   22.80
   7  -4 -11   -4.10    8.70
   6  -4 -11   31.10   11.20
   5  -4 -11    4.70    8.00
   4  -4 -11   37.50   11.20
   4  -4 -11   33.50    8.90
   3  -4 -11   -3.60    5.50
   3  -4 -11    2.60    7.50
   2  -4 -11    8.10    6.10
   2  -4 -11   11.90    8.10
   1  -4 -11   69.79   12.30
   1  -4 -11   68.69   10.20
   0  -4 -11  396.16   22.40
   0  -4 -11  388.46   19.70
  -1  -4 -11  139.39   13.30
  -1  -4 -11  153.08   15.40
  -2  -4 -11   10.00    5.80
  -2  -4 -11   15.10    7.60
  -3  -4 -11  101.89   11.20
  -3  -4 -11   72.39   10.70
   3   4  11   74.49    8.60
  -4  -4 -11  630.74   27.00
  -4  -4 -11  753.82   27.00
   4   4  11  673.23   24.30
  -5  -4 -11   32.00    7.90
  -5  -4 -11   34.10    8.60
   5   4  11   27.00    6.80
  -6  -4 -11  269.27   16.30
  -6  -4 -11  239.38   15.80
   6   4  11  215.48   15.30
  -7  -4 -11    8.10    7.00
   7   4  11   -1.70    6.20
   8   4  11   21.90    8.00
   9   4  11   53.39   10.70
  10   4  11   -2.20    6.80
  11   4  11   -2.70    7.20
  12   4  11   -1.10    7.50
  13   4  11   40.10   12.40
   7  -5 -11   45.90   13.50
   6  -5 -11    3.10    8.90
   5  -5 -11    7.30    8.10
   4  -5 -11   22.00    9.30
   4  -5 -11   37.60    9.60
   3  -5 -11   -1.80    7.20
   3  -5 -11   -6.30    5.90
   2  -5 -11   11.40    6.60
   2  -5 -11   11.40    8.20
   1  -5 -11   46.40   10.40
   1  -5 -11   45.90    8.80
   0  -5 -11  878.71   32.10
   0  -5 -11  843.32   33.50
  -1  -5 -11  501.15   22.20
  -1  -5 -11  453.35   23.30
  -2  -5 -11    2.60    5.60
  -2  -5 -11    1.90    6.00
  -3  -5 -11  331.17   18.30
  -3  -5 -11  346.67   18.70
  -4  -5 -11  684.33   27.20
  -4  -5 -11  687.33   27.00
   4   5  11  633.64   22.90
  -5  -5 -11   39.10    8.10
  -5  -5 -11   39.70    9.20
   5   5  11   39.30    7.40
  -6  -5 -11    6.30    5.90
  -6  -5 -11    3.10    6.40
   6   5  11    5.70    5.50
  -7  -5 -11   19.50    8.20
   7   5  11    5.50    5.50
  -8  -5 -11   12.70    7.60
   8   5  11    6.60    6.20
   9   5  11   76.09   11.50
  10   5  11    4.70    7.00
  11   5  11    8.40    8.00
  12   5  11   11.40    8.80
  13   5  11    2.30    8.00
   7  -6 -11   16.00   10.70
   6  -6 -11   22.90   10.60
   5  -6 -11    6.50    9.40
   4  -6 -11   27.10    9.90
   4  -6 -11   16.60    8.10
   3  -6 -11  208.18   19.80
   3  -6 -11  180.08   18.00
   2  -6 -11  160.38   17.00
   2  -6 -11  164.08   16.10
   1  -6 -11   22.40    9.00
   1  -6 -11   19.10    7.20
   0  -6 -11   53.19   10.60
   0  -6 -11   60.29   10.70
  -1  -6 -11   35.10    8.50
  -1  -6 -11   47.40    9.10
  -2  -6 -11   11.20    6.20
  -2  -6 -11    4.80    6.50
  -3  -6 -11  115.79   12.70
  -3  -6 -11   96.69   12.10
  -4  -6 -11    0.70    5.30
  -4  -6 -11   -7.00    5.30
   4   6  11   -4.20    3.70
  -5  -6 -11   65.09    9.50
  -5  -6 -11   57.99    9.90
   5   6  11   57.19    8.50
  -6  -6 -11    0.90    6.20
  -6  -6 -11    4.00    5.60
   6   6  11    6.10    5.20
  -7  -6 -11  107.19   13.50
   7   6  11   98.99   11.70
  -8  -6 -11   35.00    9.80
   8   6  11   51.29    9.50
   9   6  11   32.30    9.10
  10   6  11   31.50    9.40
  11   6  11    2.90    7.50
  12   6  11    8.30    8.60
  13   6  11   29.80   10.80
   6  -7 -11    4.20    9.10
   5  -7 -11    6.70    8.70
   5  -7 -11    5.70    7.50
   4  -7 -11   37.40   10.90
   4  -7 -11   20.10    9.40
   3  -7 -11   71.89   12.80
   3  -7 -11   72.29   12.80
   2  -7 -11   24.20    8.90
   2  -7 -11   14.20    7.30
   1  -7 -11  123.49   14.10
   1  -7 -11  118.49   14.70
   0  -7 -11  175.08   16.90
   0  -7 -11  187.38   17.30
  -1  -7 -11   28.30    8.60
  -1  -7 -11   18.40    7.40
  -2  -7 -11   13.80    6.90
  -2  -7 -11    8.50    6.60
  -3  -7 -11  121.49   12.30
  -3  -7 -11  114.39   13.30
  -4  -7 -11   10.70    6.60
  -4  -7 -11   23.40    7.90
  -5  -7 -11   52.39   10.80
   5   7  11   68.59    8.60
  -6  -7 -11    1.70    7.70
   6   7  11   30.90    7.00
  -7  -7 -11  139.49   16.00
   7   7  11  158.88   14.30
  -8  -7 -11   69.19   12.50
   8   7  11   72.49   10.80
  -9  -7 -11    1.60    8.80
   9   7  11    3.00    6.60
  10   7  11   -6.10    6.00
  11   7  11    1.00    7.00
  12   7  11   47.90   12.00
  13   7  11    1.00    8.10
   6  -8 -11   11.50    9.00
   6  -8 -11    6.60    9.50
   5  -8 -11   12.50    8.60
   5  -8 -11    8.60    8.30
   4  -8 -11    2.80    7.90
   4  -8 -11   -5.80    6.40
   3  -8 -11   30.50   10.20
   3  -8 -11   26.70    9.40
   2  -8 -11   14.00    7.20
   2  -8 -11   15.50    8.30
   1  -8 -11   25.30    9.10
   1  -8 -11   24.80    7.90
   0  -8 -11    3.60    6.70
   0  -8 -11    9.20    7.20
  -1  -8 -11  295.47   19.20
  -1  -8 -11  332.77   19.30
  -2  -8 -11  408.26   22.80
  -2  -8 -11  437.86   21.00
  -3  -8 -11   88.49   13.20
  -4  -8 -11   40.20    9.80
  -5  -8 -11  291.97   19.70
   5   8  11  304.97   15.60
  -6  -8 -11  605.24   28.40
   6   8  11  619.34   24.10
  -7  -8 -11   -6.30    6.90
   7   8  11    7.00    5.80
  -8  -8 -11   29.00   10.00
   8   8  11   41.70    8.80
  -9  -8 -11   31.80   10.40
   9   8  11   26.60    8.00
  10   8  11   22.60    8.60
  11   8  11   46.70   11.10
  12   8  11    3.10    7.80
  13   8  11   22.10    9.90
   5  -9 -11   78.49   14.50
   5  -9 -11   74.69   14.10
   4  -9 -11    0.40    8.00
   4  -9 -11    8.30    8.70
   3  -9 -11    1.00    8.20
   3  -9 -11   -1.40    7.00
   2  -9 -11   60.09   11.50
   2  -9 -11   95.49   14.20
   1  -9 -11   30.00    9.50
   1  -9 -11   67.09   11.40
   0  -9 -11   10.70    7.50
   0  -9 -11   11.40    7.50
  -1  -9 -11   -4.50    5.20
  -2  -9 -11   79.39   12.20
  -3  -9 -11  125.59   15.30
  -4  -9 -11   -7.20    5.70
  -5  -9 -11  138.59   15.80
  -6  -9 -11  317.67   21.10
   6   9  11  313.17   16.90
  -7  -9 -11   16.70    9.70
   7   9  11   12.20    6.50
  -8  -9 -11    9.50    8.60
   8   9  11    0.20    6.00
  -9  -9 -11   18.50   10.30
   9   9  11    7.90    7.10
 -10  -9 -11   -9.90    8.60
  10   9  11    7.10    7.70
  11   9  11   15.70    8.90
  12   9  11    3.50    8.30
   4 -10 -11    2.00    8.00
   4 -10 -11   -6.10    7.90
   3 -10 -11    5.20    7.60
   3 -10 -11   -1.50    7.70
   2 -10 -11   -8.50    6.80
   1 -10 -11  124.39   16.00
   0 -10 -11   87.79   13.70
  -1 -10 -11   50.39   11.20
  -2 -10 -11   21.40    9.00
  -3 -10 -11   19.30    9.00
  -4 -10 -11    7.80    7.80
  -5 -10 -11   18.60    9.40
  -6 -10 -11   12.20    8.40
   6  10  11    7.60    6.00
  -7 -10 -11    8.60    9.00
   7  10  11    2.10    5.80
  -8 -10 -11    0.50    9.00
   8  10  11    4.10    5.50
  -9 -10 -11  219.18   22.30
   9  10  11  265.07   18.10
 -10 -10 -11   14.30   11.10
  10  10  11   27.60    8.90
  11  10  11    1.00    7.10
  12  10  11   50.39   12.10
   3 -11 -11   16.30    9.60
   2 -11 -11    4.30    7.20
   1 -11 -11   37.00   11.80
   0 -11 -11   39.40   11.30
  -1 -11 -11    0.00    6.10
  -2 -11 -11   56.49   12.20
  -3 -11 -11   60.29   12.80
  -4 -11 -11  105.19   14.90
  -5 -11 -11   66.79   13.70
  -6 -11 -11   -2.20    8.00
  -7 -11 -11  243.88   22.30
   7  11  11  301.67   17.90
  -8 -11 -11   18.60   11.00
   8  11  11   22.50    7.80
  -9 -11 -11   84.09   16.20
   9  11  11  102.39   13.70
 -10 -11 -11   -1.10    9.30
  10  11  11   31.70    9.60
  11  11  11   -6.40    7.60
   2 -12 -11   35.00   11.70
   1 -12 -11    2.20    8.90
   0 -12 -11   -0.80    7.60
  -1 -12 -11   10.60    9.10
  -2 -12 -11   23.50   10.20
  -3 -12 -11   90.29   15.10
  -4 -12 -11   90.39   14.20
  -5 -12 -11   39.60   11.30
  -6 -12 -11   87.79   15.30
  -7 -12 -11  181.98   21.30
  -8 -12 -11  247.18   24.40
   8  12  11  278.67   17.90
  -9 -12 -11    2.50   10.50
   9  12  11    6.80    7.60
 -10 -12 -11    3.10   11.30
  10  12  11   11.00    7.50
  11  12  11   33.60   10.40
   0 -13 -11   46.50   13.70
  -1 -13 -11   32.90   11.60
  -2 -13 -11   -7.70    8.50
  -3 -13 -11    1.70    8.40
  -4 -13 -11   23.50   12.30
  -5 -13 -11   23.90   11.00
  -6 -13 -11    9.60   11.00
  -7 -13 -11    5.60   11.70
  -8 -13 -11   89.29   17.40
  -9 -13 -11   -0.10   11.70
   9  13  11    1.20    7.40
  -2 -14 -11   37.00   12.50
  -3 -14 -11    4.30    9.50
  -4 -14 -11   24.70   12.90
  -5 -14 -11    2.70   11.50
  -6 -14 -11    7.80   10.60
  -7 -14 -11    8.10   12.00
  -1   5 -12  -15.10    7.00
   1  -5  12    9.10    9.20
  -2   5 -12   45.20   13.20
   2  -5  12   68.09   13.70
   2   4 -12    2.40    8.80
   1   4 -12   -6.60    6.90
   0   4 -12   41.50   11.70
  -1   4 -12   22.50    9.90
   1  -4  12    1.20    7.30
  -2   4 -12  226.28   22.80
   2  -4  12  208.88   19.10
  -3   4 -12   11.70    9.80
   3  -4  12    8.50    7.80
  -4   4 -12    0.50    9.00
   4  -4  12    9.10    7.80
   5  -4  12  218.38   20.60
   6  -4  12  201.58   20.40
   4   3 -12   -3.60    7.90
   3   3 -12   14.80    9.20
   2   3 -12   36.10   11.20
   1   3 -12   -1.90    7.30
   0   3 -12   43.90   11.80
  -1   3 -12    0.90    7.30
  -2   3 -12   17.00    9.30
   2  -3  12   17.30    8.10
  -3   3 -12   10.80    8.60
   3  -3  12    2.60    7.20
  -4   3 -12   17.70    9.30
   4  -3  12   -5.30    6.30
   5  -3  12    7.50    7.50
   6  -3  12   28.40   10.60
   7  -3  12   70.29   14.20
   4   2 -12   27.70   11.20
   3   2 -12   95.79   15.50
   2   2 -12    3.10    7.40
   1   2 -12   -8.70    6.10
   0   2 -12    2.60    7.60
  -1   2 -12  130.29   17.30
  -2   2 -12  210.48   21.40
   2  -2  12  219.78   17.90
  -3   2 -12    1.40    8.20
   3  -2  12   10.20    7.00
  -4   2 -12   -3.80    7.30
   4  -2  12   12.70    6.90
  -5   2 -12  119.09   17.30
   5  -2  12  133.69   16.20
   6  -2  12   28.90   10.30
   7  -2  12    4.90    9.40
   8  -2  12   -5.30    7.20
   9  -2  12    8.70    9.70
   5   1 -12   11.10   10.10
   4   1 -12   20.60    9.80
   3   1 -12   -1.60    7.20
   2   1 -12    6.70    8.10
   1   1 -12   40.30   10.70
   0   1 -12   14.50    8.90
  -1   1 -12  115.79   16.00
  -2   1 -12   33.40   10.20
   2  -1  12   33.80    8.40
  -3   1 -12    7.10    7.90
   3  -1  12    5.50    6.30
  -4   1 -12   58.69   12.60
   4  -1  12   33.90    9.50
  -5   1 -12   38.20   10.20
   5  -1  12   25.90    8.90
   6  -1  12   -1.50    7.30
   7  -1  12  130.39   16.00
   8  -1  12  225.88   20.70
   9  -1  12   -5.80    7.40
  10  -1  12   12.70   10.10
   6   0 -12   10.40   10.50
   5   0 -12  101.89   17.20
   4   0 -12   51.79   13.10
   3   0 -12   69.99   13.50
   2   0 -12   64.19   12.80
   1   0 -12   29.30    9.50
   0   0 -12    7.20    7.80
  -1   0 -12   14.70    8.80
  -2   0 -12   80.49   13.20
  -3   0 -12    6.60    7.80
   3   0  12    3.40    6.00
  -4   0 -12  114.19   15.80
   4   0  12  115.19   13.70
  -5   0 -12    7.50    7.90
   5   0  12   -9.70    5.90
  -6   0 -12   -0.40    6.90
   6   0  12    3.30    6.60
   7   0  12  249.58   20.70
   8   0  12  356.16   23.00
   9   0  12   32.10   10.40
  10   0  12   15.40   10.10
   6  -1 -12  261.57   27.70
   5  -1 -12  288.37   27.90
   4  -1 -12   26.90   10.50
   3  -1 -12   23.80   10.20
   2  -1 -12  137.19   17.10
   1  -1 -12   78.89   13.90
   0  -1 -12   17.60    8.50
  -1  -1 -12   50.49   11.00
  -2  -1 -12   87.99   13.70
  -3  -1 -12   23.30    8.80
   3   1  12   50.89    8.90
  -4  -1 -12   27.30    8.60
   4   1  12   29.60    7.90
  -5  -1 -12   21.40    8.90
   5   1  12    5.10    6.20
  -6  -1 -12    0.50    7.30
   6   1  12   -7.00    5.90
   7   1  12   18.30    8.00
   8   1  12   10.60    7.80
   9   1  12   39.90   11.20
  10   1  12    3.10    8.30
  11   1  12    5.90    9.50
   6  -2 -12   16.40   11.30
   5  -2 -12  100.69   18.00
   4  -2 -12  124.29   18.00
   3  -2 -12    3.20    7.90
   2  -2 -12   14.50    9.10
   1  -2 -12  215.28   20.00
   0  -2 -12   22.10    9.10
  -1  -2 -12   11.60    8.10
  -2  -2 -12   22.10    8.40
  -3  -2 -12   39.10   10.30
  -4  -2 -12  195.88   18.60
   4   2  12  200.68   14.40
  -5  -2 -12   18.70    8.80
   5   2  12    3.20    6.00
  -6  -2 -12    9.80    7.50
   6   2  12    5.80    6.60
   7   2  12  241.68   19.30
   8   2  12   10.50    7.70
   9   2  12   54.89   11.70
  10   2  12    2.10    8.40
  11   2  12   34.90   11.60
   6  -3 -12  120.99   19.60
   5  -3 -12   -3.10    9.10
   4  -3 -12    3.00    9.40
   3  -3 -12    0.00    8.40
   2  -3 -12   31.20   10.00
   1  -3 -12   42.00   10.50
   0  -3 -12    3.80    6.80
  -1  -3 -12   39.40    9.70
  -2  -3 -12   49.80   10.30
  -3  -3 -12  314.47   20.30
  -4  -3 -12   -3.70    6.30
   4   3  12    4.60    5.10
  -5  -3 -12   51.49   10.50
   5   3  12   36.90    8.50
  -6  -3 -12   11.60    7.40
   6   3  12    2.20    6.00
   7   3  12   -4.30    5.80
   8   3  12   16.60    8.10
   9   3  12  206.58   19.30
  10   3  12  264.77   22.80
  11   3  12   13.30    9.80
  12   3  12    5.70    8.90
   6  -4 -12   47.10   14.00
   5  -4 -12   29.90   12.20
   5  -4 -12   53.59   11.30
   4  -4 -12  167.58   17.50
   4  -4 -12  164.08   20.40
   3  -4 -12  227.98   22.80
   3  -4 -12  232.38   19.00
   2  -4 -12   47.30    9.50
   2  -4 -12   52.89   12.40
   1  -4 -12   14.90    8.70
   1  -4 -12   18.00    7.30
   0  -4 -12  354.16   22.80
   0  -4 -12  404.46   19.80
  -1  -4 -12   48.00    9.10
  -1  -4 -12   51.89   10.70
  -2  -4 -12  154.18   14.10
  -2  -4 -12  121.59   14.20
  -3  -4 -12   18.60    8.20
  -3  -4 -12   20.80    7.20
  -4  -4 -12   -0.70    6.00
  -4  -4 -12    3.50    5.90
  -5  -4 -12    8.80    6.60
  -5  -4 -12   23.60    7.90
   5   4  12    9.00    6.00
  -6  -4 -12    6.50    6.80
  -6  -4 -12    4.80    6.70
   6   4  12   13.40    6.80
  -7  -4 -12    9.10    7.50
   7   4  12   -0.50    6.40
   8   4  12    7.60    7.30
   9   4  12   99.49   14.10
  10   4  12  239.48   21.40
  11   4  12    3.10    8.50
  12   4  12    1.50    8.80
   6  -5 -12    8.50   10.20
   5  -5 -12    8.10    9.80
   5  -5 -12    8.40    8.20
   4  -5 -12  330.17   24.80
   4  -5 -12  343.07   21.60
   3  -5 -12  353.06   24.50
   3  -5 -12  297.37   19.30
   2  -5 -12   67.59   11.20
   2  -5 -12   68.09   13.50
   1  -5 -12  109.49   13.20
   1  -5 -12  114.49   15.20
   0  -5 -12  217.08   19.30
   0  -5 -12  256.87   17.10
  -1  -5 -12  182.58   17.10
  -1  -5 -12  196.38   16.30
  -2  -5 -12   69.99   10.80
  -2  -5 -12   60.29   10.70
  -3  -5 -12    9.10    7.10
  -3  -5 -12    1.90    6.50
  -4  -5 -12   18.60    8.20
  -4  -5 -12    8.90    7.90
  -5  -5 -12   -5.70    6.30
  -5  -5 -12   -2.60    6.20
   5   5  12    4.70    5.10
  -6  -5 -12   29.30    8.60
  -6  -5 -12   62.69   10.90
   6   5  12   48.90    8.90
  -7  -5 -12    9.30    7.70
   7   5  12    6.80    6.80
   8   5  12    6.00    6.80
   9   5  12   73.29   12.20
  10   5  12    4.30    7.50
  11   5  12   40.00   11.00
  12   5  12    1.70    8.50
   6  -6 -12   69.59   15.40
   5  -6 -12   14.20    8.70
   5  -6 -12   18.10   10.30
   4  -6 -12    3.80    7.10
   4  -6 -12   -9.00    7.80
   3  -6 -12   -1.00    6.50
   3  -6 -12   -3.00    8.00
   2  -6 -12   50.99   12.20
   2  -6 -12   44.50    9.60
   1  -6 -12   38.70   10.40
   1  -6 -12   39.60    9.10
   0  -6 -12   -5.40    6.90
   0  -6 -12   -4.00    5.40
  -1  -6 -12  165.18   16.30
  -1  -6 -12  239.28   16.90
  -2  -6 -12    5.90    7.20
  -2  -6 -12    5.90    7.10
  -3  -6 -12   23.10    8.00
  -3  -6 -12   36.70    9.20
  -4  -6 -12   21.50    8.10
  -4  -6 -12   17.40    7.90
  -5  -6 -12   65.19   10.50
  -5  -6 -12   66.89   10.90
  -6  -6 -12  119.49   14.60
  -6  -6 -12  138.29   13.60
   6   6  12  125.79   12.80
  -7  -6 -12    0.60    6.60
   7   6  12    3.50    6.60
  -8  -6 -12   -1.70    8.40
   8   6  12    8.70    7.30
   9   6  12  190.78   18.00
  10   6  12   20.10    8.80
  11   6  12  140.49   17.30
  12   6  12   12.10    8.90
   5  -7 -12  128.49   17.20
   5  -7 -12  116.09   17.30
   4  -7 -12  189.78   20.40
   4  -7 -12  195.48   20.30
   3  -7 -12    3.80    7.20
   3  -7 -12    2.30    8.30
   2  -7 -12   26.50    8.80
   2  -7 -12    2.30    8.30
   1  -7 -12   50.49   12.00
   1  -7 -12   60.39   11.40
   0  -7 -12   73.39   12.40
   0  -7 -12   60.29   11.40
  -1  -7 -12    7.70    6.80
  -1  -7 -12   -3.60    5.90
  -2  -7 -12   57.19   10.50
  -2  -7 -12   56.59   11.10
  -3  -7 -12   16.60    7.90
  -3  -7 -12   10.10    7.10
  -4  -7 -12  223.78   19.10
  -4  -7 -12  244.18   16.60
  -5  -7 -12  111.29   14.40
  -6  -7 -12   25.90    9.40
   6   7  12   17.80    6.50
  -7  -7 -12   13.50    9.10
   7   7  12   -0.80    5.50
  -8  -7 -12   18.20    9.40
   8   7  12   12.50    7.30
  -9  -7 -12   -1.90    8.90
   9   7  12   12.60    7.80
  10   7  12   28.50    9.80
  11   7  12  136.39   17.20
  12   7  12  116.39   16.50
   5  -8 -12   -0.90    8.50
   5  -8 -12   -1.70    8.90
   4  -8 -12   -2.50    7.20
   4  -8 -12   -0.90    8.40
   3  -8 -12   34.60   11.20
   3  -8 -12   24.80    9.60
   2  -8 -12  278.47   20.00
   2  -8 -12  318.87   22.00
   1  -8 -12  308.27   21.40
   1  -8 -12  362.26   22.00
   0  -8 -12   -4.10    7.30
   0  -8 -12    5.40    7.20
  -1  -8 -12   -0.50    6.30
  -1  -8 -12    5.70    7.80
  -2  -8 -12  624.84   27.00
  -2  -8 -12  646.24   29.30
  -3  -8 -12  136.49   16.20
  -4  -8 -12  147.19   16.20
  -5  -8 -12   21.20    9.20
  -6  -8 -12   12.20    8.40
  -7  -8 -12    3.30    8.20
   7   8  12   26.40    7.60
  -8  -8 -12   -0.20    8.00
   8   8  12   25.40    8.50
  -9  -8 -12   -3.40    8.50
   9   8  12    7.30    6.80
  10   8  12    0.70    6.50
  11   8  12   35.10   10.10
  12   8  12   36.10   11.10
   4  -9 -12   16.90    9.40
   4  -9 -12   33.10   11.80
   3  -9 -12    0.80    9.30
   3  -9 -12    9.50    8.10
   2  -9 -12  179.98   18.90
   2  -9 -12  174.58   18.50
   1  -9 -12  111.79   15.30
   1  -9 -12   81.69   13.80
   0  -9 -12   13.10    8.40
  -1  -9 -12  100.09   14.20
  -2  -9 -12  343.77   21.80
  -3  -9 -12  103.09   14.80
  -4  -9 -12   22.00    9.60
  -5  -9 -12    5.20    7.80
  -6  -9 -12    6.70    7.60
  -7  -9 -12   -4.10    7.80
   7   9  12    0.60    5.60
  -8  -9 -12   35.40   11.20
   8   9  12   43.70    9.50
  -9  -9 -12   25.60   11.30
   9   9  12   14.80    7.90
 -10  -9 -12   -4.10    9.10
  10   9  12    2.70    7.10
  11   9  12   19.40   10.10
  12   9  12  -11.00    8.30
   3 -10 -12   50.29   12.10
   3 -10 -12   48.30   13.10
   2 -10 -12   32.40   10.70
   1 -10 -12   15.10    8.60
   0 -10 -12   -4.90    6.60
  -1 -10 -12   48.40   11.30
  -2 -10 -12   24.20    9.40
  -3 -10 -12   73.39   13.80
  -4 -10 -12    1.20    7.90
  -5 -10 -12  117.49   16.90
  -6 -10 -12   24.20    9.90
  -7 -10 -12    2.00    9.00
  -8 -10 -12   41.40   11.90
   8  10  12   29.20    9.10
  -9 -10 -12   11.40   11.50
   9  10  12    9.80    7.40
 -10 -10 -12   -0.70   10.30
  10  10  12    7.50    7.80
  11  10  12   90.29   14.30
   2 -11 -12   14.20    9.70
   1 -11 -12    5.30    8.40
   0 -11 -12   37.70   11.00
  -1 -11 -12   24.20    9.10
  -2 -11 -12   15.00    9.60
  -3 -11 -12   37.80   11.20
  -4 -11 -12   39.30   11.60
  -5 -11 -12  -12.40    8.30
  -6 -11 -12   51.29   13.40
  -7 -11 -12   -3.70   10.40
  -8 -11 -12    2.70    9.40
  -9 -11 -12    0.60   10.60
   9  11  12   22.30    8.80
 -10 -11 -12   17.10   12.30
  10  11  12   24.40    9.60
  11  11  12    1.80    7.90
   1 -12 -12   48.80   13.20
   0 -12 -12  140.79   18.40
  -1 -12 -12  109.39   16.00
  -2 -12 -12   19.30   11.00
  -3 -12 -12   87.49   14.90
  -4 -12 -12  488.85   29.10
  -5 -12 -12   67.29   15.20
  -6 -12 -12   21.40   10.50
  -7 -12 -12   23.10   12.40
  -8 -12 -12  118.59   18.40
  -9 -12 -12   24.40   12.40
   9  12  12   36.90    9.40
 -10 -12 -12    5.30   11.80
  10  12  12   10.30    8.50
  -1 -13 -12   30.10   12.10
  -2 -13 -12   -5.90    8.20
  -3 -13 -12    0.10    8.50
  -4 -13 -12  117.89   19.00
  -5 -13 -12   40.00   14.20
  -6 -13 -12    8.10   10.80
  -7 -13 -12  -18.50    9.50
  -8 -13 -12   -3.40   11.80
   0   3 -13   13.20   10.00
  -1   3 -13    1.40    8.30
  -2   3 -13   26.70   12.00
  -3   3 -13  124.09   18.10
   3  -3  13  159.28   17.00
  -4   3 -13   80.69   16.00
   4  -3  13   29.40   10.10
   5  -3  13   15.10    9.40
   2   2 -13   77.29   14.50
   1   2 -13   38.70   11.60
   0   2 -13   -1.20    7.40
  -1   2 -13   22.30   10.10
  -2   2 -13   99.49   16.20
  -3   2 -13   13.40   10.20
   3  -2  13   18.40    8.90
  -4   2 -13   16.20   10.00
   4  -2  13    9.50    8.50
  -5   2 -13   -8.50    8.70
   5  -2  13   15.50    9.50
   6  -2  13   16.40    9.60
   7  -2  13   29.60   11.00
   3   1 -13    4.90    8.70
   2   1 -13    4.10    8.20
   1   1 -13   18.10    8.90
   0   1 -13   41.40   11.90
  -1   1 -13   22.80   10.20
  -2   1 -13  111.49   16.50
  -3   1 -13    2.00    8.80
  -4   1 -13  244.58   23.70
   4  -1  13  331.97   20.90
  -5   1 -13   28.80   10.50
   5  -1  13   12.20    8.70
   6  -1  13    5.00    8.60
   7  -1  13   -5.70    7.20
   8  -1  13   -4.40    8.30
   4   0 -13    9.30    9.80
   3   0 -13    9.20    9.40
   2   0 -13   22.60   10.30
   1   0 -13  -11.30    7.20
   0   0 -13  155.38   18.20
  -1   0 -13   16.70    9.00
  -2   0 -13   -2.70    8.10
  -3   0 -13   72.09   14.10
  -4   0 -13  238.48   22.80
   4   0  13  308.07   20.00
  -5   0 -13  213.98   21.50
   5   0  13  272.07   19.20
  -6   0 -13   34.10   11.50
   6   0  13   24.40    8.90
   7   0  13   54.79   11.90
   8   0  13  124.29   16.20
   9   0  13    9.80    9.80
   4  -1 -13   34.60   12.40
   3  -1 -13   35.90   11.90
   2  -1 -13   72.99   13.60
   1  -1 -13   18.60    9.10
   0  -1 -13   49.80   12.00
  -1  -1 -13    4.40    8.10
  -2  -1 -13    2.10    7.60
  -3  -1 -13   63.89   12.50
  -4  -1 -13   -3.80    6.90
  -5  -1 -13  145.39   17.30
   5   1  13  118.49   14.30
  -6  -1 -13   28.70   10.60
   6   1  13   34.50    9.70
   7   1  13    1.20    6.80
   8   1  13   11.50    8.50
   9   1  13   -4.60    7.40
  10   1  13   -4.30    9.60
   4  -2 -13   -8.20    8.50
   3  -2 -13   -5.50    8.20
   2  -2 -13    3.50    7.80
   1  -2 -13   58.99   12.50
   0  -2 -13  178.78   18.90
  -1  -2 -13    7.20    7.30
  -2  -2 -13   13.80    8.80
  -3  -2 -13  214.28   20.40
  -4  -2 -13  106.09   15.30
  -5  -2 -13   10.10    8.80
   5   2  13   13.60    7.10
  -6  -2 -13   18.60    8.50
   6   2  13   28.00    8.90
   7   2  13   28.00    9.10
   8   2  13   68.09   12.80
   9   2  13    1.10    7.90
  10   2  13    4.50    9.30
   5  -3 -13   79.59   16.80
   4  -3 -13   11.90   10.90
   3  -3 -13   67.29   13.90
   2  -3 -13   -3.30    7.90
   1  -3 -13   45.20   11.50
   0  -3 -13    3.00    7.70
  -1  -3 -13   -4.30    6.70
  -2  -3 -13   68.99   12.30
  -3  -3 -13    6.90    7.10
  -4  -3 -13    4.00    7.50
  -5  -3 -13   55.29   11.90
   6   3  13  553.44   25.60
   7   3  13   58.39   11.60
   8   3  13    6.60    7.80
   9   3  13  110.89   15.50
  10   3  13  105.79   16.20
  11   3  13    1.80   10.10
   5  -4 -13   43.20   14.90
   4  -4 -13   22.90   11.70
   3  -4 -13   67.49   15.00
   2  -4 -13   -1.40    8.50
   1  -4 -13   34.00   10.90
   0  -4 -13   49.20   11.30
  -1  -4 -13   12.60    7.90
  -2  -4 -13   59.89   11.50
  -3  -4 -13    7.70    7.80
  -4  -4 -13   25.40    9.30
  -5  -4 -13   58.89   11.40
  -6  -4 -13  284.37   19.70
   6   4  13  262.97   18.00
  -7  -4 -13  166.88   17.40
   7   4  13  201.88   17.90
   8   4  13   89.39   13.80
   9   4  13   48.10   11.50
  10   4  13   44.70   11.80
  11   4  13    8.40   10.40
   4  -5 -13   -2.30    7.80
   4  -5 -13   29.20   12.40
   3  -5 -13  167.08   20.10
   3  -5 -13  202.48   18.70
   2  -5 -13   97.89   13.50
   2  -5 -13   95.79   15.70
   1  -5 -13   30.60    9.20
   1  -5 -13   52.49   12.00
   0  -5 -13   19.70    7.70
   0  -5 -13    4.60    7.70
  -1  -5 -13   -3.30    5.40
  -1  -5 -13   -4.30    6.30
  -2  -5 -13  116.99   14.80
  -2  -5 -13  123.99   13.80
  -3  -5 -13  108.09   14.70
  -3  -5 -13  137.99   14.40
  -4  -5 -13   13.40    7.70
  -4  -5 -13   -5.20    7.30
  -5  -5 -13   89.89   12.60
  -5  -5 -13  101.99   13.40
  -6  -5 -13   49.10   10.70
  -6  -5 -13   51.79   10.60
  -7  -5 -13   96.19   13.50
  -7  -5 -13  120.59   14.90
   7   5  13  100.29   13.10
   8   5  13   -7.00    6.20
   9   5  13   73.19   13.00
  10   5  13   10.50    8.90
  11   5  13    0.70    8.60
   4  -6 -13   -2.40    7.00
   4  -6 -13    1.00   10.00
   3  -6 -13   59.39   11.70
   3  -6 -13   27.60   11.10
   2  -6 -13   25.30    8.60
   2  -6 -13   21.20   10.70
   1  -6 -13    4.30    7.90
   1  -6 -13    1.60    8.00
   0  -6 -13    8.10    8.00
   0  -6 -13    3.70    7.10
  -1  -6 -13   92.49   13.00
  -1  -6 -13   73.99   12.80
  -2  -6 -13   93.19   13.10
  -2  -6 -13   94.49   13.30
  -3  -6 -13   13.30    7.60
  -3  -6 -13    3.10    7.00
  -4  -6 -13   -1.00    7.40
  -4  -6 -13   10.50    7.70
  -5  -6 -13  137.99   15.10
  -5  -6 -13  145.89   15.80
  -6  -6 -13   22.00    8.60
  -6  -6 -13   14.40    8.40
  -7  -6 -13   97.99   14.10
   7   6  13   74.19   11.60
  -8  -6 -13   38.00   11.10
   8   6  13   37.80    9.70
   9   6  13   22.90    9.00
  10   6  13   30.40   10.40
  11   6  13   20.20   10.60
   4  -7 -13   23.80    9.70
   4  -7 -13   27.20   12.90
   3  -7 -13   31.50    9.90
   3  -7 -13   28.40   12.70
   2  -7 -13   14.00    8.10
   2  -7 -13   17.30   10.70
   1  -7 -13   31.60   10.80
   1  -7 -13   53.69   11.20
   0  -7 -13   50.09   10.40
   0  -7 -13   57.89   12.10
  -1  -7 -13   89.19   13.30
  -1  -7 -13  110.69   14.20
  -2  -7 -13    1.60    7.10
  -2  -7 -13   -2.30    7.00
  -3  -7 -13    8.00    7.30
  -3  -7 -13   17.50    8.20
  -4  -7 -13   10.40    7.90
  -4  -7 -13   -8.10    6.10
  -5  -7 -13    1.40    7.10
  -6  -7 -13    0.40    8.30
  -7  -7 -13   80.19   13.90
  -8  -7 -13  432.06   25.50
   8   7  13  423.56   22.70
  -9  -7 -13   37.90   12.70
   9   7  13   33.60    9.30
  10   7  13   11.70    8.00
  11   7  13  159.78   18.90
   3  -8 -13   -8.20    8.80
   3  -8 -13   -0.80    7.60
   2  -8 -13  155.68   17.50
   2  -8 -13  135.59   18.50
   1  -8 -13  131.19   16.70
   1  -8 -13  133.59   17.90
   0  -8 -13   21.30    9.80
   0  -8 -13   16.60    8.40
  -1  -8 -13   13.20    7.90
  -1  -8 -13    6.80    8.10
  -2  -8 -13   -6.60    6.70
  -3  -8 -13    3.20    7.70
  -4  -8 -13   19.30    8.80
  -5  -8 -13   14.90    8.90
  -6  -8 -13   21.90   10.10
  -7  -8 -13   77.29   14.10
  -8  -8 -13  112.29   15.50
   8   8  13  102.19   13.10
  -9  -8 -13   17.10   11.10
   9   8  13    9.90    7.60
  10   8  13    4.20    7.80
  11   8  13   22.30   10.40
   3  -9 -13   21.70   10.10
   3  -9 -13   38.50   13.10
   2  -9 -13   90.59   15.90
   2  -9 -13   97.79   15.70
   1  -9 -13  138.49   18.00
   1  -9 -13  174.28   19.20
   0  -9 -13   80.99   13.60
  -1  -9 -13   52.19   11.70
  -2  -9 -13    0.30    7.70
  -3  -9 -13   10.20    8.40
  -4  -9 -13   92.09   15.30
  -5  -9 -13  107.39   16.10
  -6  -9 -13   16.80    9.70
  -7  -9 -13   35.00   11.10
  -8  -9 -13   32.00   12.20
  -9  -9 -13   36.70   13.00
   9   9  13   35.60   10.10
 -10  -9 -13    1.00   10.60
  10   9  13    6.50    8.20
  11   9  13   67.39   13.70
   2 -10 -13   15.80    9.80
   1 -10 -13   42.60   11.80
   0 -10 -13   -4.10    7.90
  -1 -10 -13   16.30    9.60
  -2 -10 -13   30.00   10.70
  -3 -10 -13   20.70    9.70
  -4 -10 -13   45.30   11.50
  -5 -10 -13   -2.70    8.60
  -6 -10 -13   30.70   10.30
  -7 -10 -13   41.00   12.60
  -8 -10 -13   13.30   10.60
  -9 -10 -13  124.49   19.30
 -10 -10 -13    5.90   11.20
  10  10  13   22.40    9.30
   1 -11 -13   -1.00    8.70
   0 -11 -13   36.10   11.30
  -1 -11 -13   27.80   10.30
  -2 -11 -13   59.09   13.90
  -3 -11 -13   39.90   11.90
  -4 -11 -13   35.10   12.10
  -5 -11 -13  -13.20    8.60
  -6 -11 -13   25.50   11.50
  -7 -11 -13    5.00   10.40
  -8 -11 -13   17.80   11.30
  -9 -11 -13   34.00   13.00
 -10 -11 -13  189.88   23.80
  10  11  13  152.58   17.20
  -1 -12 -13  154.98   19.40
  -2 -12 -13    3.20    9.40
  -3 -12 -13   -6.50    8.40
  -4 -12 -13   12.20   11.20
  -5 -12 -13   -3.90   10.00
  -6 -12 -13   19.10   11.50
  -7 -12 -13  -17.00    8.50
  -8 -12 -13    3.00   11.00
  -4 -13 -13   -6.70   11.20
  -5 -13 -13    5.10   12.70
  -6 -13 -13   39.20   15.20
   0   1 -14   40.20   12.90
  -1   1 -14   61.89   14.40
  -2   1 -14    4.50    9.60
  -3   1 -14   19.40   11.00
  -4   1 -14   -5.70    8.20
  -5   1 -14   17.00   10.90
   5  -1  14   14.60   10.40
   1   0 -14   29.90   11.20
   0   0 -14  100.69   16.20
  -1   0 -14  261.47   24.80
  -2   0 -14  118.19   17.20
  -3   0 -14   -7.50    7.70
  -4   0 -14   53.99   14.20
  -5   0 -14   29.10   11.00
  -6   0 -14   -0.10    9.70
   6   0  14    7.90    9.10
   7   0  14    0.80    8.60
   2  -1 -14  -11.10    7.40
   1  -1 -14   14.20    9.90
   0  -1 -14   24.50   10.10
  -1  -1 -14   85.49   15.30
  -2  -1 -14   19.00   10.00
  -3  -1 -14    0.20    8.30
  -4  -1 -14    8.60    9.10
  -5  -1 -14   -2.80    7.80
  -6  -1 -14   -0.60    8.20
   6   1  14    6.70    7.80
   7   1  14   -2.30    8.00
   8   1  14    3.00    7.90
   3  -2 -14    8.80    9.30
   2  -2 -14   43.20   12.90
   1  -2 -14   37.30   11.60
   0  -2 -14  112.49   16.50
  -1  -2 -14   56.39   12.70
  -2  -2 -14    3.40    8.20
  -3  -2 -14    6.10    8.60
  -4  -2 -14  100.49   14.70
  -5  -2 -14   28.40   11.40
  -6  -2 -14   16.50    9.30
   7   2  14   25.80    9.30
   8   2  14   49.50   12.30
   9   2  14   44.20   13.00
   3  -3 -14   18.50   11.00
   2  -3 -14   68.69   14.70
   1  -3 -14   29.90   10.90
   0  -3 -14   30.70   11.10
  -1  -3 -14   -1.30    7.60
  -2  -3 -14  250.87   22.10
  -3  -3 -14  146.59   17.60
  -4  -3 -14   -6.30    7.40
  -5  -3 -14   -2.40    7.90
  -6  -3 -14   47.70   11.80
  -7  -3 -14   -3.00    8.20
   7   3  14    1.40    8.20
   8   3  14   34.10   10.50
   9   3  14   24.50   10.20
   3  -4 -14   13.10   10.40
   2  -4 -14   42.20   12.70
   1  -4 -14   -0.50    8.60
   0  -4 -14    2.00    8.30
  -1  -4 -14   29.40   10.80
  -2  -4 -14  141.19   16.30
  -3  -4 -14  228.58   20.90
  -4  -4 -14  169.48   18.00
  -5  -4 -14   23.80    9.10
  -7  -4 -14   74.19   13.50
   8   4  14   -9.50    7.40
   9   4  14   -4.20    8.50
  10   4  14    8.30    9.30
   3  -5 -14    9.30   10.50
   2  -5 -14   42.00   12.30
   1  -5 -14   29.10   11.30
   0  -5 -14   10.50    9.40
  -1  -5 -14   59.39   12.20
  -2  -5 -14   41.10   10.40
  -3  -5 -14   39.20   10.60
  -4  -5 -14   11.30    9.10
  -5  -5 -14    7.80    7.90
  -6  -5 -14    6.70    7.60
  -7  -5 -14  -10.70    6.90
   8   5  14    0.60    7.70
   9   5  14   12.00    9.30
  10   5  14   44.50   12.10
   3  -6 -14   99.79   17.50
   3  -6 -14   38.10   10.80
   2  -6 -14   29.50   11.50
   2  -6 -14   18.00    9.40
   1  -6 -14    2.30    8.30
   1  -6 -14   -9.20    7.00
   0  -6 -14   20.00   10.40
   0  -6 -14   19.70    8.00
  -1  -6 -14   21.90    9.70
  -1  -6 -14   45.20   11.10
  -2  -6 -14   50.89   11.00
  -2  -6 -14   64.99   12.80
  -3  -6 -14   10.50    8.70
  -3  -6 -14   14.10    8.80
  -4  -6 -14  117.09   15.30
  -4  -6 -14   93.39   13.90
  -5  -6 -14   10.40    9.10
  -5  -6 -14   16.20    9.70
  -6  -6 -14   87.09   13.40
  -6  -6 -14  116.59   15.40
  -7  -6 -14   -7.30    8.70
  -8  -6 -14   72.89   13.40
   9   6  14   31.90   10.50
  10   6  14  113.09   16.40
   2  -7 -14    1.00    8.00
   2  -7 -14   13.00   10.60
   1  -7 -14    1.30    7.60
   1  -7 -14    8.90   10.10
   0  -7 -14   31.70   11.10
   0  -7 -14   29.50   10.10
  -1  -7 -14   21.50    9.80
  -1  -7 -14   36.70   10.10
  -2  -7 -14    5.40    8.40
  -2  -7 -14    5.20    8.40
  -3  -7 -14   21.70    9.50
  -3  -7 -14   23.30    8.90
  -4  -7 -14  320.57   21.50
  -5  -7 -14  249.18   21.60
  -6  -7 -14   -4.30    7.90
  -7  -7 -14   65.09   13.40
  -8  -7 -14  172.78   19.40
  -9  -7 -14    2.50   10.30
   9   7  14   14.10    8.30
  10   7  14    9.70    8.60
   2  -8 -14   42.30   11.30
   2  -8 -14   55.79   14.30
   1  -8 -14   -1.00    9.00
   1  -8 -14    5.90    8.50
   0  -8 -14    6.40    8.30
   0  -8 -14   17.10   10.30
  -1  -8 -14   26.80   10.20
  -1  -8 -14   14.70    9.10
  -2  -8 -14    5.40    8.50
  -3  -8 -14   21.60    9.90
  -4  -8 -14  109.99   15.10
  -5  -8 -14   59.99   12.90
  -6  -8 -14   43.60   12.60
  -7  -8 -14   -2.60    9.50
  -8  -8 -14   30.70   12.20
  -9  -8 -14    7.40   10.60
  10   8  14    4.70    8.70
   1  -9 -14    8.40    8.00
   0  -9 -14   24.10   10.50
  -1  -9 -14   45.70   11.40
  -2  -9 -14   18.80   10.50
  -3  -9 -14   63.29   13.70
  -4  -9 -14   90.79   14.80
  -5  -9 -14   31.40   11.50
  -6  -9 -14   -3.70    8.80
  -7  -9 -14   26.20   11.70
  -8  -9 -14   -4.60    9.90
  -9  -9 -14    4.60   10.10
 -10  -9 -14   24.70   12.40
   0 -10 -14    5.10    8.70
  -1 -10 -14   -7.60    7.50
  -2 -10 -14   10.30    9.50
  -3 -10 -14   70.79   14.20
  -4 -10 -14   -3.70    8.70
  -5 -10 -14   -1.90    9.60
  -6 -10 -14   49.70   13.10
  -7 -10 -14   28.00   12.40
  -8 -10 -14   10.00   11.20
  -9 -10 -14  -15.50   10.40
  -1 -11 -14    8.00    9.10
  -2 -11 -14  -11.50    8.40
  -3 -11 -14   -0.90    8.60
  -4 -11 -14   -7.20    8.70
  -5 -11 -14   15.40   11.70
  -6 -11 -14  247.78   24.50
  -7 -11 -14  120.69   19.40
  -8 -11 -14    0.60   11.30
  -5 -12 -14   -5.50   10.70
  -2  -1 -15    2.30    8.30
  -3  -1 -15    6.70    9.70
  -4  -1 -15   -5.30    8.80
  -5  -1 -15   48.40   13.60
   0  -2 -15   14.30    9.50
  -1  -2 -15   28.30   11.30
  -2  -2 -15   -1.80    8.70
  -3  -2 -15    1.90    8.90
  -4  -2 -15    7.70    8.90
  -5  -2 -15   23.90   10.50
  -6  -2 -15   70.29   14.30
   0  -3 -15    6.10   10.10
  -1  -3 -15    9.70    9.40
  -2  -3 -15   -1.30    8.90
  -3  -3 -15   12.60   10.40
  -4  -3 -15    9.30    9.90
  -5  -3 -15   48.10   13.40
  -6  -3 -15    0.30    8.80
  -7  -3 -15   -0.90    9.80
   1  -4 -15  201.68   21.90
   0  -4 -15  139.89   18.60
  -1  -4 -15   13.10    9.00
  -2  -4 -15   55.39   13.10
  -3  -4 -15  120.99   16.70
  -4  -4 -15  -10.60    7.20
  -5  -4 -15    1.20    9.40
  -6  -4 -15    8.20    9.70
  -7  -4 -15   29.30   12.00
   1  -5 -15   11.80   10.60
   0  -5 -15   38.70   11.50
  -1  -5 -15    8.90   10.30
  -2  -5 -15   -0.70    8.50
  -3  -5 -15    2.10    8.70
  -4  -5 -15    9.20    8.90
  -5  -5 -15   12.60    9.20
  -6  -5 -15   77.59   14.20
  -7  -5 -15   41.70   12.10
   0  -6 -15   45.70   12.60
  -1  -6 -15   53.29   12.30
  -2  -6 -15   21.70    9.10
  -3  -6 -15   41.20   12.10
  -4  -6 -15    1.10    9.10
  -5  -6 -15    0.80    7.90
   0  -7 -15  171.28   19.30
   0  -7 -15  168.88   18.30
  -1  -7 -15  169.68   18.80
  -1  -7 -15  158.38   18.10
  -2  -7 -15   20.10   10.00
  -2  -7 -15   20.20   10.20
  -3  -7 -15   13.80   10.10
  -3  -7 -15   27.80    9.90
  -4  -7 -15  101.29   15.40
  -5  -7 -15   84.79   14.50
  -6  -7 -15    5.30    9.60
  -7  -7 -15    0.40    9.80
  -8  -7 -15   -6.10   10.20
  -1  -8 -15  167.68   19.50
  -2  -8 -15  174.48   19.30
  -3  -8 -15   -2.70    7.70
  -4  -8 -15    5.80    9.40
  -5  -8 -15  185.98   20.00
  -6  -8 -15    4.50    9.30
  -7  -8 -15   -1.60    9.90
  -8  -8 -15  -12.00    8.50
  -2  -9 -15   12.50    9.40
  -3  -9 -15    3.20    8.80
  -4  -9 -15    3.10   10.10
  -5  -9 -15    6.80   10.60
  -6  -9 -15  -17.70    9.60
  -7  -9 -15  -11.80    8.70
  -3 -10 -15   31.50   12.10
  -4 -10 -15   23.00   11.10
  -5 -10 -15  -15.00    8.80
  -6 -10 -15   50.19   13.80
   0   0   0    0.00    0.00

_computing_structure_solution     'SHELXT 2018/2 (Sheldrick, 2018)'
;
_shelx_hkl_checksum              64280
_olex2_submission_special_instructions 'No special instructions were received'
loop_
_space_group_symop_operation_xyz
'x, y, z'
'-x, -y, -z'
loop_
_atom_site_label
_atom_site_type_symbol
_atom_site_fract_x
_atom_site_fract_y
_atom_site_fract_z
_atom_site_U_iso_or_equiv
_atom_site_adp_type
_atom_site_occupancy
_atom_site_site_symmetry_order
_atom_site_calc_flag
_atom_site_refinement_flags_posn
_atom_site_refinement_flags_adp
_atom_site_refinement_flags_occupancy
_atom_site_disorder_assembly
_atom_site_disorder_group
Mo1 Mo 0.78020(6) 0.58950(6) 0.73364(6) 0.02579(15) Uani 1 1 d . . . . .
Mo2 Mo 1.07803(6) 0.45419(6) 0.77780(6) 0.02837(16) Uani 1 1 d . . . . .
Mo3 Mo 0.70877(6) 0.65759(6) 0.44478(7) 0.02951(16) Uani 1 1 d . . . . .
Mo4 Mo 1.03600(6) 0.19582(6) 0.71774(6) 0.03301(17) Uani 1 1 d . . . . .
Mo5 Mo 1.02004(6) 0.75717(6) 0.57097(6) 0.03178(17) Uani 1 1 d . . . . .
Mo6 Mo 0.74889(6) 0.34659(6) 0.64384(7) 0.03479(18) Uani 1 1 d . . . . .
Cu1 Cu 0.32140(9) -0.17157(9) 0.88743(8) 0.0344(2) Uani 1 1 d D . . . .
P1 P 1.000000 0.500000 0.500000 0.0182(5) Uani 1 2 d S . P . .
O8 O 1.0535(5) 0.0553(5) 0.8180(5) 0.0385(14) Uani 1 1 d . . . . .
O10 O 1.0856(5) 0.6210(5) 0.7008(6) 0.0517(17) Uani 1 1 d . . . . .
O1W O 0.1750(6) -0.2256(6) 1.0007(6) 0.0497(16) Uani 1 1 d G . . . .
H1WA H 0.150231 -0.257204 0.961157 0.075 Uiso 1 1 d DG U . . .
H1WB H 0.128641 -0.156969 0.994509 0.075 Uiso 1 1 d DG U . . .
O1 O 0.4809(5) -0.1157(5) 0.7936(6) 0.0468(16) Uani 1 1 d . . . . .
O7 O 0.5711(5) 0.7244(5) 0.4179(5) 0.0386(13) Uani 1 1 d . . . . .
O4 O 0.8660(5) 0.7244(5) 0.6620(6) 0.0515(17) Uani 1 1 d . . . . .
N6 N 0.6442(6) 0.1123(6) 0.4789(6) 0.0360(16) Uani 1 1 d . . . . .
H6 H 0.605076 0.165505 0.513520 0.043 Uiso 1 1 calc R U . . .
N1 N 0.3013(5) -0.0192(6) 0.9287(5) 0.0294(14) Uani 1 1 d . . . . .
O14 O 0.9044(5) 0.4969(5) 0.8143(6) 0.0570(18) Uani 1 1 d . . . . .
N5 N 0.5913(5) 0.0330(5) 0.7440(5) 0.0284(14) Uani 1 1 d . . . . .
H5 H 0.595075 0.101924 0.749815 0.034 Uiso 1 1 calc R U . . .
O2 O 0.7305(6) 0.0824(5) 0.3011(5) 0.0501(17) Uani 1 1 d . . . . .
O18 O 0.6754(6) 0.6332(5) 0.8400(5) 0.0587(19) Uani 1 1 d . . . . .
O3 O 0.6336(5) 0.2691(5) 0.7175(5) 0.0433(15) Uani 1 1 d . . . . .
N2 N 0.6440(6) 0.3122(6) 0.1766(6) 0.0345(15) Uani 1 1 d . . . . .
O11 O 0.7959(6) 0.7824(6) 0.3609(7) 0.070(2) Uani 1 1 d . . . . .
O12 O 0.6804(7) 0.4850(5) 0.5361(6) 0.067(2) Uani 1 1 d . . . . .
O13 O 0.8707(6) 0.2376(8) 0.7389(6) 0.084(3) Uani 1 1 d . . . . .
O20 O 1.1130(6) 0.4333(7) 0.9095(5) 0.0597(19) Uani 1 1 d . . . . .
O15 O 0.7001(8) 0.6686(5) 0.5936(6) 0.072(2) Uani 1 1 d . . . . .
N3 N 0.2042(6) 0.1241(7) 1.0320(6) 0.0414(17) Uani 1 1 d . . . . .
C9 C 0.6433(6) 0.2844(7) 0.2947(7) 0.0311(17) Uani 1 1 d . . . . .
O16 O 0.7337(8) 0.4417(6) 0.7469(6) 0.075(3) Uani 1 1 d . . . . .
C5 C 0.4934(7) -0.0170(7) 0.7991(7) 0.0295(16) Uani 1 1 d . . . . .
O17 O 0.9625(5) 0.8372(8) 0.4274(6) 0.077(3) Uani 1 1 d . . . . .
C10 C 0.6769(7) 0.1495(7) 0.3590(7) 0.0298(17) Uani 1 1 d . . . . .
O6 O 0.7733(6) 0.5925(6) 0.3125(7) 0.069(2) Uani 1 1 d . . . . .
O19 O 1.0427(6) 0.2922(6) 0.8062(7) 0.068(2) Uani 1 1 d . . . . .
C4 C 0.3937(7) 0.0442(6) 0.8768(7) 0.0277(16) Uani 1 1 d . . . . .
O5 O 0.8203(6) 0.2721(9) 0.5291(6) 0.087(3) Uani 1 1 d . . . . .
N4 N 0.5905(7) 0.5248(6) 0.1510(7) 0.0499(19) Uani 1 1 d . . . . .
O9 O 1.0346(6) 0.8785(5) 0.6053(7) 0.064(2) Uani 1 1 d . . . . .
C2 C 0.2964(8) 0.1851(8) 0.9790(8) 0.040(2) Uani 1 1 d . . . . .
H2 H 0.295262 0.255360 0.996139 0.048 Uiso 1 1 calc R U . . .
C8 C 0.6162(7) 0.3777(7) 0.3436(7) 0.0314(17) Uani 1 1 d . . . . .
H8 H 0.617667 0.361043 0.424241 0.038 Uiso 1 1 calc R U . . .
C12 C 0.6725(8) -0.0163(7) 0.5537(7) 0.039(2) Uani 1 1 d . . . . .
H12A H 0.743734 -0.056209 0.511215 0.046 Uiso 1 1 calc R U . . .
H12B H 0.606253 -0.058736 0.567702 0.046 Uiso 1 1 calc R U . . .
O3W O 0.0333(6) -0.2447(8) 0.8818(8) 0.076(2) Uani 1 1 d G . . . .
H3WA H 0.023370 -0.304183 0.864615 0.113 Uiso 1 1 d DG U . . .
H3WB H -0.036007 -0.219818 0.917842 0.113 Uiso 1 1 d G U . . .
O2W O 0.4315(9) -0.2828(8) 1.0310(8) 0.102(3) Uani 1 1 d . . . . .
H2WA H 0.404986 -0.259541 1.095298 0.153 Uiso 1 1 d R U . . .
H2WB H 0.421599 -0.360493 1.059583 0.153 Uiso 1 1 d R U . . .
C1 C 0.2094(7) 0.0245(7) 1.0031(7) 0.0341(18) Uani 1 1 d . . . . .
H1 H 0.144102 -0.017557 1.037432 0.041 Uiso 1 1 calc R U . . .
C7 C 0.5868(7) 0.4964(7) 0.2689(8) 0.038(2) Uani 1 1 d . . . . .
H7 H 0.563451 0.559541 0.301985 0.046 Uiso 1 1 calc R U . . .
C3 C 0.3948(7) 0.1479(7) 0.8990(7) 0.0367(19) Uani 1 1 d . . . . .
H3 H 0.458515 0.191948 0.862127 0.044 Uiso 1 1 calc R U . . .
C11 C 0.6943(7) -0.0254(7) 0.6730(7) 0.0370(19) Uani 1 1 d . . . . .
H11A H 0.713160 -0.111650 0.719966 0.044 Uiso 1 1 calc R U . . .
H11B H 0.763727 0.012858 0.658370 0.044 Uiso 1 1 calc R U . . .
C6 C 0.6189(9) 0.4303(8) 0.1109(9) 0.053(3) Uani 1 1 d . . . . .
H6A H 0.621619 0.448029 0.029159 0.063 Uiso 1 1 calc R U . . .
O24 O 0.9571(8) 0.3707(8) 0.5510(8) 0.0187(19) Uani 0.5 1 d . . P . .
O25 O 1.1337(7) 0.4807(8) 0.4403(8) 0.0180(19) Uani 0.5 1 d . . P . .
O26 O 1.0742(7) 0.4145(8) 0.5968(8) 0.0182(19) Uani 0.5 1 d . . P . .
O27 O 0.9789(8) 0.5491(8) 0.5999(8) 0.023(2) Uani 0.5 1 d . . P . .
loop_
_atom_site_aniso_label
_atom_site_aniso_U_11
_atom_site_aniso_U_22
_atom_site_aniso_U_33
_atom_site_aniso_U_23
_atom_site_aniso_U_13
_atom_site_aniso_U_12
Mo1 0.0261(3) 0.0246(3) 0.0236(3) -0.0101(3) 0.0011(3) -0.0020(3)
Mo2 0.0309(4) 0.0293(3) 0.0260(3) -0.0115(3) -0.0061(3) -0.0027(3)
Mo3 0.0175(3) 0.0207(3) 0.0471(4) -0.0082(3) -0.0090(3) 0.0005(2)
Mo4 0.0308(4) 0.0209(3) 0.0290(4) 0.0009(3) 0.0025(3) 0.0039(3)
Mo5 0.0362(4) 0.0259(3) 0.0358(4) -0.0139(3) -0.0089(3) -0.0017(3)
Mo6 0.0209(3) 0.0368(4) 0.0385(4) 0.0010(3) -0.0032(3) -0.0149(3)
Cu1 0.0401(6) 0.0367(5) 0.0280(5) -0.0128(4) 0.0045(4) -0.0184(5)
P1 0.0169(12) 0.0153(11) 0.0195(12) -0.0048(10) -0.0017(10) -0.0014(9)
O8 0.046(3) 0.022(3) 0.032(3) -0.001(2) -0.001(3) 0.001(2)
O10 0.029(3) 0.032(3) 0.072(4) 0.010(3) -0.014(3) -0.006(3)
O1W 0.051(4) 0.056(4) 0.041(4) -0.019(3) 0.012(3) -0.028(3)
O1 0.045(4) 0.035(3) 0.062(4) -0.028(3) 0.016(3) -0.020(3)
O7 0.027(3) 0.042(3) 0.052(4) -0.027(3) -0.016(3) 0.009(2)
O4 0.029(3) 0.028(3) 0.073(4) 0.008(3) -0.012(3) -0.002(2)
N6 0.048(4) 0.026(3) 0.027(3) -0.009(3) -0.002(3) 0.001(3)
N1 0.027(3) 0.031(3) 0.028(3) -0.009(3) 0.001(3) -0.009(3)
O14 0.034(3) 0.036(3) 0.080(5) 0.009(3) -0.020(3) -0.003(3)
N5 0.027(3) 0.021(3) 0.033(3) -0.012(3) 0.004(3) -0.003(3)
O2 0.072(4) 0.036(3) 0.031(3) -0.017(3) 0.000(3) 0.010(3)
O18 0.061(4) 0.038(3) 0.037(3) -0.001(3) 0.015(3) 0.017(3)
O3 0.033(3) 0.038(3) 0.053(4) -0.006(3) 0.000(3) -0.020(3)
N2 0.048(4) 0.024(3) 0.027(3) -0.003(3) -0.001(3) -0.012(3)
O11 0.051(4) 0.063(4) 0.104(6) -0.065(4) 0.051(4) -0.040(4)
O12 0.130(7) 0.031(3) 0.061(4) 0.002(3) -0.058(5) -0.033(4)
O13 0.037(4) 0.163(8) 0.039(4) -0.053(5) -0.017(3) 0.046(4)
O20 0.057(4) 0.081(5) 0.038(4) -0.004(3) -0.017(3) -0.023(4)
O15 0.148(7) 0.028(3) 0.060(4) 0.010(3) -0.068(5) -0.036(4)
N3 0.036(4) 0.046(4) 0.040(4) -0.021(3) 0.005(3) -0.005(3)
C9 0.020(4) 0.032(4) 0.034(4) -0.011(3) 0.002(3) 0.000(3)
O16 0.151(8) 0.032(4) 0.054(4) 0.012(3) -0.060(5) -0.036(4)
C5 0.028(4) 0.031(4) 0.026(4) -0.008(3) -0.001(3) -0.005(3)
O17 0.029(3) 0.154(8) 0.039(4) -0.044(5) -0.014(3) 0.025(4)
C10 0.027(4) 0.034(4) 0.027(4) -0.011(3) -0.001(3) -0.004(3)
O6 0.058(4) 0.051(4) 0.101(6) -0.056(4) 0.043(4) -0.033(3)
O19 0.054(4) 0.053(4) 0.101(6) -0.053(4) 0.041(4) -0.033(3)
C4 0.029(4) 0.022(4) 0.029(4) -0.008(3) -0.002(3) -0.003(3)
O5 0.038(4) 0.163(8) 0.047(4) -0.048(5) -0.017(3) 0.041(5)
N4 0.061(5) 0.032(4) 0.051(5) -0.006(4) -0.015(4) -0.006(4)
O9 0.065(5) 0.031(3) 0.108(6) -0.023(4) -0.037(4) -0.004(3)
C2 0.042(5) 0.033(4) 0.042(5) -0.013(4) -0.003(4) -0.004(4)
C8 0.030(4) 0.031(4) 0.037(4) -0.015(3) -0.007(3) -0.005(3)
C12 0.049(5) 0.024(4) 0.030(4) -0.009(3) 0.001(4) 0.006(4)
O3W 0.050(4) 0.126(7) 0.077(5) -0.071(5) 0.004(4) -0.019(5)
O2W 0.156(9) 0.072(6) 0.105(7) -0.043(5) -0.084(7) 0.022(6)
C1 0.027(4) 0.037(4) 0.041(5) -0.017(4) -0.003(4) -0.007(3)
C7 0.030(4) 0.028(4) 0.061(6) -0.018(4) -0.011(4) -0.003(3)
C3 0.036(4) 0.026(4) 0.042(5) -0.012(4) 0.003(4) -0.004(3)
C11 0.033(4) 0.031(4) 0.038(5) -0.012(4) 0.001(4) 0.004(3)
C6 0.076(7) 0.036(5) 0.040(5) -0.004(4) -0.005(5) -0.022(5)
O24 0.015(4) 0.018(4) 0.020(5) -0.003(4) 0.000(4) -0.006(4)
O25 0.011(4) 0.024(5) 0.018(5) -0.006(4) 0.003(4) -0.009(4)
O26 0.010(4) 0.021(5) 0.021(5) -0.007(4) 0.003(4) -0.004(4)
O27 0.017(5) 0.026(5) 0.021(5) -0.007(4) 0.002(4) -0.002(4)
loop_
_atom_type_symbol
_atom_type_description
_atom_type_scat_dispersion_real
_atom_type_scat_dispersion_imag
_atom_type_scat_source
C C 0.0033 0.0016 'International Tables Vol C Tables 4.2.6.8 and 6.1.1.4'
H H 0.0000 0.0000 'International Tables Vol C Tables 4.2.6.8 and 6.1.1.4'
Cu Cu 0.3201 1.2651 'International Tables Vol C Tables 4.2.6.8 and 6.1.1.4'
Mo Mo -1.6832 0.6857 'International Tables Vol C Tables 4.2.6.8 and 6.1.1.4'
N N 0.0061 0.0033 'International Tables Vol C Tables 4.2.6.8 and 6.1.1.4'
O O 0.0106 0.0060 'International Tables Vol C Tables 4.2.6.8 and 6.1.1.4'
P P 0.1023 0.0942 'International Tables Vol C Tables 4.2.6.8 and 6.1.1.4'
loop_
_geom_angle_atom_site_label_1
_geom_angle_atom_site_label_2
_geom_angle_atom_site_label_3
_geom_angle
_geom_angle_site_symmetry_1
_geom_angle_site_symmetry_3
_geom_angle_publ_flag
O4 Mo1 O15 84.9(3) . . ?
O4 Mo1 O16 156.3(3) . . ?
O4 Mo1 O25 91.4(3) . 2_766 ?
O4 Mo1 O27 65.6(3) . . ?
O14 Mo1 O4 89.7(3) . . ?
O14 Mo1 O15 155.8(3) . . ?
O14 Mo1 O16 89.7(3) . . ?
O14 Mo1 O25 93.5(3) . 2_766 ?
O14 Mo1 O27 64.9(3) . . ?
O18 Mo1 O4 101.4(3) . . ?
O18 Mo1 O14 103.4(3) . . ?
O18 Mo1 O15 100.8(3) . . ?
O18 Mo1 O16 101.8(4) . . ?
O18 Mo1 O25 158.7(3) . 2_766 ?
O18 Mo1 O27 161.4(3) . . ?
O15 Mo1 O25 63.2(3) . 2_766 ?
O15 Mo1 O27 91.5(3) . . ?
O16 Mo1 O15 86.0(3) . . ?
O16 Mo1 O25 65.0(3) . 2_766 ?
O16 Mo1 O27 92.8(3) . . ?
O25 Mo1 O27 39.7(3) 2_766 . ?
O10 Mo2 O14 88.3(2) . . ?
O10 Mo2 O6 92.8(3) . 2_766 ?
O10 Mo2 O19 158.1(3) . . ?
O10 Mo2 O26 95.4(3) . . ?
O10 Mo2 O27 66.5(3) . . ?
O14 Mo2 O19 83.4(3) . . ?
O14 Mo2 O26 92.2(3) . . ?
O14 Mo2 O27 64.3(3) . . ?
O20 Mo2 O10 100.1(3) . . ?
O20 Mo2 O14 101.4(3) . . ?
O20 Mo2 O6 102.4(4) . 2_766 ?
O20 Mo2 O19 101.4(3) . . ?
O20 Mo2 O26 159.6(3) . . ?
O20 Mo2 O27 159.6(3) . . ?
O6 Mo2 O14 155.6(3) 2_766 . ?
O6 Mo2 O19 86.7(2) 2_766 . ?
O6 Mo2 O26 63.4(3) 2_766 . ?
O6 Mo2 O27 93.8(3) 2_766 . ?
O19 Mo2 O26 64.9(3) . . ?
O19 Mo2 O27 91.8(3) . . ?
O26 Mo2 O27 40.7(3) . . ?
O7 Mo3 O11 102.3(3) . . ?
O7 Mo3 O12 100.1(3) . . ?
O7 Mo3 O15 102.4(3) . . ?
O7 Mo3 O6 100.5(3) . . ?
O7 Mo3 O25 158.2(3) . 2_766 ?
O7 Mo3 O26 158.9(3) . 2_766 ?
O11 Mo3 O12 157.0(3) . . ?
O11 Mo3 O15 94.6(3) . . ?
O11 Mo3 O6 88.6(3) . . ?
O11 Mo3 O25 95.5(3) . 2_766 ?
O11 Mo3 O26 66.9(3) . 2_766 ?
O12 Mo3 O25 64.0(3) . 2_766 ?
O12 Mo3 O26 90.2(3) . 2_766 ?
O15 Mo3 O12 85.6(3) . . ?
O15 Mo3 O6 155.6(4) . . ?
O15 Mo3 O25 63.4(3) . 2_766 ?
O15 Mo3 O26 96.7(3) . 2_766 ?
O6 Mo3 O12 82.2(3) . . ?
O6 Mo3 O25 92.2(3) . 2_766 ?
O6 Mo3 O26 62.4(3) . 2_766 ?
O26 Mo3 O25 42.1(3) 2_766 2_766 ?
O8 Mo4 O11 101.9(3) . 2_766 ?
O8 Mo4 O13 102.3(3) . . ?
O8 Mo4 O17 102.3(3) . 2_766 ?
O8 Mo4 O19 101.5(3) . . ?
O8 Mo4 O24 158.5(3) . . ?
O11 Mo4 O24 92.1(3) 2_766 . ?
O13 Mo4 O11 155.6(4) . 2_766 ?
O13 Mo4 O17 88.8(3) . 2_766 ?
O13 Mo4 O19 91.6(3) . . ?
O13 Mo4 O24 63.9(3) . . ?
O17 Mo4 O11 83.2(3) 2_766 2_766 ?
O17 Mo4 O24 62.8(3) 2_766 . ?
O19 Mo4 O11 86.4(3) . 2_766 ?
O19 Mo4 O17 155.5(3) . 2_766 ?
O19 Mo4 O24 95.6(3) . . ?
O10 Mo5 O5 84.9(3) . 2_766 ?
O10 Mo5 O24 93.4(3) . 2_766 ?
O10 Mo5 O27 64.8(3) . . ?
O4 Mo5 O10 87.0(2) . . ?
O4 Mo5 O5 157.0(3) . 2_766 ?
O4 Mo5 O24 96.2(3) . 2_766 ?
O4 Mo5 O27 65.5(3) . . ?
O17 Mo5 O10 158.3(3) . . ?
O17 Mo5 O4 92.3(3) . . ?
O17 Mo5 O5 87.4(3) . 2_766 ?
O17 Mo5 O24 65.1(3) . 2_766 ?
O17 Mo5 O27 95.2(4) . . ?
O5 Mo5 O24 62.9(3) 2_766 2_766 ?
O5 Mo5 O27 91.6(3) 2_766 . ?
O9 Mo5 O10 99.8(3) . . ?
O9 Mo5 O4 102.1(3) . . ?
O9 Mo5 O17 101.5(4) . . ?
O9 Mo5 O5 100.4(4) . 2_766 ?
O9 Mo5 O24 157.9(3) . 2_766 ?
O9 Mo5 O27 159.8(3) . . ?
O24 Mo5 O27 42.0(3) 2_766 . ?
O3 Mo6 O12 102.8(3) . . ?
O3 Mo6 O13 98.7(3) . . ?
O3 Mo6 O16 100.1(3) . . ?
O3 Mo6 O5 100.5(4) . . ?
O3 Mo6 O24 156.0(3) . . ?
O3 Mo6 O25 159.3(3) . 2_766 ?
O12 Mo6 O13 158.0(4) . . ?
O12 Mo6 O16 88.9(3) . . ?
O12 Mo6 O24 96.9(3) . . ?
O12 Mo6 O25 66.0(3) . 2_766 ?
O13 Mo6 O24 63.8(3) . . ?
O13 Mo6 O25 92.0(3) . 2_766 ?
O16 Mo6 O13 82.4(3) . . ?
O16 Mo6 O24 93.9(3) . . ?
O16 Mo6 O25 63.6(3) . 2_766 ?
O5 Mo6 O12 93.4(3) . . ?
O5 Mo6 O13 87.6(3) . . ?
O5 Mo6 O16 158.2(4) . . ?
O5 Mo6 O24 64.3(3) . . ?
O5 Mo6 O25 97.7(4) . 2_766 ?
O24 Mo6 O25 44.1(3) . 2_766 ?
O1W Cu1 O1 170.8(3) . . ?
O1W Cu1 N1 94.4(2) . . ?
O1W Cu1 O2 105.4(3) . 2_656 ?
O1W Cu1 N2 93.1(3) . 2_656 ?
O1W Cu1 O2W 90.4(3) . . ?
O1 Cu1 O2 83.0(3) . 2_656 ?
O1 Cu1 O2W 82.2(3) . . ?
N1 Cu1 O1 80.6(2) . . ?
N1 Cu1 O2 99.1(2) . 2_656 ?
N1 Cu1 N2 171.8(2) . 2_656 ?
N1 Cu1 O2W 92.0(3) . . ?
N2 Cu1 O1 92.4(2) 2_656 . ?
N2 Cu1 O2 75.8(2) 2_656 2_656 ?
N2 Cu1 O2W 91.2(3) 2_656 . ?
O2W Cu1 O2 159.8(3) . 2_656 ?
O24 P1 O24 180.0 . 2_766 ?
O25 P1 O24 107.2(4) . . ?
O25 P1 O24 72.8(4) . 2_766 ?
O25 P1 O24 107.2(4) 2_766 2_766 ?
O25 P1 O24 72.8(4) 2_766 . ?
O25 P1 O25 180.0 . 2_766 ?
O25 P1 O26 109.6(4) 2_766 . ?
O25 P1 O26 70.4(4) . . ?
O25 P1 O26 70.4(4) 2_766 2_766 ?
O25 P1 O26 109.6(4) . 2_766 ?
O26 P1 O24 107.1(4) 2_766 . ?
O26 P1 O24 107.1(4) . 2_766 ?
O26 P1 O24 72.9(4) 2_766 2_766 ?
O26 P1 O24 72.9(4) . . ?
O26 P1 O26 180.0 2_766 . ?
O27 P1 O24 109.3(5) 2_766 2_766 ?
O27 P1 O24 109.3(5) . . ?
O27 P1 O24 70.7(5) . 2_766 ?
O27 P1 O24 70.7(5) 2_766 . ?
O27 P1 O25 112.3(5) . . ?
O27 P1 O25 67.7(5) . 2_766 ?
O27 P1 O25 67.7(5) 2_766 . ?
O27 P1 O25 112.3(5) 2_766 2_766 ?
O27 P1 O26 111.0(5) 2_766 . ?
O27 P1 O26 69.0(5) 2_766 2_766 ?
O27 P1 O26 111.0(5) . 2_766 ?
O27 P1 O26 69.0(5) . . ?
O27 P1 O27 180.0 2_766 . ?
Mo2 O10 Mo5 137.6(4) . . ?
Cu1 O1W H1WA 100.9 . . ?
Cu1 O1W H1WB 100.9 . . ?
H1WA O1W H1WB 104.5 . . ?
C5 O1 Cu1 114.4(5) . . ?
Mo5 O4 Mo1 138.4(3) . . ?
C10 N6 H6 119.0 . . ?
C10 N6 C12 122.1(6) . . ?
C12 N6 H6 119.0 . . ?
C4 N1 Cu1 114.9(5) . . ?
C1 N1 Cu1 128.0(5) . . ?
C1 N1 C4 117.1(6) . . ?
Mo1 O14 Mo2 138.6(4) . . ?
C5 N5 H5 119.1 . . ?
C5 N5 C11 121.8(6) . . ?
C11 N5 H5 119.1 . . ?
C10 O2 Cu1 106.8(5) . 2_656 ?
C9 N2 Cu1 117.5(5) . 2_656 ?
C6 N2 Cu1 124.4(6) . 2_656 ?
C6 N2 C9 118.1(7) . . ?
Mo3 O11 Mo4 138.8(4) . 2_766 ?
Mo6 O12 Mo3 138.0(4) . . ?
Mo4 O13 Mo6 138.4(4) . . ?
Mo3 O15 Mo1 140.1(5) . . ?
C2 N3 C1 116.5(7) . . ?
N2 C9 C10 113.6(6) . . ?
N2 C9 C8 119.6(7) . . ?
C8 C9 C10 126.8(7) . . ?
Mo1 O16 Mo6 137.7(4) . . ?
O1 C5 N5 122.7(7) . . ?
O1 C5 C4 118.2(6) . . ?
N5 C5 C4 119.0(6) . . ?
Mo5 O17 Mo4 138.5(4) . 2_766 ?
N6 C10 C9 116.0(7) . . ?
O2 C10 N6 124.4(7) . . ?
O2 C10 C9 119.6(7) . . ?
Mo2 O6 Mo3 139.4(4) 2_766 . ?
Mo4 O19 Mo2 139.2(4) . . ?
N1 C4 C5 111.9(6) . . ?
N1 C4 C3 121.8(7) . . ?
C3 C4 C5 126.3(7) . . ?
Mo6 O5 Mo5 138.4(5) . 2_766 ?
C6 N4 C7 115.6(8) . . ?
N3 C2 H2 118.8 . . ?
N3 C2 C3 122.5(8) . . ?
C3 C2 H2 118.8 . . ?
C9 C8 H8 121.1 . . ?
C7 C8 C9 117.7(8) . . ?
C7 C8 H8 121.1 . . ?
N6 C12 H12A 109.4 . . ?
N6 C12 H12B 109.4 . . ?
N6 C12 C11 111.1(6) . . ?
H12A C12 H12B 108.0 . . ?
C11 C12 H12A 109.4 . . ?
C11 C12 H12B 109.4 . . ?
H3WA O3W H3WB 104.5 . . ?
Cu1 O2W H2WA 111.1 . . ?
Cu1 O2W H2WB 110.9 . . ?
H2WA O2W H2WB 103.0 . . ?
N1 C1 H1 117.5 . . ?
N3 C1 N1 125.1(7) . . ?
N3 C1 H1 117.5 . . ?
N4 C7 C8 122.8(8) . . ?
N4 C7 H7 118.6 . . ?
C8 C7 H7 118.6 . . ?
C4 C3 C2 117.1(7) . . ?
C4 C3 H3 121.4 . . ?
C2 C3 H3 121.4 . . ?
N5 C11 C12 113.5(7) . . ?
N5 C11 H11A 108.9 . . ?
N5 C11 H11B 108.9 . . ?
C12 C11 H11A 108.9 . . ?
C12 C11 H11B 108.9 . . ?
H11A C11 H11B 107.7 . . ?
N2 C6 H6A 116.9 . . ?
N4 C6 N2 126.1(9) . . ?
N4 C6 H6A 116.9 . . ?
Mo5 O24 Mo4 93.1(3) 2_766 . ?
Mo5 O24 Mo6 94.1(3) 2_766 . ?
Mo6 O24 Mo4 93.3(3) . . ?
P1 O24 Mo4 122.6(5) . . ?
P1 O24 Mo5 123.6(4) . 2_766 ?
P1 O24 Mo6 122.1(5) . . ?
P1 O24 O27 52.0(4) . 2_766 ?
O27 O24 Mo4 134.2(5) 2_766 . ?
O27 O24 Mo5 71.7(4) 2_766 2_766 ?
O27 O24 Mo6 129.7(5) 2_766 . ?
Mo1 O25 Mo3 93.2(3) 2_766 2_766 ?
Mo1 O25 Mo6 93.1(3) 2_766 2_766 ?
Mo6 O25 Mo3 91.6(3) 2_766 2_766 ?
P1 O25 Mo1 126.6(5) . 2_766 ?
P1 O25 Mo3 122.6(5) . 2_766 ?
P1 O25 Mo6 120.8(5) . 2_766 ?
Mo2 O26 Mo3 93.8(3) . 2_766 ?
P1 O26 Mo2 124.8(4) . . ?
P1 O26 Mo3 124.9(4) . 2_766 ?
Mo1 O27 Mo5 89.8(3) . . ?
Mo2 O27 Mo1 90.7(3) . . ?
Mo2 O27 Mo5 90.7(3) . . ?
P1 O27 Mo1 125.9(5) . . ?
P1 O27 Mo2 125.4(5) . . ?
P1 O27 Mo5 123.6(5) . . ?
P1 O27 O25 57.8(4) . 2_766 ?
O25 O27 Mo1 68.2(4) 2_766 . ?
O25 O27 Mo2 134.7(6) 2_766 . ?
O25 O27 Mo5 126.9(6) 2_766 . ?
loop_
_geom_bond_atom_site_label_1
_geom_bond_atom_site_label_2
_geom_bond_distance
_geom_bond_site_symmetry_2
_geom_bond_publ_flag
Mo1 O4 1.897(6) . ?
Mo1 O14 1.860(6) . ?
Mo1 O18 1.666(6) . ?
Mo1 O15 1.976(6) . ?
Mo1 O16 1.902(6) . ?
Mo1 O25 2.439(8) 2_766 ?
Mo1 O27 2.501(9) . ?
Mo2 O10 1.858(5) . ?
Mo2 O14 1.936(6) . ?
Mo2 O20 1.677(6) . ?
Mo2 O6 1.866(6) 2_766 ?
Mo2 O19 1.951(6) . ?
Mo2 O26 2.436(9) . ?
Mo2 O27 2.490(9) . ?
Mo3 O7 1.671(5) . ?
Mo3 O11 1.821(6) . ?
Mo3 O12 1.992(6) . ?
Mo3 O15 1.840(6) . ?
Mo3 O6 1.937(6) . ?
Mo3 O25 2.497(9) 2_766 ?
Mo3 O26 2.446(8) 2_766 ?
Mo4 O8 1.659(5) . ?
Mo4 O11 1.972(6) 2_766 ?
Mo4 O13 1.844(6) . ?
Mo4 O17 1.945(6) 2_766 ?
Mo4 O19 1.870(6) . ?
Mo4 O24 2.488(9) . ?
Mo5 O10 1.957(6) . ?
Mo5 O4 1.886(6) . ?
Mo5 O17 1.869(6) . ?
Mo5 O5 1.962(6) 2_766 ?
Mo5 O9 1.702(6) . ?
Mo5 O24 2.423(9) 2_766 ?
Mo5 O27 2.511(9) . ?
Mo6 O3 1.673(5) . ?
Mo6 O12 1.834(6) . ?
Mo6 O13 1.976(6) . ?
Mo6 O16 1.932(7) . ?
Mo6 O5 1.833(7) . ?
Mo6 O24 2.426(8) . ?
Mo6 O25 2.487(8) 2_766 ?
Cu1 O1W 1.958(6) . ?
Cu1 O1 2.025(5) . ?
Cu1 N1 2.000(6) . ?
Cu1 O2 2.319(6) 2_656 ?
Cu1 N2 2.010(6) 2_656 ?
Cu1 O2W 2.260(8) . ?
P1 O24 1.578(8) 2_766 ?
P1 O24 1.578(8) . ?
P1 O25 1.535(8) 2_766 ?
P1 O25 1.535(8) . ?
P1 O26 1.548(9) 2_766 ?
P1 O26 1.548(9) . ?
P1 O27 1.477(9) 2_766 ?
P1 O27 1.477(9) . ?
O1W H1WA 0.8501 . ?
O1W H1WB 0.8497 . ?
O1 C5 1.244(8) . ?
N6 H6 0.8600 . ?
N6 C10 1.329(9) . ?
N6 C12 1.462(9) . ?
N1 C4 1.343(9) . ?
N1 C1 1.339(9) . ?
N5 H5 0.8600 . ?
N5 C5 1.317(9) . ?
N5 C11 1.466(9) . ?
O2 C10 1.208(8) . ?
N2 C9 1.348(10) . ?
N2 C6 1.332(10) . ?
N3 C2 1.326(10) . ?
N3 C1 1.339(10) . ?
C9 C10 1.499(10) . ?
C9 C8 1.380(10) . ?
C5 C4 1.510(10) . ?
C4 C3 1.360(10) . ?
N4 C7 1.337(11) . ?
N4 C6 1.323(11) . ?
C2 H2 0.9300 . ?
C2 C3 1.389(11) . ?
C8 H8 0.9300 . ?
C8 C7 1.378(11) . ?
C12 H12A 0.9700 . ?
C12 H12B 0.9700 . ?
C12 C11 1.503(11) . ?
O3W H3WA 0.8497 . ?
O3W H3WB 0.8501 . ?
O2W H2WA 0.8803 . ?
O2W H2WB 0.8799 . ?
C1 H1 0.9300 . ?
C7 H7 0.9300 . ?
C3 H3 0.9300 . ?
C11 H11A 0.9700 . ?
C11 H11B 0.9700 . ?
C6 H6A 0.9300 . ?
O24 O27 1.769(12) 2_766 ?
loop_
_geom_torsion_atom_site_label_1
_geom_torsion_atom_site_label_2
_geom_torsion_atom_site_label_3
_geom_torsion_atom_site_label_4
_geom_torsion
_geom_torsion_site_symmetry_1
_geom_torsion_site_symmetry_2
_geom_torsion_site_symmetry_3
_geom_torsion_site_symmetry_4
_geom_torsion_publ_flag
Cu1 O1 C5 N5 179.8(6) . . . . ?
Cu1 O1 C5 C4 2.6(9) . . . . ?
Cu1 N1 C4 C5 -0.6(8) . . . . ?
Cu1 N1 C4 C3 -178.1(6) . . . . ?
Cu1 N1 C1 N3 176.3(6) . . . . ?
Cu1 O2 C10 N6 152.4(7) 2_656 . . . ?
Cu1 O2 C10 C9 -27.6(8) 2_656 . . . ?
Cu1 N2 C9 C10 3.6(8) 2_656 . . . ?
Cu1 N2 C9 C8 -177.9(5) 2_656 . . . ?
Cu1 N2 C6 N4 176.8(7) 2_656 . . . ?
O8 Mo4 O13 Mo6 -153.8(7) . . . . ?
O8 Mo4 O19 Mo2 157.5(6) . . . . ?
O10 Mo5 O4 Mo1 -54.8(6) . . . . ?
O10 Mo5 O17 Mo4 -16.1(12) . . . 2_766 ?
O1 C5 C4 N1 -1.3(10) . . . . ?
O1 C5 C4 C3 176.0(8) . . . . ?
O7 Mo3 O11 Mo4 -154.2(6) . . . 2_766 ?
O7 Mo3 O15 Mo1 158.2(6) . . . . ?
O4 Mo1 O14 Mo2 -49.7(6) . . . . ?
O4 Mo5 O17 Mo4 -103.9(6) . . . 2_766 ?
N6 C12 C11 N5 58.9(9) . . . . ?
N1 C4 C3 C2 0.7(12) . . . . ?
O14 Mo1 O4 Mo5 53.5(6) . . . . ?
O14 Mo2 O10 Mo5 -55.7(5) . . . . ?
N5 C5 C4 N1 -178.7(7) . . . . ?
N5 C5 C4 C3 -1.4(12) . . . . ?
O18 Mo1 O4 Mo5 157.1(6) . . . . ?
O18 Mo1 O14 Mo2 -151.4(5) . . . . ?
O3 Mo6 O12 Mo3 155.2(6) . . . . ?
O3 Mo6 O5 Mo5 -155.0(6) . . . 2_766 ?
N2 C9 C10 N6 -160.7(7) . . . . ?
N2 C9 C10 O2 19.2(11) . . . . ?
N2 C9 C8 C7 2.1(11) . . . . ?
O11 Mo3 O15 Mo1 -98.1(6) . . . . ?
O11 Mo4 O13 Mo6 19.3(13) 2_766 . . . ?
O11 Mo4 O19 Mo2 56.0(6) 2_766 . . . ?
O12 Mo3 O11 Mo4 12.5(13) . . . 2_766 ?
O12 Mo3 O15 Mo1 58.8(6) . . . . ?
O12 Mo6 O5 Mo5 101.3(7) . . . 2_766 ?
O13 Mo4 O19 Mo2 -99.6(6) . . . . ?
O13 Mo6 O12 Mo3 -11.5(13) . . . . ?
O13 Mo6 O5 Mo5 -56.6(7) . . . 2_766 ?
O20 Mo2 O10 Mo5 -157.0(5) . . . . ?
O15 Mo1 O4 Mo5 -102.9(6) . . . . ?
O15 Mo1 O14 Mo2 27.0(10) . . . . ?
O15 Mo3 O11 Mo4 102.0(7) . . . 2_766 ?
N3 C2 C3 C4 -0.4(13) . . . . ?
C9 N2 C6 N4 -1.5(14) . . . . ?
C9 C8 C7 N4 -4.0(12) . . . . ?
O16 Mo1 O4 Mo5 -35.2(10) . . . . ?
O16 Mo1 O14 Mo2 106.5(6) . . . . ?
O16 Mo6 O12 Mo3 55.0(6) . . . . ?
O16 Mo6 O5 Mo5 5.7(14) . . . 2_766 ?
C5 N5 C11 C12 73.6(9) . . . . ?
C5 C4 C3 C2 -176.3(7) . . . . ?
O17 Mo4 O13 Mo6 -51.4(7) 2_766 . . . ?
O17 Mo4 O19 Mo2 -9.0(11) 2_766 . . . ?
O17 Mo5 O4 Mo1 103.5(6) . . . . ?
C10 N6 C12 C11 146.8(7) . . . . ?
C10 C9 C8 C7 -179.7(7) . . . . ?
O6 Mo2 O10 Mo5 99.9(5) 2_766 . . . ?
O6 Mo3 O11 Mo4 -53.7(7) . . . 2_766 ?
O6 Mo3 O15 Mo1 -1.4(11) . . . . ?
O19 Mo2 O10 Mo5 11.8(11) . . . . ?
O19 Mo4 O13 Mo6 104.1(7) . . . . ?
C4 N1 C1 N3 -1.9(12) . . . . ?
O5 Mo5 O4 Mo1 14.7(11) 2_766 . . . ?
O5 Mo5 O17 Mo4 53.1(7) 2_766 . . 2_766 ?
O5 Mo6 O12 Mo3 -103.3(7) . . . . ?
O9 Mo5 O4 Mo1 -154.2(6) . . . . ?
O9 Mo5 O17 Mo4 153.2(6) . . . 2_766 ?
C2 N3 C1 N1 2.1(13) . . . . ?
C8 C9 C10 N6 20.9(11) . . . . ?
C8 C9 C10 O2 -159.1(8) . . . . ?
C12 N6 C10 O2 1.0(13) . . . . ?
C12 N6 C10 C9 -179.0(7) . . . . ?
C1 N1 C4 C5 177.8(7) . . . . ?
C1 N1 C4 C3 0.3(11) . . . . ?
C1 N3 C2 C3 -0.9(13) . . . . ?
C7 N4 C6 N2 -0.3(15) . . . . ?
C11 N5 C5 O1 -0.8(12) . . . . ?
C11 N5 C5 C4 176.4(7) . . . . ?
C6 N2 C9 C10 -178.0(7) . . . . ?
C6 N2 C9 C8 0.5(11) . . . . ?
C6 N4 C7 C8 3.1(13) . . . . ?
O24 Mo4 O13 Mo6 8.7(6) . . . . ?
O24 Mo4 O19 Mo2 -35.7(6) . . . . ?
O24 Mo5 O4 Mo1 38.3(6) 2_766 . . . ?
O24 Mo5 O17 Mo4 -8.2(5) 2_766 . . 2_766 ?
O24 Mo6 O12 Mo3 -38.8(7) . . . . ?
O24 Mo6 O5 Mo5 5.3(6) . . . 2_766 ?
O24 P1 O25 Mo1 -117.3(6) 2_766 . . 2_766 ?
O24 P1 O25 Mo1 62.7(6) . . . 2_766 ?
O24 P1 O25 Mo3 118.8(6) 2_766 . . 2_766 ?
O24 P1 O25 Mo3 -61.2(6) . . . 2_766 ?
O24 P1 O25 Mo6 -176.0(5) . . . 2_766 ?
O24 P1 O25 Mo6 4.0(5) 2_766 . . 2_766 ?
O24 P1 O26 Mo2 58.9(6) 2_766 . . . ?
O24 P1 O26 Mo2 -121.1(6) . . . . ?
O24 P1 O26 Mo3 113.1(6) . . . 2_766 ?
O24 P1 O26 Mo3 -66.9(6) 2_766 . . 2_766 ?
O24 P1 O27 Mo1 121.7(7) 2_766 . . . ?
O24 P1 O27 Mo1 -58.3(7) . . . . ?
O24 P1 O27 Mo2 -116.1(6) 2_766 . . . ?
O24 P1 O27 Mo2 63.9(6) . . . . ?
O24 P1 O27 Mo5 -176.8(5) . . . . ?
O24 P1 O27 Mo5 3.2(5) 2_766 . . . ?
O24 P1 O27 O25 118.9(5) 2_766 . . 2_766 ?
O24 P1 O27 O25 -61.1(5) . . . 2_766 ?
O25 Mo1 O4 Mo5 -40.0(6) 2_766 . . . ?
O25 Mo1 O14 Mo2 41.6(6) 2_766 . . . ?
O25 Mo3 O11 Mo4 38.4(7) 2_766 . . 2_766 ?
O25 Mo3 O15 Mo1 -4.3(5) 2_766 . . . ?
O25 Mo6 O12 Mo3 -6.4(5) 2_766 . . . ?
O25 Mo6 O5 Mo5 35.1(7) 2_766 . . 2_766 ?
O25 P1 O24 Mo4 -114.5(6) 2_766 . . . ?
O25 P1 O24 Mo4 65.5(6) . . . . ?
O25 P1 O24 Mo5 -54.6(6) . . . 2_766 ?
O25 P1 O24 Mo5 125.4(6) 2_766 . . 2_766 ?
O25 P1 O24 Mo6 4.2(5) 2_766 . . . ?
O25 P1 O24 Mo6 -175.8(5) . . . . ?
O25 P1 O24 O27 -58.0(5) . . . 2_766 ?
O25 P1 O24 O27 122.0(5) 2_766 . . 2_766 ?
O25 P1 O26 Mo2 122.8(6) . . . . ?
O25 P1 O26 Mo2 -57.2(6) 2_766 . . . ?
O25 P1 O26 Mo3 -3.0(5) . . . 2_766 ?
O25 P1 O26 Mo3 177.0(5) 2_766 . . 2_766 ?
O25 P1 O27 Mo1 -177.3(5) . . . . ?
O25 P1 O27 Mo1 2.7(5) 2_766 . . . ?
O25 P1 O27 Mo2 -55.0(7) . . . . ?
O25 P1 O27 Mo2 125.0(7) 2_766 . . . ?
O25 P1 O27 Mo5 -115.7(7) 2_766 . . . ?
O25 P1 O27 Mo5 64.3(7) . . . . ?
O25 P1 O27 O25 180.000(2) . . . 2_766 ?
O26 Mo2 O10 Mo5 36.3(5) . . . . ?
O26 Mo3 O11 Mo4 6.7(6) 2_766 . . 2_766 ?
O26 Mo3 O15 Mo1 -30.9(6) 2_766 . . . ?
O26 P1 O24 Mo4 3.1(5) . . . . ?
O26 P1 O24 Mo4 -176.9(5) 2_766 . . . ?
O26 P1 O24 Mo5 63.0(6) 2_766 . . 2_766 ?
O26 P1 O24 Mo5 -117.0(6) . . . 2_766 ?
O26 P1 O24 Mo6 121.8(6) . . . . ?
O26 P1 O24 Mo6 -58.2(6) 2_766 . . . ?
O26 P1 O24 O27 -120.3(5) . . . 2_766 ?
O26 P1 O24 O27 59.7(5) 2_766 . . 2_766 ?
O26 P1 O25 Mo1 -53.3(7) 2_766 . . 2_766 ?
O26 P1 O25 Mo1 126.7(7) . . . 2_766 ?
O26 P1 O25 Mo3 -177.2(5) 2_766 . . 2_766 ?
O26 P1 O25 Mo3 2.8(5) . . . 2_766 ?
O26 P1 O25 Mo6 68.1(6) 2_766 . . 2_766 ?
O26 P1 O25 Mo6 -111.9(6) . . . 2_766 ?
O26 P1 O27 Mo1 59.6(7) 2_766 . . . ?
O26 P1 O27 Mo1 -120.4(7) . . . . ?
O26 P1 O27 Mo2 1.8(5) . . . . ?
O26 P1 O27 Mo2 -178.2(5) 2_766 . . . ?
O26 P1 O27 Mo5 -58.9(6) 2_766 . . . ?
O26 P1 O27 Mo5 121.1(6) . . . . ?
O26 P1 O27 O25 -123.1(5) . . . 2_766 ?
O26 P1 O27 O25 56.9(5) 2_766 . . 2_766 ?
O27 Mo1 O4 Mo5 -8.9(5) . . . . ?
O27 Mo1 O14 Mo2 13.3(5) . . . . ?
O27 Mo2 O10 Mo5 6.9(5) . . . . ?
O27 Mo5 O4 Mo1 8.9(5) . . . . ?
O27 Mo5 O17 Mo4 -38.3(6) . . . 2_766 ?
O27 P1 O24 Mo4 -56.6(6) . . . . ?
O27 P1 O24 Mo4 123.4(6) 2_766 . . . ?
O27 P1 O24 Mo5 -176.7(5) . . . 2_766 ?
O27 P1 O24 Mo5 3.3(5) 2_766 . . 2_766 ?
O27 P1 O24 Mo6 62.1(6) . . . . ?
O27 P1 O24 Mo6 -117.9(6) 2_766 . . . ?
O27 P1 O24 O27 180.000(2) . . . 2_766 ?
O27 P1 O25 Mo1 2.8(5) 2_766 . . 2_766 ?
O27 P1 O25 Mo1 -177.2(5) . . . 2_766 ?
O27 P1 O25 Mo3 58.9(6) . . . 2_766 ?
O27 P1 O25 Mo3 -121.1(6) 2_766 . . 2_766 ?
O27 P1 O25 Mo6 -55.8(6) . . . 2_766 ?
O27 P1 O25 Mo6 124.2(6) 2_766 . . 2_766 ?
O27 P1 O26 Mo2 -1.9(5) . . . . ?
O27 P1 O26 Mo2 178.1(5) 2_766 . . . ?
O27 P1 O26 Mo3 -127.6(6) . . . 2_766 ?
O27 P1 O26 Mo3 52.4(6) 2_766 . . 2_766 ?
