#------------------------------------------------------------------------------
#$Date: 2021-07-05 20:37:49 +0300 (Mon, 05 Jul 2021) $
#$Revision: 267173 $
#$URL: file:///home/coder/svn-repositories/cod/cif/7/70/75/7707512.cif $
#------------------------------------------------------------------------------
#
# This file is available in the Crystallography Open Database (COD),
# http://www.crystallography.net/
#
# All data on this site have been placed in the public domain by the
# contributors.
#
data_7707512
loop_
_publ_author_name
'Brach\<nakov\'a, Barbora'
'Monco\<l, J\'an'
'Pavlik, J\'an'
'\<Salitro\<s, Ivan'
'Bonhommeau, S\'ebastien'
'Valverde-Mu\~noz, Francisco Javier'
'Salmon, Lionel'
'Moln\'ar, G\'abor'
'Routaboul, Lucie'
'Bousseksou, Azzedine'
_publ_section_title
;
 Spin crossover metal-organic frameworks with inserted photoactive guests:
 on the quest to control the spin state by photoisomerization.
;
_journal_issue                   25
_journal_name_full
'Dalton transactions (Cambridge, England : 2003)'
_journal_page_first              8877
_journal_page_last               8888
_journal_paper_doi               10.1039/d1dt01057c
_journal_volume                  50
_journal_year                    2021
_chemical_formula_moiety         'C16 H8 Fe N6 Pt, C12 H10 N2'
_chemical_formula_sum            'C28 H18 Fe N8 Pt'
_chemical_formula_weight         717.44
_space_group_crystal_system      triclinic
_space_group_IT_number           2
_space_group_name_Hall           '-P 1'
_space_group_name_H-M_alt        'P -1'
_atom_sites_solution_hydrogens   geom
_atom_sites_solution_primary     dual
_audit_creation_date             2020-10-19
_audit_creation_method
;
Olex2 1.3
(compiled 2020.07.31 svn.rc2a77460 for OlexSys, GUI svn.r6145)
;
_audit_update_record
;
2020-11-05 deposited with the CCDC.	2021-05-27 downloaded from the CCDC.
;
_cell_angle_alpha                79.253(3)
_cell_angle_beta                 76.780(3)
_cell_angle_gamma                89.413(3)
_cell_formula_units_Z            1
_cell_length_a                   6.8681(2)
_cell_length_b                   7.3161(2)
_cell_length_c                   13.4430(5)
_cell_measurement_reflns_used    25268
_cell_measurement_temperature    100.0
_cell_measurement_theta_max      71.94
_cell_measurement_theta_min      3.44
_cell_volume                     645.67(4)
_computing_cell_refinement
;
X-Area Recipe 1.33.0.0 (STOE, 2015)
;
_computing_data_collection
;
X-Area Pilatus3_SV 1.31.150.0 (STOE, 2018)
;
_computing_data_reduction
;
X-Area Integrate 1.73.1.0 (STOE, 2018)
X-Area LANA 1.73.2.0 (STOE, 2018)
;
_computing_molecular_graphics    'Olex2 1.3 (Dolomanov et al., 2009)'
_computing_publication_material
;
STOE & Cie GmbH, X-Area, software package for collecting single-crystal or
multi-domain crystal data on STOE area-detector diffractometers, for image 
processing, for the correction and scaling of reflection intensities and 
for outlier rejection, version 1.84, Darmstadt 2018
;
_computing_structure_refinement  'SHELXL 2018/3 (Sheldrick, 2015)'
_computing_structure_solution    'SHELXT  (Sheldrick, 2015)'
_diffrn_ambient_temperature      100
_diffrn_detector                 'Pilatus3R 300K'
_diffrn_detector_area_resol_mean 5.81
_diffrn_detector_type            'DECTRIS PILATUS3R 300K'
_diffrn_measured_fraction_theta_full 0.993
_diffrn_measured_fraction_theta_max 0.972
_diffrn_measurement_device       'Eulerian 4-circle diffractometer'
_diffrn_measurement_device_type  'Stoe Stadivari with Xenocs Genix3D Cu HF'
_diffrn_measurement_method       '\w scans'
_diffrn_radiation_collimation    '0.6 mm diameter'
_diffrn_radiation_monochromator  'Graded multilayer mirror'
_diffrn_radiation_polarisn_norm  270
_diffrn_radiation_type           'Cu K\a'
_diffrn_radiation_wavelength     1.54186
_diffrn_reflns_av_R_equivalents  0.0472
_diffrn_reflns_av_unetI/netI     0.0306
_diffrn_reflns_Laue_measured_fraction_full 0.993
_diffrn_reflns_Laue_measured_fraction_max 0.972
_diffrn_reflns_limit_h_max       5
_diffrn_reflns_limit_h_min       -8
_diffrn_reflns_limit_k_max       9
_diffrn_reflns_limit_k_min       -8
_diffrn_reflns_limit_l_max       16
_diffrn_reflns_limit_l_min       -16
_diffrn_reflns_number            11677
_diffrn_reflns_point_group_measured_fraction_full 0.993
_diffrn_reflns_point_group_measured_fraction_max 0.972
_diffrn_reflns_theta_full        67.686
_diffrn_reflns_theta_max         71.895
_diffrn_reflns_theta_min         3.439
_diffrn_source                   'Genix3D Cu HF'
_diffrn_source_current           0.600
_diffrn_source_power             0.030
_diffrn_source_voltage           50
_exptl_absorpt_coefficient_mu    14.762
_exptl_absorpt_correction_T_max  0.5898
_exptl_absorpt_correction_T_min  0.0443
_exptl_absorpt_correction_type   multi-scan
_exptl_absorpt_process_details
;
STOE LANA, J. Koziskova, F. Hahn, J. Richter, J. Kozisek, 
Acta Chimica Slovaca, vol. 9, no. 2, 2016, pp. 136 - 140.
;
_exptl_crystal_colour            red
_exptl_crystal_density_diffrn    1.845
_exptl_crystal_description       block
_exptl_crystal_F_000             346
_exptl_crystal_size_max          0.18
_exptl_crystal_size_mid          0.13
_exptl_crystal_size_min          0.05
_refine_diff_density_max         2.993
_refine_diff_density_min         -2.266
_refine_diff_density_rms         0.249
_refine_ls_extinction_method     none
_refine_ls_goodness_of_fit_ref   1.069
_refine_ls_hydrogen_treatment    constr
_refine_ls_matrix_type           full
_refine_ls_number_parameters     175
_refine_ls_number_reflns         2462
_refine_ls_number_restraints     0
_refine_ls_restrained_S_all      1.069
_refine_ls_R_factor_all          0.0494
_refine_ls_R_factor_gt           0.0493
_refine_ls_shift/su_max          0.000
_refine_ls_shift/su_mean         0.000
_refine_ls_structure_factor_coef Fsqd
_refine_ls_weighting_details
'w=1/[\s^2^(Fo^2^)+(0.1036P)^2^+1.1896P] where P=(Fo^2^+2Fc^2^)/3'
_refine_ls_weighting_scheme      calc
_refine_ls_wR_factor_gt          0.1252
_refine_ls_wR_factor_ref         0.1255
_reflns_Friedel_coverage         0.000
_reflns_number_gt                2456
_reflns_number_total             2462
_reflns_threshold_expression     'I > 2\s(I)'
_cod_data_source_file            d1dt01057c2.cif
_cod_data_source_block           1@100K
_cod_depositor_comments
'Adding full bibliography for 7707511--7707512.cif.'
_cod_database_code               7707512
_shelx_shelxl_version_number     2018/3
_shelx_space_group_comment
;
The symmetry employed for this shelxl refinement is uniquely defined
by the following loop, which should always be used as a source of
symmetry information in preference to the above space-group names.
They are only intended as comments.
;
_shelx_estimated_absorpt_t_max   0.526
_shelx_estimated_absorpt_t_min   0.176
_olex2_refinement_description
;
1. Fixed Uiso
 At 1.2 times of:
  All C(H) groups
2.a Aromatic/amide H refined with riding coordinates:
 C3(H3), C4(H4), C6(H6), C7(H7), C10(H10), C11(H11), C12(H12), C13(H13),
 C14(H14)
;
_shelx_res_file
;
TITL BB70 clathrate
    bb70.res
    created by SHELXL-2018/3 at 16:32:20 on 19-Oct-2020
CELL 1.54186 6.8681 7.3161 13.443 79.253 76.78 89.413
ZERR 1 0.0002 0.0002 0.0005 0.003 0.003 0.003
LATT 1
SFAC C H Fe N Pt
UNIT 28 18 1 8 1

L.S. 8 0 0
PLAN  5
SIZE 0.05 0.13 0.18
TEMP -173.15
CONF
BOND
list 4
MORE -1
BOND $H
fmap 2 53
acta
REM <olex2.extras>
REM <HklSrc "%.\\jm1840a.hkl">
REM </olex2.extras>

WGHT    0.103600    1.189600
FVAR       0.59721
PT1   5    0.000000    0.500000    0.500000    10.50000    0.01890    0.02382 =
         0.02291   -0.00508   -0.00288    0.00117
FE1   3    0.500000    1.000000    0.500000    10.50000    0.01845    0.02260 =
         0.02030   -0.00480   -0.00123    0.00007
N1    4    0.314451    0.820003    0.482017    11.00000    0.02713    0.02581 =
         0.01909   -0.00408   -0.00189    0.00278
N2    4    0.673156    0.798674    0.529974    11.00000    0.02320    0.03146 =
         0.02213   -0.00309   -0.00063   -0.00170
N3    4    0.350839    0.967663    0.649526    11.00000    0.02139    0.02324 =
         0.02232   -0.00473    0.00045    0.00151
C1    1    0.199605    0.700097    0.486384    11.00000    0.02429    0.02398 =
         0.02392   -0.00774   -0.00480   -0.00220
C2    1    0.788137    0.682712    0.524868    11.00000    0.02175    0.02551 =
         0.02251   -0.00244   -0.00489    0.00406
C3    1    0.152718    0.984262    0.674857    11.00000    0.02989    0.03213 =
         0.02639   -0.00646   -0.00633   -0.00253
AFIX  43
H3    2    0.081068    0.993573    0.621560    11.00000   -1.20000
AFIX   0
C4    1    0.046136    0.988560    0.775956    11.00000    0.02894    0.03807 =
         0.02653   -0.00229    0.00190    0.00257
AFIX  43
H4    2   -0.094807    1.001431    0.790933    11.00000   -1.20000
AFIX   0
C5    1    0.150648    0.973558    0.854953    11.00000    0.03738    0.03559 =
         0.02215   -0.00607    0.00168   -0.00308
C6    1    0.354564    0.944685    0.830000    11.00000    0.03704    0.03470 =
         0.02248   -0.00364   -0.00432   -0.00182
AFIX  43
H6    2    0.428330    0.926887    0.882634    11.00000   -1.20000
AFIX   0
C7    1    0.450170    0.942020    0.727122    11.00000    0.03024    0.02959 =
         0.02156   -0.00441   -0.00258   -0.00460
AFIX  43
H7    2    0.589730    0.921542    0.710738    11.00000   -1.20000
AFIX   0
C8    1    0.046513    0.989460    0.958629    11.00000    0.03702    0.03123 =
         0.02981   -0.00415   -0.00100   -0.00414

N4    4   -0.000416    0.497416    0.954259    11.00000    0.03615    0.04050 =
         0.02932   -0.00764   -0.00204   -0.00806
C9    1    0.189927    0.457689    0.893217    11.00000    0.04061    0.03742 =
         0.03182   -0.00957   -0.00015   -0.00521
C10   1    0.203635    0.476800    0.785939    11.00000    0.04668    0.03454 =
         0.03145   -0.00273   -0.00552   -0.00533
AFIX  43
H10   2    0.090619    0.509976    0.757669    11.00000   -1.20000
AFIX   0
C11   1    0.387167    0.445977    0.721535    11.00000    0.04733    0.03554 =
         0.03029   -0.00722    0.00372   -0.00392
AFIX  43
H11   2    0.399008    0.460948    0.648643    11.00000   -1.20000
AFIX   0
C12   1    0.552111    0.393974    0.762147    11.00000    0.04447    0.04144 =
         0.03773   -0.01027    0.00040   -0.00615
AFIX  43
H12   2    0.676269    0.374130    0.717658    11.00000   -1.20000
AFIX   0
C13   1    0.532830    0.371178    0.869696    11.00000    0.03903    0.04376 =
         0.04025   -0.01810   -0.00418   -0.00167
AFIX  43
H13   2    0.644947    0.334787    0.898137    11.00000   -1.20000
AFIX   0
C14   1    0.353286    0.400740    0.935275    11.00000    0.04382    0.04581 =
         0.02935   -0.01044   -0.00659   -0.00425
AFIX  43
H14   2    0.341359    0.382421    1.008291    11.00000   -1.20000
AFIX   0
HKLF 4




REM  BB70 clathrate
REM wR2 = 0.1255, GooF = S = 1.069, Restrained GooF = 1.069 for all data
REM R1 = 0.0493 for 2456 Fo > 4sig(Fo) and 0.0494 for all 2462 data
REM 175 parameters refined using 0 restraints

END

WGHT      0.1034      1.2192

REM Highest difference peak  2.993,  deepest hole -2.266,  1-sigma level  0.249
Q1    1   0.0492  0.5240  0.4280  11.00000  0.05    2.99
Q2    1  -0.0600  0.4133  0.4850  11.00000  0.05    2.56
Q3    1   0.9875  0.8271  0.5020  11.00000  0.05    2.25
Q4    1   0.4163  0.9592  0.5819  11.00000  0.05    1.04
Q5    1   0.8534  0.5782  0.6332  11.00000  0.05    0.96
;
_shelx_res_checksum              48413
_shelx_hkl_file
;
  -2  -3  -4  136.39    7.53   0
  -3  -4  -8  240.44   18.36   0
  -3  -3  -5 2490.15   31.04   0
   0  -3  -3  755.25   12.85   0
   1  -4  -7  316.38   14.64   0
  -4  -3  -7  401.85   20.00   0
  -4  -1  -4  298.84   11.54   0
  -2  -4  -6  824.63   21.20   0
  -1  -3  -3 1655.34   19.20   0
   2  -2  -3 1168.37   13.70   0
  -4  -2  -5  450.96   15.33   0
  -1  -4  -5  471.56   15.00   0
  -5  -2  -8  266.11   25.34   0
  -3  -4  -7  346.01   18.33   0
  -2  -2  -2 3800.28   25.79   0
   2  -3  -5  536.04   13.51   0
  -3  -2  -3  139.27    7.97   0
  -2  -5 -11   50.36   14.61   0
  -2  -5 -10  141.52   20.14   0
  -2  -4  -5  919.70   20.68   0
  -4  -3  -6  200.99   14.64   0
  -2  -3  -3  288.69   10.29   0
  -1  -5  -8  758.89   25.06   0
   0  -5  -9  118.08   16.88   0
  -5  -2  -7  334.45   24.79   0
  -3  -4  -6  158.64   13.77   0
  -3  -3  -4 1226.66   21.42   0
  -5  -3  -9  273.25   30.03   0
  -3  -5 -11  456.62   30.31   0
  -1  -4  -4  276.36   10.43   0
   0  -4  -4 1009.27   18.48   0
   1  -4  -5   73.75    8.69   0
  -3  -5  -9  375.24   24.91   0
  -2  -5  -7  482.06   21.16   0
  -1  -3  -2 3024.94   24.91   0
   0  -5  -7  111.11   13.36   0
   0  -3  -2  761.50   12.62   0
  -5  -3  -8  269.41   25.92   0
  -4  -3  -5  249.45   14.57   0
  -2  -4  -4 1270.86   22.62   0
  -1  -5  -6  528.95   19.79   0
   2  -3  -4  775.54   15.08   0
  -3  -5  -8  206.35   17.27   0
  -2  -5  -6  411.90   19.29   0
   0  -5  -6  224.73   14.71   0
  -4  -1  -3  587.93   13.68   0
  -1  -4  -3  808.63   16.65   0
  -5  -3  -7  308.98   23.93   0
   0  -4  -3  605.48   13.84   0
  -4  -4  -6  665.20   24.87   0
  -2  -2  -1 2912.86   23.26   0
   1  -3  -2 1330.83   17.01   0
   1  -2  -1  785.30   10.11   0
  -3  -4  -4  437.33   16.31   0
  -2  -5  -5  221.29   15.28   0
  -2  -4  -3  724.37   17.73   0
  -4  -3  -4  466.46   16.51   0
  -1  -6  -9  195.84   20.64   0
  -1  -1   0 2299.10   14.71   0
  -2  -6  -8  189.29   17.52   0
  -1  -5  -4 1030.22   23.08   0
  -1  -3  -1 1142.49   16.37   0
   1  -4  -3  539.83   15.06   0
  -3  -6  -9  197.52   24.59   0
  -2  -5  -4  211.37   14.24   0
   0  -4  -2 1495.00   21.53   0
   2  -3  -3  263.02   10.02   0
  -3  -6  -8  214.11   21.94   0
  -3  -4  -3  237.29   13.14   0
  -5  -4  -7  220.57   25.06   0
  -2  -4  -2 2439.81   29.36   0
  -2  -3  -1  848.61   15.59   0
  -1  -5  -3 1700.64   27.25   0
  -4  -4  -4 1205.93   27.55   0
  -4  -3  -3  235.49   12.87   0
  -3  -6  -7  133.65   15.80   0
  -3  -5  -4  343.68   17.43   0
  -3  -2  -1   53.63    6.39   0
  -2  -5  -3  209.46   13.36   0
   1  -5  -4 1275.24   24.59   0
   1  -3  -1 1271.79   16.41   0
  -2  -2   0 3242.33   24.21   0
  -1  -4  -1  132.53    9.39   0
  -4  -5  -5  233.56   18.80   0
  -3  -4  -2  363.34   14.50   0
  -1  -3   0 1861.02   20.39   0
   0  -6  -5  437.81   17.82   0
   0  -4  -1 3467.87   30.77   0
  -1  -6  -4  301.69   16.89   0
  -1  -5  -2 1426.70   24.13   0
   0  -3   0  159.13    7.31   0
  -3  -5  -3  438.69   17.61   0
  -2  -4  -1  782.95   17.43   0
  -5  -4  -5   94.02   20.12   0
  -4  -4  -3  654.73   20.16   0
   0  -6  -4  819.67   22.86   0
  -4  -3  -2  131.21   10.39   0
  -2  -3   0  470.94   11.84   0
  -4  -5  -4  273.18   16.98   0
  -3   0 -11  123.39   23.71   0
   0   0 -13  571.76   39.03   0
  -4   1  -9   54.84   23.79   0
  -4   1  -8  253.01   25.98   0
  -4   1  -7  434.19   28.03   0
  -2  -1  -5  887.06   17.62   0
   2  -1  -9  421.16   23.57   0
  -2   0 -13  504.64   32.91   0
  -1  -1 -12  484.78   29.17   0
  -1  -1  -3 1360.30   14.82   0
  -4   1 -10  111.63   25.83   0
  -3   0 -12  110.01   26.18   0
  -2   0  -2 2476.20   17.11   0
  -4   1  -6  294.03   18.67   0
   0  -2  -8  690.93   21.12   0
   0  -2  -7 1011.29   21.49   0
   0  -1  -2  847.62    9.31   0
  -4   1 -11  222.55   29.59   0
  -3   0  -4 1466.25   20.56   0
  -1  -2  -8   63.67   12.75   0
   0  -2  -6 1241.70   21.00   0
  -3  -1  -9 1582.06   38.87   0
  -3  -1  -8  626.22   24.74   0
  -1  -2  -7  467.44   16.96   0
  -1  -1 -13  690.12   35.22   0
   1  -2  -7  920.38   20.64   0
  -3  -1 -10  572.84   29.45   0
  -1  -2 -10   74.95   16.52   0
   0  -1 -13  149.97   27.35   0
   1  -2  -6  356.70   12.11   0
  -4   0  -9  691.67   33.87   0
  -3  -1 -11  662.79   33.14   0
  -2  -1 -13  108.86   23.87   0
  -1  -2  -6  166.27   10.86   0
   0  -2  -5 1107.46   17.70   0
  -4   0 -10  962.43   39.65   0
  -4   0  -8 1175.06   35.97   0
  -3  -1 -12  601.81   34.34   0
  -2  -2  -9 1367.40   34.26   0
  -2  -2  -8 1149.43   28.63   0
   1  -2 -10  249.31   20.78   0
   1  -2  -5  139.83    7.77   0
  -2  -2  -7 1216.50   25.93   0
  -1  -2 -12   42.28   15.13   0
   0  -2 -12  425.21   27.69   0
  -4   0 -12  182.87   29.71   0
  -3  -1 -13  310.08   30.12   0
   0  -2  -4  777.95   13.13   0
   1  -2 -11  802.45   31.86   0
  -2  -2  -6 1642.11   26.00   0
  -1  -1  -2 6455.35   26.46   0
  -3  -1  -5 1919.59   25.72   0
  -1  -2 -13  111.38   23.22   0
   2  -2  -8  826.89   25.62   0
   2  -2  -7 1152.45   24.29   0
   2  -2  -6 1427.15   22.83   0
  -4  -1 -10   32.92   22.57   0
  -4  -1  -9  135.11   22.79   0
  -3  -2  -9  524.23   24.77   0
  -2  -2 -13  283.10   23.60   0
   0  -2 -13  417.29   33.42   0
   1  -2 -12  150.11   30.82   0
  -4  -1 -11  299.31   29.53   0
  -3  -2  -8  284.60   18.30   0
  -2  -2  -5 2007.00   25.15   0
  -4  -1 -12   79.35   25.35   0
  -4  -1  -8  328.09   21.86   0
  -3  -2 -12  184.81   26.52   0
  -1  -3 -10 1052.64   31.11   0
  -1  -3  -9 1049.98   28.48   0
  -3  -2  -7  739.16   21.91   0
  -1  -3 -11  476.23   25.91   0
   0  -3 -10  362.19   20.57   0
   2  -2  -5 1814.42   21.37   0
  -4  -1  -7  259.09   17.37   0
  -4   0  -5 1187.41   22.29   0
  -3  -2 -13  308.90   29.64   0
  -1  -3  -7 1798.36   29.44   0
   0  -3 -11  176.78   20.42   0
  -3  -1  -4 1277.88   18.29   0
  -2  -3 -10   13.50   16.56   0
  -1  -3 -12  361.07   26.02   0
   0  -2  -3  663.26   10.57   0
  -2  -3  -8   64.98   12.97   0
   1  -3  -9  537.70   23.06   0
   1  -3  -8  850.92   22.97   0
  -3  -2  -6  287.90   14.08   0
  -1  -3  -6  679.38   17.48   0
   1  -3  -7  562.88   16.95   0
  -2  -3  -7  241.63   14.56   0
  -2  -2  -4 3195.12   27.62   0
   1  -2  -3 1042.16   12.69   0
  -4  -2 -11  976.80   40.64   0
  -4  -2 -10  363.99   28.03   0
  -4  -1  -6  267.73   14.83   0
  -4  -2 -12  350.12   31.64   0
  -4  -2  -9  555.09   27.73   0
  -3  -3 -10  852.89   33.33   0
   1  -3 -11  765.37   33.71   0
   1  -3  -6 1242.36   20.67   0
  -3  -3  -9 1206.09   33.68   0
   2  -2  -4 3073.73   24.01   0
  -4  -2  -8  685.11   27.21   0
  -2  -3  -6  543.71   16.70   0
  -3  -3 -13  263.19   30.12   0
  -4  -2  -7  717.52   23.89   0
  -3  -3  -7 1042.26   25.98   0
  -1  -4 -10   64.46   16.23   0
  -1  -4  -9  132.15   16.15   0
  -2  -3  -5  140.07    9.90   0
  -2  -2  -3 1907.78   20.10   0
   0  -4 -10  544.86   25.41   0
  -2  -4  -9  826.07   28.72   0
  -1  -1  -1 3847.33   18.63   0
   0  -4 -11  557.72   28.89   0
   0  -4  -8  523.83   19.41   0
   0  -2  -2   50.60    4.59   0
  -2  -4 -12  204.21   24.95   0
  -4  -2  -6  859.88   22.33   0
  -3  -3  -6 1470.05   27.19   0
  -2  -4  -8  448.58   21.20   0
  -1  -4  -7  391.95   17.14   0
  -2   4  -7  552.53   28.16   0
  -1   1  -6 2128.91   33.43   0
   0   2  -8  706.18   27.46   0
   0   0  -4 5496.35   38.36   0
   0   1  -7  756.15   23.87   0
   1   1  -7  660.17   24.89   0
   2   3  -8  409.56   32.33   0
   2   4  -8  485.90   38.13   0
  -2   5  -7  132.78   27.02   0
   3   3  -7  295.47   34.78   0
  -1   2  -8   37.95   16.53   0
   0   3  -9  257.04   26.50   0
   0   4  -9  332.29   29.54   0
   1   3  -9  590.01   35.46   0
  -3   3  -5 1330.59   35.33   0
  -2   2  -7 1750.91   39.27   0
  -2   4  -8  463.52   31.16   0
  -1   1  -7 1811.35   35.85   0
  -1   3  -9  831.72   36.37   0
  -1   4  -9  112.74   24.58   0
   0   0  -5 2885.95   32.76   0
   2   1  -7   84.25   17.12   0
   2   2  -8  955.13   39.36   0
   0   1  -8  369.67   22.76   0
   3   2  -7  165.54   28.42   0
  -3   4  -6  312.49   30.72   0
  -2   1  -5 1102.78   26.04   0
   1   2  -9  491.81   33.00   0
  -3   3  -6  882.18   32.35   0
  -1   2  -9   23.81   19.80   0
   3   1  -6  910.98   30.37   0
  -1   1  -8 1118.82   33.01   0
   2   3  -9  227.73   36.06   0
   0   3 -10  337.60   31.83   0
  -1   0  -3  561.64   12.00   0
  -1   3 -10  280.65   29.55   0
  -3   2  -5  163.08   17.73   0
  -3   3  -7  830.72   34.71   0
   0   0  -7 3013.00   42.15   0
   0   1  -9  314.14   24.63   0
   0   2 -10  426.29   31.95   0
  -3   2  -6  577.23   25.57   0
  -2   2  -9 1483.70   44.02   0
  -1   1  -9 1766.94   42.59   0
  -1   2 -10  131.67   24.04   0
  -3   4  -8  243.17   34.39   0
  -1   0  -2 4163.90   24.82   0
  -3   2  -7  367.18   23.55   0
  -3   3  -8 1188.16   41.40   0
  -2   1  -8  123.24   19.27   0
  -1   0  -7 1452.35   31.56   0
   0   0  -8 1931.64   37.49   0
   0   3 -11   45.13   26.60   0
  -1   3 -11  259.51   29.24   0
   0   1 -10  475.99   29.07   0
   2   0  -7  779.61   24.26   0
  -2   2 -10  902.65   37.53   0
   0   2 -11  684.48   37.13   0
   2   1  -9  163.43   24.77   0
  -3   2  -8  385.19   26.29   0
  -2   1  -9  322.58   24.20   0
  -1   0  -8  481.25   22.29   0
  -1   2 -11  263.52   27.11   0
   2   2 -10  189.14   36.05   0
  -3   3  -9  772.83   38.43   0
  -3   4  -9   55.42   35.53   0
  -1   0  -9  589.33   25.64   0
   1   0  -9   50.08   16.72   0
   2   0  -8 1201.48   31.61   0
  -3   2  -9  281.30   26.00   0
  -2   0  -6  510.21   18.31   0
  -2   0  -5  977.10   20.72   0
  -2   1 -10  137.54   21.99   0
  -2   2 -11  384.24   29.50   0
  -3   1  -7  501.66   23.75   0
  -3   1  -6  697.04   24.15   0
  -3   3 -10  309.28   32.67   0
   2   1 -10  125.67   31.52   0
  -2   0  -8  891.30   28.29   0
  -2   0  -4 1736.94   22.76   0
  -1   2 -12   29.14   22.00   0
   1   1 -11  421.06   32.87   0
  -3   1  -8  833.07   30.21   0
  -3   2 -10   71.11   23.05   0
  -1   0 -10  642.10   28.68   0
   0  -1  -6   14.10    8.58   0
   0  -1  -5  831.29   16.99   0
   1  -1  -6 1787.45   26.58   0
  -2   1 -11  272.40   27.41   0
   0  -1  -7  272.53   14.52   0
   1   0 -10   92.57   20.72   0
  -3   1  -9 1195.09   37.36   0
   0  -1  -8  402.06   19.08   0
   0   0 -11 1076.67   39.61   0
  -1  -1  -6 1617.08   27.40   0
  -1   0 -11 1200.52   40.46   0
  -1  -1  -8  643.60   24.77   0
  -2   1 -12  367.78   32.10   0
   0  -1  -3  908.51   13.20   0
   2  -1  -5  184.79   10.27   0
  -1  -1  -9 1605.11   39.01   0
   2   0 -10  166.76   26.88   0
  -1   1 -13  696.77   42.61   0
   1  -1  -9  952.75   30.31   0
  -4   2  -8  597.08   40.25   0
  -3   0  -6  496.23   21.21   0
  -1   6   0  232.53   15.41   0
   0   6  -1  284.01   15.36   0
   1   3  -3  878.50   17.00   0
   0   3  -3  512.12   13.26   0
   2   5  -2  187.00   13.76   0
   2   6  -1  402.83   20.55   0
   3   3  -2 1454.41   25.36   0
  -1   2  -2 1027.55   14.25   0
   0   1  -2 2398.58   18.08   0
   1   2  -3  765.98   15.05   0
   1   4  -3  130.00   11.22   0
   1   7   0  196.98   18.43   0
   2   1  -2  367.45    9.65   0
   0   4  -3  962.84   21.33   0
   3   2  -2  320.08   13.40   0
   4   3  -1   29.61   13.36   0
   0   2  -3  787.28   14.49   0
   0   7   0  152.31   21.23   0
   4   4  -1  573.89   27.76   0
  -2   3  -1  615.94   14.75   0
  -2   4  -1  967.09   22.57   0
  -1   5  -2 1149.99   26.65   0
   1   6  -2  140.29   17.47   0
   0   6  -2  796.42   27.32   0
   1   6  -3   46.82   17.29   0
   2   3  -4  383.18   19.46   0
  -2   4  -2 1336.51   27.75   0
  -1   2  -3  193.09    8.63   0
   0   6  -3  668.05   27.56   0
   2   4  -4 1033.15   31.68   0
   4   3  -2  195.12   20.91   0
  -2   3  -2  637.00   16.13   0
   0   2  -4 1675.04   24.70   0
   0   5  -4  256.99   18.99   0
   3   2  -3   15.30   10.76   0
   3   5  -3  418.51   29.12   0
  -1   4  -4  416.33   18.66   0
   2   6  -3  365.19   23.19   0
  -1   3  -4  751.70   19.46   0
   0   7  -2  117.23   17.48   0
   2   5  -4   56.56   18.36   0
   1   3  -5 1823.49   33.48   0
  -1   1  -2 3692.59   25.39   0
   0   3  -5  157.55   13.01   0
   0   4  -5  756.27   25.01   0
  -2   4  -3  614.50   21.09   0
   0   6  -4  529.96   25.73   0
   1   6  -4  115.10   18.42   0
   3   3  -4 1280.25   34.11   0
  -2   3  -3   41.55    8.72   0
  -1   2  -4  473.81   14.22   0
   1   5  -5  855.21   30.71   0
   2   4  -5  504.37   25.76   0
   1   1  -4 1611.52   22.95   0
   1   2  -5  305.62   13.23   0
   4   4  -3  365.56   31.08   0
  -2   2  -2 4482.48   33.12   0
  -1   4  -5  315.00   17.44   0
   0   2  -5  549.83   15.60   0
   3   5  -4  386.56   29.47   0
   4   3  -3   40.73   19.81   0
  -1   6  -4  346.04   23.97   0
   2   5  -5  147.97   21.03   0
   3   2  -4  209.43   15.13   0
   0   3  -6  137.27   14.48   0
   0   4  -6  732.02   26.57   0
   1   3  -6  568.20   22.64   0
   1   6  -5   61.35   18.05   0
  -2   3  -4  161.90   12.42   0
  -2   5  -4  324.10   24.01   0
  -1   2  -5  252.91   13.46   0
   0   5  -6  169.80   21.75   0
   1   5  -6  326.12   25.35   0
  -1   4  -6  213.81   18.52   0
   1   2  -6  768.94   24.54   0
  -1   3  -6 1277.85   30.09   0
  -1   6  -5  209.99   25.62   0
   1   1  -5 2982.58   37.06   0
  -2   4  -5  513.89   25.32   0
   0   1  -5  627.02   17.96   0
   2   0  -2  699.86   11.89   0
   0   4  -7  858.65   36.52   0
   3   2  -5  106.70   19.63   0
   2   1  -5  211.88   16.72   0
  -2   2  -4 3387.36   42.19   0
   1   0  -3  347.00   11.30   0
   0   5  -7  182.74   25.14   0
   3   1  -4 1432.78   33.32   0
   0   0  -2 3223.93   26.60   0
   0   1  -6   44.10   18.94   0
  -1   1  -5 1195.52   31.69   0
  -1   5   6  949.36   26.86   0
  -1   4   3  550.85   13.28   0
   0   3   1  714.36   11.08   0
   1   3   1 1026.81   14.26   0
   1   5   4  913.01   21.06   0
   5   4   8  224.63   21.83   0
   1   4   2  170.61    8.75   0
   4   4   5  533.74   19.84   0
  -1   5   5  878.24   23.46   0
   0   4   2 1269.59   17.84   0
   0   6   8  558.68   32.06   0
   2   5   4  201.82   13.34   0
   2   6   7  346.52   22.51   0
   3   5   5  598.51   21.13   0
   3   4   3  250.25   12.97   0
   3   6   8  174.09   18.67   0
   0   2   0 9890.16   33.94   0
   1   2   0 3342.74   21.85   0
   2   3   1  825.36   15.09   0
   2   4   2 2411.37   28.27   0
   5   4   7  231.66   21.68   0
   1   5   3 1665.09   26.09   0
   2   6   6  255.63   20.62   0
   3   1   1 1876.44   18.37   0
   0   6   6  977.39   31.64   0
   4   3   3  250.52   13.63   0
   4   4   4 1133.32   26.61   0
  -1   5   4 1201.02   24.53   0
   1   6   5  283.04   18.98   0
   3   2   1   61.13    6.72   0
  -1   4   2  445.55   11.93   0
   2   6   5  530.74   23.48   0
   5   4   6  223.39   21.00   0
   0   6   5  572.92   25.01   0
   1   4   1  135.11    8.90   0
   2   2   0 3369.46   25.78   0
   1   3   0 1913.10   20.61   0
   3   4   2  346.47   15.13   0
   4   5   5  266.86   18.78   0
   0   3   0  154.02    6.92   0
   1   5   2 1507.56   24.82   0
   4   2   2 1157.63   20.82   0
  -1   5   3  939.88   21.43   0
   3   5   3  464.24   19.17   0
   3   6   5  142.94   17.29   0
  -1   6   6   61.26   23.51   0
   0   6   4  925.20   27.45   0
   2   5   2  532.66   17.94   0
  -2   4   3  570.08   17.00   0
   5   4   5  101.26   18.86   0
   4   5   4  286.43   19.19   0
  -1   4   1  310.39   10.53   0
   1   6   3  301.51   17.25   0
   1   7   6  237.78   25.19   0
   1   4   0 2470.47   27.39   0
   2   6   3  583.17   22.34   0
   3   6   4  334.60   20.17   0
  -1   5   2 1192.02   23.06   0
   0   4   0 2859.87   27.65   0
   0   6   3 1005.64   25.97   0
   1   2  -1 2884.88   22.46   0
   3   5   2  502.14   20.42   0
   0   5   1  127.04    9.89   0
   3   2   0  420.25   12.38   0
  -1   6   4  471.12   23.28   0
   2   4   0  959.86   20.27   0
   2   7   5  138.58   19.60   0
   4   4   2  972.54   25.93   0
   1   1  -1 3221.58   19.22   0
   1   3  -1  676.14   13.27   0
   1   6   2   29.54   11.80   0
   3   3   0 1527.55   25.12   0
  -2   4   2 1362.43   22.85   0
   0   3  -1  392.51    9.64   0
   3   6   3  132.00   16.29   0
   2   6   2  770.20   22.75   0
   3   1   0  734.46   12.48   0
  -1   5   1 1274.46   23.58   0
  -1   6   3  171.20   17.22   0
   1   5   0 1063.24   22.16   0
   2   3  -1  647.30   15.37   0
   4   3   1  382.31   16.24   0
   4   6   4  601.84   27.85   0
   0   1  -1   36.64    2.46   0
   0   5   0   59.89    9.05   0
   1   4  -1  420.84   13.82   0
   3   5   1  569.47   21.54   0
   0   4  -1  337.97   12.20   0
   1   6   1   65.45   12.67   0
   2   5   0  195.90   13.76   0
   1   7   3  572.21   26.77   0
   2   1  -1  524.76    9.68   0
   3   6   2  181.57   17.55   0
   4   5   2  204.53   18.53   0
   2   6   1  128.34   14.71   0
   2   7   3  150.84   18.09   0
   0   7   3  253.27   21.71   0
   4   6   3  384.64   25.10   0
   1   3  -2 1323.34   19.93   0
  -1   5   0 1214.63   23.21   0
   0   3  -2 1338.59   18.49   0
   1   5  -1  656.28   19.06   0
   1   7   2  488.86   23.99   0
   3   2  -1  473.31   13.34   0
   3   3  -1 1690.67   27.06   0
   3   5   0  312.22   18.71   0
   0   5  -1  474.45   15.61   0
   1   6   0  843.93   23.50   0
   2   7   2  206.55   18.58   0
   0   7   2  183.12   19.24   0
   1   4  -2  285.81   12.79   0
   2   3  -2  720.81   17.15   0
   2   5  -1  244.91   15.23   0
   3   6   1  106.44   13.17   0
   4   3   0  368.90   16.75   0
  -1   6   1  179.72   16.11   0
   0   4  -2 1341.93   21.96   0
   2   6   0  501.14   21.23   0
   4   2   0  776.55   18.30   0
   4   4   0  537.35   23.05   0
   3   2   7  623.24   16.13   0
   0   3  11  180.73   17.09   0
   1   3   7 1753.38   28.02   0
   3   2  13  303.33   16.71   0
   1   3  12  332.16   19.41   0
   2   3   9  279.03   15.83   0
   4   0   5  988.85   18.40   0
   4   1   7  282.49   13.90   0
  -1   3   8  881.68   26.95   0
  -1   3   9  553.51   25.08   0
   0   3   6  279.23   13.02   0
   3   1   4 1257.52   16.99   0
  -1   3  10  537.30   27.41   0
   0   3  12  160.37   17.22   0
   1   3   6  723.99   18.04   0
   2   3  12  339.68   20.08   0
   3   2   6  257.03   11.85   0
  -1   2   3 1002.17   12.00   0
   2   2   4 3289.87   26.79   0
   2   3  13  144.92   17.11   0
   4   1   6  296.98   13.67   0
   4   2  10  351.34   18.04   0
   4   2  11  965.01   27.20   0
  -1   3   6 1367.93   25.11   0
   3   3  10  799.66   24.53   0
   3   3  11  675.36   23.80   0
   4   2   9  622.64   21.86   0
   4   2  12  311.07   18.84   0
   3   3   9 1156.22   26.69   0
   2   3   6  510.72   15.72   0
   3   3   8  721.51   21.32   0
   3   3  13  278.71   19.78   0
  -1   3   5 1269.31   20.93   0
   1   4   9  152.02   18.03   0
   1   4  10   73.47   17.59   0
   3   3   7 1024.61   23.48   0
   0   3   4  922.31   15.86   0
   0   4   9  649.48   28.95   0
   0   4  10  544.65   29.41   0
   1   4   8  228.79   18.34   0
   3   1   3  598.73   12.13   0
   4   1   5  174.08   10.66   0
   0   4   8  545.71   24.85   0
   2   4   9  860.11   28.33   0
   2   4  11  782.61   29.64   0
   2   4  12  183.36   19.72   0
   2   4   8  475.98   21.03   0
   3   3   6 1468.18   25.97   0
   4   3  10   72.45   14.89   0
   4   2   6  961.51   22.19   0
   4   3   9  548.33   22.52   0
   2   4   7  847.18   23.98   0
   3   0   2 1008.65   12.25   0
   3   4  10  141.74   16.20   0
   3   4  11   66.51   15.28   0
   1   4   6  219.23   14.17   0
   3   4   9  211.02   17.07   0
   3   4  12   53.53   11.58   0
   4   3   8  468.53   20.51   0
   2   3   4  127.88    7.56   0
  -1   4   7  382.66   20.40   0
   0   3   3  900.89   13.51   0
   3   3   5 2651.98   31.60   0
   3   4   8  232.18   16.08   0
   1   3   3 1853.62   20.22   0
   2   4   6  802.29   21.22   0
   1   4   5  544.45   16.52   0
   4   2   5  505.67   16.23   0
  -2   3   5  444.20   13.20   0
  -1   4   6  145.12   13.18   0
   3   4   7  328.80   16.64   0
   5   2   8  274.34   21.35   0
   1   5   9  544.07   27.14   0
   1   5  11  301.79   24.35   0
   2   5  11   43.61   17.03   0
   3   2   3  168.43    8.68   0
  -1   3   3 1162.91   14.88   0
   2   4   5  944.95   20.96   0
   2   5   9  340.11   22.77   0
   0   5   9  106.25   22.02   0
   0   5  10  285.34   28.82   0
   2   3   3  327.27   10.69   0
   4   3   6  194.03   13.92   0
  -1   4   5   84.24   11.52   0
   0   5   8  220.79   21.77   0
   2   5   8   83.31   16.95   0
   3   1   2 1573.38   17.33   0
   3   3   4 1429.65   23.03   0
   3   4   6  150.66   12.82   0
   0   2   1 3040.20   18.32   0
   0   4   4 1025.36   18.55   0
   1   4   4  282.02   10.59   0
   1   5   7  800.35   26.70   0
   3   5  10  207.53   18.71   0
   3   5  11  383.84   22.98   0
   0   5   7   92.81   16.16   0
   5   3   9  270.91   23.64   0
   1   3   2 3082.73   24.33   0
   2   5   7  403.81   20.34   0
   4   2   4 1518.06   24.08   0
   1   5   6  474.67   21.07   0
   2   4   4 1325.99   22.93   0
   0   5   6  188.65   16.34   0
   4   3   5  236.60   14.32   0
   4   4   7  791.46   25.16   0
  -1   4   4  789.95   17.08   0
   2   5   6  401.59   19.29   0
   1   4   3  882.86   16.91   0
   3   5   7  238.27   18.68   0
   0   4   3  674.33   14.06   0
   2   3   2  531.04   12.94   0
   3   2   2  657.57   14.15   0
  -4  -3  -7  411.70   20.20   0
  -3  -4 -12   46.92   24.04   0
  -3  -4  -9  202.94   19.68   0
  -3  -3  -5 2510.66   31.42   0
  -3  -1  -2 1791.84   19.23   0
  -2  -4  -7  810.87   22.46   0
  -3  -4  -8  205.29   17.22   0
  -3  -2  -3  162.80    8.92   0
  -2  -2  -2 4039.71   27.13   0
  -1  -4  -6  201.84   11.36   0
   0  -4  -7 1011.38   20.87   0
  -5  -1  -5 1837.25   31.55   0
  -4  -4 -11  547.75   32.36   0
  -4  -2  -4 1473.74   24.76   0
  -3  -4  -7  346.70   18.38   0
  -1  -3  -3 1602.39   18.35   0
  -6  -1  -9  213.70   36.51   0
  -4  -4 -10  172.61   19.42   0
  -3  -3  -4 1321.39   22.64   0
  -3   0  -1  227.65    7.00   0
  -4  -4  -9  661.86   30.21   0
  -5  -3  -8  286.31   23.68   0
  -5   0  -4  271.65   14.17   0
  -3  -4  -6  167.14   14.14   0
  -1  -4  -5  474.00   14.15   0
   0  -3  -3  589.93   10.84   0
  -4  -4  -8  351.60   20.29   0
  -4  -3  -5  247.80   15.03   0
  -2  -4  -5  994.28   21.19   0
  -5  -3  -7  259.23   21.23   0
  -5  -2  -5  124.01   14.14   0
  -4  -4  -7  780.55   27.74   0
  -3  -2  -2  589.59   13.34   0
  -2  -5 -11   57.68   25.73   0
  -6  -1  -7  275.27   26.94   0
  -5  -1  -4  851.18   21.63   0
  -4  -2  -3  978.44   20.25   0
  -6  -2  -8  286.77   29.58   0
  -3  -3  -3 1798.14   25.09   0
  -5  -3  -6  489.04   23.76   0
  -4  -3  -4  461.00   17.27   0
  -2  -4  -4 1326.47   22.83   0
  -1  -5  -8  734.47   24.46   0
  -1  -3  -2 2738.88   23.36   0
  -2  -5  -7  523.10   21.46   0
  -6  -2  -7  572.81   31.27   0
  -6  -1  -6   18.42   19.43   0
  -5  -4  -8  154.63   22.01   0
  -5  -2  -4  355.35   16.75   0
  -5   0  -3  501.54   17.96   0
  -3  -5  -7  245.58   19.49   0
   0  -2  -1 3055.57   18.79   0
  -4  -5  -9  260.40   23.87   0
  -5  -4  -7  190.44   21.11   0
  -5  -1  -3 1023.76   22.93   0
   0  -4  -4  943.97   16.82   0
  -3  -5  -6  488.69   22.35   0
  -3  -3  -2 2703.53   29.99   0
  -2  -4  -3  732.01   17.51   0
  -1  -5  -6  536.44   18.60   0
  -4  -5  -7  159.23   20.19   0
  -5  -4  -6  224.37   20.20   0
  -4  -4  -4 1201.96   27.94   0
  -4   0  -1 1150.46   18.04   0
  -3  -4  -3  249.19   13.31   0
  -5  -2  -3  279.96   16.14   0
  -4  -1  -1  503.51   13.81   0
  -3  -5  -5  593.75   21.95   0
  -2  -3  -1  798.60   15.22   0
  -1  -5  -5  905.25   21.58   0
  -1  -3  -1 1146.68   16.08   0
  -4  -5  -6   47.86   16.43   0
  -2  -2   0 3585.33   26.92   0
  -6  -3  -6    7.42   18.47   0
   0  -4  -3  766.85   15.81   0
  -5  -4  -5   47.70   16.07   0
  -4  -3  -2  169.45   12.50   0
  -1  -4  -2  156.39    9.59   0
  -5  -1  -2  993.30   22.60   0
  -3  -3  -1 2315.93   28.24   0
  -4  -5  -5  266.90   19.61   0
  -4  -4  -3  652.71   21.85   0
  -3  -4  -2  375.47   14.94   0
  -3  -2   0  485.80   13.01   0
  -6  -3  -5  277.91   23.60   0
  -5  -4  -4  273.69   19.39   0
  -5  -2  -2  334.96   16.41   0
  -5  -5  -6  863.30   33.42   0
  -2  -5  -3  189.72   13.21   0
  -4  -5  -4  292.99   19.35   0
  -4  -3  -1  382.67   15.95   0
  -2  -1   1  524.94   10.00   0
  -1  -5  -3 1692.58   27.27   0
   0  -4  -2 1287.02   20.28   0
   0  -2   0 9932.56   35.45   0
  -1  -4  -1  132.03    9.79   0
  -1  -1   1 3346.90   19.89   0
  -6  -3  -4  281.40   23.04   0
  -5  -5  -5  791.92   31.16   0
  -3  -4  -1  169.33   12.52   0
  -1  -6  -6  265.67   20.15   0
   0  -5  -4  248.45   12.60   0
  -4  -2   0  977.52   20.67   0
  -2  -2   1 1291.93   17.18   0
  -4   1 -11  212.08   27.09   0
  -1  -1  -3 1373.95   15.23   0
  -1   0 -13  305.75   36.57   0
  -4   1  -4  100.13   12.01   0
  -3   0 -12  125.88   25.94   0
  -2  -1 -11  266.21   25.41   0
  -2   0 -13  520.85   34.77   0
  -3  -1  -8  648.54   25.47   0
  -4   0 -10  937.40   38.69   0
  -4   1 -12  109.32   25.96   0
  -3  -1  -7  683.70   23.43   0
  -5   2  -9  214.48   35.96   0
  -3  -1  -6  599.81   18.34   0
  -5   2  -6  328.40   29.84   0
  -4   0  -5 1175.69   26.19   0
  -5   1  -8  719.86   38.11   0
  -4   0 -12  226.03   27.84   0
  -4   1  -3  476.03   14.41   0
  -1  -2  -9   37.75   11.84   0
  -2  -2  -9 1275.75   31.55   0
  -2  -2  -8 1218.80   28.48   0
  -2  -1 -13  157.23   25.90   0
  -2  -1  -3  987.78   14.42   0
  -1  -2  -6  122.01    9.08   0
  -1  -1 -13  682.12   46.83   0
   0  -2  -8  654.27   18.23   0
   0  -2  -9  858.28   23.38   0
  -5   1  -6  692.54   29.31   0
  -4  -1 -10   36.52   20.97   0
  -4  -1  -9  103.00   20.47   0
  -4  -1  -8  324.44   22.64   0
  -1  -1  -2 6554.21   27.28   0
  -4  -1  -7  264.25   18.78   0
  -4   0  -4 2143.91   29.22   0
  -3  -1  -4 1531.74   21.90   0
  -3   0  -2 1030.57   14.55   0
  -2  -2  -6 1604.42   25.54   0
  -1  -2 -11  380.16   23.06   0
  -1  -2  -5  252.17    9.53   0
  -5   0  -9  276.52   29.49   0
   0  -2 -10  441.32   21.44   0
  -5   0  -8  265.68   25.99   0
  -3  -2 -10  230.70   22.33   0
  -3  -2  -9  545.97   25.07   0
  -3  -2  -8  309.31   18.77   0
   0  -2  -5  967.03   14.01   0
  -4  -1  -6  293.40   16.42   0
  -5   0  -7  417.16   26.07   0
  -3  -2 -11  173.55   22.91   0
  -5   0  -6  294.21   19.84   0
  -3  -2 -12  229.28   25.03   0
  -3  -2  -6  295.61   14.12   0
  -1  -2  -4  582.57   11.30   0
  -3  -1  -3  640.08   13.19   0
  -2  -2 -13  438.08   31.39   0
  -5  -1 -10  580.88   33.94   0
  -4  -2 -10  321.17   25.14   0
  -4   0  -3 1439.37   21.34   0
  -4  -2  -8  627.52   25.64   0
  -3  -2 -13  317.26   28.18   0
  -2  -2  -4 3146.23   27.48   0
   1  -2  -6  357.03    9.87   0
  -5   0  -5   62.92   12.91   0
  -4  -2 -12  305.97   28.00   0
  -4  -2  -7  673.00   23.66   0
  -5  -1  -7  698.28   27.80   0
  -2  -3 -10   28.62   14.48   0
  -2  -3  -8   73.36   11.79   0
  -1  -3  -9  933.71   23.77   0
  -1  -3  -8  784.78   19.73   0
  -2  -3 -11   48.66   17.54   0
  -1  -3 -10 1052.14   28.24   0
  -1  -3  -7 1392.71   23.20   0
  -4  -2  -6  925.54   24.50   0
  -3  -3  -9 1189.21   33.42   0
  -3   0  -1  227.59    6.87   0
  -1  -2  -3  337.38    7.75   0
  -5  -1  -6  941.93   28.07   0
  -3  -3 -11  697.43   32.13   0
  -3  -3  -8  792.03   25.87   0
  -3  -2  -4  647.91   15.43   0
  -2  -3 -12  329.03   26.15   0
  -1  -3 -11  459.27   25.51   0
  -1  -1  -1 3866.82   18.88   0
  -2  -3  -6  528.78   16.31   0
  -2  -2  -3 1978.45   20.77   0
   1  -2  -5  142.87    5.96   0
  -6   0  -8  428.09   39.04   0
  -5  -2 -11   68.54   23.96   0
  -5  -2 -10  216.24   26.71   0
  -5  -2  -9  163.13   24.13   0
  -5   0  -4  319.89   15.56   0
  -3  -3  -7  980.93   25.76   0
  -4  -2  -5  512.17   18.35   0
  -4   0  -2 2113.73   23.99   0
   0  -3  -9  288.87   17.72   0
   0  -3  -8  367.61   15.57   0
  -5  -1  -5 1756.32   33.69   0
  -4  -3 -11  448.84   31.51   0
  -4  -3  -9  499.50   27.27   0
  -4  -1  -3  558.52   14.89   0
  -2  -3 -13  157.11   32.80   0
   0  -3  -7  182.95   10.58   0
  -4  -3 -12  289.29   29.37   0
  -4  -3  -8  426.78   23.48   0
  -2  -3  -5  130.69    9.93   0
  -1  -3  -5 1015.29   17.57   0
  -6  -1  -9  223.78   36.41   0
   0  -3  -6  267.34   10.92   0
   0   0  -3 5471.49   32.43   0
   1   4  -8  116.78   30.65   0
  -3   2  -2  511.10   19.76   0
  -3   4  -6  287.09   28.60   0
  -2   1  -4   88.32   11.99   0
  -1   5  -8  275.27   29.34   0
   1   3  -8  727.11   36.81   0
  -3   3  -6  917.13   33.24   0
  -2   2  -7 1796.91   40.35   0
  -2   4  -8  427.29   30.67   0
   0   2  -8  710.18   29.67   0
  -2   1  -5 1096.09   26.53   0
  -2   3  -8    8.42   18.76   0
  -1   2  -8   41.94   17.23   0
  -3   2  -5  144.67   17.89   0
  -3   4  -7  185.16   26.67   0
  -2   5  -8  119.21   24.78   0
  -1   3  -9  784.30   35.39   0
  -1   4  -9  124.28   25.76   0
   0   3  -9  231.75   27.74   0
   0   4  -9  376.34   33.91   0
   1   2  -8  332.80   26.55   0
  -2   1  -6  887.16   26.25   0
   1   0  -4   86.70    6.16   0
  -3   2  -6  589.32   26.28   0
  -2   2  -8  855.37   32.23   0
  -2   4  -9  735.92   37.01   0
  -1   0  -3  544.19   11.88   0
  -4   4  -5  477.64   36.99   0
  -3   4  -8  250.01   29.02   0
  -1   2  -9   40.30   19.17   0
   0   2  -9  600.98   31.31   0
   1   3  -9  576.23   41.17   0
  -4   5  -5  267.66   54.06   0
  -3   2  -7  424.39   26.10   0
  -3   3  -8 1196.52   42.34   0
  -2   1  -7  474.29   22.81   0
  -4   3  -3  363.18   27.02   0
  -1   0  -5 1038.38   20.97   0
  -4   3  -5  699.82   35.03   0
  -2   2  -9 1341.95   40.69   0
   1   0  -5   18.04    6.06   0
   0   3 -10  353.71   34.34   0
   1   2  -9  524.27   37.72   0
  -4   3  -6  439.57   31.00   0
  -3   4  -9   41.00   18.77   0
  -2   1  -8  133.81   19.12   0
  -2   3 -10   66.38   25.32   0
  -1   0  -6 1567.36   27.52   0
   1   1  -8  709.82   26.89   0
  -4   4  -7  498.52   36.63   0
  -3   1  -6  827.36   28.12   0
  -4   3  -7  409.90   30.54   0
   0   2 -10  323.77   30.65   0
  -3   1  -7  575.05   26.80   0
  -2   2 -10  944.00   38.36   0
  -1   0  -7 1461.43   29.14   0
   1   0  -6  135.99   11.16   0
  -4   2  -5  740.80   32.48   0
  -4   2  -4 1184.85   35.89   0
  -2   0  -5 1084.74   23.51   0
  -2   0  -4 1716.86   25.49   0
  -2   1  -9  331.51   24.49   0
  -4   2  -6  774.26   33.38   0
  -2   0  -6  583.91   20.86   0
  -1   3 -11  259.84   33.64   0
  -2   3 -11  137.50   25.98   0
  -2   0  -7 1274.45   30.61   0
  -1   0  -8  474.69   20.62   0
  -1   2 -11  259.86   30.01   0
  -2   1 -10  114.64   21.66   0
   0   0  -8 1777.87   33.22   0
   0   1 -10  442.46   28.97   0
  -4   2  -2 1726.96   33.30   0
  -2   0  -8  883.07   28.56   0
   0   2 -11  693.98   43.92   0
  -4   2  -9  394.56   30.23   0
  -3   1  -1 2540.07   24.34   0
  -4   3 -10  190.54   31.51   0
  -3   2 -11  371.54   31.80   0
  -4   1  -6  320.21   24.53   0
  -4   1  -5  355.23   22.49   0
  -3   0  -6  442.00   20.47   0
  -3   1 -10  292.99   28.43   0
  -2   1 -11  251.87   26.87   0
  -1   1 -11  269.48   28.27   0
  -3   0  -7  442.16   23.04   0
  -3   0  -5   84.94    9.73   0
  -5   3  -6  130.50   44.62   0
  -4   1  -8  240.12   25.23   0
  -4   1  -4   77.47   14.30   0
  -4   2 -10  679.57   37.58   0
  -3   0  -8  177.38   20.18   0
  -1   2 -12    6.46   28.25   0
   1   0  -8   44.14   14.10   0
  -4   1  -9   70.38   23.32   0
  -5   3  -8  316.59   40.64   0
  -1  -1  -6 1573.69   24.43   0
  -4   2 -11  289.84   30.84   0
  -1  -1  -7 2183.17   31.53   0
  -1   1 -12  754.80   40.64   0
   0   0 -10  564.44   27.09   0
  -5   2  -7  413.85   35.98   0
  -4   1 -10   89.78   19.67   0
   0  -1  -6   17.01    7.05   0
  -5   2  -8  238.02   32.53   0
  -3   1 -12  413.29   31.24   0
  -2  -1  -7  587.38   20.57   0
  -1  -1  -8  609.71   20.44   0
  -3   4   2  518.08   21.80   0
   0   6  -1  286.53   16.83   0
   1   5  -2 1150.06   28.04   0
   1   6  -1   93.74   15.70   0
   2   4  -2 1119.07   26.18   0
   2   7   1  128.41   22.49   0
  -1   7   1  491.16   27.38   0
   2   2  -2 1638.00   20.76   0
  -1   5  -2 1162.40   26.21   0
  -1   6  -1  114.89   15.57   0
   0   3  -3  608.53   15.66   0
  -3   4   1  470.82   19.05   0
  -2   5  -1  523.82   20.79   0
   0   4  -3 1008.43   22.52   0
   0   1  -2 2400.37   18.16   0
   3   6   0  345.10   29.73   0
  -3   3   1 1294.22   22.58   0
  -2   3  -2  700.38   16.11   0
  -2   4  -2 1372.72   25.22   0
  -1   3  -3 1749.14   23.76   0
   0   2  -3  757.01   13.90   0
  -3   5   1  448.59   24.05   0
  -1   7   0  261.10   18.08   0
   0   6  -2  762.14   24.54   0
  -2   5  -2  314.60   16.95   0
  -1   6  -2  428.86   19.89   0
   0   7  -1  183.48   17.53   0
  -1   2  -3  245.02    9.11   0
  -2   2  -2 4726.42   34.47   0
  -1   7  -1  384.46   22.51   0
   2   4  -3  978.25   25.32   0
  -3   4  -1  121.34   13.12   0
  -2   4  -3  646.31   19.70   0
  -1   1  -2 3718.92   23.98   0
   0   3  -4  650.73   16.79   0
   0   4  -4 1142.50   25.22   0
   2   6  -2  469.78   26.95   0
  -3   6   1  194.37   28.37   0
  -2   3  -3   45.63    8.82   0
  -1   4  -4  421.80   17.19   0
   0   6  -3  632.49   24.96   0
  -2   6  -2  404.58   23.16   0
  -1   3  -4  700.08   17.48   0
   0   7  -2  120.02   17.18   0
   1   4  -4  174.28   14.72   0
  -3   6   0  106.15   29.08   0
   1   6  -3   45.69   12.90   0
  -1   5  -4  418.35   20.32   0
  -1   7  -2  435.75   24.86   0
   2   2  -3 2056.82   26.21   0
  -3   4  -2  322.40   17.89   0
  -3   5  -2  362.27   24.72   0
  -2   2  -3 1994.01   27.10   0
  -2   4  -4 1377.75   30.08   0
  -1   2  -4  499.61   14.49   0
  -2   6  -3  376.05   24.73   0
   0   4  -5  718.92   24.92   0
   1   2  -4  488.16   14.84   0
  -2   5  -4  344.41   22.15   0
  -1   4  -5  352.32   19.81   0
   2   1  -2  389.46    8.96   0
   2   4  -4  882.94   31.11   0
  -1   3  -5 1162.27   26.54   0
   1   1  -3 1690.77   19.75   0
  -1   5  -5  664.44   29.13   0
   0   5  -5  113.91   19.13   0
   1   4  -5  193.93   19.42   0
   1   3  -5 1801.07   35.26   0
   2   5  -4   50.35   26.29   0
  -3   3  -3 2131.87   36.23   0
  -2   4  -5  523.18   24.32   0
  -2   6  -4  471.67   29.19   0
  -2   3  -5  578.50   22.81   0
   0   2  -5  589.69   17.76   0
  -2   5  -5  524.32   28.04   0
  -3   2  -2  553.72   18.01   0
  -3   5  -4  465.54   31.64   0
  -3   6  -3  121.02   28.84   0
  -1   4  -6  204.15   21.69   0
   0   1  -4 1339.30   21.72   0
   1   2  -5  462.57   19.05   0
  -1   5  -6  672.56   33.58   0
  -2   2  -5 1826.29   34.70   0
  -2   6  -5  212.87   26.38   0
  -3   2  -3  336.58   17.32   0
  -3   6  -4  152.10   33.25   0
  -2   1  -3  527.96   16.27   0
  -2   3  -6  395.77   23.58   0
  -2   5  -6  272.78   23.71   0
  -1   2  -6  220.97   17.72   0
   1   1  -4 1564.41   24.07   0
  -4   4  -2  763.07   41.07   0
  -1   6  -6  147.37   28.38   0
   0   2  -6  581.80   21.53   0
  -1   3  -7 1127.75   36.61   0
  -1   5  -7  642.24   38.15   0
  -2   1  -4   86.19   12.99   0
  -2   2  -6 1440.91   35.19   0
  -2   5  -7  114.83   26.88   0
   1   2  -6  725.74   27.29   0
  -2   5   7  111.16   27.06   0
   2   6   8  216.00   24.17   0
  -2   3   2 1117.19   17.78   0
   3   5   6  549.85   23.56   0
  -1   3   1 1330.99   17.23   0
  -1   5   4 1255.03   27.77   0
  -3   3   4 1420.80   26.33   0
  -2   4   3  567.03   17.25   0
  -1   4   2  514.86   13.91   0
  -1   6   8  129.38   28.44   0
   0   6   6  974.75   34.33   0
  -2   5   5  270.48   19.51   0
   0   5   3  255.42   11.62   0
   3   2   2  630.22   12.46   0
   3   5   5  603.26   22.49   0
   3   6   8  174.74   21.32   0
  -3   4   5  113.79   21.31   0
  -1   5   3  916.65   21.72   0
   1   6   5  268.74   19.47   0
  -2   5   4  172.39   14.57   0
   1   2   0 3353.79   22.34   0
  -3   3   3 1978.29   26.64   0
  -2   4   2 1266.88   21.48   0
  -1   6   5   85.56   16.74   0
   3   6   7  164.62   19.26   0
  -1   4   1  358.38   11.38   0
   0   3   0  180.05    7.68   0
   0   5   2  405.29   14.10   0
   2   3   1  758.98   14.49   0
  -3   4   4  212.33   15.82   0
   1   6   4  325.71   18.38   0
  -1   3   0 2161.21   20.96   0
  -1   5   2 1195.27   22.59   0
   1   5   2 1493.79   25.27   0
  -2   5   3  202.81   14.14   0
  -1   6   4  424.19   20.94   0
   0   7   7   34.06   21.09   0
   1   3   0 1907.57   20.81   0
   3   6   6  101.27   17.62   0
   0   6   3  955.45   25.03   0
   0   7   6  122.07   20.89   0
  -3   4   3  239.27   14.62   0
   1   6   3  313.09   17.32   0
  -1   6   3  190.04   15.66   0
   0   5   1  135.99   10.33   0
   2   4   1  781.62   18.19   0
   2   5   2  541.59   18.38   0
  -2   5   2  550.25   18.27   0
  -1   4   0  524.59   13.59   0
   1   7   5  367.08   24.80   0
   3   6   5  159.25   18.93   0
   1   4   0 2594.24   28.83   0
   1   5   1 1300.07   24.21   0
   3   4   2  340.80   14.67   0
  -3   5   4  430.57   24.44   0
   0   6   2 1157.73   26.45   0
   2   2   0 3625.71   25.59   0
   0   3  -1  643.70   12.99   0
   0   7   4  179.79   19.78   0
  -2   6   3  375.07   21.40   0
  -1   3  -1 2222.70   22.63   0
   1   6   2    5.13    9.09   0
   1   7   4  528.00   26.09   0
   2   3   0  455.66   12.60   0
   2   7   5  147.47   20.57   0
  -1   7   4  451.15   27.57   0
   3   6   4  359.74   22.83   0
   0   5   0   54.29    7.69   0
   1   2  -1 2781.22   22.43   0
   0   1  -1   56.78    3.52   0
   0   4  -1  386.22   13.62   0
   0   6   1 1348.43   29.05   0
   0   7   3  214.44   19.09   0
   1   3  -1  679.24   13.82   0
   2   5   1  243.61   15.13   0
  -1   4  -1   90.81    9.42   0
   1   5   0 1247.21   25.65   0
   2   4   0  991.82   21.61   0
   2   7   4  102.71   20.09   0
   3   2   1   62.48    6.53   0
  -1   6   1  191.05   13.33   0
  -1   7   3  404.27   25.95   0
   1   6   1   55.87   14.13   0
   2   6   2  747.03   24.07   0
   3   4   1  140.75   13.61   0
   3   6   3  121.41   24.37   0
  -2   2  -1 1951.09   19.81   0
   0   5  -1  509.09   18.40   0
   2   7   3  168.01   23.08   0
  -2   7   3  198.39   28.61   0
  -1   3  -2 1101.24   18.03   0
  -3   5   1  432.09   23.20   0
   1   1  -1 3280.69   20.41   0
  -1   4  -2  818.35   19.98   0
   1   6   0  857.82   27.80   0
   2   3  -1  645.77   16.80   0
  -3   2   7  698.25   35.47   0
  -1   3   7  835.86   27.26   0
  -1   3  10  518.57   28.68   0
   3   2  10  199.79   15.02   0
  -3   2   6  131.53   18.65   0
   3   2   9  530.61   19.06   0
   3   2  11  172.07   15.95   0
  -1   3   6 1355.42   28.45   0
  -1   3  11  610.08   28.57   0
   3   1   5 2264.60   23.62   0
   3   2   8  280.67   14.28   0
   3   2  12  221.75   17.31   0
  -3   2   5  158.59   13.58   0
  -2   2   3 1187.50   16.70   0
  -2   3   8  358.46   26.25   0
   1   3  13  763.97   27.18   0
  -2   3   7  376.62   22.87   0
  -1   3   5 1277.14   23.40   0
   0   3   5  968.81   19.55   0
  -2   3   6  479.57   20.49   0
   3   2   7  637.32   17.11   0
  -3   1   2 2024.84   18.42   0
   1   2   3  340.83    7.94   0
   2   3  13  138.58   16.95   0
  -3   2   4  153.59    9.97   0
  -1   2   2 1487.10   14.43   0
   1   3   5 1106.31   19.14   0
  -2   3   5  449.10   16.43   0
  -1   3   4 1291.04   19.71   0
   0   4  10  497.46   26.46   0
   0   4   8  464.34   23.21   0
   1   4  10   71.37   17.07   0
  -1   4   8  303.70   22.35   0
  -1   4  10    6.54   18.46   0
   3   2   6  234.81   10.80   0
   3   3  10  738.29   23.22   0
   0   4   7  959.80   26.91   0
   1   4   8  230.49   16.92   0
   3   3  12  531.45   23.11   0
  -3   3   8  737.18   40.17   0
  -2   2   2 2271.99   18.75   0
  -1   4   7  289.12   19.20   0
  -2   3   4  601.56   15.18   0
   1   4   7  417.97   18.08   0
  -1   4   6  132.12   14.09   0
   3   3   8  736.67   20.83   0
  -2   4   8  265.97   27.10   0
  -2   4  10  317.52   31.37   0
  -1   3   3 1259.24   17.11   0
  -2   4   7  828.46   31.17   0
   0   3   3  870.61   14.22   0
   3   1   4 1373.29   15.84   0
  -1   4   5   77.21   11.22   0
   0   4   5  942.72   21.29   0
   3   3   7  963.93   21.97   0
  -2   3   3  273.60    9.86   0
   0   5   9  144.95   21.07   0
   0   5  10  257.45   23.94   0
   0   5  11  143.03   21.23   0
   2   2   3 1883.29   19.42   0
   1   1   1 3795.41   18.14   0
   1   5  11  314.80   23.73   0
   3   4  11   81.56   15.82   0
  -2   4   5 1075.24   25.85   0
  -1   5   9  641.05   33.64   0
   1   5   9  614.97   27.67   0
   3   4  12   35.85   18.42   0
  -3   3   4 1320.29   23.83   0
  -1   4   4  710.61   17.64   0
   0   4   4 1083.32   20.44   0
   2   1   2  739.85    9.52   0
   3   3   6 1415.85   24.77   0
   3   4   9  207.52   17.36   0
  -1   3   2 1282.82   16.27   0
   0   5   7   93.15   17.79   0
   0   3   2  825.66   13.35   0
  -2   2   1 3889.68   23.35   0
   1   5   7  835.90   26.91   0
   3   4   8  217.51   15.99   0
  -2   4   4 1007.59   22.22   0
  -2   5   9  108.27   30.29   0
  -1   5   6 1085.22   31.23   0
   0   5   6  165.83   16.79   0
   1   4   4  439.29   14.55   0
  -3   4   6   66.19   19.02   0
  -2   5   8   90.51   26.78   0
  -2   5   7  106.80   22.10   0
  -1   4   3  647.88   15.67   0
   1   5   6  456.06   20.85   0
   3   2   4  532.42   12.27   0
  -3   3   3 1924.12   25.53   0
   3   3   5 2457.78   29.97   0
   3   4   7  329.27   17.26   0
  -1   5   5  825.83   24.73   0
   0   6   9  374.60   27.27   0
   1   6  10   87.03   20.07   0
  -1   3   1 1267.15   15.78   0
   0   6   8  559.18   29.47   0
   1   4   3  870.69   17.43   0
   1   6   9  189.67   21.29   0
   2   2   2 3674.94   25.53   0
   3   5  10  221.50   19.91   0
  -5  -2  -6  250.96   22.70   0
  -5  -1 -15  124.67   15.21   0
  -4  -2 -15  255.09   19.50   0
  -2  -2 -15  313.05   24.41   0
  -1  -2 -14   19.19   23.44   0
  -2  -3 -13  146.61   22.29   0
  -1  -3 -12  336.98   24.93   0
  -6  -1 -12   57.66   17.10   0
  -4  -3 -12  302.61   27.53   0
  -3  -3 -13  291.46   25.15   0
  -4  -3  -8  495.37   26.99   0
  -6  -1 -11  141.14   22.37   0
  -6  -1  -9  193.17   27.17   0
  -6   0 -13  196.43   17.17   0
  -4  -3 -10  103.93   21.85   0
  -4  -3  -9  561.44   29.14   0
  -1  -3 -11  429.10   26.05   0
  -5  -2 -12   72.82   20.42   0
  -4  -2 -14  320.06   22.51   0
  -3  -3 -12  527.63   29.62   0
  -5  -2  -8  234.90   24.55   0
  -5  -1 -14  186.36   18.24   0
  -4  -2  -5  497.83   21.65   0
  -3  -3  -7 1085.78   30.32   0
  -2  -3  -6  572.34   20.03   0
  -2  -2 -14  294.77   23.83   0
  -1  -3 -10 1095.41   33.48   0
  -5  -2 -11   62.76   17.22   0
  -5  -1  -5 1639.98   40.37   0
  -4  -1 -15   65.02   13.87   0
  -3  -3  -8  759.80   28.07   0
  -3  -2 -14  129.08   19.28   0
  -2  -3 -11   54.92   16.92   0
  -2  -1 -15   96.76   20.65   0
  -6   0 -12  256.94   19.79   0
  -3  -3 -10  779.25   31.84   0
  -3  -3  -9 1084.41   33.73   0
  -2  -3  -7  251.89   16.01   0
  -4  -2 -13  347.74   25.42   0
  -2  -3 -10   24.61   10.79   0
  -2  -3  -9  280.70   19.49   0
  -2  -3  -8   81.34   13.71   0
  -5  -1 -13  256.62   21.39   0
  -4  -2  -6  879.07   27.55   0
  -5   0 -14   64.29   13.52   0
  -4  -2 -12  320.32   26.35   0
  -6   0 -10  418.97   28.40   0
  -6   0  -9  393.79   30.27   0
  -5  -1  -6  886.78   32.03   0
  -4  -1 -14   54.75   15.90   0
  -4   0 -15  189.36   15.54   0
  -3  -2 -13  286.80   23.97   0
  -1  -2 -12   40.61   17.50   0
  -4  -2 -11  876.96   35.53   0
  -2   0 -15  325.81   23.22   0
   0  -2 -10  385.13   23.34   0
  -6   1 -11   91.50   17.47   0
  -5  -1 -11  531.50   29.88   0
  -5  -1  -7  679.21   30.34   0
  -5   1 -14  158.82   14.51   0
  -4  -2  -9  590.66   28.45   0
  -4   1 -15   39.46   10.71   0
  -3  -2 -12  217.50   22.26   0
  -3  -1 -14  368.99   23.26   0
  -3   0 -15   38.18   14.21   0
  -2  -1 -14  109.23   19.15   0
  -5   0 -13  143.23   17.59   0
  -1  -2 -11  411.40   23.67   0
  -6   1 -10  132.79   21.24   0
  -6   1  -8  185.72   30.20   0
  -5  -1  -9  639.59   33.11   0
  -4  -1 -13   90.57   19.64   0
  -3  -2 -11  149.06   21.09   0
  -2   1 -15   57.97   14.02   0
  -4   0 -14  245.32   19.18   0
  -1  -2 -10   85.57   16.29   0
  -5   0 -12  125.39   19.51   0
  -4  -1 -12   97.96   20.27   0
  -3  -2  -9  540.69   26.26   0
  -3  -2  -8  293.70   20.39   0
  -3  -2  -7  496.90   19.79   0
  -2  -2 -10 1037.03   31.60   0
  -1  -2  -9   33.44   13.95   0
   0  -1 -11  174.90   23.13   0
  -5   2 -13   89.89   13.65   0
  -4   1 -14   33.00   12.48   0
  -3   0 -14   32.85   15.81   0
  -2  -2  -9 1202.07   31.59   0
  -2   0 -14  361.82   23.85   0
  -5   0 -11   32.83   15.12   0
  -5   0  -6  233.10   23.43   0
  -4  -1 -11  314.88   27.52   0
  -4   0 -13  411.68   25.32   0
  -2  -2  -8 1163.11   29.23   0
  -2  -2  -7 1240.77   28.47   0
  -1  -1 -12  393.06   25.43   0
  -4  -1  -6  332.02   20.40   0
  -3  -1 -12  625.92   29.70   0
  -4  -1 -10   30.55   16.07   0
  -2  -1 -12  491.54   27.15   0
  -5   0  -9  189.93   25.54   0
  -5   0  -8  241.32   26.57   0
  -4  -1  -9  118.89   20.26   0
  -4  -1  -8  328.92   25.08   0
  -3   1 -14  192.50   17.61   0
   0  -1 -10  367.26   24.95   0
  -4   0 -12  212.22   24.01   0
  -3   3 -14   76.94   11.82   0
  -2   1 -14  126.13   17.51   0
  -5   2 -12   85.07   15.90   0
  -4   1 -13   59.65   18.11   0
  -3   2 -14   68.37   13.26   0
  -1  -1 -11  156.32   20.85   0
  -2   2 -14  241.26   18.45   0
  -3  -1 -10  635.11   30.19   0
  -4   0 -11  764.43   31.79   0
  -4   2 -13  248.25   18.35   0
  -4   3 -13   81.85   12.42   0
  -1   1 -13  659.33   32.57   0
   0  -1  -9  272.75   20.30   0
  -3   0 -12  118.33   22.54   0
  -3   1 -13  281.69   22.71   0
  -2  -1 -10  100.96   18.53   0
  -1  -1 -10  950.58   31.29   0
  -5   1  -9  675.76   33.62   0
  -5   1  -6  577.67   33.88   0
  -4   0 -10  897.50   36.05   0
  -4   1 -12   82.47   20.92   0
  -3  -1  -8  704.02   28.47   0
  -3  -1  -7  669.89   25.73   0
   0   1 -12   54.86   20.91   0
  -5   1  -8  694.88   35.65   0
  -5   1  -7  660.64   35.47   0
  -4   0  -9  698.34   32.96   0
  -4   4 -12  110.05   12.48   0
  -2  -1  -9  444.21   23.49   0
  -1  -1  -9 1591.77   36.39   0
  -3   0 -11   91.63   22.69   0
  -3   3 -13  219.11   17.20   0
  -5   3 -10  280.02   21.42   0
  -4   1 -11  253.43   26.37   0
  -5   2  -9  173.13   23.43   0
  -5   5  -8  279.25   29.87   0
  -3   1 -12  418.39   28.28   0
  -2   0 -11  664.55   30.90   0
  -3   0 -10   16.20   20.07   0
  -1   1 -12  785.96   34.19   0
   0   0 -10  529.53   28.15   0
   0   3 -12   58.98   23.74   0
  -5   2  -8  220.90   26.63   0
  -5   4  -9   64.11   19.37   0
  -4   1 -10   73.93   22.37   0
  -5   2  -7  353.46   32.21   0
  -5   2  -6  312.26   32.16   0
   0   1 -11  158.40   24.36   0
  -3   1 -11  541.88   30.68   0
  -3   2 -12  171.20   21.99   0
  -3   4 -12   34.45   12.90   0
  -2   0 -10 1037.06   35.56   0
  -5   3  -8  292.28   26.92   0
  -5   4  -8   86.93   21.81   0
  -4   1  -9   71.41   21.52   0
  -1   0 -10  666.56   30.87   0
  -1   2 -12   38.42   19.82   0
  -1   4 -12   25.51   14.50   0
  -3   0  -8  198.88   21.88   0
  -2   4 -12  116.90   15.76   0
   0   0  -9 1392.31   38.38   0
  -5   3  -7  313.10   29.82   0
  -4   2 -10  662.49   33.15   0
  -3   5 -11  194.71   15.08   0
  -2   1 -11  241.92   25.51   0
  -1   1 -11  271.13   27.58   0
  -1   3 -12  542.56   27.80   0
  -5   3  -6  137.33   29.38   0
  -5   4  -7  237.32   30.00   0
  -3   0  -7  469.74   26.03   0
  -2   0  -9 1033.94   34.31   0
  -4   1  -7  365.33   28.79   0
  -4   4 -10  375.66   23.91   0
  -3   2 -11  350.45   27.68   0
   0   2 -11  647.12   33.77   0
  -5   4  -6  262.26   32.29   0
  -4   1  -6  332.90   27.74   0
  -4   1  -5  372.80   28.62   0
  -4   3 -10  161.29   19.68   0
  -2   5 -11  159.76   14.55   0
  -1   5 -11  109.84   14.94   0
   0   4 -11  440.25   29.02   0
  -3   3 -11  541.33   28.68   0
  -3   4 -11  172.61   18.44   0
  -2   6 -10   63.10   11.23   0
  -3   1  -9 1199.98   40.51   0
  -2   1 -10  148.76   21.98   0
  -2   2 -11  385.41   28.87   0
   0   3 -11   64.26   22.52   0
  -4   3  -9  313.05   28.18   0
  -4   4  -9  473.44   28.95   0
  -3   2 -10   39.24   21.44   0
  -3   5 -10  182.26   16.97   0
  -3   6  -9   16.22   11.23   0
  -2   4 -11  158.61   20.50   0
  -2   3 -11  120.15   23.01   0
  -4   2  -7  684.22   34.64   0
  -3   4 -10   64.33   19.64   0
   0   1  -9  301.61   27.18   0
   0   2 -10  371.10   29.83   0
   0   5 -10  149.90   19.37   0
  -4   2  -6  763.99   36.55   0
  -3   2  -9  300.26   27.77   0
  -2   2 -10  878.18   35.98   0
  -2   5 -10   92.54   16.27   0
   1   2  -9  383.73   36.20   0
  -4   2  -5  663.95   36.25   0
  -4   6  -6  260.39   25.55   0
  -3   1  -7  399.32   23.79   0
   0   6  -9  157.76   17.79   0
   1   5  -9  273.15   29.10   0
  -4   2  -4 1204.35   46.91   0
  -3   5  -9  243.01   22.31   0
  -2   6  -9  285.04   18.07   0
  -1   5 -10  127.21   18.48   0
   0   3 -10  324.09   28.84   0
   0   4 -10  239.43   24.86   0
  -3   1  -6  873.12   33.21   0
  -3   6  -8   43.26   14.57   0
  -2   1  -8  147.59   21.09   0
  -2   3 -10   74.72   21.98   0
  -2   4 -10  337.70   27.27   0
  -3   2  -8  410.00   28.67   0
  -3   4  -9   47.80   20.48   0
  -1   4 -10  206.08   24.25   0
  -1   6  -9  114.80   14.83   0
   1   6  -8   47.42   21.36   0
  -4   3  -6  415.42   30.61   0
  -2   2  -9 1329.32   40.64   0
   1   4  -9  146.46   30.06   0
  -4   5  -6   69.70   24.70   0
   0   1  -8  386.83   26.60   0
   0   2  -9  580.75   32.83   0
  -4   4  -6  474.99   32.18   0
  -2   5  -9  260.98   22.44   0
  -2   7  -7    7.17   11.28   0
  -1   2  -9   48.35   22.37   0
  -4   3  -5  676.26   35.94   0
  -3   2  -7  420.73   27.78   0
  -3   3  -8 1179.36   41.91   0
  -3   6  -7   72.60   18.17   0
   0   5  -9  239.14   22.19   0
  -4   3  -4  205.53   29.56   0
  -4   5  -5  239.73   29.42   0
  -4   6  -3  430.99   47.96   0
  -3   4  -8  251.73   25.52   0
  -2   3  -9  177.71   18.99   0
  -2   4  -9  750.83   33.54   0
  -2   6  -8  321.78   20.32   0
  -1   5  -9  340.84   24.35   0
   1   2  -8  324.91   29.85   0
  -4   4  -5  448.83   32.28   0
  -3   7  -5  286.03   22.48   0
  -2   2  -8  878.44   34.05   0
  -1   7  -7  246.08   16.01   0
  -1   3  -9  841.32   35.89   0
   0   4  -9  331.14   27.74   0
  -4   4  -4  772.43   39.83   0
  -4   5  -4   66.44   28.78   0
  -1   6  -8   42.72   11.71   0
   1   5  -8  361.71   26.95   0
  -4   5  -3  100.63   38.24   0
  -2   5  -8  137.99   19.99   0
  -2   7  -6   54.55   14.34   0
  -4   4  -3  729.48   43.33   0
  -3   4  -7  202.15   24.84   0
  -3   7  -4  263.04   23.81   0
  -2   3  -8   16.33   18.82   0
  -1   2  -8   29.76   14.64   0
   1   7  -6  114.04   17.70   0
  -2   4  -8  384.59   27.01   0
  -2   6  -7  214.92   20.80   0
   1   4  -8  114.00   23.86   0
   1   6  -7  103.94   18.09   0
  -1   5  -8  327.88   25.52   0
   2   6  -6  252.66   28.16   0
  -3   5  -6  257.70   27.04   0
  -1   3  -8  772.83   31.55   0
  -1   7  -6  314.94   18.27   0
  -3   4  -6  297.48   26.40   0
  -1   4  -8  108.04   21.61   0
  -1   8  -4   60.73   12.72   0
   0   3  -8  112.58   22.18   0
   0   7  -6   56.18   12.68   0
   1   2  -7  752.61   34.31   0
  -2   5  -7  132.95   20.88   0
   0   6  -7  400.06   23.28   0
  -3   7  -2  384.15   32.05   0
  -2   2  -6 1385.69   35.70   0
  -2   6  -6  316.05   23.16   0
   0   8  -4  161.61   15.85   0
  -3   6  -4  116.00   22.97   0
  -2   4  -7  566.97   29.45   0
  -2   8  -2  363.62   24.15   0
   0   2  -7 1517.86   38.25   0
   1   5  -7  434.36   27.12   0
  -1   5  -7  636.52   29.67   0
   1   3  -7  560.10   29.95   0
  -3   3  -4 2045.75   42.54   0
  -2   7  -4  106.91   17.57   0
  -2   8  -1  312.70   27.44   0
  -1   3  -7 1110.88   33.66   0
  -1   8  -3   15.00   11.99   0
   0   5  -7  152.52   21.45   0
   1   6  -6   60.04   16.60   0
  -3   5  -4  371.53   27.42   0
  -3   6  -3  133.71   23.06   0
  -2   3  -6  392.15   22.13   0
  -2   5  -6  237.73   19.46   0
  -1   4  -7  232.88   21.16   0
   0   7  -5   61.12   13.02   0
  -3   4  -4  311.96   23.22   0
  -2   4  -6  631.03   27.56   0
  -2   6  -5  240.94   22.18   0
   0   6  -6  437.96   23.13   0
   1   8  -3   80.31   12.73   0
   2   7  -4   69.88   14.79   0
  -3   3  -3 2214.57   43.81   0
  -2   8   0  429.02   30.16   0
   0   8  -3  121.02   13.58   0
   2   6  -5  238.73   21.26   0
  -5   1  -8  632.55   47.32   0
  -4   1 -10   86.03   25.31   0
  -4   0  -7 1201.19   53.03   0
  -4   3 -11  298.37   31.50   0
  -3   2 -11  387.05   36.37   0
  -2   1 -10  156.74   32.46   0
  -2   3 -11  156.78   32.97   0
  -5   1  -7  593.83   48.32   0
  -5   2  -9  203.28   35.88   0
  -4   0  -6 1521.23   58.90   0
  -3   0  -8  208.85   29.47   0
   0   1  -8  338.29   31.28   0
   0   2  -9  550.09   42.69   0
  -4   2 -10  692.95   42.81   0
  -2   0  -8  922.18   40.13   0
  -1   1  -9 1834.23   58.28   0
  -1   4 -10  247.43   35.83   0
   0   3  -9  205.18   38.98   0
  -3   5 -10  169.02   22.95   0
  -3   6  -9   15.94   17.69   0
  -5   2  -8  246.29   37.75   0
  -3   1  -9 1191.07   49.56   0
  -3   2 -10   88.67   29.59   0
  -2   2 -10  994.67   51.48   0
  -3   4 -10   76.25   28.03   0
  -2   3 -10   51.11   30.01   0
  -1   5  -9  427.10   35.85   0
  -4   2  -9  307.02   29.48   0
  -4   5  -9    2.23   19.18   0
  -4   6  -8  164.76   19.82   0
  -1   1  -8 1133.93   44.70   0
   0   2  -8  784.80   44.37   0
  -5   2  -7  373.40   40.00   0
  -1   6  -8   85.55   25.13   0
  -4   1  -7  420.17   38.24   0
  -3   1  -8  756.19   40.83   0
  -3   7  -7  170.41   19.64   0
  -5   6  -6  193.39   27.02   0
  -4   4  -9  480.45   34.60   0
  -3   5  -9  286.71   27.81   0
  -2   1  -8  128.79   27.25   0
  -2   2  -9 1410.61   52.41   0
  -2   5  -9  269.84   29.74   0
  -2   7  -7    1.16   16.18   0
  -1   4  -9   89.91   33.10   0
   0   4  -8  449.48   48.42   0
  -5   3  -7  352.77   36.44   0
  -4   2  -8  374.85   30.49   0
  -3   6  -8   36.05   18.17   0
  -5   4  -7  243.57   32.02   0
  -4   5  -8   60.00   21.65   0
  -3   3  -9  748.23   42.45   0
  -3   4  -9   60.15   25.02   0
  -4   6  -7  250.69   22.71   0
  -3   1  -7  620.36   34.40   0
  -1   2  -8   58.15   26.81   0
   0   2  -7 1389.49   47.82   0
  -5   2  -5   89.00   33.49   0
  -4   3  -8  314.33   32.10   0
  -1   5  -8  384.97   34.97   0
  -1   7  -6  323.39   28.90   0
  -5   5  -6  261.32   28.41   0
  -5   6  -5   46.77   21.41   0
  -2   1  -7  357.91   24.70   0
  -2   2  -8  817.09   39.82   0
   0   5  -7  173.60   32.32   0
   0   7  -5   71.74   31.06   0
  -5   3  -6  122.76   29.70   0
  -3   7  -6  150.78   17.68   0
  -1   6  -7  225.36   27.34   0
  -5   4  -6  290.95   32.30   0
   0   3  -7  428.20   35.62   0
   0   6  -6  510.48   40.08   0
  -4   5  -7   73.43   22.52   0
  -3   4  -8  244.00   28.20   0
  -3   6  -7   80.97   19.57   0
  -4   3  -7  419.82   33.59   0
  -2   3  -8   23.63   19.06   0
  -2   4  -8  461.97   34.82   0
  -2   6  -7  207.33   24.29   0
  -5   3  -5  679.59   39.56   0
  -5   5  -5  641.08   35.60   0
  -4   4  -7  483.70   33.42   0
  -3   2  -7  379.82   28.79   0
  -1   2  -7   80.03   17.85   0
  -5   4  -5   59.51   30.40   0
  -4   7  -4  132.45   17.43   0
  -5   3  -4  483.30   34.78   0
  -3   7  -5  248.09   19.36   0
  -1   3  -7 1047.59   40.31   0
  -1   7  -5  288.85   23.23   0
  -5   5  -4  858.46   38.15   0
  -4   5  -6   60.55   21.44   0
  -3   3  -7  853.15   36.40   0
  -3   6  -6  103.39   19.67   0
  -1   6  -6  150.43   23.58   0
   0   5  -6  162.05   28.14   0
  -4   2  -5  771.87   35.84   0
  -4   6  -5  221.59   22.03   0
  -3   4  -7  154.52   20.69   0
  -2   3  -7  113.10   22.11   0
  -2   7  -5  139.03   17.57   0
  -1   8  -3    7.88   14.54   0
   0   7  -4  145.90   25.99   0
   1   4  -5  163.62   33.39   0
  -5   4  -4  138.69   25.73   0
  -4   4  -6  542.58   32.28   0
  -3   2  -6  581.81   27.68   0
  -2   6  -6  344.49   25.42   0
  -2   8  -3  265.47   18.59   0
   0   3  -6  120.51   24.33   0
   0   4  -6  824.79   38.38   0
   0   6  -5  496.27   34.65   0
  -5   3  -3  362.29   31.77   0
  -5   6  -2  191.13   27.10   0
  -4   7  -3   69.45   15.89   0
   0   8  -2  203.65   25.14   0
  -5   5  -3  523.05   32.11   0
  -3   8  -2   89.38   15.15   0
  -3   5  -6  242.84   23.35   0
  -3   7  -4  253.80   19.33   0
  -5   6  -1   88.31   26.78   0
  -4   6  -4  476.15   26.97   0
  -3   3  -6  943.29   33.71   0
  -3   6  -5   80.63   17.73   0
  -4   4  -5  421.44   28.16   0
  -2   5  -6  241.35   19.57   0
  -1   3  -6 1242.06   36.07   0
  -5   5  -2  732.85   36.00   0
  -5   6   0  148.15   30.88   0
  -4   7  -2   95.85   17.37   0
  -3   2  -5  146.46   18.11   0
  -2   3  -6  368.17   22.88   0
  -2   8  -2  239.49   17.66   0
  -1   8  -2   87.53   17.20   0
   0   5  -5  119.74   23.05   0
  -3   8  -1   79.99   15.25   0
  -2   4  -6  657.36   29.25   0
  -4   2  -3 1017.44   36.24   0
   0   3  -5  156.35   19.36   0
   0   7  -3  143.36   19.90   0
  -5   5  -1  445.47   31.98   0
  -4   3  -4  192.73   22.03   0
  -4   6  -3  461.72   25.75   0
  -3   5  -5  372.25   23.72   0
   0   4  -5  750.37   30.86   0
   0   6  -4  535.84   28.90   0
   0   8  -1   56.38   17.77   0
   1   6  -3   42.87   21.32   0
  -3   3  -5 1415.57   34.89   0
  -3   6  -4  119.04   16.90   0
  -5   5   0  502.94   34.52   0
  -3   4  -5  143.33   18.82   0
  -3   8   0   67.98   13.97   0
  -2   5  -5  488.66   24.67   0
  -1   5  -5  644.12   28.28   0
  -2   7  -3   81.37   15.04   0
  -2   8  -1  282.62   18.03   0
  -2   3  -5  466.41   21.07   0
  -2   6  -4  530.48   24.73   0
  -1   3  -5 1123.96   30.29   0
  -1   4  -5  385.59   22.05   0
  -4   3  -3  424.96   23.86   0
  -4   4  -3  763.54   28.75   0
  -3   8   1   36.88   13.33   0
   0   5  -4  258.71   21.61   0
  -4   7   1   98.86   18.32   0
  -3   3  -4 1841.77   35.32   0
   0   8   0  223.22   19.40   0
   1   5  -3  658.40   30.13   0
   1   8   1  137.28   18.88   0
  -3   4  -4  347.22   19.75   0
  -2   7  -2   54.83   14.03   0
  -2   8   0  380.10   19.54   0
  -4   7   2   90.86   19.01   0
  -3   7  -1  478.10   23.04   0
  -3   8   2  160.12   16.37   0
  -2   5  -4  366.55   20.50   0
  -1   5  -4  457.44   21.79   0
  -1   7  -2  438.35   20.50   0
   0   4  -4 1350.03   33.08   0
  -4   3  -2  428.87   22.30   0
  -2   6  -3  331.96   19.38   0
  -1   8   0   55.20   12.72   0
   1   4  -3  139.08   19.01   0
  -4   4  -2  860.68   29.46   0
  -4   7   4   87.77   24.64   0
  -3   5  -3  520.66   22.69   0
  -3   8   3   60.13   15.54   0
  -2   3  -4  144.26   13.48   0
  -1   6  -3  158.57   16.94   0
  -4   6   0  705.01   27.68   0
  -2   8   1  433.19   20.48   0
  -1   4  -4  532.79   20.80   0
  -4   5  -1  153.45   18.68   0
  -3   7   0  522.73   22.97   0
   0   7  -1  192.92   16.74   0
  -3   4  -3  264.75   16.80   0
  -2   7  -1  184.55   16.06   0
   0   5  -3  291.31   18.62   0
   1   8   2   40.49   14.27   0
  -4   6   1  262.93   21.37   0
  -2   5  -3  119.48   14.12   0
  -1   7  -1  359.48   18.78   0
  -1   8   1   66.13   13.14   0
   1   7   0  184.99   17.46   0
  -2   6  -2  417.06   19.68   0
  -2   8   2  471.58   21.64   0
  -1   5  -3  751.86   23.56   0
   1   5  -2  986.25   29.15   0
  -4   5   0  456.79   22.55   0
  -3   5  -2  324.34   18.29   0
  -3   7   1  393.49   21.57   0
  -1   6  -2  393.09   18.47   0
   1   6  -1   77.69   18.35   0
  -4   6   2  453.19   25.39   0
  -2   4  -3  613.32   20.11   0
  -4   3   0  564.88   23.46   0
  -1   8   2  107.27   13.99   0
  -4   4   0 1012.07   29.15   0
  -4   5   1  166.41   21.08   0
  -3   4  -2  397.67   17.77   0
  -1   4  -3  324.02   15.16   0
   0   7   0  134.82   14.94   0
   1   8   3  107.43   14.11   0
  -4   6   4  437.56   28.79   0
  -4   6   5  619.87   34.34   0
  -3   6   0   99.11   15.45   0
  -1   7   0  388.29   18.38   0
  -3   5  -1  467.17   19.65   0
  -2   8   4  287.74   19.77   0
   0   5  -2  364.34   17.58   0
   1   7   1  436.53   19.95   0
  -2   7   1   87.65   13.79   0
  -1   8   3  112.26   14.32   0
  -2   8   5  317.04   20.30   0
  -1   6  -1   70.17    9.31   0
  -3   6   1  202.16   16.35   0
  -2   8   6  319.56   19.85   0
  -2   8   7  331.26   20.35   0
   1   8   4  162.77   14.75   0
   2   8   6  341.69   19.92   0
  -4   5   3  251.98   22.71   0
  -1   7   1  471.05   19.84   0
   1   6   0  762.90   23.70   0
  -4   4   2 1048.59   30.56   0
  -4   5   4  241.92   27.70   0
  -3   5   0  615.90   21.49   0
  -3   7   6  587.50   28.40   0
  -2   6   0  555.56   20.01   0
  -2   7   2  222.15   16.25   0
  -4   5   5  101.69   24.03   0
  -1   4  -2  790.65   19.49   0
   0   8   4  212.42   16.49   0
   1   7   2  407.78   19.31   0
  -4   4   3  698.81   31.24   0
  -3   6   2  420.95   20.43   0
  -1   8   5  145.06   16.11   0
   1   8   5  123.77   13.75   0
   2   8   7  342.39   16.98   0
  -1   7   2  557.59   21.73   0
  -1   8   6   46.57   14.06   0
  -1   8   9  159.83   14.30   0
   0   7   2  157.14   14.72   0
   0   8   5   69.71   14.87   0
  -1   8   7   95.68   15.02   0
   1   8   6   92.31   15.64   0
  -2   5   0  208.48   13.46   0
  -1   8   8   70.41   13.28   0
   1   6   1   67.29   13.04   0
   2   6   2  774.64   24.69   0
   2   7   4  113.31   15.88   0
   1   7   3  557.67   20.81   0
  -1   6   1  197.23   13.62   0
  -1   7   3  416.99   20.76   0
  -3   4   1  453.83   18.01   0
  -3   6   5  155.15   19.93   0
  -3   6   8  166.93   22.14   0
  -2   6   2  612.04   21.66   0
  -2   7   5  179.51   19.10   0
  -1   4  -1   82.81    9.36   0
   0   6   1 1349.10   27.03   0
   0   8   7  206.61   16.19   0
  -3   6   6   96.84   21.00   0
  -3   6   7  311.22   25.50   0
  -2   7   6  126.10   18.98   0
  -2   7   9  134.40   16.33   0
  -1   5   0 1193.21   23.62   0
  -3   5   3  365.59   20.09   0
  -2   4   0 1583.09   26.08   0
   1   7   4  543.90   21.87   0
   2   7   5  122.75   15.07   0
  -2   6   3  340.03   18.95   0
  -1   6   2  206.88   14.28   0
   1   6   2   20.43   11.83   0
  -1   7   5  287.34   21.35   0
   2   6   3  526.94   21.35   0
  -3   5   4  422.23   22.56   0
   0   6   2 1191.56   26.27   0
  -2   6   4  423.63   21.42   0
  -2   6  11  287.13   15.84   0
   2   7   6  118.50   17.21   0
  -2   5   2  611.50   20.30   0
  -1   4   0  533.54   15.96   0
  -1   5   1  880.07   20.04   0
  -1   7   6  353.78   24.11   0
   0   7   5  123.67   18.37   0
   3   7   9  368.43   17.30   0
  -1   6   1  199.28   13.96   0
  -1   7   3  397.05   20.43   0
   2   4   2 2453.07   35.99   0
  -2   6   1  586.86   20.08   0
   0   7   4  161.08   15.45   0
  -3   7   5  357.04   21.04   0
   1   7   6  229.11   17.84   0
   3   5   7  259.72   20.72   0
  -3   7   6  555.89   24.63   0
  -2   5   0  213.43   13.12   0
   0   7   5  113.16   15.39   0
   1   7   7  322.37   17.59   0
   2   6   6  299.64   18.60   0
  -3   7   7  305.66   20.08   0
  -3   7   8  116.06   16.09   0
   1   7  11  161.68   11.31   0
   3   5   8  242.07   19.51   0
  -1   6   2  224.78   14.55   0
   1   7   8  369.10   17.41   0
   3   4   6  172.57   18.27   0
   3   5   9  361.23   21.76   0
  -1   7   5  307.29   19.87   0
   0   7   6  118.13   14.65   0
   0   7  12   35.25    7.10   0
   1   7   9  256.44   14.84   0
   2   6   7  406.55   19.71   0
   2   6  12  112.91   10.16   0
  -4   6   6  159.01   23.75   0
  -3   6   3  129.01   14.92   0
  -3   5   1  363.81   16.63   0
  -2   7   6  130.41   16.71   0
   0   7   7   26.49   13.58   0
   2   6   8  192.06   15.41   0
   2   6  11  397.52   14.60   0
  -2   7  10  137.25   11.75   0
  -1   7   6  365.20   21.66   0
   1   6   5  260.53   17.14   0
   2   5   5  213.74   15.98   0
   2   6   9  281.50   15.60   0
  -2   7   7   50.17   14.38   0
  -1   6   3  159.77   14.08   0
  -1   7  11  211.34   11.41   0
   0   7   8  115.46   14.79   0
   0   7  10   72.65   10.91   0
  -2   7   8  111.98   14.64   0
  -1   7   7  303.19   20.27   0
   0   5   2  410.97   15.87   0
   0   7   9   58.02   12.68   0
  -3   6   4  290.29   18.72   0
  -1   7   8  289.28   18.60   0
  -1   7   9  327.20   17.51   0
   1   6   6  200.69   15.47   0
   1   6  13  180.33   10.23   0
   2   5   6  392.68   18.74   0
  -3   6   5  144.28   17.05   0
   0   6   5  524.67   21.41   0
   1   6   7  177.18   15.54   0
   2   5   7  464.51   19.75   0
  -2   5   2  592.32   18.24   0
  -1   6  13   37.71    6.98   0
   0   5   3  332.01   15.08   0
   1   6   8  214.51   15.76   0
  -2   6  12  258.46   11.46   0
  -1   6   5   89.33   15.64   0
   0   6   6  848.90   25.60   0
   1   6   9  203.88   14.93   0
   2   4   5 1105.41   25.06   0
   2   5   8  104.26   14.17   0
  -3   6   7  286.18   20.69   0
  -3   5   3  383.06   18.04   0
  -3   6   8  163.70   18.51   0
   1   5  14  390.81   12.73   0
   2   5   9  331.79   17.20   0
   2   5  10  133.72   14.83   0
   2   5  11   56.98   10.70   0
  -4   5   5   84.87   16.21   0
  -1   6   6   47.01   14.45   0
   0   6  12  144.95   11.10   0
  -2   6  11  255.60   13.47   0
  -1   6  12  130.59   10.25   0
   0   5   4  262.77   14.72   0
   0   6   8  522.64   22.58   0
   0   6  11  597.43   19.72   0
   2   4   6  863.05   23.06   0
  -4   5   6  322.25   22.30   0
  -4   5   9  139.99   16.60   0
  -2   6   7  545.80   25.16   0
  -1   6   7  124.16   16.66   0
   0   6   9  444.95   21.02   0
   0   6  10  424.35   19.63   0
   1   5   6  444.18   18.64   0
  -4   5   7  552.44   28.83   0
  -4   5   8  170.03   22.48   0
  -2   6   8  247.02   19.85   0
  -2   6  10  296.38   17.06   0
  -1   6  11  165.98   13.81   0
  -3   5   4  383.12   19.43   0
  -1   5  14  255.56   10.25   0
  -1   6   8  112.32   16.87   0
  -1   6   9  181.42   17.44   0
  -1   6  10    8.66   12.39   0
   1   4   4  473.01   16.01   0
   1   5  13  393.23   14.01   0
  -1   5   4 1043.67   25.15   0
   1   5   7  881.17   23.91   0
   2   4   7  894.37   24.10   0
  -3   4   2  490.32   17.38   0
  -3   5   5  419.10   22.01   0
   1   5  12  236.84   13.50   0
  -3   5  11  324.81   14.51   0
  -2   4   2 1291.30   23.53   0
   1   5  11  310.87   15.96   0
   2   4   8  498.66   19.72   0
  -1   5   5  756.54   23.86   0
   0   5   6  176.98   14.50   0
   0   5  13  180.78   11.54   0
   1   4   5  532.17   17.20   0
  -4   4   4  819.04   26.77   0
  -3   5   6  783.19   28.93   0
  -2   5   5  230.62   17.45   0
  -1   5  13  306.40   12.27   0
   1   4  14  107.33   10.88   0
   2   4   9  800.28   23.23   0
   2   4  10  676.12   21.19   0
   2   4  11  680.40   19.94   0
  -3   5   7  179.17   21.96   0
   0   5   7  107.01   14.60   0
  -3   4   3  223.39   15.19   0
   0   5  12  101.46   12.39   0
  -4   4  10  450.10   19.28   0
  -2   5   6   85.06   16.82   0
  -1   5  12  294.18   15.24   0
   0   4   4 1041.20   21.82   0
   0   5   8  222.16   16.69   0
   0   5  11  141.59   15.22   0
   1   3  15  374.44   13.64   0
  -4   4   5  802.52   28.71   0
  -2   4   3  481.21   17.64   0
  -2   5  11   51.01   11.97   0
   0   5   9  147.13   16.81   0
   0   5  10  299.27   19.02   0
  -2   5   7   83.48   18.08   0
  -1   5  11  455.20   20.14   0
   1   4  13  153.41   12.34   0
  -4   4   6  260.48   22.78   0
  -4   4   9  522.52   24.55   0
  -3   4  12   62.99    7.89   0
  -2   5   8   82.70   17.72   0
  -2   5   9  129.94   18.65   0
  -1   4  14   51.40    7.34   0
  -1   5   8  606.67   26.16   0
  -1   5  10  233.08   18.89   0
  -4   4   7  489.94   28.84   0
  -4   4   8  462.08   27.73   0
  -3   4   4  232.51   16.40   0
  -2   4  13  261.00   11.17   0
   1   4  12  142.99   12.82   0
   2   3  12  328.05   16.35   0
  -1   3  15  273.88    9.83   0
   2   3   8   73.47   13.52   0
  -3   4  11  109.63   11.92   0
   1   4  10   70.61   12.97   0
   1   4  11  394.34   17.58   0
  -4   3  11   24.87    8.89   0
  -3   3  13  202.02    9.56   0
  -3   4   5  110.43   17.11   0
  -1   4  13   82.85   10.18   0
   0   4   6 1228.54   25.99   0
   2   3   9  288.79   16.94   0
   2   3  10   18.35   11.48   0
   2   3  11   54.41   11.60   0
  -2   4  12  371.28   15.57   0
  -1   4   5   80.87   11.80   0
   1   2  15   33.99    8.73   0
  -3   4   6   65.32   18.56   0
  -3   4  10   84.08   15.74   0
  -2   3  14  184.12    8.83   0
  -2   4   5  996.09   28.50   0
   0   4  12  300.52   16.93   0
  -4   3   4  107.65   17.35   0
  -3   4   9  165.59   20.96   0
  -1   4  12  114.43   13.47   0
   0   4   7 1168.84   27.65   0
  -4   3  10   50.26   13.66   0
  -1   4   6  129.53   14.51   0
   1   3  13  779.45   20.34   0
  -5   2   8   84.15   25.76   0
  -2   4   6  520.65   25.03   0
  -1   3  14  292.16   12.39   0
   0   4   9  684.90   24.51   0
   0   4  10  603.75   23.29   0
  -4   3   5    6.78   17.55   0
  -3   3   3 2280.27   36.24   0
  -3   3  12  380.73   13.90   0
  -2   4  10  247.25   19.83   0
  -1   4   7  323.99   20.30   0
  -1   4  11  402.84   18.40   0
   0   2  15  389.32   12.23   0
  -4   3   9   44.98   17.51   0
  -2   3  13  146.33   10.12   0
  -2   4   7  492.68   22.33   0
  -2   4   8  248.51   21.42   0
  -2   4   9  749.35   29.08   0
  -1   4  10   14.27   14.31   0
   2   2  12  149.86   14.90   0
  -4   3   6  338.21   26.76   0
  -4   3   8   37.72   20.15   0
  -1   4   9  186.41   19.75   0
   1   2  14   33.81   10.74   0
  -4   3   7  227.83   25.82   0
  -3   2  13   63.73    6.83   0
  -4   2  11  321.49   14.25   0
  -3   3   4 1220.80   30.50   0
  -3   3  11  532.81   19.26   0
  -2   2  14  307.68   10.88   0
  -1   3  13  527.22   17.59   0
   1   3  11  442.19   18.69   0
  -4   1  12  211.42    9.93   0
   1   3   8  923.39   23.00   0
   1   3   9  960.42   23.67   0
   1   3  10 1065.80   24.92   0
   0   3  12  141.44   14.65   0
   2   2   9 1322.68   29.52   0
   2   2  10  986.73   25.06   0
  -3   3  10  585.45   24.34   0
   0   2  14  502.34   15.82   0
   1   2  13   95.37   12.16   0
  -3   2  12   58.57    9.02   0
  -3   3   9  563.78   28.08   0
  -2   3  11  239.22   16.88   0
  -2   2  13  476.74   15.60   0
  -1   3  11  645.62   22.90   0
   1   1  14  263.51   12.95   0
  -4   2   9  479.69   24.61   0
  -2   3  10  324.59   21.35   0
   0   0  15  221.02    9.83   0
   0   3   7  157.14   11.27   0
  -5   0   9  136.71   15.72   0
  -4   2   4 1242.71   36.37   0
   0   3   8  263.37   14.65   0
   1   2  12   59.43   12.26   0
  -4   2   8  360.59   26.59   0
  -3   2  11   77.74   11.70   0
  -2   3   6  471.39   22.41   0
  -2   3   9  629.54   27.08   0
  -1   3   7  777.39   26.34   0
  -1   3   8  837.46   27.50   0
  -1   3   9  560.41   23.78   0
   0   1  14  162.36   10.93   0
  -4   2   7  562.56   32.86   0
  -2   0  14  222.97    9.35   0
  -2   2  12  615.15   19.32   0
   1   0  14  162.37   12.43   0
   1   1  13  650.56   19.33   0
  -5  -1   9  362.12   16.77   0
  -4   1  10  149.44   13.74   0
  -3   2  10  149.85   16.44   0
  -1   2  12  162.23   13.96   0
   1   2  10   63.18   12.06   0
  -5   0   8  108.81   17.25   0
   1  -1  14  297.81   13.52   0
  -3   2   4  193.94   18.44   0
  -1   1  13  618.48   18.50   0
   0   0  14  402.15   13.56   0
   1   1  12  441.22   17.73   0
  -3   0  12  100.00    8.95   0
  -3   2   5  170.71   20.34   0
  -3   2   6  153.68   22.53   0
  -2   1  12   55.61    8.80   0
   0  -2  14  351.78   12.68   0
   0  -1  14   83.12    8.62   0
   1   0  13  310.39   14.55   0
  -5  -1   8  359.23   18.00   0
  -2   2   9 1639.80   35.70   0
  -1   1  12  552.63   19.53   0
   1   1  11  202.85   14.58   0
  -5  -2   8   56.99   12.30   0
  -4   1   7  351.27   27.30   0
  -3  -1  12  262.52   10.90   0
  -3   1  10  581.23   20.70   0
  -1   0  13   30.67    9.32   0
  -1   2   9  278.17   18.14   0
  -4   1   4  191.48   24.89   0
  -2   2   7  983.59   30.29   0
  -1   2   8  605.79   22.87   0
  -4   0   9  492.89   20.63   0
  -3  -2  12   77.74    6.80   0
  -3   0  11  109.25   11.21   0
  -1   2   7  991.61   27.06   0
  -3   1   9  576.23   22.45   0
  -2   0  12  516.65   17.36   0
  -1   1  11  820.35   23.04   0
  -3   3  -5 1346.48   40.20   0
  -3   7  -3  423.02   26.04   0
  -2   5  -6  309.98   23.76   0
  -2   7  -4  101.37   16.74   0
   0   5  -6  163.44   22.66   0
   1   8  -2  102.24   16.41   0
  -3   4  -5  128.08   21.21   0
  -3   6  -4  102.32   20.30   0
  -2   4  -6  680.67   29.40   0
  -2   6  -5  191.20   20.21   0
  -1   5  -6  646.45   29.48   0
  -1   3  -6 1255.68   34.43   0
   0   6  -5  469.93   26.96   0
   0   7  -4   96.30   16.85   0
   1   5  -5  755.31   33.53   0
   2   5  -4   49.94   22.35   0
  -1   4  -6  216.73   20.44   0
  -1   6  -5  196.63   20.72   0
  -1   7  -4  188.18   17.83   0
   2   7  -2  146.27   18.69   0
  -3   7  -2  383.30   24.10   0
  -1   8  -2   72.17   13.36   0
   0   8  -2  191.43   16.25   0
   1   4  -5  184.20   22.49   0
   2   4  -4  784.67   33.25   0
   2   6  -3  358.96   25.81   0
   2   8   0  414.14   20.87   0
   1   6  -4  119.36   20.16   0
  -3   3  -4 2128.87   44.74   0
  -3   5  -4  368.26   23.68   0
  -2   5  -5  503.83   25.16   0
   1   8  -1   60.89   13.40   0
  -3   6  -3  139.72   19.11   0
   0   5  -5   83.37   18.90   0
  -1   5  -5  645.88   27.36   0
   0   3  -5  138.57   15.73   0
   0   7  -3  170.17   17.28   0
  -1   3  -5  980.15   26.88   0
  -1   7  -3  283.61   18.87   0
   0   4  -5  760.26   27.63   0
   2   5  -3  105.54   20.26   0
  -1   4  -5  411.99   21.29   0
  -1   8  -1   40.33   12.06   0
   0   8  -1   68.81   13.58   0
   0   9   2   28.61   12.15   0
   1   5  -4 1029.13   33.39   0
   2   7  -1  144.83   17.52   0
   2   8   1  100.46   14.53   0
  -2   8   0  435.88   21.81   0
   1   7  -2  381.62   21.65   0
   2   6  -2  473.14   25.29   0
  -3   5  -3  550.51   24.81   0
   1   4  -4  187.52   18.61   0
   1   8   0  309.11   17.45   0
   2   4  -3 1062.77   32.84   0
  -3   4  -3  286.58   19.72   0
   0   5  -4  267.66   18.78   0
   0   7  -2  128.86   15.41   0
   0   9   3   68.97   12.64   0
  -2   8   1  407.82   21.36   0
  -1   7  -2  470.28   20.83   0
  -1   8   0   65.00   13.19   0
  -1   6  -3  163.45   15.73   0
   0   4  -4 1232.43   29.58   0
   2   7   0  134.97   16.62   0
   2   8   2  456.77   19.69   0
  -1   4  -4  457.57   19.23   0
   1   7  -1  288.58   19.69   0
   3   7   2  368.98   21.41   0
  -3   5  -2  351.56   20.76   0
  -3   6  -1  131.31   16.96   0
  -3   7   1  360.82   21.78   0
   2   6  -1  435.13   22.98   0
   0   7  -1  207.45   16.19   0
   0   8   1  213.91   16.22   0
   2   4  -2 1135.32   30.62   0
   3   5   0  267.29   21.27   0
  -3   4  -2  381.97   20.02   0
  -3   7   2  567.16   27.28   0
  -1   5  -3  776.65   23.60   0
   0   5  -3  290.28   17.29   0
   2   8   3  575.07   21.16   0
   3   6   1  125.42   18.19   0
  -2   8   3  419.39   22.87   0
   0   6  -2  801.49   25.26   0
   1   8   2   29.14   11.98   0
   3   7   3  327.81   19.21   0
  -3   5  -1  496.31   21.75   0
  -1   8   2  126.35   14.33   0
   0   4  -3 1025.47   24.80   0
   1   5  -2 1078.38   27.86   0
   2   5  -1  225.36   17.81   0
  -3   7   3  353.03   23.75   0
  -1   4  -3  286.97   14.77   0
   0   8   2  250.00   16.96   0
   1   6  -1   83.51   14.18   0
   2   6   0  515.28   22.77   0
   2   8   4  447.47   19.10   0
   0   7   0  143.98   14.95   0
  -3   7   4  311.83   25.16   0
   1   8   3  108.11   13.44   0
  -3   4  -1  128.49   15.32   0
  -3   6   1  194.72   17.43   0
  -1   5  -2 1074.51   24.89   0
  -1   6  -1   72.19   12.28   0
  -1   8   3  106.56   14.41   0
   0   5  -2  358.88   17.11   0
   0   6  -1  331.05   17.50   0
   3   5   1  445.27   22.63   0
   3   7   4  391.03   19.56   0
   0   8   3  224.46   17.09   0
   2   4  -1  932.50   25.98   0
  -3   5   0  634.06   23.45   0
  -1   8   4  196.55   16.59   0
   1   8   4  159.48   14.69   0
   0   4  -2 1379.53   25.77   0
   2   5   0  196.89   15.52   0
   2   6   1  121.43   16.13   0
  -1   4  -2  561.62   16.35   0
   0   8   4  235.68   17.49   0
   3   4   1  145.07   20.12   0
   3   7   5  458.61   20.32   0
  -1   6   0  232.17   14.33   0
  -1   8   5  162.82   16.85   0
   0   6   0  992.91   24.91   0
   1   8   5  109.06   13.86   0
  -2   7   3  196.40   17.72   0
  -1   5  -1  901.61   22.02   0
  -1   7   2  548.64   21.73   0
   0   5  -1  529.30   18.04   0
  -3   6   3  124.91   16.86   0
  -1   8   6   36.82   14.38   0
   0   7   2  179.66   14.63   0
   0   8   5   78.44   15.28   0
   3   5   2  429.25   21.36   0
   1   4  -1  447.83   16.38   0
   1   8   6   84.91   13.05   0
   3   7   6  525.87   20.10   0
  -2   5   0  230.68   14.19   0
  -2   7   4  138.20   16.97   0
   0   8   6  154.24   15.67   0
   1   6   1   68.33   12.49   0
   2   6   2 1143.26   28.11   0
  -3   6   4  240.54   22.29   0
  -1   6   1  226.07   14.16   0
   0   6   1 1245.98   26.40   0
   3   7   7  371.57   18.77   0
  -2   6   2  665.41   22.58   0
  -2   7   5  177.63   18.38   0
   0   8   8  127.68   13.83   0
   0   8   9  101.33   11.61   0
   1   8   8   33.87   10.88   0
   1   8  10   19.76    8.18   0
  -3   6   5  129.96   19.19   0
  -1   5   0 1347.59   24.88   0
   0   5   0   70.45   10.71   0
   1   8   9   53.59   10.12   0
  -2   7   9  129.88   17.08   0
  -1   7   4  400.68   21.66   0
   1   7   4  555.68   21.72   0
   3   4   2  366.57   19.97   0
   3   5   3  441.16   20.51   0
   3   7   8  303.66   15.09   0
  -3   6   6   85.20   21.13   0
  -2   4   0 1392.66   24.94   0
  -2   7   7   64.59   18.03   0
  -2   7   8  162.35   22.27   0
  -2   6   3  282.76   18.49   0
  -1   6   2  217.47   14.75   0
   3   6   5  152.36   15.70   0
   3   7   9  409.43   15.60   0
   3   7  10  203.54   12.97   0
  -3   5   3  377.92   20.22   0
  -1   7   5  316.21   21.28   0
   0   6   2 1196.64   26.46   0
   1   5   1 1339.54   26.14   0
   2   4   1  807.12   22.15   0
   1   7   5  409.55   20.80   0
   2   5   2  538.60   19.62   0
   0   7   5  123.83   17.01   0
  -2   6   4  409.39   20.69   0
  -1   5   1  863.27   19.30   0
  -1   7   6  353.31   23.60   0
  -1   7  11  198.27   14.24   0
   0   5   1  151.03   11.20   0
  -2   5   2  586.90   19.05   0
  -1   6   3  171.00   14.13   0
   1   7   6  217.58   19.41   0
   3   5   4  314.60   18.13   0
   3   6   6  100.47   14.63   0
  -1   7   7  287.84   22.86   0
   0   6   3 1047.32   25.40   0
   0   7   6  107.78   17.51   0
   2   7   8   63.42   12.66   0
  -2   4   1 1450.73   26.31   0
  -3   5   5  329.32   21.88   0
  -2   6   5  592.56   24.60   0
  -2   6  11  305.60   18.85   0
   1   5   2 1473.00   26.75   0
   1   7   7  339.87   21.02   0
   2   5   3  209.44   14.74   0
   2   7   9  126.52   13.16   0
   2   7  11    0.10    8.61   0
  -1   6   4  459.56   19.98   0
   1   6   4  318.63   17.13   0
   2   7  10  103.83   12.03   0
   3   6   7  128.62   14.79   0
  -2   5   3  175.33   14.37   0
  -2   6   6  441.14   24.00   0
   1   7   8  332.48   20.46   0
   1   7  12  127.06   10.23   0
   0   7   9   51.34   14.86   0
   0   7  10   80.84   13.27   0
   1   7   9  275.50   18.55   0
   1   7  11  149.49   13.14   0
  -3   5   7  208.84   25.34   0
  -2   6   7  571.68   27.64   0
  -2   6  10  368.42   22.01   0
   1   7  10  327.34   17.91   0
   3   6   8  151.10   14.42   0
   3   6  13  115.51   10.07   0
  -2   6   8  267.39   24.43   0
  -1   6   5  109.85   15.68   0
   1   6   5  243.67   16.97   0
  -2   4   2 1334.79   25.15   0
   1   5   3 1621.08   28.01   0
   3   6   9  174.82   14.17   0
  -2   5   4  171.20   14.50   0
  -1   5   3  900.41   22.00   0
   3   4   4  403.53   18.76   0
   3   6  10   85.14   11.48   0
   3   6  12   17.03    7.76   0
  -1   6   6   65.93   15.75   0
   2   6   7  369.30   20.12   0
   3   5   6  458.80   20.34   0
   3   6  11   76.09   10.42   0
   4   5  10   26.95   13.35   0
  -1   6  12  117.99   11.61   0
   1   6   6  251.34   19.01   0
   4   5  11   32.88   11.88   0
  -2   5  12   40.13   13.36   0
  -1   6   7  122.56   19.35   0
   0   6   6  948.76   29.16   0
   1   6  14  104.44    7.72   0
  -2   5   5  257.23   18.08   0
   2   6   8  203.56   16.91   0
  -1   5   4 1240.68   26.64   0
  -1   6   8  123.00   20.62   0
   1   5   4  981.65   24.07   0
   1   6   7  191.84   18.16   0
   2   6  13  182.32   11.50   0
  -1   6   9  174.52   21.74   0
   0   6   7  970.19   31.76   0
   2   6   9  286.95   18.70   0
   2   6  12  104.79   11.82   0
   3   5   7  231.54   17.04   0
  -3   4   6   56.65   19.41   0
  -2   5   6   85.23   17.31   0
   0   5   4  279.74   14.79   0
   0   6  12  140.80   12.82   0
   2   6  10  321.08   19.40   0
   2   6  11  415.62   18.72   0
   3   4   5  196.74   15.27   0
   0   6   8  556.44   26.41   0
   3   5  14  201.38   11.33   0
  -2   5   7   89.35   19.56   0
   0   6   9  454.66   25.86   0
   1   6   9  207.24   19.13   0
   1   6  12  179.45   14.21   0
   3   5   8  216.45   16.55   0
  -2   5  10  138.69   20.85   0
  -1   5   5  651.72   21.45   0
   1   5   5  847.29   24.06   0
   1   6  10  107.26   17.17   0
   1   6  11  214.20   17.67   0
   2   5  15   89.02    7.60   0
  -2   4   4 1185.44   26.36   0
  -2   5   9  126.65   23.22   0
  -1   4   3  460.33   16.30   0
  -1   5  13  289.67   13.55   0
   0   5   5  351.00   17.83   0
   1   5  15  199.38    9.28   0
   3   5   9  347.24   18.24   0
   3   5  13  145.81   10.90   0
  -1   5   6 1017.69   29.16   0
   3   4   6  156.90   14.59   0
   3   5  10  198.05   14.90   0
   3   5  12  313.37   14.81   0
   1   5   6  412.84   20.31   0
   4   4  10  210.18   16.64   0
   4   4  12  318.88   17.11   0
   0   5   6  175.85   16.48   0
   2   5  14   62.92    8.66   0
  -2   4  12  338.95   17.93   0
   1   5  14  333.84   13.34   0
   2   5   8   87.14   14.79   0
   3   4  15  112.58    9.27   0
  -1   4   4  794.93   20.12   0
  -1   5   8  563.53   28.55   0
   1   4   4  492.42   15.89   0
   2   4   5 1018.59   23.68   0
  -1   4  14   36.74    7.41   0
  -1   5   9  626.89   30.26   0
   0   5   7   85.38   16.25   0
   3   4   7  317.54   17.53   0
  -4   5   9  146.39   14.83   0
  -2   5   4  163.33   17.43   0
  -4   5   8  160.28   17.52   0
  -1   5   7  529.94   22.30   0
  -1   5   9  654.44   23.70   0
  -4   5   7  547.85   28.49   0
  -2   5  10  140.24   14.28   0
  -1   5   8  638.16   23.32   0
   0   4   5  864.87   21.77   0
   0   4  11  567.02   18.72   0
   1   2  12   64.02   10.69   0
  -3   5   5  375.82   23.22   0
  -2   5   9  109.05   15.77   0
  -1   4  12  127.59   12.03   0
   1   1  12  390.59   16.30   0
  -3   5   6  793.46   31.02   0
  -3   5   8  182.18   17.54   0
  -2   5   7   85.18   17.19   0
   1   3   7 1442.20   26.70   0
   1   3   8  944.32   22.62   0
  -3   5   7  228.80   19.70   0
  -1   1  14  337.79   11.88   0
   0   2  13  479.15   15.18   0
   0   3  12  143.86   12.43   0
   0   4   7 1027.91   23.28   0
   0   4   8  466.89   17.32   0
   0   4   9  688.25   19.91   0
   1   2  11  373.52   14.91   0
  -4   3  12   45.85    5.53   0
  -2   1  14   45.08    6.48   0
  -1   3  13  510.06   15.08   0
  -5   4   8  120.09   14.39   0
  -2   3  13  170.51    9.66   0
  -1   4  11  417.92   15.77   0
  -3   4  11  108.08   10.06   0
   0   1  13  141.13   10.48   0
   1   1  11  235.55   15.10   0
   1   2  10   70.21   10.12   0
  -2   4  11  235.07   13.89   0
  -1   4  10    0.35   10.68   0
   0   3  11  168.49   12.85   0
  -5   4   7  118.92   17.36   0
   1   2   9   37.05    9.58   0
  -5   4   6  160.22   25.06   0
  -3   2  13   69.19    6.31   0
  -2   4   3  490.65   20.10   0
  -1   3  12  304.23   14.38   0
   0   2  12  467.27   16.15   0
  -3   3  12  415.22   12.86   0
  -3   4  10  101.17   12.34   0
  -2   4  10  275.14   16.46   0
  -1   4   6  130.97   11.91   0
  -1   4   8  352.27   17.11   0
   0   3  10  321.36   14.47   0
   1   2   8   33.89    7.60   0
  -4   2  12  184.41    8.55   0
  -2   2  13  494.76   13.59   0
   1   1  10  911.83   20.55   0
  -1   0  13   22.16    8.63   0
  -1   1  13  581.57   15.21   0
   0   3   9  263.55   13.23   0
  -4   4   8  471.03   20.24   0
  -3   4   3  237.27   20.04   0
  -3   4   9  169.88   14.90   0
  -1   3  11  744.28   20.53   0
   0   0  12  460.30   17.33   0
   0   3   8  315.02   13.45   0
  -2   4   8  277.51   17.73   0
  -4   4   4  757.40   30.44   0
  -4   4   7  508.95   23.44   0
  -3   4   8  154.04   16.37   0
  -2   0  13  521.59   13.65   0
  -2   4   7  675.06   23.27   0
  -4   1  12  202.77    8.36   0
  -4   4   5  805.90   31.23   0
  -4   4   6  244.84   21.44   0
  -3   4   4  217.79   19.29   0
  -1   3  10  479.28   17.69   0
  -5   2  10   62.38    7.19   0
  -4   3  10   49.77    8.60   0
  -3   4   5   71.87   16.46   0
  -3   4   6   69.51   16.65   0
  -2   2  12  588.18   16.55   0
   0   1  11  247.49   13.35   0
  -2   3  10  279.60   15.57   0
  -1   1  12  518.78   15.66   0
  -1   3   9  559.88   18.55   0
  -3   3  10  596.90   18.66   0
  -1   2  11  838.54   20.77   0
   0   2   9  943.98   19.95   0
  -4   3   9   65.45   10.81   0
  -1   0  12   24.42    8.37   0
  -1   3   8  892.04   22.01   0
  -6   2   7  451.29   17.89   0
  -3  -1  12  285.32   10.75   0
  -1   3   7  573.70   18.07   0
   0   2   8  653.01   16.61   0
  -3   3   9  557.06   19.60   0
  -2  -1  12   65.13    9.99   0
  -2   2  11  641.41   18.53   0
  -1   3   6 1150.66   23.14   0
   0   1  10  388.95   15.06   0
  -5   1  10  310.31   10.55   0
  -5   2   9   85.75    8.53   0
  -2   0  12  468.45   14.36   0
  -1   2  10  259.28   13.85   0
  -4   2  10  381.55   14.29   0
  -2   3   8  330.23   17.05   0
  -1   1  11  766.60   19.64   0
  -5   3   5  251.98   23.25   0
  -6   2   6  394.06   19.78   0
  -5   3   4  506.46   30.12   0
  -4  -1  11  140.42    8.68   0
  -2   2  10  203.56   13.80   0
  -2   3   7  346.77   17.95   0
   0   1   9  275.08   12.42   0
  -5   0  10  131.61    7.98   0
  -3   1  11  482.96   16.00   0
  -3   2  10  168.06   13.49   0
  -2   1  11  171.43   12.56   0
  -5   2   8   84.25   10.42   0
  -3   3   7  687.45   23.43   0
  -6   2   5  491.96   25.32   0
  -4   3   6  363.90   21.90   0
  -6   0   8  273.82   10.26   0
  -5   1   9  306.87   12.12   0
  -4   3   3  130.78   24.03   0
  -4   3   5   19.29   16.96   0
  -1   2   8  677.19   18.94   0
   0   1   8  495.61   14.82   0
  -6   2   4  359.97   27.03   0
  -4   3   4  113.63   19.62   0
  -3   2   9  193.44   14.75   0
  -3   3   3 2064.04   40.95   0
  -3   3   5 1727.82   36.58   0
  -2   0  11  948.64   20.87   0
  -2  -1  11  167.16   11.85   0
  -1   2   7  991.55   21.44   0
  -6   2   3  339.22   29.76   0
  -4   2   8  518.17   20.00   0
  -3   1  10  650.54   19.41   0
  -2   1  10   56.37   11.51   0
  -5   0   9  126.22    9.18   0
  -4   0  10  362.06   13.61   0
  -2   2   8  829.06   22.61   0
  -1   0  10   90.28   11.21   0
  -4  -1  10  133.10    9.72   0
  -4   1   9  224.41   14.02   0
  -1  -1  10  572.04   17.81   0
  -7   0   4   85.98   16.16   0
  -6   0   7  363.51   13.36   0
  -4   2   7  567.48   21.81   0
  -5   2   5  415.44   23.50   0
  -3   1   9  533.27   19.31   0
  -2   2   7  908.51   22.48   0
  -3  -2  10   22.74    8.53   0
  -3   2   7  695.81   22.32   0
  -6  -1   7   51.84    7.53   0
  -6   1   5  107.23   15.02   0
  -5   1   7  706.31   21.06   0
  -4  -3   9   26.98    7.52   0
  -4   2   6  266.58   18.73   0
  -2   2   6 1404.26   28.40   0
  -1   0   9   45.20   10.37   0
  -7   0   3   61.97   20.32   0
  -6  -2   7  221.47    9.59   0
  -5   0   8  121.05   11.20   0
  -5   2   4  147.96   21.92   0
  -4   1   8  160.73   14.36   0
  -5   2   3  137.65   24.62   0
  -3   2   6  152.62   15.04   0
  -7  -1   4  282.01   15.58   0
  -6   0   6  395.67   16.07   0
  -6   1   4  112.93   18.72   0
  -5   2   2  157.99   27.24   0
  -3   1   8  410.11   18.16   0
  -2   1   8  322.23   15.84   0
  -5  -1   8  360.52   14.15   0
  -4  -1   9  154.96   11.94   0
  -7   0   2   83.36   22.70   0
  -5   1   6  438.29   19.02   0
  -4   2   4 1178.92   33.95   0
  -3  -3   9  529.41   16.52   0
  -3   2   5  209.38   16.40   0
  -2  -3   9  204.95   15.38   0
  -6  -3   6   65.43    7.00   0
  -5   0   7  187.73   14.07   0
  -1   0   8   53.44   10.37   0
  -7   0   1  142.42   30.58   0
  -6  -1   6   83.91    9.73   0
  -4   2   3  741.73   30.45   0
  -2  -1   9  117.67   12.59   0
  -2   1   7  123.45   12.22   0
  -6   1   2  148.62   27.14   0
  -4   2   2 1264.69   39.69   0
  -3  -2   9  460.83   17.04   0
  -3   1   7  567.31   20.33   0
  -6   1   1  137.49   35.02   0
  -5  -3   7  302.67   12.44   0
  -4  -3   8   18.30    8.31   0
  -4  -1   8  142.78   12.76   0
  -4   1   6  926.82   25.62   0
  -3   0   8   97.82   12.71   0
  -5  -2   7   74.02   10.26   0
  -5   0   6   92.72   10.28   0
  -4  -2   8  474.86   17.31   0
  -4   0   7  718.72   22.60   0
  -4   1   5  217.52   16.54   0
  -5   1   3 1023.77   33.83   0
  -3   0   7  810.73   23.05   0
  -2   0   7  764.54   20.89   0
  -7  -1   1  223.85   24.97   0
  -6   0   3  681.99   28.34   0
  -5   0   5  490.10   20.81   0
  -4  -1   7  216.47   15.12   0
  -7  -3   2  357.71   14.79   0
  -6  -4   4  237.18   11.16   0
  -5   1   2 1205.33   39.45   0
  -1  -1   7  794.01   20.29   0
  -7  -1   0  315.64   31.43   0
  -5  -2   6   56.49   11.52   0
  -3  -4   7   93.17   11.68   0
  -5   1   1  624.45   36.98   0
  -2  -4   7  722.01   24.00   0
  -7  -2   1  248.77   18.68   0
  -7  -1  -1  477.09   41.00   0
  -6  -3   4  288.39   13.95   0
  -5   0   4  359.05   19.70   0
  -5   1   0 1332.98   52.16   0
  -4   1   3  390.59   21.18   0
  -3  -5   6  251.65   14.81   0
  -3   0   6  500.84   19.23   0
  -3   1   4  706.71   20.36   0
  -2   0   6  933.81   22.16   0
  -6  -1   3  108.17   16.08   0
  -6   0   1  998.46   41.28   0
  -4  -4   6  192.65   12.96   0
  -3  -3   7  308.45   16.36   0
  -6   0   0  991.56   46.07   0
  -4   1   2  481.51   24.00   0
  -2  -2   7  737.50   21.14   0
  -7  -2   0  154.81   20.26   0
  -5  -3   5  126.33   12.78   0
  -5  -2   5  300.19   16.84   0
  -4  -5   5  237.78   12.93   0
  -7  -4   0  127.00   11.23   0
  -6  -5   2   43.05    7.51   0
  -6  -2   3  278.42   16.99   0
  -6   0  -1  361.38   39.19   0
  -4  -3   6  163.81   14.18   0
  -4  -2   6  176.65   12.83   0
  -3   0   5  457.35   18.05   0
  -6  -3   3  143.39   12.51   0
  -5  -1   4  738.00   23.72   0
  -4   0   4 1386.15   29.54   0
  -7  -2  -1   86.80   22.26   0
  -3  -4   6  195.18   14.45   0
  -7  -2  -2  247.08   29.05   0
  -5  -4   4  198.93   13.11   0
  -3  -2   6  238.18   14.50   0
  -7  -3  -1  355.48   21.90   0
  -6  -4   2  309.73   14.70   0
  -6  -2   2  324.82   19.18   0
  -5  -2   4  161.73   12.79   0
  -6  -3   2  218.26   15.07   0
  -5  -5   3  369.66   14.47   0
  -5  -1   3  820.73   25.13   0
  -5   0   1   56.01   17.51   0
  -4  -2   5  543.35   20.46   0
  -4   0   3 1440.30   29.53   0
  -2  -2   6  604.63   18.52   0
  -4  -6   3  295.41   13.44   0
  -3  -1   5 1177.02   25.30   0
  -2  -3   6  466.44   18.15   0
  -7  -4  -2  195.51   15.67   0
  -4  -1   4  106.63   12.30   0
  -2   5   8   78.39   18.60   0
  -2   5  10  100.95   17.68   0
   1   5  13  361.38   14.82   0
   2   3  16   33.92    5.57   0
   4   2  10  382.03   20.91   0
   4   2  11  899.53   26.38   0
   0   5  13  160.17   11.01   0
  -1   5   7  539.50   23.29   0
   1   5   9  571.18   21.61   0
   1   5  12  246.06   15.24   0
   3   3   7 1085.95   25.09   0
   3   3  14  337.16   12.08   0
   1   4  15   54.46    6.88   0
   1   5  10  598.75   22.73   0
   1   5  11  343.66   18.22   0
   2   4   7  760.38   20.81   0
   2   4  14  256.17   11.61   0
   3   2  15  140.47    9.39   0
  -1   5   8  584.53   24.97   0
   0   4  15  375.79   10.95   0
   0   5   8  219.54   17.23   0
   0   5  12   84.83   12.21   0
  -2   4  13  296.60   11.67   0
  -1   5  10  254.73   19.69   0
   0   5   9  123.14   16.24   0
   0   5  11  138.53   16.36   0
   1   3  16  278.10    9.63   0
   3   3   8  823.04   23.14   0
   2   2  16  208.91    9.07   0
   1   4   6  211.82   12.90   0
   2   4  12  201.82   13.73   0
   3   3   9 1205.91   27.47   0
   3   3  12  493.58   16.81   0
  -2   4   5 1081.18   28.53   0
   0   4   5  967.67   22.19   0
   1   4  14   81.54    7.76   0
   2   4  10  610.92   19.65   0
   2   4  11  657.38   19.89   0
   3   3  10  780.69   22.81   0
   3   3  11  667.26   20.51   0
   0   4  14  342.01   12.89   0
   3   2  14  139.17    9.88   0
  -2   4  12  354.04   15.19   0
  -1   4   5   82.96   11.55   0
   1   4   7  375.68   16.62   0
   2   3   6  581.62   17.06   0
  -2   3  14  179.38    8.66   0
  -1   3  15  294.02    9.75   0
   2   3  14   17.58    8.24   0
   3   2   7  812.72   22.85   0
  -3   3  12  448.47   17.55   0
  -2   4   6  576.84   24.49   0
   0   4   6 1316.38   27.14   0
   1   2  16   32.99    5.98   0
   3   2  13  272.62   12.64   0
  -2   4  11  215.94   16.66   0
   1   4  12  152.37   14.21   0
   3   1  14  356.37   13.63   0
  -1   4   6  132.95   13.80   0
   0   2  16  147.66    7.02   0
   0   3  15   80.62    7.34   0
   1   4   9  140.10   13.59   0
   1   4  10   73.66   12.71   0
   1   4  11  382.87   18.31   0
   2   3   7  229.59   12.78   0
   2   3  13  118.93   11.27   0
  -2   4   7  694.48   28.07   0
  -2   4  10  200.03   19.81   0
   0   4   7 1110.33   27.36   0
   0   4  12  309.36   17.18   0
  -2   4   8  245.09   22.50   0
  -2   4   9  696.76   28.92   0
   2   3   8   78.24   10.95   0
   3   2  10  218.34   15.37   0
   3   2  11  167.46   13.72   0
  -1   4   7  379.65   20.54   0
   0   4   8  555.56   22.27   0
   0   4  11  569.18   22.67   0
   1   3  14  486.80   15.79   0
  -2   3  13  198.33   10.77   0
  -1   3  14  289.59   11.46   0
  -1   4   8  384.05   21.96   0
   0   4   9  676.11   24.26   0
   0   4  10  522.28   22.52   0
   2   3  10   23.19    9.65   0
   2   3  11   56.92   11.07   0
   3   1  13  317.45   13.58   0
   0   1  16  147.58    6.90   0
   0   3  14   96.99    9.92   0
   1   2  15   35.28    6.99   0
   2   1  15  103.54    8.44   0
  -1   2  15  208.33    8.58   0
   1   3  13  764.44   20.47   0
  -3   3  10  609.04   26.92   0
   0   2  15  323.90   11.06   0
   3   0  13  102.74   12.20   0
   3   1  12  496.14   16.96   0
  -2   3  12  205.09   12.86   0
  -1   3  13  449.64   15.74   0
   0   3  13  115.35   11.88   0
   1   3   7 1732.76   28.07   0
   1   3  12  393.11   17.92   0
   3   1   8  705.61   24.04   0
   3   1  11  634.92   20.02   0
   1   2  14   24.90    8.80   0
   1   3  11  382.26   17.52   0
   2   1  14   87.19    9.57   0
   3   1  10  613.74   21.33   0
  -3   2  12   55.88    8.96   0
   1   1  15  285.15   10.89   0
   1   3   8  792.28   21.10   0
  -2   3  11  218.87   15.94   0
  -1   1  15  347.66   10.15   0
  -1   2  14  101.83    8.81   0
  -1   3  12  300.99   16.14   0
   0   3  12  172.39   14.84   0
   3   0  12   92.99   11.21   0
  -3   1  13  250.98    9.82   0
   0   3  11  171.00   15.08   0
  -2   1  14   51.81    6.50   0
  -2   3   6  410.28   21.97   0
  -1   3  11  620.66   21.63   0
   0   3   7  216.42   14.21   0
   1  -1  15  327.58   10.95   0
   2   1  13  157.90   11.87   0
   3   0  11  103.58   12.34   0
  -3   2  11   91.48   11.07   0
  -1   0  15  114.82    6.48   0
  -1   3   6 1414.88   30.11   0
   0   3   8  327.57   16.84   0
   0   3   9  278.07   17.14   0
   2  -1  14  108.13    9.45   0
  -2   3   7  377.26   22.40   0
  -2   3   8  341.58   21.34   0
  -1   3  10  489.82   21.44   0
   1   1  14  276.84   12.52   0
   3   0  10   12.20   12.04   0
  -1   3   9  536.41   22.80   0
   1   2  12   58.97   11.27   0
   2   1  12  491.25   16.49   0
  -3   0  13  135.61    7.85   0
  -1   1  14  365.11   12.40   0
  -3   1  12  325.71   12.21   0
  -3   2  10  142.86   16.67   0
  -2   0  14  221.33    8.58   0
   0   1  14  167.08   10.80   0
   1   2  11  388.39   16.38   0
   2   0  13  507.18   16.56   0
   0   2  12  420.21   16.96   0
   2   1  11  270.52   13.51   0
  -2  -1  14   50.46    5.43   0
  -2   1  13   97.50    8.92   0
  -1   2  12  147.42   12.65   0
   1   1  13  651.53   18.81   0
   1   2  10   72.43   10.89   0
   1  -2  14   22.66    7.27   0
   1   2   9   34.00    9.23   0
   2  -1  13   82.11   10.11   0
   2   1  10   98.02   10.82   0
  -3   2   9  182.46   18.04   0
  -1   0  14   33.50    6.71   0
   0   2  11  701.34   21.79   0
   2   0  12  170.55   12.24   0
  -4   1   9  198.74   17.55   0
   0   0  14  382.78   12.70   0
   0   1  13  143.71   12.19   0
   2   1   8  345.35   14.26   0
  -3   2   8   70.81   18.34   0
   1   1  12  389.63   16.42   0
  -3   0  12   96.53    8.68   0
  -2   1  12   60.58    9.90   0
  -1  -2  14  118.54    6.68   0
  -1  -1  14  237.31    9.14   0
   0  -1  14   84.63    7.53   0
   0   2  10  493.40   18.66   0
  -2   0  13  483.41   13.36   0
  -1   2  10  255.27   15.53   0
   2   0  11  611.40   17.71   0
  -4   0  10  347.30   14.43   0
  -4   1   8   93.94   17.40   0
  -2   2   9 1595.28   32.86   0
   0   1  12  157.61   13.05   0
   1  -3  13  307.55   11.72   0
   1   1  11  169.82   12.45   0
   2  -1  12  342.85   14.62   0
   2  -2  12  222.27   12.84   0
  -3   1  10  544.94   17.82   0
  -2  -1  13  140.75    8.35   0
  -1   0  13   23.65    8.53   0
   0   0  13  552.11   16.41   0
   1  -1  13  702.24   17.06   0
   2   0  10  919.65   20.27   0
  -2  -2  13  213.57    8.36   0
  -2   1  11  185.48   13.27   0
  -1   2   8  657.16   21.48   0
   1  -2  13   30.62    7.89   0
   1   0  12  293.23   14.48   0
   1   1  10  866.34   20.82   0
  -3  -2  12   79.83    6.56   0
  -1   2   7 1009.69   24.90   0
   0   1  11  239.67   14.08   0
  -2   0  12  581.23   16.44   0
  -1  -3  13  313.24    9.63   0
  -1   1  11  769.65   21.20   0
   0  -3  13  141.65    8.10   0
   0  -1  13  163.50   10.45   0
   1   1   9 1482.97   24.93   0
   2   0   9  945.36   20.52   0
  -4  -1  10  129.76   10.61   0
  -4   0   9  486.06   17.78   0
  -1  -1  13  332.86   12.13   0
  -1  -2  13  117.73    8.07   0
   0  -2  13  569.44   14.38   0
   0   0  12  454.75   15.91   0
   1   0  11 1032.55   22.66   0
   1   1   8  628.62   16.43   0
   2  -2  11  414.38   16.05   0
  -1   0  12   21.06    7.51   0
   0   1  10  374.43   16.04   0
  -4  -2  10  397.01   12.49   0
  -2  -1  12   52.38    8.35   0
  -1   1  10 1094.43   23.92   0
   0  -4  12  223.59    9.40   0
   1  -3  12  608.73   15.46   0
   2  -1  10  142.72   11.48   0
  -3   1   8  400.21   19.02   0
   1  -2  12   15.57    8.61   0
  -3   0  10  200.23   12.98   0
  -2  -3  12  105.77    7.03   0
  -2   0  11  974.88   21.84   0
   0   1   9  287.70   14.43   0
  -4   0   8  618.11   20.99   0
  -3  -3  11  225.18    8.74   0
  -2  -2  12  303.40   10.88   0
  -1  -1  12  389.14   14.32   0
   0  -1  12   57.24    9.92   0
   0   0  11 1085.81   23.10   0
  -4  -1   9  148.01   12.20   0
  -3  -2  11   74.33    7.39   0
  -3   1   7  517.24   22.01   0
  -1   0  11  200.18   13.51   0
  -1   1   9  948.90   22.44   0
   0   1   8  444.41   15.61   0
   1  -4  11  291.51   12.54   0
   2  -2  10  930.65   21.75   0
   2  -1   9  316.34   13.72   0
  -1  -3  12  378.99   11.64   0
   0  -2  12  378.04   13.58   0
  -1  -2  12   90.80    7.68   0
  -5  -2   7   69.89   13.17   0
  -4   0   7  601.50   22.26   0
  -3   0   9  540.11   17.85   0
  -3   1   6  976.41   29.28   0
  -2  -4  11  418.19   10.88   0
  -2  -1  11  179.89   11.91   0
  -2   0  10  137.33   12.56   0
  -1   1   8 1504.00   26.86   0
   0   0  10  572.47   17.17   0
   1  -2  11  284.74   13.18   0
   0  -1  11  186.39   11.82   0
  -5  -3   7  431.40   15.18   0
  -4  -3   9   40.90    7.64   0
  -2   1   7  140.22   13.33   0
  -1  -1  11  374.61   15.09   0
   2  -2   9 1327.58   25.08   0
  -2  -5  10   35.50    5.18   0
  -2  -3  11  151.74    8.96   0
  -2  -2  11  634.23   16.23   0
  -1  -4  11  152.93    8.43   0
  -1   1   7 1359.11   25.32   0
   0  -4  11  462.47   13.31   0
  -4  -1   8  131.97   11.95   0
  -3  -2  10   19.56    7.88   0
  -3   0   8   85.03   11.46   0
  -2   0   9 1086.83   23.18   0
  -1  -2  11  394.56   14.52   0
   0  -5  10  178.80    9.40   0
  -2  -1  10  120.83   11.21   0
  -1  -3  11  468.02   14.25   0
   1  -2  10  148.31   11.54   0
  -5  -2   6   68.95   14.05   0
   0  -1  10  444.99   15.65   0
   1  -1   9 1884.88   27.65   0
   1  -3  10  309.47   13.47   0
  -5  -4   6   27.78    8.11   0
  -4  -2   8  470.24   15.45   0
  -3   0   7  836.26   21.48   0
  -2  -4  10  263.23   10.67   0
  -2   0   8 1086.31   23.13   0
  -3  -4   9  250.60    9.98   0
  -3  -2   9  442.38   15.47   0
  -2  -3  10  268.13   12.23   0
  -1   0   8   47.17    9.12   0
   0  -4  10  281.32   12.56   0
   0  -2  10  384.69   14.77   0
   1  -1   8 1110.52   21.00   0
  -4  -5   7   90.49    6.98   0
  -2  -5   9   45.52    6.28   0
  -1  -4  10   66.36    8.48   0
  -1  -2  10  247.00   12.77   0
   0  -1   9  309.06   13.34   0
   1  -2   9   31.09    9.27   0
  -5  -2   5  256.68   18.07   0
  -2  -6   8  166.07    7.63   0
   0  -6   8  336.21   12.63   0
   1  -4   9  133.73   11.03   0
  -3   0   6  485.81   17.72   0
   0  -5   9  260.66   11.48   0
   1  -3   9  846.57   19.55   0
  -4  -1   6  617.80   20.06   0
  -3  -5   8  317.40   10.50   0
  -1   0   7  422.26   14.34   0
  -2   0  13  503.06   13.05   0
  -1   0  13   17.69    5.95   0
   0   2   9  896.92   20.27   0
  -4   2   9  493.28   18.60   0
  -2  -1  13  139.70    7.87   0
  -1  -4  11  191.89   10.55   0
  -1  -1  13  335.64   11.75   0
  -1   1  12  552.17   17.01   0
   0   2   8  665.56   17.07   0
   1  -3  10  305.74   15.11   0
   1  -1  11  315.28   14.90   0
   1   1   8  652.88   16.46   0
  -3   2  10  156.13   12.53   0
  -2   1  12   63.88    9.75   0
  -1  -3  12  392.02   11.63   0
  -1   2  10  234.69   13.77   0
   0  -2  12  364.27   13.43   0
   0   0  12  415.14   15.11   0
   0   1  11  173.35   10.88   0
   0  -1  12   57.13    9.43   0
  -2   2  10  226.51   14.51   0
  -4   0  11  350.68   11.18   0
  -3  -2  12   61.78    5.80   0
   0  -3  11   78.48   10.23   0
   0   1  10  332.90   13.81   0
   1  -2  10  170.26   12.63   0
  -4   1  10  155.18   10.28   0
  -4   2   8  414.41   18.65   0
  -3  -1  12  321.40   10.40   0
  -2   0  12  548.04   15.40   0
  -1   0  12   17.37    6.05   0
  -1   1  11  803.88   20.04   0
  -4  -2  11  263.84    8.62   0
  -3   2   9  188.99   13.89   0
  -2   1  11  191.45   13.00   0
  -1  -2  12  113.28    9.38   0
   1  -3   9  803.01   21.33   0
  -2   2   9 1768.59   29.99   0
   1   0   8  443.00   13.42   0
   0  -1  11  201.96   11.72   0
   1  -1   9 1926.96   27.32   0
  -3  -3  11  238.86    8.65   0
  -1  -3  11  466.09   14.06   0
  -1   1  10 1032.72   21.97   0
  -1   2   7 1099.86   22.86   0
  -3  -4  10    9.89    5.55   0
  -3   0  11  122.05    9.97   0
  -3   2   8  102.41   13.35   0
  -2   2   8  837.00   22.28   0
  -1  -4  10   72.86    8.86   0
  -1   0  11  187.55   12.22   0
   0   0  10  550.98   16.39   0
  -4   1   9  257.90   14.41   0
   0  -4   9  335.07   15.04   0
   0  -3  10  364.36   15.08   0
   1  -3   8  840.72   22.18   0
  -4  -3  10   35.15    5.25   0
  -2   1  10   59.11    8.88   0
   1  -1   8 1083.32   20.53   0
  -3  -1  11  444.32   13.53   0
  -2  -4  10  258.78   10.02   0
  -1  -2  11  379.69   14.35   0
   0  -1  10  454.76   15.39   0
   1  -2   8   40.98    9.89   0
  -5  -2   9   71.74    7.27   0
  -5  -1   9  336.45   11.38   0
  -5   1   7  689.46   22.39   0
  -3   2   7  625.26   21.68   0
  -2  -2  11  616.81   16.16   0
  -2  -1  11  165.42   11.29   0
  -2   2   7 1330.96   27.23   0
   0  -2  10  392.04   15.44   0
   0   0   9 1330.88   23.14   0
  -4  -1  10  117.19    8.67   0
  -3   1   9  575.04   18.88   0
  -5   0   8  118.78   10.20   0
  -4   1   8  132.18   12.45   0
  -3   2   6  173.90   18.41   0
  -1  -3  10  505.73   16.24   0
   0  -3   9  274.97   14.48   0
   1  -2   7  146.03   11.67   0
  -3  -3  10  245.99   10.25   0
  -1  -4   9  151.71   11.30   0
  -1  -1  10  568.25   16.88   0
   0  -4   8  463.21   17.86   0
   0  -1   9  302.97   13.62   0
   0   0   8 1769.23   25.37   0
  -1  -2  10  258.31   13.06   0
  -5   1   6  337.06   17.93   0
  -3  -2  10   25.86    8.30   0
  -3  -1  10  532.07   16.35   0
  -2  -5   8   56.25    8.20   0
  -1   0   9   52.89    9.56   0
  -5  -3   8  203.61    8.74   0
  -4  -3   9   30.85    6.70   0
  -2  -4   9  344.13   12.86   0
  -2  -2  10  177.00   12.37   0
  -1   1   7 1279.91   22.99   0
  -5  -2   8   54.80    7.55   0
  -4  -2   9  396.36   13.54   0
  -4   1   7  325.68   16.27   0
  -2   0   9 1047.86   22.47   0
   0  -3   8  121.32   12.41   0
   0  -1   8  375.17   14.01   0
  -6  -1   6   75.66    9.64   0
  -5  -4   7   71.26    6.32   0
  -5   0   7  188.39   12.57   0
  -1  -5   7  425.32   16.17   0
  -1  -3   9  616.50   18.47   0
  -1  -1   9  685.27   17.93   0
  -3  -3   9  504.90   15.45   0
  -1  -2   9  438.94   15.92   0
  -1   0   8   50.86    9.07   0
   0  -2   8  808.92   19.87   0
  -3  -1   9  808.66   20.66   0
  -3   1   7  583.00   19.46   0
  -2  -3   9  216.28   13.16   0
  -1  -4   8  115.40   11.86   0
  -6  -2   6  177.56    9.78   0
  -2  -1   9  155.27   11.79   0
  -4   1   6  953.86   24.43   0
  -3  -5   7  153.62    9.53   0
  -3  -4   8  121.07    9.78   0
  -3   0   8   83.72   11.83   0
  -2  -5   7   42.16   10.18   0
  -2  -2   9  417.85   16.28   0
   0  -1   7  825.25   18.40   0
  -5  -3   7  362.28   12.19   0
  -4  -1   8  121.05   12.11   0
  -2  -4   8  515.98   16.69   0
  -5   0   6  131.21   12.83   0
  -2   1   6  506.77   16.98   0
  -1  -3   8  751.23   20.44   0
  -1  -1   8  819.20   19.13   0
  -1   0   7  411.02   14.20   0
   0  -2   7 1393.88   24.55   0
  -6  -1   5  143.46   13.35   0
  -5  -5   5  116.87    8.79   0
  -4  -4   7  470.30   14.22   0
  -1  -5   6  284.52   15.99   0
  -5  -4   6   15.35    6.63   0
  -4   1   5  199.16   15.58   0
  -3  -3   8  435.33   16.46   0
  -2  -3   8  400.06   16.58   0
  -2  -1   8  367.49   14.79   0
  -1  -4   7  237.80   14.27   0
  -6  -2   5  357.95   14.01   0
  -3  -2   8   35.13    9.87   0
  -3   0   7  845.74   22.07   0
  -2  -2   8  805.02   20.61   0
  -2   0   7  783.46   19.51   0
  -5   0   5  473.56   18.76   0
  -4  -1   7  216.82   14.34   0
  -3  -5   6  254.64   12.25   0
  -3  -4   7  101.99   10.83   0
  -3   1   5 1570.30   29.27   0
  -2  -5   6   91.92   10.66   0
  -2  -4   7  726.77   20.47   0
  -5  -3   6  474.07   15.55   0
  -4  -6   4  280.03   11.39   0
  -4   0   6  262.29   15.42   0
  -1  -3   7  548.71   17.58   0
  -7  -3   2  361.74   15.03   0
  -7  -2   2  107.39   12.83   0
  -6  -1   4  163.34   13.49   0
  -1  -2   7  762.55   18.79   0
  -3  -1   7  485.13   17.26   0
  -1  -5   5  893.71   25.16   0
  -5  -4   5  179.48   10.94   0
  -4  -4   6  198.05   12.35   0
  -3  -3   7  313.41   15.66   0
  -2  -3   7  286.25   14.95   0
  -2   0   6  928.73   20.54   0
  -1  -4   6  200.83   14.33   0
  -5  -5   4  152.21    9.48   0
  -3  -6   4  161.55   11.06   0
  -3  -2   7  153.09   12.56   0
  -2  -2   7  840.96   20.61   0
  -5  -1   5  195.69   14.68   0
  -4  -3   6  143.39   12.81   0
  -4   0   5  858.46   22.88   0
  -3  -4   6  206.85   13.92   0
  -2  -4   6  446.41   17.97   0
  -6  -5   2   47.86    7.10   0
  -6  -4   3  205.42   10.90   0
  -6  -1   3   99.86   13.41   0
  -5  -3   5  151.81   12.37   0
  -5  -2   5  234.32   14.77   0
  -4  -2   6  222.34   14.36   0
  -3  -5   5  326.67   14.77   0
  -2  -5   5  147.67   12.81   0
  -1  -3   6  590.47   18.15   0
  -7  -3   1  238.96   13.02   0
  -7  -2   1  212.75   15.52   0
  -4  -6   3  310.54   12.58   0
  -3  -1   6  841.29   21.19   0
  -6  -3   3  126.18   10.96   0
  -5  -4   4  208.88   12.51   0
  -3  -3   6  802.18   21.65   0
  -3  -2   6  244.37   13.95   0
  -2  -3   6  484.53   17.29   0
  -1  -5   4  854.24   23.95   0
  -1  -4   5  175.18   13.68   0
  -6  -2   3  241.00   14.60   0
  -5  -5   3  410.58   14.20   0
  -5   0   3  200.45   17.19   0
  -4  -5   4  177.22   12.04   0
  -2  -2   6  611.68   17.87   0
  -4  -1   5  310.45   16.10   0
  -4   0   4 1354.64   27.36   0
  -7  -2   0  148.36   17.23   0
  -4  -3   5  120.30   12.90   0
  -6  -5   1   37.62    7.53   0
  -6  -4   2  305.87   13.28   0
  -5  -2   4  261.49   15.27   0
  -4  -2   5  535.04   18.79   0
  -2  -5   4   28.53   10.63   0
  -6  -6  -1  251.75   12.83   0
  -5  -6   1   38.82    7.98   0
  -4  -6   2  437.17   15.27   0
  -3  -1   5 1084.03   22.76   0
  -2  -1   5  162.27    9.20   0
  -6  -3   2  222.50   13.61   0
  -6  -2   2  323.26   16.54   0
  -5  -4   3  106.88   11.92   0
  -4  -4   4  479.38   18.52   0
  -3  -7   0  411.70   17.64   0
  -3  -2   5  126.98   11.66   0
  -2  -3   5  497.03   17.36   0
  -5  -5   2  482.38   16.42   0
  -5  -1   3  830.51   23.28   0
  -5   0   2  306.18   17.42   0
  -4  -5   3  155.37   12.68   0
  -2  -6   2  498.86   19.41   0
  -2  -2   5 1009.49   20.90   0
  -1  -5   3  620.12   21.44   0
  -1  -4   4  192.05   13.51   0
  -7  -2  -1   63.43   15.21   0
  -6  -1   1  171.82   18.00   0
  -3  -6   2   99.51   11.05   0
  -7  -3  -1  358.16   16.67   0
  -6  -5   0   58.87    8.96   0
  -5  -3   3  507.00   18.52   0
  -4  -7  -1  184.88   12.70   0
  -4  -3   4   44.88   11.03   0
  -3  -4   4  267.82   14.83   0
  -6  -6  -2  250.31   12.17   0
  -5  -6   0  145.78   10.56   0
  -5  -2   3   77.39   10.04   0
  -2  -4   4  908.35   22.50   0
  -3  -1   4 1290.87   23.23   0
  -2  -5   3   79.24   11.71   0
  -1  -3   4 1287.88   23.72   0
  -6  -3   1  127.81   12.66   0
  -6  -2   1  340.40   17.13   0
  -5  -4   2   92.06   11.85   0
  -7  -5  -4  161.30   13.43   0
  -7  -2  -2  255.96   19.62   0
  -5  -7  -3  211.21   12.10   0
  -5  -1   2 1036.40   25.01   0
  -5   0   1   76.23   13.67   0
  -4  -5   2  391.27   16.30   0
  -3  -7  -1  670.58   20.42   0
  -3  -3   4 1317.35   25.39   0
  -7  -3  -2  634.10   21.34   0
  -6  -1   0  204.99   16.92   0
  -2  -3   4  368.52   14.47   0
  -6  -6  -3  302.15   13.49   0
  -6  -5  -1   33.58    6.94   0
  -6  -4   0  629.65   18.71   0
  -4   0   2 1864.85   30.16   0
  -3  -6   1  162.13   12.36   0
  -2  -2   4 2162.00   28.04   0
  -1  -5   2 1018.93   24.63   0
  -5  -6  -1  121.50   10.39   0
  -5  -2   2  199.16   13.75   0
  -4  -7  -2  115.48   10.95   0
  -4  -3   3   36.52   10.42   0
  -5  -7  -4  214.12   13.28   0
  -3  -4   3   76.41    8.51   0
  -6  -3   0  266.73   15.18   0
  -6  -2   0  736.29   22.33   0
  -2  -5   2  173.23   12.54   0
  -2  -4   3 1105.23   23.17   0
  -7  -3  -3  305.66   17.19   0
  -5  -5   0  758.32   20.23   0
  -5  -4   1   60.77   11.34   0
  -4  -4   2  863.61   22.44   0
  -3  -1   3  684.78   16.83   0
  -6  -6  -4  310.57   13.66   0
  -6  -5  -2   46.70    9.41   0
  -6  -4  -1  384.49   16.00   0
  -6  -1  -1   39.12   13.48   0
  -5  -1   1  818.12   21.81   0
  -5   0   0  586.33   21.75   0
  -4  -5   1  189.55   13.57   0
  -3  -7  -2  470.80   17.28   0
  -5  -6  -2  172.54   11.43   0
  -4  -7  -3   52.55    9.68   0
  -3  -2   3    6.89    7.45   0
  -7  -2  -4  172.91   19.88   0
  -5  -3   1  450.24   17.63   0
  -2  -3   3  552.98   15.40   0
  -6  -3  -1  108.06   12.18   0
  -4  -3   2  217.79   12.86   0
  -6  -6  -5  186.49   12.08   0
  -3  -4   2  200.44   12.25   0
  -1  -5   1  611.40   18.85   0
  -1  -4   2  295.43   13.16   0
  -5  -5  -1  461.49   17.02   0
  -5  -4   0  146.46   11.85   0
  -5   0   7  181.39   15.83   0
  -4  -3   7   63.36   12.82   0
  -1  -5   2 1048.55   26.68   0
  -6  -4   4  232.20   11.72   0
  -6  -1   6   90.71   11.96   0
  -3  -4   6  202.11   15.35   0
  -6  -3   5  114.71   10.21   0
  -5  -4   5  170.44   12.30   0
  -5  -1   7  717.07   21.90   0
  -3   1   7  585.81   24.48   0
  -6  -5   2   49.03    9.05   0
  -4  -5   4  215.93   14.49   0
  -3  -6   1  136.38   16.21   0
  -1  -4   4  200.78   16.16   0
  -4  -6   1  452.92   20.11   0
  -2  -5   3   84.99   14.30   0
  -2   0   7  752.12   21.44   0
  -5  -5   3  388.15   15.65   0
  -4  -2   7  912.07   25.60   0
  -4  -4   5  163.07   14.45   0
  -4   0   7  707.12   23.47   0
  -3  -6   0  329.94   21.39   0
  -4  -3   6  146.08   14.08   0
  -4  -1   7  215.40   16.44   0
  -3  -4   5  224.99   15.57   0
  -3   0   7  816.81   23.58   0
  -1  -4   3  156.52   13.86   0
  -6  -4   3  211.98   12.53   0
  -5  -2   6   44.52   11.89   0
  -4  -6   0  318.73   18.95   0
  -3  -5   3  421.17   19.57   0
  -7  -4   1   82.65    9.57   0
  -6  -5   1   37.16    9.50   0
  -6   0   5  584.68   21.61   0
  -5  -6  -1  118.42   14.61   0
  -5  -4   4  205.34   14.43   0
  -5   0   6  106.02   16.77   0
  -2  -5   2  189.31   15.57   0
  -6  -3   4  276.97   13.80   0
  -6  -1   5  116.75   12.39   0
  -5  -3   5  146.78   14.43   0
  -2  -4   4  991.30   26.33   0
  -2  -2   6  567.99   19.87   0
  -3   1   6  984.79   27.63   0
  -4  -2   6  264.87   17.22   0
  -1  -4   2  279.30   15.01   0
  -7  -1   3  362.58   16.59   0
  -5  -6  -2  184.72   17.37   0
  -3  -5   2  418.89   19.09   0
  -3  -4   4  281.21   16.30   0
  -3  -2   6  259.55   16.09   0
  -2  -5   1  223.18   16.02   0
  -4  -3   5  112.79   13.56   0
  -3  -3   5  808.66   23.72   0
  -6  -4   2  329.57   15.11   0
  -6  -2   4  222.79   14.30   0
  -5  -4   3   98.94   12.93   0
  -5  -2   5  260.78   16.69   0
  -7  -4   0  122.38   10.47   0
  -5  -6  -3  107.85   18.11   0
  -5  -3   4  282.99   16.53   0
  -2  -5   0  183.16   15.37   0
  -2  -2   5  998.40   23.20   0
  -6  -1   4  164.51   14.03   0
  -5   0   5  506.47   20.24   0
  -4  -4   3  381.42   18.33   0
  -3  -5   1  453.19   19.45   0
  -2  -3   4  350.59   16.16   0
  -7  -3   1  253.88   13.25   0
  -4  -5   1  183.45   15.40   0
  -4  -2   5  527.50   19.96   0
  -3  -4   3   82.05   10.45   0
  -6  -4   1  251.46   14.78   0
  -2  -1   5  237.00   13.01   0
  -7  -4  -1   24.26    9.15   0
  -7   0   2   59.82   12.94   0
  -5  -4   2   81.35   13.06   0
  -6  -2   3  280.33   15.98   0
  -5  -2   4  273.47   16.88   0
  -6  -5  -2   42.91   12.14   0
  -4   0   5  866.98   23.45   0
  -3  -5   0  351.61   17.94   0
  -3  -1   5 1171.94   25.17   0
  -5   1   4  758.80   25.12   0
  -4  -4   2  783.59   22.76   0
  -3   0   5  464.79   17.13   0
  -2  -2   4 2135.46   30.98   0
  -8  -1  -1   73.04   10.83   0
  -7  -3   0  284.47   14.27   0
  -7  -2   1  244.16   13.72   0
  -5  -5  -1  445.04   20.27   0
  -7  -4  -2  207.98   13.34   0
  -5   0   4  321.18   17.26   0
  -4  -2   4  935.16   23.95   0
  -8  -2  -2  316.64   14.65   0
  -6  -5  -3   90.64   13.16   0
  -5  -4   1   60.35   12.85   0
  -4  -3   3   32.26    8.28   0
  -3  -5  -1  511.85   20.16   0
  -3  -3   3 1061.38   23.94   0
  -3  -2   4  220.92   13.82   0
  -4  -5  -1  468.80   20.26   0
  -7  -1   1  215.91   13.85   0
  -7   0   1  123.53   13.04   0
  -5  -3   2  421.41   18.68   0
  -5  -2   3  116.57   13.42   0
  -4   1   4  209.63   15.86   0
  -7  -4  -3   75.63   11.66   0
  -7  -3  -1  339.81   16.16   0
  -5  -5  -2  521.28   21.87   0
  -4  -4   1  520.60   19.20   0
  -8  -1  -2   70.01   10.90   0
  -8   0  -2  234.76   18.37   0
  -7  -2   0  171.60   12.88   0
  -6  -4  -1  392.38   18.31   0
  -4   0   4 1451.89   27.63   0
  -3  -5  -2  453.77   19.88   0
  -3  -1   4 1435.44   25.94   0
  -8  -2  -3  304.41   15.42   0
  -6   1   2  181.42   16.69   0
  -5  -4   0  144.00   14.11   0
  -4  -5  -2  170.74   15.89   0
  -2  -4   0 1031.70   23.88   0
  -7   1   0  347.13   22.12   0
  -5   1   3  896.23   25.44   0
  -4  -2   3 1057.38   24.20   0
  -7  -4  -4   96.35   12.54   0
  -6   0   2  639.86   21.46   0
  -3  -2   3   17.58    9.12   0
  -7  -3  -2  654.71   21.09   0
  -6  -5  -6   27.27   16.54   0
  -6  -2   1  333.25   17.89   0
  -5   0   3  185.39   14.87   0
  -4  -4   0  519.39   19.28   0
  -3  -5  -3  467.49   22.62   0
  -8  -2  -4  330.17   17.11   0
  -7   0   0   64.71   11.94   0
  -4  -5  -3  130.33   15.69   0
  -3  -4   0  594.71   19.04   0
  -8   0  -3  148.41   15.86   0
  -7  -2  -1   82.80   12.28   0
  -6  -5  -7   72.26   16.17   0
  -5  -5  -4  532.51   23.44   0
  -5  -4  -1  172.85   14.86   0
  -4  -3   1   13.14    9.49   0
  -4   1   3  357.97   16.92   0
  -3  -1   3  695.62   18.22   0
  -8  -2  -5  316.69   16.95   0
  -6  -3  -1  131.88   14.41   0
  -6   1   1  155.23   17.18   0
  -5  -1   2 1012.53   25.45   0
  -4  -2   2 1347.70   26.08   0
  -4   0   3 1432.32   26.30   0
  -3  -3   1 1623.03   26.52   0
  -5  -3   0  504.48   19.32   0
  -3  -4  -1  143.91   12.47   0
  -8   0  -4  168.88   16.17   0
  -5  -4  -2  256.78   17.08   0
  -5  -2   1  113.28   12.65   0
  -8  -2  -6  326.81   17.65   0
  -7   0  -1   88.68   13.02   0
  -8  -2  -7  285.73   17.36   0
  -8  -1  -5  158.62   14.01   0
  -4  -3   0  357.65   15.44   0
  -8  -2  -8  189.39   15.61   0
  -8   0  -5  184.00   16.37   0
  -4  -5  -6   43.38   15.12   0
  -4  -4  -2  899.91   23.95   0
  -7  -3  -5  458.19   21.15   0
  -7  -2  -3   63.92   10.50   0
  -7  -1  -2  313.28   14.99   0
  -6  -2  -1  225.12   17.02   0
  -5  -3  -1  337.87   17.07   0
  -5  -1   1  713.26   21.14   0
  -4  -2   1  749.06   19.78   0
  -3  -4  -2  384.92   16.28   0
  -3  -3   0 1426.40   24.12   0
  -8  -1  -6   64.49   12.54   0
  -7   1  -2  362.79   19.29   0
  -8   0  -6  142.93   18.15   0
  -7   0  -2  141.06   13.89   0
  -6  -3  -3  265.37   17.26   0
  -4   0   2 1859.71   28.79   0
  -8  -1  -7   72.86   12.62   0
  -7  -3  -6  335.36   19.67   0
  -8  -1  -8   78.82   15.16   0
  -7  -2  -4  181.83   15.66   0
  -6  -4 -11  241.55   23.09   0
  -4  -4  -3  643.29   21.61   0
  -8   0  -7  109.36   16.18   0
  -7  -3  -7  652.33   24.18   0
  -6  -4  -7  543.45   23.19   0
  -6  -2  -2  457.67   19.60   0
  -6  -1  -1   22.64   11.62   0
  -5  -3  -2  424.35   18.21   0
  -7  -3  -8  320.80   19.39   0
  -7  -2  -5  156.63   15.54   0
  -7   0  -3  123.60   14.21   0
  -7   1  -3  300.84   18.93   0
  -6  -4 -10  306.80   20.63   0
  -6  -4  -9  349.28   20.95   0
  -5  -4  -5   90.10   15.24   0
  -5  -1   0 1023.16   24.53   0
  -4  -2   0  846.05   19.80   0
  -7  -3  -9  411.70   21.24   0
  -6   0  -1  459.40   19.90   0
  -5  -2  -1  473.33   18.39   0
  -4  -4  -4 1191.11   27.69   0
  -6   1  -1   68.87   13.62   0
  -6  -3  -5  292.38   19.27   0
  -6  -2  -3  513.61   20.53   0
  -5  -3  -3  394.29   17.81   0
  -7  -2  -6  184.97   17.24   0
  -6  -1  -2  343.49   17.13   0
  -5   0   0  571.99   18.99   0
  -4   0   1 1397.35   24.65   0
  -3  -4  -4  403.65   17.40   0
  -7   1  -4  315.65   19.14   0
  -7  -1  -5  342.33   19.06   0
  -7   2  -5  115.76   22.05   0
  -5  -4  -7  212.80   18.41   0
  -4  -4  -5  527.04   21.53   0
  -6  -3  -6   23.12   11.43   0
  -5  -1  -1 1145.70   25.24   0
  -4  -2  -1  709.11   18.67   0
  -7  -2 -11   89.86   14.49   0
  -7  -2  -8   59.75   16.31   0
  -5  -4 -11  168.58   20.55   0
  -5  -4  -8  242.21   20.10   0
  -5  -3  -4  274.63   17.11   0
  -3  -4  -5  204.73   15.53   0
  -7  -2 -10   97.12   15.01   0
  -7  -2  -9  123.64   16.30   0
  -7  -1  -6  420.70   21.33   0
  -7   1  -5  378.35   23.23   0
  -6  -3  -7  111.44   17.17   0
  -6  -1  -3  315.42   16.94   0
  -6   1  -2  470.21   19.33   0
  -5  -4 -10  220.10   20.56   0
  -5  -4  -9  139.63   18.44   0
  -4  -4  -6  692.22   24.19   0
  -4  -3  -3  262.60   14.38   0
  -7   2  -6  106.74   22.84   0
  -6  -3 -12   20.22   12.65   0
  -6  -3  -8  140.17   18.08   0
  -7  -1 -12  143.10   13.55   0
  -7  -1  -7  582.24   24.48   0
  -6  -3 -11   96.30   16.02   0
  -5  -3  -5  670.02   22.73   0
  -5  -2  -3  322.32   15.96   0
  -4  -4  -7  794.46   26.39   0
  -7   1  -6  359.64   22.02   0
  -6   2  -3  230.13   18.24   0
  -5   2  -1  202.96   16.59   0
  -3  -4  -6  141.82   15.56   0
  -7  -1  -8  280.62   20.68   0
  -4  -4  -8  489.70   23.26   0
  -4  -2  -2 1323.75   24.18   0
  -7  -1 -10  155.80   16.68   0
  -7   0  -7   81.50   15.85   0
  -7   2  -9   65.98   20.88   0
  -6  -2  -6  766.11   26.20   0
  -6   1  -3  229.52   16.33   0
  -5  -3  -6  475.04   21.88   0
  -4  -1  -1  501.34   15.25   0
  -7   1  -7  377.47   23.02   0
  -4  -4 -10  193.00   20.98   0
  -7   0  -8  146.73   17.99   0
  -7   0 -11  148.92   14.59   0
  -7   0  -9  178.07   18.10   0
  -6  -2  -7  602.33   26.37   0
  -6   0  -4  586.11   20.93   0
  -7   0 -10  144.31   17.23   0
  -6   2  -4  343.92   20.48   0
  -5  -1  -3  984.21   23.44   0
  -6   1  -4  339.13   18.39   0
  -4  -2  -3 1002.65   21.49   0
  -5  -3   7  393.97   14.25   0
  -3  -1   9  790.31   19.16   0
  -2  -5   9   41.85    6.17   0
  -2  -3  10  282.94   12.25   0
  -2  -2  10  151.69   11.29   0
  -1  -5   9  260.04   10.43   0
  -1  -2  10  235.74   12.44   0
   0  -6   7  429.22   13.90   0
   1  -4   8   82.33   11.85   0
  -2   0   8 1164.65   23.87   0
   0  -4   9  380.15   15.11   0
   1  -2   8   34.56    6.95   0
  -3  -6   7   58.87    5.68   0
  -1  -1   9  691.56   18.20   0
   0  -5   8  105.35   11.00   0
   0  -2   9  583.96   17.05   0
  -4  -2   8  406.88   14.83   0
  -3  -5   8  314.10   10.56   0
  -3  -3   9  524.72   15.78   0
   0  -3   9  243.90   13.43   0
  -4  -3   8   18.35    7.61   0
  -3   0   7  817.05   22.19   0
  -2  -4   9  352.67   13.63   0
   0  -1   8  345.03   13.24   0
  -2  -6   7  250.58    9.99   0
  -1  -7   5  293.41   12.75   0
  -1  -6   7  106.72    8.70   0
   1  -4   7  268.03   15.45   0
   1  -2   7  122.75   10.16   0
  -4  -1   7  195.51   13.77   0
  -3  -1   8  394.20   16.54   0
  -2  -5   8   52.74    8.12   0
  -2  -3   9  213.35   12.73   0
  -2  -2   9  389.14   15.29   0
  -1  -5   8  467.66   15.48   0
  -1  -3   9  562.54   17.72   0
   0  -6   6  533.97   17.26   0
  -5  -2   6   60.40   13.02   0
  -2  -7   5  184.54    9.88   0
   1  -3   7 1062.05   23.50   0
  -3  -4   8  136.83   10.50   0
  -1  -1   8  884.66   20.13   0
   0  -2   8  712.82   18.41   0
  -5  -3   6  462.31   15.62   0
   0  -5   7  184.63   13.83   0
   0  -3   8  122.80   11.07   0
   0  -1   7  782.31   17.87   0
  -3  -6   6   81.58    7.42   0
   1  -5   5  629.96   20.97   0
   1  -4   6  242.25   15.46   0
  -4  -6   5  123.04    8.75   0
  -4  -2   7  897.06   21.95   0
  -3  -5   7  157.36   10.48   0
  -3   0   6  467.51   18.99   0
  -2  -4   8  513.45   17.31   0
  -1  -4   8  112.33   12.22   0
  -4  -5   6  292.25   11.69   0
  -4  -3   7   57.19   10.39   0
  -2  -2   8  818.53   20.77   0
  -1  -7   4  539.37   17.03   0
  -1  -6   6   55.62    9.57   0
  -1  -2   8  324.24   14.26   0
  -3  -7   4  206.88    9.64   0
  -2  -6   6  258.69   11.57   0
  -2  -3   8  392.13   16.79   0
  -1  -5   7  469.72   17.29   0
   0  -2   7 1295.00   23.24   0
  -4  -1   6  608.32   20.42   0
  -1  -1   7  768.10   18.66   0
  -2  -7   4   80.65    8.57   0
   0  -3   7  434.01   16.01   0
   1  -5   4  463.68   19.70   0
  -5  -4   5  206.25   11.63   0
  -5  -2   5  210.62   15.29   0
  -3  -4   7   91.88   11.38   0
  -1  -4   7  227.17   14.37   0
  -5  -3   5  133.17   11.97   0
  -4  -4   6  178.17   12.24   0
  -4  -2   6  219.94   14.59   0
  -3  -6   5  125.51    9.38   0
  -3  -5   6  276.20   13.58   0
  -3  -3   7  298.03   15.67   0
  -2  -4   7  746.59   20.86   0
  -1  -2   7  747.38   18.96   0
  -2  -2   7  869.94   21.38   0
  -1  -7   3  259.93   13.43   0
  -1  -5   6  341.01   16.42   0
  -1  -3   7  536.75   17.74   0
   0  -2   6  831.37   18.63   0
  -4  -5   5  253.84   12.34   0
  -2  -6   5  224.98   12.52   0
  -2  -3   7  309.87   15.34   0
   0  -5   5   98.81   13.73   0
   1  -4   4  486.88   19.52   0
  -4  -7   2   40.85    6.90   0
  -2  -7   3   80.21   10.47   0
   0  -3   6  136.86   11.11   0
  -3  -4   6  211.13   14.41   0
  -5  -2   4  216.13   15.21   0
  -1  -6   4  133.03   12.78   0
  -6  -4   2  304.47   14.43   0
  -3  -6   4  173.52   11.49   0
  -3  -5   5  323.90   15.05   0
  -3  -3   6  783.09   21.74   0
  -2  -4   6  454.83   17.81   0
   0  -4   5  736.37   20.89   0
  -6  -5   1   37.74    9.32   0
  -5  -5   3  412.36   14.48   0
  -5  -3   4  250.29   14.88   0
  -4  -6   3  243.61   11.75   0
  -4  -2   5  563.93   19.47   0
  -2  -6   4  307.59   14.67   0
  -2  -2   6  561.64   17.30   0
   0  -5   4  259.74   16.24   0
  -4  -5   4  208.80   13.07   0
  -3  -7   2  336.44   13.23   0
  -3  -1   5 1137.79   24.28   0
  -2  -5   5  155.76   13.56   0
  -2  -3   6  465.17   17.07   0
  -4  -7   1   44.30    7.57   0
  -2  -7   2  154.37   11.23   0
  -4  -1   4  110.62   13.26   0
  -3  -4   5  199.57   14.07   0
  -1  -7   1  269.63   15.37   0
  -1  -4   5  194.82   13.71   0
  -5  -7  -1  169.87   10.10   0
  -5  -6   1   47.79    7.88   0
  -3  -6   3  126.09   11.93   0
   0  -4   4 1250.83   25.54   0
  -6  -4   1  260.81   13.95   0
  -5  -2   3   88.78   13.00   0
  -4  -4   4  473.41   17.99   0
  -3  -8  -2  174.10   11.60   0
  -2  -6   3  413.54   16.60   0
   0  -5   3  311.27   16.88   0
  -6  -5   0   67.39   10.77   0
  -5  -5   2  473.08   16.09   0
  -4  -6   2  456.88   15.65   0
  -3  -7   1  356.81   14.14   0
  -2  -7   1  153.83   12.11   0
  -2  -5   4   27.45   11.28   0
  -2  -2   5  935.31   20.31   0
  -4  -7   0   51.20    8.28   0
  -4  -2   4  954.52   23.46   0
  -2  -3   5  535.38   17.64   0
  -3  -1   4 1316.36   24.96   0
  -1  -7   0  190.01   13.81   0
   0  -6   1  327.26   17.67   0
  -6  -6  -2  250.48   12.91   0
  -5  -7  -2  112.03    9.57   0
  -3  -8  -3   27.82    9.31   0
  -1  -6   2  148.20   13.42   0
  -5  -6   0  135.54   10.19   0
  -3  -6   2  105.88   11.64   0
  -3  -4   4  276.59   15.15   0
  -1  -4   4  187.12   12.77   0
  -4  -1   3  359.27   16.95   0
  -3  -7   0  377.78   15.03   0
  -3  -5   3  376.44   16.75   0
  -2  -6   2  502.89   17.90   0
  -2  -4   4  863.28   21.98   0
  -5  -5   1  422.96   16.31   0
  -4  -6   1  437.66   16.41   0
  -3  -8  -4  154.19   13.38   0
  -3  -3   4 1256.91   25.29   0
   0  -5   2  370.35   17.57   0
  -5  -3   2  437.25   17.98   0
  -5  -2   2  178.12   14.58   0
  -4  -5   2  357.25   16.55   0
  -2  -5   3   90.95   12.00   0
  -1  -7  -1  443.55   17.97   0
  -6  -6  -3  279.35   13.57   0
  -5  -7  -3  221.38   11.66   0
  -2  -3   4  324.91   14.21   0
  -2  -2   4 2154.97   28.09   0
  -4  -2   3 1063.08   24.06   0
  -3  -8  -5  116.89   13.23   0
  -1  -6   1  102.09   12.63   0
  -7  -4  -4   96.02   16.93   0
  -3  -4   3   89.45    9.20   0
  -2  -7  -1  117.69   12.25   0
  -5  -7  -4  204.57   11.94   0
  -4  -6   0  332.34   15.35   0
  -2  -4   3 1016.64   23.03   0
  -1  -7  -2  435.16   18.50   0
  -6  -6  -4  336.56   14.64   0
  -6  -4  -1  373.41   16.47   0
  -4  -4   2  816.21   22.72   0
  -2  -5   2  187.48   13.27   0
  -4  -5   1  191.91   14.30   0
  -3  -3   3 1008.14   22.48   0
  -5  -6  -2  190.62   12.67   0
  -5  -3   1  478.62   18.88   0
  -5  -2   1  111.02   13.09   0
  -6  -3  -1   94.87   12.87   0
  -5  -7  -5  180.75   12.18   0
  -4  -7  -3   58.90    9.94   0
  -2  -7  -2  255.27   14.68   0
  -2  -3   3  543.35   16.25   0
  -1  -7  -3  496.41   20.65   0
  -4  -6  -1  260.67   14.98   0
  -4  -2   2 1404.66   26.28   0
  -3  -5   1  418.16   17.30   0
  -1  -5   1  701.39   19.87   0
  -6  -4  -2  289.76   16.17   0
  -5  -7  -6  227.53   12.95   0
   0  -5   0   66.25   12.57   0
  -5  -6  -3  142.28   12.70   0
  -4  -7  -4   90.55   11.12   0
  -4  -5   0  299.76   16.20   0
  -2  -7  -3  160.05   13.62   0
  -2  -5   1  220.63   13.08   0
  -5  -7  -7  190.82   12.86   0
  -3  -6  -1  196.54   14.11   0
  -1  -6  -1   64.27   12.09   0
  -5  -3   0  538.95   19.61   0
  -4  -6  -2  488.71   18.34   0
  -7  -4  -7   78.83   17.49   0
  -6  -6  -7  372.88   16.80   0
  -5  -7  -8  171.87   12.33   0
  -5  -2   0  278.60   15.75   0
  -4  -7  -5  169.76   13.05   0
  -6  -4  -3  449.55   18.60   0
  -5  -6  -4  208.80   14.41   0
  -5  -4  -1  164.16   14.23   0
  -2  -7  -4   93.27   12.29   0
  -2  -3   2  675.35   16.91   0
  -6  -6  -8  272.46   15.23   0
  -1  -5   0 1244.63   24.63   0
  -4  -5  -1  459.84   18.19   0
  -4  -4   0  607.29   19.73   0
  -1  -6  -2   24.22   10.90   0
  -6  -5  -5  250.76   15.67   0
  -4  -7  -6   66.07   11.23   0
  -4  -6  -3  417.09   18.71   0
  -2  -4   1  934.59   20.84   0
  -5  -6  -5   49.59   11.91   0
  -2  -7  -5  142.19   14.21   0
  -6  -4  -4  370.53   18.26   0
  -5  -5  -3  727.98   22.87   0
  -5  -3  -1  354.81   17.56   0
  -4  -7  -7  102.31   12.84   0
  -3  -3   1 1596.90   26.14   0
  -6  -5  -6   36.52   12.38   0
  -6  -2  -3  434.90   21.25   0
  -5  -4  -2  255.42   15.56   0
  -5  -2  -1  447.69   18.25   0
  -4  -5  -2  207.48   14.91   0
  -3  -7  -6  590.84   21.04   0
  -2  -7  -6  141.82   13.82   0
  -5  -6  -6  115.61   13.50   0
  -4  -7 -10  125.75   12.86   0
  -4  -6  -4  600.46   21.63   0
  -3  -6  -3  132.64   14.10   0
  -1  -6  -3  299.89   15.97   0
  -1  -5  -1 1347.51   25.47   0
  -2  -6  -3  593.06   20.38   0
  -6  -5  -7   69.91   13.43   0
  -6  -4  -5  306.33   18.87   0
  -6  -3  -4  303.63   17.79   0
  -4  -2   0  645.87   17.70   0
  -7  -3  -3  321.58   18.99   0
  -6  -2   0  746.97   24.95   0
  -5  -5  -3  667.83   25.54   0
  -4  -6  -9  389.96   22.50   0
  -4  -5  -2  205.81   17.10   0
  -4  -4   0  535.63   20.89   0
  -4  -2   2 1400.47   29.30   0
  -3  -6  -7  151.85   18.29   0
  -2  -4   0  977.87   23.79   0
  -7  -4  -5  164.91   15.51   0
  -6  -5  -5  233.33   17.80   0
  -6  -3  -1   89.86   15.08   0
  -4  -6  -8  339.48   21.24   0
  -3  -5  -2  455.31   20.22   0
  -5  -2   1  105.98   15.72   0
  -6  -5  -6   35.22   14.50   0
  -7  -4  -6  175.88   16.11   0
  -5  -5  -4  548.17   24.65   0
  -4  -5  -3  153.26   17.62   0
  -4  -1   2  393.19   19.30   0
  -7  -3  -4  359.29   19.94   0
  -3  -5  -3  434.55   20.36   0
  -6  -5  -8  142.04   16.36   0
  -5  -4  -2  259.51   18.88   0
  -2  -5  -4  194.91   16.14   0
  -7  -2  -3   63.91   14.86   0
  -6  -5  -9  184.01   17.16   0
  -5  -5  -5  770.36   28.32   0
  -7  -4 -10   74.59   13.65   0
  -7  -4  -9   87.34   14.75   0
  -7  -4  -8   53.65   14.58   0
  -6  -4  -4  348.62   21.38   0
  -6  -2  -1  182.54   17.51   0
  -4  -5  -4  268.89   19.41   0
  -4  -2   1  768.24   22.24   0
  -5  -5 -11  719.42   29.80   0
  -5  -2   0  272.75   17.56   0
  -6  -4  -5  305.66   21.70   0
  -4  -5  -5  247.62   20.49   0
  -4  -4  -2  837.93   25.15   0
  -3  -3   0 1435.00   26.72   0
  -2  -4  -2 2480.33   35.69   0
  -7  -1  -3  269.57   19.47   0
  -6  -3  -3  276.98   19.86   0
  -5  -5  -7  566.77   27.48   0
  -2  -5  -7  381.35   23.51   0
  -7  -3  -6  333.37   21.58   0
  -6  -1  -1   17.09   14.05   0
  -4  -5 -11   47.75   17.42   0
  -4  -5  -6   51.07   16.85   0
  -6  -4  -6  549.56   25.83   0
  -6  -2  -2  472.99   22.11   0
  -3  -5 -10  174.92   21.55   0
  -3  -5  -6  454.55   22.14   0
  -5  -4  -4  261.30   18.94   0
  -5  -3  -2  423.67   20.09   0
  -4  -5 -10   35.37   19.86   0
  -4  -3  -1  366.10   17.15   0
  -7  -3  -7  660.11   27.13   0
  -5  -1   0 1131.03   28.58   0
  -4  -5  -9  238.13   21.32   0
  -4  -5  -8  128.79   18.97   0
  -3  -5  -9  320.76   22.63   0
  -3  -5  -8  242.37   20.39   0
  -7  -2  -5  161.38   17.45   0
  -5  -2  -1  437.32   19.89   0
  -4  -2   0 1031.48   24.25   0
  -3  -4  -3  241.06   15.37   0
  -7  -3 -10  276.00   19.88   0
  -7  -3  -8  282.39   21.39   0
  -6  -4  -8  345.69   23.24   0
  -3  -3  -1 2255.69   32.56   0
  -6  -4 -10  281.11   20.86   0
  -6  -4  -9  386.45   24.42   0
  -5  -4  -5   49.63   12.97   0
  -2  -4  -4 1457.68   28.38   0
  -6  -1  -2  299.72   19.19   0
  -5  -4  -6  181.65   20.11   0
  -4  -3  -2  166.78   13.41   0
  -5  -4 -12   18.68   16.18   0
  -3  -4  -4  367.46   17.95   0
  -7  -1  -5  318.28   20.43   0
  -4  -4  -5  548.78   24.27   0
  -7  -2  -7   54.90   17.07   0
  -6  -3  -6   22.04   16.24   0
  -3  -3  -2 2536.73   34.24   0
  -2  -4  -5 1068.86   25.95   0
  -5  -4 -11  170.25   21.27   0
  -5  -3  -4  275.46   18.79   0
  -5  -1  -1 1129.02   28.07   0
  -7  -2  -8   54.74   17.35   0
  -5  -4  -9  148.84   21.13   0
  -4  -4 -12  335.45   22.93   0
  -4  -4  -6  731.51   27.29   0
  -7  -2 -10   75.86   16.70   0
  -7  -2  -9  100.37   18.29   0
  -7  -1  -6  385.94   23.27   0
  -6  -1  -3  350.82   19.88   0
  -2  -4  -6  853.58   24.65   0
  -4  -4  -7  767.98   28.74   0
  -6  -3 -11   68.86   16.54   0
  -6  -3  -9  147.13   20.99   0
  -6  -2  -5  331.34   22.04   0
  -3  -4 -11   92.56   18.54   0
  -2  -4  -7  760.61   25.28   0
  -6  -3 -10   69.38   14.60   0
  -5  -2  -3  354.76   19.00   0
  -4  -4 -10  233.17   22.51   0
  -4  -4  -9  688.19   29.44   0
  -3  -3  -3 1799.99   30.09   0
  -5  -3 -13  245.36   20.21   0
  -5   0  -1  449.21   20.41   0
  -4  -3  -4  455.13   19.05   0
  -3  -4 -10  136.46   19.15   0
  -7  -1 -11  148.66   15.63   0
  -7   0  -6  235.67   20.63   0
  -5  -3  -6  446.15   23.63   0
  -5  -1  -2 1005.54   26.00   0
  -3  -4  -9  206.20   19.52   0
  -3  -4  -8  209.79   18.54   0
  -7  -1 -10  169.82   19.41   0
  -7  -1  -9  354.89   24.09   0
  -6  -2 -13  210.51   17.37   0
  -6  -1  -4  311.61   20.01   0
  -6   0  -3  838.31   26.53   0
  -7   1  -6  341.66   25.18   0
  -7   0  -7   97.21   18.43   0
  -6  -2  -7  543.78   28.14   0
  -5  -3  -7  261.93   21.38   0
  -5  -2  -4  343.92   18.33   0
  -6  -2 -12  247.17   19.71   0
  -5  -3  -8  266.48   22.99   0
  -4  -3 -13  187.69   19.60   0
  -7   0 -11  153.56   16.07   0
  -7   0  -8  142.01   19.79   0
  -7   1  -7  364.03   28.26   0
  -6  -2  -8  303.78   25.35   0
  -5  -3 -10  394.34   26.51   0
  -5  -3  -9  268.54   23.75   0
  -5  -2 -14   74.93   14.51   0
  -7   1 -11  130.12   16.25   0
  -7   2  -8   42.91   30.17   0
  -6  -2 -11  290.49   22.70   0
  -6  -2 -10  250.04   23.34   0
  -6  -2  -9  288.02   24.73   0
  -4  -2  -3 1035.67   24.06   0
  -7   1  -8  294.74   27.22   0
  -6   0  -4  620.61   24.00   0
  -5  -2  -5  107.60   14.74   0
  -4  -3  -6  185.36   14.31   0
  -7   1 -10  169.94   19.12   0
  -7   1  -9  290.94   23.02   0
  -6  -1 -13  134.62   14.38   0
  -5   0  -2  295.22   16.85   0
  -6  -1  -6   42.56   11.96   0
  -5  -2  -6  215.89   18.88   0
  -4  -3 -11  446.24   26.80   0
  -4  -2 -14  341.17   23.10   0
  -4  -1  -2  296.73   14.93   0
  -6  -1 -12   45.29   14.50   0
  -6  -1  -7  266.41   22.27   0
  -6   0  -5  752.95   27.26   0
  -6   1  -4  291.95   19.27   0
  -4  -3  -9  530.34   26.53   0
  -4  -2  -4 1487.66   28.92   0
  -3  -3  -6 1530.72   31.07   0
  -4  -1 -15   49.46   15.66   0
  -3  -2 -14  121.55   22.93   0
  -6  -1 -11  173.96   19.75   0
  -6  -1  -8  244.08   24.65   0
  -6   0 -13  213.73   15.34   0
  -5  -2  -7  306.13   21.23   0
  -6  -1 -10  194.23   22.93   0
  -6  -1  -9  243.93   24.86   0
  -5   1  -2  921.37   26.56   0
  -5  -2 -11   51.24   15.08   0
  -5  -2 -10  238.03   22.67   0
  -5  -2  -9  168.25   20.95   0
  -5   0  -3  450.55   18.72   0
  -4  -2  -5  510.35   19.39   0
  -3  -3  -9 1190.54   32.22   0
  -2  -3 -10   17.46   15.79   0
  -6   1  -5  106.53   16.89   0
  -4  -2 -13  322.49   22.44   0
  -2  -3  -8   65.95   13.70   0
  -6   0 -12  250.12   17.69   0
  -5  -1 -13  244.38   19.44   0
  -6   0  -8  413.42   27.39   0
  -6   2  -5  359.64   23.19   0
  -5   0 -14   60.76   12.19   0
  -4  -2 -12  346.47   25.22   0
  -3  -2 -13  270.88   21.05   0
  -6   0 -10  419.90   26.35   0
  -6   0  -9  534.50   29.55   0
  -6   1 -12   57.55   12.41   0
  -6   1  -6   45.18   17.01   0
  -6   2 -12  194.26   14.62   0
  -4  -1 -14   33.13   13.92   0
  -4   0 -15  205.72   15.18   0
  -6   1 -11  105.53   15.08   0
  -6   1  -7  334.47   24.26   0
  -6   2  -6  788.83   32.60   0
  -6   3  -6   52.23   24.31   0
  -5   1 -14  181.74   13.13   0
  -5   1  -3 1055.17   26.62   0
  -4  -2  -8  632.69   24.93   0
  -6   2 -11  204.47   16.90   0
  -6   3 -10   55.38   18.61   0
  -5  -1 -11  586.64   29.03   0
  -4  -2  -9  600.16   26.20   0
  -6   1 -10  148.27   19.48   0
  -6   1  -9  255.86   23.54   0
  -5  -1  -9  644.64   29.88   0
  -5   0 -13  157.43   16.98   0
  -3   0 -15   60.24   14.25   0
  -2  -2 -12  173.31   22.39   0
  -6   2  -7  311.19   24.72   0
  -6   3  -9  137.72   22.84   0
  -6   3  -8   51.95   22.50   0
  -6   2  -8  203.43   23.40   0
  -5   0 -12  104.28   17.30   0
  -4  -1  -5  163.84   13.04   0
  -5   0  -6  300.78   20.51   0
  -5   1 -13  218.72   15.86   0
  -3  -2 -10  245.84   20.37   0
  -3  -2  -7  510.56   18.57   0
  -5   2 -13   91.15   12.10   0
  -3   1 -15   88.69   12.54   0
  -2  -2 -11  752.62   27.80   0
  -5   0  -7  389.74   22.95   0
  -4  -1  -6  292.26   17.11   0
  -5   0 -10  171.60   21.29   0
  -5   0  -8  264.02   23.55   0
  -4  -1 -11  301.08   23.89   0
  -4   1 -14   17.07   11.12   0
  -2  -2 -10 1139.73   31.19   0
  -5   1  -5 1844.39   36.70   0
  -5   2  -4  220.42   19.28   0
  -5   3 -12   97.36   11.75   0
  -5   4 -11   52.15   11.80   0
  -3   0 -14   41.52   13.59   0
  -2  -1 -13  104.53   21.00   0
  -4  -1 -10   11.86   11.60   0
  -4  -1  -9  142.89   17.97   0
  -4  -1  -8  362.17   21.85   0
  -4   2 -14  128.28   11.00   0
  -2  -2  -9 1293.97   31.22   0
  -5   1 -11  501.16   23.68   0
  -5   3  -4  516.19   27.70   0
  -3  -1 -12  633.90   27.03   0
  -2   0 -14  332.95   21.10   0
  -5   1 -10  507.52   25.68   0
  -5   2  -5   48.93   15.74   0
  -5   4 -10   57.14   14.09   0
  -5  -6  -1  110.45   11.86   0
  -5  -5   1  457.36   17.78   0
  -5  -3   3  488.04   19.74   0
  -4  -7  -4   76.58   12.53   0
  -4  -4   3  396.73   18.72   0
  -3  -6   0  336.93   17.35   0
  -3  -5   2  406.13   18.46   0
  -1  -6  -3  285.56   18.72   0
  -4  -7  -7   93.09   17.50   0
  -4  -2   4  888.34   24.76   0
  -2  -4   3 1069.52   25.28   0
  -4  -7  -6   55.93   15.56   0
  -4  -7  -5  177.57   15.30   0
  -3  -4   3  112.76   12.84   0
  -1  -4   2  291.92   15.52   0
  -6  -5  -1   49.72   10.23   0
  -5  -2   3   71.60   13.66   0
  -1  -5   0 1244.34   27.63   0
  -7  -5  -4  152.37   14.31   0
  -6  -6  -4  324.82   16.01   0
  -5  -6  -2  191.31   15.18   0
  -4  -6  -1  255.85   17.30   0
  -4  -5   1  189.96   15.52   0
  -3  -2   4  250.91   15.08   0
  -2  -5   1  227.44   14.92   0
  -3  -6  -1  125.30   11.82   0
  -2  -6  -2 1153.83   28.30   0
  -7  -3  -1  389.82   19.39   0
  -6  -3   1  135.24   14.16   0
  -4  -3   3   49.80   13.37   0
  -3  -5   1  435.05   18.55   0
  -2  -4   2  977.55   24.65   0
  -2  -3   3  555.96   18.29   0
  -1  -5  -1 1345.05   28.07   0
  -7  -5  -5  158.47   13.45   0
  -6  -5  -2   44.24   11.75   0
  -5  -6  -3  121.10   14.46   0
  -5  -4   1   65.92   14.25   0
  -5  -3   2  465.31   20.08   0
  -4  -6  -2  529.05   22.48   0
  -3  -6  -2  198.25   17.03   0
  -3  -4   2  211.99   14.55   0
  -3  -3   3 1103.46   25.57   0
  -2  -6  -3  573.21   22.62   0
  -6  -6  -7  374.88   18.73   0
  -6  -2   1  355.01   20.80   0
  -7  -5  -6   70.16   12.82   0
  -7  -2  -1   69.42   16.59   0
  -5  -6  -4  195.32   16.28   0
  -4  -6  -3  408.37   21.61   0
  -3  -5   0  370.04   17.88   0
  -2  -6  -4  445.00   21.71   0
  -6  -5  -3   78.57   13.02   0
  -6  -4  -1  393.29   19.00   0
  -5  -2   2  182.07   16.38   0
  -4  -1   3  309.96   18.05   0
  -2  -6  -5  523.18   24.10   0
  -4  -4   1  492.14   20.15   0
  -3  -2   3   21.26    9.80   0
  -2  -4   1  944.03   23.36   0
  -5  -6  -5   56.89   13.80   0
  -5  -4   0  156.29   15.21   0
  -2  -3   2  706.39   19.34   0
  -1  -5  -3 1639.69   31.74   0
  -5  -5  -2  499.62   22.19   0
  -5  -3   1  475.84   20.85   0
  -3  -6  -4  297.72   18.97   0
  -7  -4  -4   90.77   13.48   0
  -6  -5  -4  162.51   15.73   0
  -3  -5  -1  531.77   20.57   0
  -3  -3   2 1137.00   24.20   0
  -5  -6  -9  107.16   16.31   0
  -3  -6  -5  170.30   17.18   0
  -1  -5  -4  908.35   28.47   0
  -6  -4  -2  316.99   19.09   0
  -3  -6  -6  118.66   16.29   0
  -7  -3  -3  337.43   18.56   0
  -7  -2  -2  234.36   16.37   0
  -6  -2   0  730.71   24.11   0
  -5  -5  -3  635.16   24.76   0
  -4  -6  -6  368.61   21.91   0
  -4  -5  -2  195.67   16.87   0
  -4  -4   0  592.34   21.91   0
  -4  -2   2 1454.09   29.33   0
  -3  -6  -7  152.67   17.82   0
  -2  -4   0  977.15   22.98   0
  -7  -4  -5  192.05   15.99   0
  -6  -5  -5  276.90   18.21   0
  -6  -3  -1  131.20   15.80   0
  -5  -4  -1  180.88   16.08   0
  -4  -6  -8  303.69   20.50   0
  -4  -6  -7  556.78   24.34   0
  -3  -5  -2  415.79   19.92   0
  -5  -2   1  125.09   14.94   0
  -4  -3   1   13.20    9.09   0
  -6  -5  -6   32.11   13.75   0
  -6  -4  -3  454.73   21.77   0
  -2  -5  -3  205.52   15.40   0
  -7  -4  -6  164.78   16.33   0
  -5  -5  -4  550.43   24.03   0
  -4  -5  -3  142.14   16.96   0
  -4  -1   2  432.25   18.89   0
  -3  -3   1 1700.22   29.07   0
  -6  -5  -7   48.71   14.17   0
  -3  -5  -3  417.03   20.45   0
  -7  -4  -7   83.62   14.80   0
  -5  -1   1  782.17   25.05   0
  -2  -5  -4  234.70   16.53   0
  -2  -4  -1  795.91   21.84   0
  -7  -2  -3   69.56   13.65   0
  -6  -5  -8  122.18   15.98   0
  -6  -2  -1  226.97   17.64   0
  -5  -5  -5  737.61   27.06   0
  -3  -4  -1  123.82   13.08   0
  -7  -4 -10   72.13   13.27   0
  -7  -4  -9   91.12   14.83   0
  -7  -4  -8   45.55   14.11   0
  -4  -5  -4  265.60   18.76   0
  -4  -3   0  373.32   17.21   0
  -4  -2   1  759.13   21.81   0
  -5  -3  -1  334.48   18.81   0
  -2  -5  -5  235.16   17.06   0
  -5  -5  -6  916.20   30.95   0
  -7  -1  -3  251.69   18.27   0
  -6  -4  -5  304.51   20.93   0
  -5  -5 -11  707.50   27.07   0
  -5  -4  -3  168.39   16.87   0
  -4  -5  -5  247.16   19.70   0
  -3  -3   0 1471.64   26.63   0
  -2  -5  -6  415.97   20.92   0
  -7  -2  -4  179.39   16.67   0
  -6  -1  -1   33.15   13.47   0
  -5  -5  -7  648.24   27.66   0
  -3  -5  -5  575.89   23.17   0
  -3  -4  -2  330.28   16.06   0
  -6  -4  -6  544.87   25.18   0
  -6  -2  -2  509.32   21.97   0
  -4  -5 -11   38.44   17.12   0
  -4  -1   1  212.80   14.74   0
  -6  -4 -12  292.57   19.41   0
  -5  -4  -4  239.67   18.11   0
  -5  -3  -2  380.78   19.13   0
  -4  -3  -1  378.93   16.95   0
  -4  -5 -10   47.80   16.56   0
  -3  -5  -7  253.10   19.10   0
  -7  -3 -11  162.43   15.49   0
  -7  -3  -8  308.50   20.83   0
  -7  -2  -5  183.42   17.46   0
  -7  -1  -4  380.76   20.18   0
  -6  -3  -4  303.74   20.46   0
  -4  -5  -9  247.53   21.61   0
  -4  -5  -8  121.61   18.08   0
  -3  -5  -9  321.42   21.81   0
  -3  -5  -8  251.93   20.03   0
  -6  -4 -11  228.47   19.03   0
  -6  -4  -8  351.40   22.56   0
  -5  -4 -13  183.84   20.13   0
  -3  -4  -3  256.41   14.89   0
  -6  -4 -10  313.68   20.70   0
  -6  -4  -9  349.54   22.25   0
  -5  -4  -5   55.12   11.42   0
  -7   0  -4  200.89   20.78   0
  -6  -1  -2  325.98   18.76   0
  -5  -3  -3  351.90   18.58   0
  -4  -4  -4 1129.32   28.63   0
  -6  -3  -5  326.40   21.14   0
  -7  -1  -5  264.18   18.93   0
  -7  -2  -7   57.40   16.38   0
  -5  -4 -12    8.85   15.70   0
  -6   0  -2 1133.52   29.41   0
  -5  -4  -7  217.83   19.49   0
  -5  -1  -1 1167.68   27.44   0
  -4  -2  -1  740.25   20.39   0
  -7  -2  -8   40.75   16.09   0
  -5  -4 -11  178.88   19.97   0
  -5  -3  -4  287.52   18.05   0
  -2  -4  -5 1100.06   25.47   0
  -7  -2 -11   87.74   13.97   0
  -7  -2  -9  107.82   17.01   0
  -7  -1  -6  361.30   21.65   0
  -7   0  -5  154.35   17.82   0
  -6  -1  -3  333.09   18.88   0
  -5  -4  -9  145.32   19.93   0
  -5  -4  -8  157.65   16.40   0
  -7  -2 -10   68.74   16.02   0
  -5  -3 -14  169.26   17.15   0
  -4  -4 -12  327.79   22.09   0
  -6  -3  -8  144.06   19.30   0
  -6  -3  -9  126.14   19.71   0
  -6  -2  -5  359.81   21.50   0
  -5  -3  -5  651.90   24.34   0
  -4  -4  -7  746.19   27.64   0
  -3  -4  -6  165.95   14.68   0
  -7  -1 -12  128.92   12.78   0
  -6  -3 -10   78.27   17.97   0
  -5   0  -1  453.66   19.53   0
  -4  -4 -11  580.27   26.67   0
  -3  -3  -3 1584.21   27.32   0
  -2  -4  -7  862.82   25.48   0
  -6   0  -3  740.39   24.35   0
  -5  -1  -2 1004.40   25.01   0
  -4  -4  -9  649.02   27.94   0
  -4  -3 -14  140.16   21.03   0
  -4  -3  -4  431.31   18.13   0
  -4  -2  -2 1348.28   25.50   0
  -3  -4 -11   77.68   17.40   0
  -3  -4  -7  327.97   18.95   0
  -2  -4  -8  534.62   24.63   0
  -7  -1 -11  143.21   14.97   0
  -6  -2  -6  629.72   26.67   0
  -6  -1  -4  321.39   19.25   0
  -5  -3 -13  249.93   19.53   0
  -5  -3  -6  478.68   22.69   0
  -6  -2 -13  199.50   17.07   0
  -3  -4 -10  140.33   18.16   0
  -3  -4  -9  216.29   18.84   0
  -3  -4  -8  229.92   17.93   0
  -7   0  -7   79.21   17.02   0
  -7   1  -7  379.80   27.19   0
  -6  -2  -7  548.25   27.18   0
  -5  -3  -7  314.22   22.07   0
  -7   0 -11  127.45   14.98   0
  -7   0  -8  157.51   19.42   0
  -6  -2 -12  229.24   17.65   0
  -6  -2  -8  267.31   22.83   0
  -5  -3 -11  465.92   25.80   0
  -4  -3 -13  201.00   21.40   0
  -6  -2 -11  302.62   21.77   0
  -6  -2  -9  288.20   23.56   0
  -5  -3 -10  352.45   24.65   0
  -5  -3  -9  254.57   22.44   0
  -5  -2 -14   73.73   13.42   0
  -5  -1  -3 1023.01   25.11   0
  -5   0  -2  258.29   15.53   0
  -7   1  -9  294.98   22.98   0
  -5  -2  -5   92.84   13.61   0
  -4  -3  -6  262.93   16.88   0
  -4  -3 -12  306.89   23.43   0
  -4  -3  -7  402.07   19.95   0
  -5  -2  -6  243.28   18.25   0
  -6  -1 -12   39.82   13.43   0
  -6  -1  -7  281.25   22.38   0
  -4  -3 -11  459.60   25.82   0
  -4  -3  -8  457.93   22.23   0
  -4  -2  -4 1495.31   27.63   0
  -5   1  -2  896.56   25.49   0
  -4  -3  -9  531.16   25.14   0
  -4  -2 -14  330.14   21.41   0
  -3  -3 -12  496.35   24.70   0
  -6  -1 -11  165.60   18.84   0
  -6   0 -13  202.61   13.99   0
  -5  -2 -12   56.80   16.76   0
  -5  -2  -7  277.88   19.58   0
  -6  -1 -10  176.51   21.69   0
  -6   0  -6 1209.75   32.60   0
  -6   1  -5  109.06   15.69   0
  -6   1 -13  110.51   12.59   0
  -5  -2  -8  211.80   20.81   0
  -4  -2  -5  486.86   18.50   0
  -4  -1 -15   47.72   12.33   0
  -3  -3 -11  635.33   26.90   0
  -3  -2 -14  141.73   20.74   0
  -5  -2 -10  286.28   22.45   0
  -5  -2  -9  184.99   21.44   0
  -5  -1  -5 1828.02   34.35   0
  -4  -1  -3  554.54   16.61   0
  -3  -3 -10  800.74   27.87   0
  -3  -3  -9 1174.23   31.02   0
  -3  -3  -8  820.22   25.85   0
  -2  -3  -7  270.67   15.41   0
  -6   0 -12  261.38   16.87   0
  -2  -3 -10   16.78   14.58   0
   0   3  13  107.11   11.43   0
   1   3  11  383.75   15.55   0
  -4   4  10  514.55   17.41   0
   0   0  14  415.53   14.55   0
   0   4   7 1181.19   25.44   0
   0   4  10  610.77   20.81   0
   1   3  10  925.26   21.69   0
   0   4   8  544.95   19.16   0
   0   4   9  644.58   20.37   0
   1   3   7 1344.50   25.47   0
   1   3   8  824.47   21.60   0
   1   3   9  920.76   22.33   0
  -1   4  11  541.99   19.47   0
  -2   2  14  289.02    9.78   0
  -1   2  14  110.27    8.76   0
  -1   3  13  511.40   16.00   0
   0   3  12  164.63   13.52   0
  -4   4   9  586.08   21.33   0
  -1   4  10   11.24   12.04   0
   1   1  12  471.50   16.78   0
  -2   4   4 1031.24   29.74   0
  -1   0  14   48.57    7.26   0
  -1   1  14  362.99   11.72   0
  -1   4   9  222.01   16.01   0
   1   0  12  286.77   14.98   0
  -4   4   8  504.11   23.67   0
  -2   4  10  317.03   17.47   0
  -1   4   8  393.29   19.01   0
   1   2  10   72.53   10.72   0
  -5   3   9  398.10   16.17   0
  -4   4   7  470.64   28.42   0
  -3   2  13   78.12    6.96   0
  -3   3  12  450.16   13.62   0
  -3   4   9  181.06   15.94   0
  -2   4   5  933.50   27.71   0
  -1   2  13  187.87   11.59   0
   0   2  12  431.36   16.58   0
   0   3  10  358.12   15.33   0
   1   2   8   57.06    9.27   0
  -3   4   5   63.72   18.58   0
  -3   4   8  168.81   17.46   0
  -2   4   7  776.26   26.27   0
  -1   3  11  629.29   19.68   0
   1   0  11 1134.37   24.01   0
  -3   4   6   48.31   17.25   0
  -3   4   7  318.21   21.42   0
   1   1  10  826.42   19.44   0
  -5   3   8  545.77   20.74   0
  -4   3  10   64.49    9.27   0
  -1  -1  13  336.75   12.60   0
   0   2  11  650.64   18.76   0
  -5   2  10   64.19    7.49   0
  -3   0  13  137.80    7.41   0
  -1   2  12  150.30   12.38   0
  -2  -1  13  156.11    8.92   0
  -2   1  13  100.53    8.59   0
   0  -1  12   55.34   10.57   0
   1   1   9 1568.39   25.24   0
  -2   2  12  633.76   17.73   0
   0   0  12  455.04   15.52   0
   1   0  10  623.64   18.20   0
  -5   3   7  420.38   22.70   0
  -4   0  12  250.15    9.15   0
  -4   2  11  326.35   11.48   0
  -4   3   9   45.66   10.76   0
  -3   3  10  610.49   19.81   0
  -2   3  10  303.47   15.98   0
  -1   2  11  835.77   21.11   0
  -1   3   8  962.54   23.29   0
   0   2   9  903.99   19.83   0
   1   0   9  611.62   17.58   0
  -5   2   9   87.24    9.16   0
  -3   1  12  312.13   11.72   0
  -2   3   9  657.44   21.80   0
  -1   3   6 1262.36   24.74   0
  -1   3   7  636.54   18.90   0
  -4   3   8   37.82   13.14   0
  -2   1  12   68.71    9.81   0
  -2   2  11  585.45   18.53   0
   0   2   8  617.32   16.26   0
  -1   0  12   26.70    8.95   0
   0   0  11 1077.51   22.32   0
  -4   1  11  141.61    8.92   0
  -3   0  12   94.91    8.06   0
  -2   3   8  332.54   17.83   0
  -2   0  12  466.29   14.62   0
  -5   2   8   86.54   10.48   0
  -4   0  11  273.13   10.50   0
  -4   3   6  337.81   22.64   0
  -3   3   7  725.10   24.32   0
  -2   2  10  237.71   14.33   0
  -2   3   5  484.35   19.69   0
  -2   3   6  411.92   19.20   0
  -1   2   9  257.62   14.05   0
  -5  -1  10  274.15    9.22   0
  -4  -1  11  123.55    7.38   0
  -4   2   9  485.81   17.03   0
  -4   3   5   -8.16   17.03   0
  -3   1  11  490.32   15.85   0
  -2   1  11  191.29   12.97   0
   0   0  10  580.11   17.41   0
  -6   1   7   64.35   11.22   0
  -5   1   9  300.41   11.75   0
  -3   3   6 1674.53   35.16   0
  -4   1  10  147.03   10.64   0
  -3   3   4 1307.22   34.27   0
  -3   3   5 1690.48   36.30   0
  -1   2   8  667.01   18.48   0
  -3  -2  11   69.69    7.65   0
  -3   2   9  187.56   14.43   0
  -2   2   9 1859.12   30.75   0
  -1  -1  11  399.89   14.69   0
   0   1   8  495.24   14.47   0
  -2   0  11  838.29   19.89   0
  -3  -1  11  446.65   13.64   0
   0   0   9 1388.01   23.82   0
  -5   2   6   83.57   17.22   0
  -2   2   8  822.18   21.92   0
  -4   0  10  366.61   13.38   0
  -3   2   8   99.44   12.50   0
  -1   1   9  966.32   21.57   0
  -5  -2   9   65.30    6.41   0
  -4   1   9  252.96   13.85   0
   0  -1   9  307.04   14.33   0
  -5  -1   9  330.55   11.30   0
  -4  -1  10  118.30    8.93   0
  -1  -2  10  268.47   13.56   0
  -5   2   5  416.54   23.16   0
  -3   0  10  203.99   12.44   0
  -2   0  10  154.17   12.22   0
  -6   1   5  104.03   14.61   0
  -3   1   9  608.34   19.38   0
  -3   2   7  642.53   21.33   0
  -1   1   8 1474.06   24.93   0
  -6  -1   7   55.53    7.85   0
  -5   2   4  110.11   20.72   0
  -4   2   6  237.68   17.27   0
  -2   2   6 1372.26   27.01   0
  -7   0   3   46.55   22.63   0
  -6  -2   7  220.35    9.13   0
  -5   0   8  110.83   10.28   0
  -4  -3   9   39.83    6.82   0
  -4   0   9  490.41   16.58   0
  -4   1   8  129.72   12.43   0
  -2  -2  10  183.33   12.07   0
  -1  -3   9  630.86   20.76   0
  -1   0   9   67.89   10.53   0
  -7  -1   4  285.00   15.31   0
  -6   1   4  105.04   17.87   0
  -4  -4   8   91.02    7.98   0
  -4   2   5  832.57   26.76   0
  -2   1   8  290.91   14.49   0
  -1   1   7 1251.28   22.86   0
   0  -2   8  832.10   22.73   0
  -5  -1   8  336.41   13.09   0
  -4  -2   9  405.23   13.58   0
  -4  -1   9  143.86   11.26   0
  -2   0   9  982.71   22.03   0
  -1  -1   9  698.10   18.40   0
  -3   2   5  207.12   15.70   0
  -1  -2   9  494.42   16.85   0
  -6   1   3   84.07   24.02   0
  -4   1   7  346.02   16.66   0
  -2  -3   9  228.75   13.11   0
  -1   0   8   44.05    9.08   0
  -6  -3   6   75.61    6.71   0
  -6  -1   6   75.69    8.83   0
  -5   0   7  198.89   13.20   0
  -4   0   8  648.72   19.54   0
  -3   2   4  194.02   16.03   0
  -6   0   5  601.75   20.12   0
  -4   2   3  825.40   31.01   0
  -3  -4   8  137.49   10.39   0
  -3   1   7  518.58   18.47   0
  -2  -4   8  486.41   17.94   0
  -7  -1   3  335.23   17.57   0
  -6  -2   6  180.84    9.82   0
  -5   1   5  329.94   17.99   0
  -3   0   8   79.13   11.42   0
  -2   0   8 1238.76   24.54   0
  -5  -1   7  654.95   18.85   0
  -1   0   7  378.56   13.79   0
  -5  -2   7   80.07    9.75   0
  -5   0   6  137.90   13.46   0
  -4  -2   8  475.08   16.56   0
  -2   1   6  473.08   16.44   0
  -1  -2   8  311.15   14.41   0
  -7  -2   3  144.02   10.94   0
  -6  -1   5  132.15   11.80   0
  -6   0   4  466.08   20.60   0
  -4  -4   7  487.02   14.70   0
  -3   1   6 1010.27   24.26   0
  -7  -1   2  383.74   21.74   0
  -5  -4   6   14.31    6.57   0
  -3  -3   8  479.08   16.96   0
  -3  -1   8  395.24   16.53   0
  -2  -1   8  323.37   14.91   0
  -6  -3   5  117.84    9.19   0
  -3  -2   8   32.12   10.84   0
  -2  -2   8  957.23   22.94   0
  -6   0   3  693.81   27.04   0
  -5  -1   6  549.89   19.04   0
  -5   0   5  507.39   20.05   0
  -4  -1   7  210.75   14.61   0
  -3   1   5 1525.40   28.76   0
  -1  -1   7  725.06   18.60   0
  -7  -2   2  116.22   12.69   0
  -6  -4   4  238.27   10.90   0
  -5  -3   6  469.83   16.01   0
  -4  -3   7   49.17   10.30   0
  -4   0   6  270.79   15.66   0
  -3  -4   7   98.71   10.99   0
  -5  -2   6   62.55   10.89   0
  -5   1   2 1205.00   37.25   0
  -3  -1   7  505.40   18.36   0
  -1  -2   7  776.02   20.03   0
  -7  -1   0  337.39   33.79   0
  -6  -3   4  239.47   12.37   0
  -6  -2   4  210.66   13.55   0
  -6   0   2  622.07   29.43   0
  -2   0   6  865.95   20.74   0
  -3  -2   7  153.16   13.24   0
  -7  -2   1  252.41   17.68   0
  -4  -5   5  243.03   12.76   0
  -4   0   5  778.55   22.89   0
  -6  -5   2   43.35    8.66   0
  -6  -4   3  200.36   11.57   0
  -5  -3   5  135.70   13.59   0
  -5  -2   5  266.35   16.23   0
  -4  -2   6  215.90   15.91   0
  -3  -6   4  197.49   15.00   0
  -7  -4   0  103.95   10.75   0
  -7  -2   0  177.42   21.01   0
  -6  -2   3  254.93   16.28   0
  -4   1   2  554.95   24.51   0
  -2  -4   6  427.39   18.95   0
  -2  -1   6  320.62   14.39   0
  -6  -3   3  136.17   12.42   0
  -6  -1   2  163.72   18.11   0
  -5  -1   4  692.71   23.35   0
  -3  -5   5  318.67   15.87   0
  -1  -3   6  574.24   20.14   0
  -4  -2   6  251.18   14.74   0
  -2  -2   7  751.62   19.82   0
  -1  -7   3  266.42   13.30   0
  -1  -5   6  302.48   15.67   0
  -1  -3   7  541.78   17.57   0
   0  -2   6  790.70   17.91   0
  -4  -5   5  234.46   11.86   0
  -3  -7   3  319.47   11.75   0
  -3  -1   6  951.57   23.01   0
  -2  -6   5  208.86   12.20   0
  -2  -5   6  102.40   11.87   0
  -2  -3   7  310.62   15.14   0
   0  -5   5   99.09   13.44   0
   1  -4   4  501.44   19.07   0
  -4  -7   2   40.99    6.79   0
  -2  -7   3   55.96    9.89   0
   0  -3   6  130.79   10.48   0
  -4  -1   5  299.70   16.90   0
  -2  -1   6  326.61   14.28   0
  -3  -4   6  225.97   13.94   0
  -5  -4   4  185.06   11.86   0
  -1  -7   2  349.94   15.46   0
  -1  -6   4  123.98   12.43   0
  -1  -4   6  176.09   13.19   0
   0  -6   3  609.56   20.82   0
  -5  -6   2   80.43    7.87   0
  -5  -2   4  207.03   15.04   0
  -4  -4   5  167.38   13.03   0
  -3  -6   4  166.23   11.20   0
  -3  -5   5  300.41   14.63   0
  -3  -3   6  769.85   21.08   0
  -2  -4   6  458.71   18.38   0
  -1  -2   6  658.50   16.98   0
  -5  -5   3  397.23   14.45   0
  -5  -3   4  273.23   15.30   0
  -2  -8  -1  102.79   12.56   0
  -2  -6   4  329.61   14.83   0
  -2  -2   6  566.14   17.01   0
   0  -5   4  284.04   16.52   0
  -6  -5   1   47.31    8.24   0
  -6  -3   2  221.25   16.70   0
  -4  -5   4  175.39   12.42   0
  -4  -2   5  527.39   19.04   0
  -3  -7   2  345.17   13.16   0
  -2  -5   5  151.70   12.86   0
  -2  -3   6  475.82   17.18   0
   0  -3   5  139.86   10.24   0
  -4  -7   1   41.97    7.20   0
  -3  -1   5 1201.53   24.83   0
   0  -6   2  773.03   23.08   0
  -4  -1   4  112.62   13.43   0
  -3  -4   5  223.54   14.22   0
  -1  -7   1  292.27   15.42   0
  -1  -6   3   51.07   11.53   0
  -1  -4   5  161.84   12.64   0
  -5  -7  -1  190.88   10.39   0
  -5  -6   1   32.86    7.93   0
  -5  -4   3  102.69   11.68   0
  -3  -8  -2  152.70   12.31   0
  -3  -6   3  114.87   11.23   0
   0  -4   4 1273.54   25.88   0
  -3  -5   4  391.49   16.23   0
  -3  -3   5  805.61   21.23   0
  -2  -6   3  423.54   16.70   0
  -2  -4   5  491.59   18.05   0
  -6  -4   1  275.95   14.35   0
  -5  -5   2  491.34   16.30   0
  -5  -2   3  101.34   12.95   0
  -4  -6   2  440.58   15.78   0
  -5  -3   3  484.81   18.49   0
  -4  -7   0   60.02    8.44   0
  -4  -5   3  172.89   13.06   0
  -4  -2   4  901.78   22.90   0
  -2  -3   5  491.78   16.79   0
  -2  -2   5  976.49   20.66   0
  -6  -3   1  145.72   15.51   0
  -3  -8  -3    7.14   10.09   0
  -1  -7   0  208.92   14.14   0
  -5  -7  -2   92.99    9.00   0
  -3  -1   4 1383.80   25.65   0
  -1  -6   2  136.54   13.40   0
  -3  -6   2   96.43   11.42   0
  -3  -4   4  282.10   15.74   0
  -1  -4   4  191.77   12.89   0
  -3  -7   0  369.73   15.01   0
  -2  -6   2  486.47   17.73   0
   0  -5   2  393.28   17.85   0
  -4  -7  -1  154.73   10.53   0
  -4  -6   1  426.59   16.12   0
  -3  -8  -4  176.15   12.56   0
  -6  -5  -1   42.83    9.11   0
  -6  -4   0  591.68   18.51   0
  -5  -5   1  453.15   16.65   0
  -3  -3   4 1317.71   25.70   0
  -2  -5   3   78.78   11.91   0
  -1  -3   4 1153.21   21.87   0
   0  -6   0  998.58   25.88   0
  -5  -7  -3  220.02   11.89   0
  -5  -3   2  484.24   18.50   0
  -6  -6  -3  309.74   13.65   0
  -4  -2   3 1018.25   23.32   0
  -1  -6   1   99.48   12.64   0
  -6  -3   0  286.14   15.99   0
  -5  -6  -1  119.07   10.76   0
  -3  -6   1  162.00   12.39   0
  -4  -7  -2  102.83   10.15   0
  -3  -4   3  144.51   12.42   0
  -1  -7  -2  420.33   17.80   0
  -1  -4   3  146.94   11.47   0
  -7  -4  -4   89.88   16.30   0
  -4  -6   0  344.73   15.47   0
  -3  -5   2  451.01   17.26   0
  -5  -5   0  748.62   20.57   0
  -4  -4   2  861.42   22.93   0
  -2  -5   2  172.43   12.51   0
  -4  -5   1  201.67   13.67   0
  -3  -3   3 1007.68   22.10   0
  -1  -6   0  823.40   22.08   0
  -5  -6  -2  178.13   12.19   0
  -5  -3   1  432.34   17.93   0
  -1  -7  -3  484.26   20.38   0
  -5  -7  -5  199.70   12.23   0
  -3  -6   0  330.85   15.37   0
  -2  -3   3  534.53   15.69   0
  -7  -4  -5  184.55   17.84   0
  -6  -6  -5  171.30   12.20   0
  -6  -3  -1   89.78   12.41   0
  -4  -6  -1  276.27   14.87   0
  -3  -5   1  425.89   17.01   0
  -3  -4   2  220.17   13.71   0
  -1  -5   1  720.61   19.56   0
  -5  -7  -6  237.18   13.07   0
  -5  -5  -1  484.24   18.33   0
  -5  -6  -3  140.43   12.30   0
  -4  -7  -4   87.12   10.72   0
  -4  -5   0  298.96   15.23   0
  -4  -4   1  567.00   18.84   0
  -2  -7  -3  181.20   13.52   0
  -2  -5   1  251.48   13.18   0
  -2  -4   2  995.66   21.79   0
  -1  -6  -1   55.27   11.70   0
  -7  -4  -6  175.99   17.53   0
  -6  -6  -6  362.16   15.64   0
  -5  -7  -7  185.39   12.24   0
  -3  -6  -1  177.13   13.45   0
  -4  -6  -2  495.66   18.42   0
  -3  -3   2 1605.13   26.14   0
  -6  -5  -4  159.30   13.20   0
  -6  -3  -2  150.74   15.38   0
  -5  -7  -8  144.50   11.82   0
  -5  -3   0  534.49   19.16   0
  -4  -7  -5  184.81   12.77   0
  -6  -6  -7  384.47   16.31   0
  -5  -5  -2  540.23   19.43   0
  -5  -2   0  264.08   14.98   0
  -2  -7  -4   95.43   11.85   0
  -2  -3   2  654.27   16.53   0
  -6  -6  -8  253.91   15.56   0
  -6  -4  -3  424.33   17.61   0
  -5  -6  -4  205.78   13.92   0
  -5  -4  -1  185.14   13.98   0
  -3  -4   1  463.05   16.36   0
  -1  -6  -2   24.64   12.50   0
  -1  -5   0 1124.03   23.11   0
   0  -5  -1  138.21   13.68   0
  -7  -3  -6  335.32   24.19   0
  -4  -7  -6   55.71   10.56   0
  -4  -5  -1  488.38   18.21   0
  -4  -2   1  806.07   20.01   0
  -2  -5   0  147.16   11.63   0
  -4  -6  -3  404.38   17.79   0
  -2  -7  -5  135.64   13.09   0
  -2  -4   1  854.04   19.48   0
  -5  -5  -3  706.30   21.78   0
  -4  -7  -7   89.82   11.78   0
  -6  -4  -4  355.22   17.55   0
  -6  -3  -3  274.58   15.79   0
  -3  -7  -6  568.93   20.17   0
  -3  -3   1 1586.55   25.04   0
  -2  -7  -6  139.75   13.28   0
  -6  -5  -6   46.65   11.63   0
  -5  -4  -2  246.83   15.28   0
  -4  -7 -10   93.41   11.94   0
  -1  -5  -1 1308.00   24.26   0
  -6  -2  -3  431.13   19.34   0
  -5  -6  -6   98.71   12.38   0
  -5  -2  -1  432.47   17.26   0
  -4  -6  -4  571.08   20.40   0
  -3  -7  -7  366.12   16.95   0
  -3  -4   0  563.19   16.87   0
  -2  -7  -7  275.89   16.95   0
  -4  -4  -1  509.32   17.89   0
  -2  -6  -3  582.40   19.26   0
  -2  -5  -1  240.58   13.08   0
  -6  -5  -7   64.13   12.32   0
  -3  -7  -8  297.40   15.76   0
  -2  -7  -8   61.91   12.52   0
  -6  -3  -4  277.77   16.42   0
  -5  -6  -7  115.18   13.13   0
  -3  -6  -4  328.97   16.38   0
  -6  -5  -8  134.10   14.16   0
  -5  -6  -8  132.79   13.83   0
  -4  -5  -3  117.50   12.81   0
  -5  -5  -5  774.05   24.06   0
  -3  -3   0 1531.40   24.45   0
  -2  -6  -4  463.14   18.38   0
  -1  -5  -2 1531.75   26.19   0
  -6  -5 -11  114.22   13.35   0
  -5  -6 -11  143.72   12.90   0
  -5  -6 -10   75.33   11.64   0
  -4  -6  -6  365.18   19.02   0
  -4  -4  -2  883.34   22.12   0
  -3  -4  -1  151.06   11.51   0
  -2  -5  -2  495.45   16.69   0
  -5  -2  -2  322.61   16.12   0
  -3  -6  -5  158.87   14.69   0
  -1  -6  -5  258.11   15.24   0
  -5  -5  -6  888.06   26.34   0
  -5  -4  -4  232.29   15.65   0
  -4  -6  -7  562.14   22.84   0
  -3  -5  -3  434.36   17.04   0
  -2  -4  -1  792.78   18.62   0
  -4  -2  -1  791.41   19.78   0
  -4  -6  -8  293.90   18.88   0
  -3  -6  -6  118.74   15.09   0
  -1  -6  -6  210.79   15.47   0
  -1  -5  -3 1724.08   28.44   0
  -6  -3  -6   16.83   13.11   0
  -5  -5  -7  564.14   24.25   0
  -4  -4  -3  667.95   20.66   0
  -5  -4  -5  102.86   15.28   0
  -4  -5  -5  249.06   16.45   0
  -4  -3  -2  149.14   12.61   0
  -3  -3  -1 2353.37   30.54   0
  -5  -2  -3  313.56   16.68   0
  -4  -6 -10  301.98   18.13   0
  -3  -5  -4  311.47   16.47   0
  -1  -6  -7  150.36   14.95   0
  -6  -4 -12  315.11   18.28   0
  -5  -5  -8  582.85   24.80   0
  -6  -4 -11  237.17   18.65   0
  -6  -3  -7  105.26   16.52   0
  -5  -5 -13  221.56   15.01   0
  -5  -1  -3  956.80   26.52   0
  -1  -6  -8  169.11   16.90   0
  -5  -5  -9  497.61   23.77   0
  -4  -5  -6   53.16   13.93   0
  -3  -6 -12   22.10   12.69   0
  -2  -6 -12  115.44   15.90   0
  -1  -5  -4 1058.93   24.44   0
  -5  -5 -12  244.71   17.74   0
  -5  -5 -11  707.74   25.13   0
  -5  -5 -10  393.09   21.83   0
  -3  -6 -10   94.24   16.01   0
  -6  -3  -8  143.72   19.28   0
  -3  -4  -3  253.85   14.34   0
  -6  -3 -13   31.44   12.21   0
  -4  -5  -7  153.63   17.99   0
  -2  -6 -10  383.04   20.79   0
  -6  -3  -9  159.66   21.17   0
  -5  -2  -4  233.81   14.06   0
  -4  -5 -14   39.80   12.01   0
  -3  -3  -2 2716.88   34.13   0
  -7   0 -10  127.11   19.12   0
  -7   0  -6  243.51   31.64   0
  -4  -2  -3 1105.43   31.06   0
  -7   1 -11  127.57   17.20   0
  -7   0  -7   88.04   24.72   0
  -6   1 -13   91.75   14.51   0
  -4  -2 -11  845.15   36.82   0
  -2  -2 -10 1032.78   36.33   0
  -7   0  -8  150.86   25.46   0
  -6  -1  -5  290.65   26.92   0
  -5  -2  -9  151.34   25.85   0
  -6   0 -12  252.20   21.83   0
  -5  -2  -8  213.36   27.98   0
  -5  -1 -12  331.18   27.79   0
  -4   1 -14    6.73   17.67   0
  -7   1 -10  146.17   17.49   0
  -6   0  -3  804.60   36.92   0
  -4  -2 -10  372.77   28.67   0
  -2  -2  -9 1353.16   37.77   0
  -6  -1  -8  251.35   29.42   0
  -5  -1  -3  992.57   32.40   0
  -7   2 -10   35.12   13.44   0
  -4  -2  -9  616.50   31.78   0
  -3  -1 -12  518.78   32.90   0
  -7   1  -8  274.47   25.42   0
  -6   0 -11  347.04   26.26   0
  -5  -1 -11  566.88   34.23   0
  -4  -2  -8  720.09   32.35   0
  -4  -2  -6  963.62   32.54   0
  -3  -2  -9  550.62   27.88   0
  -3   0 -13   93.03   23.92   0
  -2  -2  -8 1240.24   33.82   0
  -6   1 -12   80.03   16.28   0
  -7   2  -5  121.39   29.30   0
  -6   0  -4  643.12   32.27   0
  -5  -1  -4 1079.92   34.57   0
  -3  -2  -8  298.60   21.54   0
  -6   0 -10  415.75   29.42   0
  -5  -1 -10  554.61   34.33   0
  -5   0 -12  118.47   22.51   0
  -3  -2  -7  597.50   24.74   0
  -7   2  -8   64.50   20.09   0
  -7   2  -6   92.46   24.38   0
  -7   3  -8  306.26   26.05   0
  -3  -1 -11  716.24   34.49   0
  -7   2  -7   59.83   22.15   0
  -6   0  -9  456.91   31.68   0
  -6   0  -5  841.18   37.62   0
  -6   1 -11   69.79   17.63   0
  -5  -1  -9  688.20   36.08   0
  -4   1 -13   79.29   21.40   0
  -7   3  -7  359.16   28.62   0
  -7   3  -6  355.75   32.68   0
  -6   0  -6 1196.18   44.55   0
  -5  -1  -8  594.30   33.44   0
  -5  -1  -6  944.14   36.27   0
  -2  -1 -10  114.07   21.35   0
  -5   0  -2  305.75   23.00   0
  -4  -1 -10   32.33   20.30   0
  -3   0 -12  113.70   23.91   0
  -6   1  -3  215.73   25.50   0
  -6   2 -11  214.73   18.93   0
  -6   3 -11   16.64   12.10   0
  -5   1 -12  269.10   22.40   0
  -3   2 -13  149.98   22.59   0
  -6   1 -10  162.56   22.25   0
  -4  -1  -9  111.03   22.16   0
  -6   1  -9  200.50   24.78   0
  -5   0 -10  163.31   26.77   0
  -5   2 -12   77.94   16.45   0
  -2  -1  -9  440.12   25.02   0
  -2   0 -11  634.37   38.27   0
  -6   1  -4  305.52   29.38   0
  -6   2 -10  262.45   21.48   0
  -5   0  -3  431.93   25.66   0
  -4  -1  -5  183.78   18.53   0
  -4   0 -11  838.00   37.03   0
  -6   1  -8  175.19   26.51   0
  -6   3 -10   53.02   14.91   0
  -5   0  -9  224.12   28.12   0
  -5   1 -11  586.53   32.66   0
  -4  -1  -7  283.62   23.88   0
  -4  -1  -6  304.65   21.84   0
  -3   0 -11  120.45   24.44   0
  -6   1  -6   66.91   26.97   0
  -6   1  -5  126.35   27.12   0
  -3   1 -12  363.64   27.98   0
  -5   0  -8  236.21   26.80   0
  -5   0  -4  320.25   25.13   0
  -3  -1  -8  580.87   27.32   0
  -2  -1  -8  350.52   21.66   0
  -6   2  -3  252.54   27.47   0
  -6   4  -9  181.72   17.35   0
  -5   0  -7  397.12   28.94   0
  -5   4 -11   32.89   11.96   0
  -4   0 -10  881.78   37.96   0
  -4   2 -12  150.42   20.38   0
  -6   3  -9  103.45   17.22   0
  -5   0  -6  246.35   26.04   0
  -5   1 -10  453.32   30.69   0
  -5   2 -11  102.12   20.20   0
  -4   3 -12  157.72   18.69   0
  -6   2  -8  188.31   24.47   0
  -5   3 -11  297.56   20.82   0
  -4   1 -11  247.56   25.79   0
  -3   2 -12  145.95   22.01   0
  -6   2  -4  424.91   33.97   0
  -4   0  -9  651.86   33.31   0
  -3   0 -10   13.89   15.77   0
  -3   3 -12  250.20   23.06   0
  -6   2  -7  307.75   30.21   0
  -6   2  -6  789.85   40.48   0
  -6   2  -5  473.24   35.53   0
  -6   3  -8   48.42   18.22   0
  -6   4  -8  214.67   19.94   0
  -5   1  -9  639.83   35.50   0
  -5   1  -2 1058.78   37.77   0
  -2   1 -11  281.63   28.92   0
  -5   2 -10  108.03   23.04   0
  -3   1 -11  652.05   33.71   0
  -6   3  -3  178.29   27.69   0
  -6   5  -6  131.42   23.54   0
  -6   3  -7  173.23   24.45   0
  -6   5  -5   63.92   26.62   0
  -5   1  -8  629.16   35.04   0
  -5   1  -3 1008.45   38.54   0
  -5   3 -10  271.28   23.43   0
  -5   4 -10   75.96   16.02   0
  -4   1 -10   98.20   24.60   0
  -6   3  -5   59.38   26.94   0
  -6   3  -4  168.48   28.56   0
  -6   4  -3  331.28   34.79   0
  -5   5  -9  217.65   17.55   0
  -2   0  -9  963.04   35.19   0
  -5   1  -4 1223.60   43.75   0
  -5   2  -9  180.50   25.75   0
  -4   0  -6 1662.03   43.65   0
  -5   1  -6  686.91   36.98   0
  -4   0  -5  841.74   29.74   0
  -3   2 -11  349.37   27.35   0
  -2   2 -11  324.20   28.84   0
  -4   5 -10   11.52   11.72   0
  -3   4 -11  166.49   18.85   0
  -2   1 -10  159.63   25.24   0
  -2   4 -11  144.94   23.19   0
  -5   2  -8  206.69   27.11   0
  -5   3  -9  370.43   27.48   0
  -5   4  -9   70.19   18.50   0
  -5   6  -7   95.48   14.96   0
  -4   2 -10  690.87   34.97   0
  -3   3 -11  514.24   28.96   0
  -2   0  -8  874.89   31.11   0
  -5   5  -8  263.81   21.41   0
  -4   1  -8  249.52   27.86   0
  -4   3 -10  247.60   24.42   0
  -4   4 -10  361.31   22.80   0
  -5   2  -7  354.10   29.18   0
  -5   2  -2  366.06   30.44   0
  -5   3  -8  325.17   27.96   0
  -5   2  -6  316.22   30.44   0
  -5   4  -8  102.70   21.80   0
  -5   6  -6  182.14   19.05   0
  -3   5 -10  176.00   17.77   0
  -5   2  -3  442.73   34.24   0
  -4   1  -7  347.63   27.77   0
  -3   6  -9   17.95   12.53   0
  -2   5 -10   46.20   19.70   0
  -5   3  -7  296.79   26.71   0
  -5   5  -7  390.23   25.43   0
  -4   5  -9   25.90   14.25   0
  -4   6  -8  175.71   16.26   0
  -2   2 -10  797.10   36.38   0
  -5   3  -1  202.01   28.53   0
  -4   1  -6  323.71   26.23   0
  -3   4 -10   83.09   20.42   0
  -4   4  -9  403.06   26.83   0
  -3   1  -8  914.81   35.54   0
  -2   6  -9  257.32   19.18   0
  -5   3  -6  170.44   26.88   0
  -5   5  -6  235.91   25.71   0
  -5   6  -4   38.88   25.39   0
  -4   1  -3  562.32   29.33   0
  -4   2  -8  373.33   26.66   0
  -2   3 -10   63.51   22.60   0
  -2   4 -10  322.90   28.64   0
  -5   3  -2  425.89   34.69   0
  -5   4  -6  293.63   27.70   0
  -5   6  -3   97.80   31.75   0
  -3   2  -9  304.14   26.63   0
  -4   5  -8   38.51   17.71   0
  -4   2  -7  734.32   34.45   0
  -4   3  -8  283.95   27.00   0
  -4   7  -5  208.32   18.18   0
  -3   1  -7  599.36   28.43   0
  -4   4  -8  395.93   27.92   0
  -3   3  -9  705.93   33.58   0
  -3   6  -8   50.56   13.60   0
  -2   2  -9 1321.08   40.98   0
  -1   2  -9   39.77   23.48   0
  -5   4  -4   93.96   29.20   0
  -5   4  -3  268.91   33.20   0
  -5   4  -2  369.16   35.08   0
  -5   5  -2  739.69   46.92   0
  -3   4  -9   62.60   19.96   0
  -3   1  -6  751.45   29.80   0
  -3   2  -8  469.89   29.14   0
  -2   5  -9  251.94   21.72   0
  -4   3  -7  461.98   30.32   0
  -4   5  -7   71.41   22.20   0
  -4   6  -6  245.20   21.75   0
  -4   7  -4  135.27   19.02   0
  -4   2  -5  734.72   33.17   0
  -4   4  -7  463.03   30.12   0
  -3   7  -6  163.99   16.11   0
  -2   6  -8  371.31   22.89   0
  -4   2  -4 1250.56   39.51   0
  -3   5  -8  428.64   24.99   0
  -2   4  -9  732.76   32.10   0
  -1   4  -9   99.94   22.43   0
  -1   6  -8   76.48   19.13   0
  -4   2  -3 1048.30   39.48   0
  -4   2  -2 1481.02   45.58   0
  -4   3  -6  445.16   28.79   0
  -3   2  -7  365.84   25.50   0
  -2   2  -8  837.17   32.32   0
  -4   5  -6   80.22   22.67   0
  -4   6  -5  252.42   23.87   0
  -3   4  -8  240.51   23.36   0
  -3   6  -7   55.96   12.38   0
  -4   4  -6  496.40   30.17   0
  -1   2  -8   48.27   20.00   0
  -4   3  -5  640.23   29.69   0
  -4   5  -5  267.70   26.20   0
  -4   6  -4  455.04   29.32   0
  -3   2  -6  616.27   27.85   0
  -3   7  -5  252.71   19.09   0
  -4   3  -4  183.80   22.88   0
  -4   3   0  526.36   32.80   0
  -4   4  -5  463.45   28.07   0
  -3   5  -7  353.04   25.11   0
  -2   7  -6   50.06   12.31   0
  -2   8  -4  217.22   16.12   0
  -3   4  -7  184.42   21.50   0
  -3   6  -6   93.80   18.55   0
  -3   8  -1  110.98   22.66   0
  -2   6  -7  217.41   18.70   0
  -1   5  -8  328.14   23.54   0
  -4   3  -2  385.34   27.80   0
  -4   3  -1  421.77   30.46   0
  -4   5  -4   45.74   22.45   0
  -3   8   0   66.15   24.24   0
  -1   3  -8  827.76   32.66   0
   0   7  -6   63.82   14.76   0
  -4   4  -2  628.14   29.27   0
  -3   8   3   72.37   16.60   0
  -2   8   1  488.64   21.98   0
   0   5  -3  307.94   19.66   0
  -4   6   0  770.11   30.52   0
  -4   7   3  153.95   27.01   0
  -2   7  -1  189.81   16.76   0
  -1   8   1   84.19   14.23   0
   2   4  -1  847.35   29.91   0
   2   7   2  174.84   18.86   0
   2   8   5  492.25   23.67   0
  -3   8   4   78.16   19.59   0
  -1   7  -1  361.11   19.99   0
  -2   5  -3  131.42   14.60   0
  -2   6  -2  375.46   19.73   0
   0   4  -3 1043.96   27.04   0
   1   8   3   95.33   14.27   0
  -2   8   2  481.56   21.74   0
  -1   6  -2  426.16   20.91   0
   0   8   2  206.42   17.29   0
   1   4  -2  306.36   18.23   0
   2   8   6  330.33   19.58   0
  -3   6  -1  117.97   15.48   0
   0   7   0  155.71   16.93   0
   2   5   0  177.09   18.48   0
   2   6   1  104.22   18.25   0
  -3   5  -2  357.84   19.15   0
  -2   4  -3  665.54   21.54   0
  -2   7   0  157.30   15.43   0
  -1   8   2  117.08   15.17   0
  -1   7   0  356.42   18.60   0
   0   5  -2  384.76   19.14   0
   1   8   4  163.20   15.01   0
   2   7   3  176.94   17.57   0
   0   8   3  212.73   17.03   0
  -4   5   0  395.57   22.10   0
  -2   6  -1  318.52   16.99   0
  -1   8   3   94.61   14.40   0
  -3   7   2  563.11   22.72   0
  -1   6  -1  106.86   14.13   0
   0   7   1   56.77   13.40   0
  -2   7   1   88.54   13.98   0
   1   8   5  130.79   14.04   0
  -3   5  -1  513.19   19.97   0
  -1   7   1  457.64   20.38   0
   2   6   2  865.60   27.98   0
   2   7   4   80.27   14.91   0
  -2   8   5  308.08   19.23   0
  -1   8   4  183.00   16.54   0
   1   4  -1  417.85   18.11   0
   2   5   1  250.47   18.27   0
  -4   6   3  384.08   22.59   0
  -3   7   3  372.88   20.91   0
  -2   8   6  280.07   18.33   0
   0   5  -1  509.76   18.86   0
   1   8   6  105.90   12.99   0
  -2   6   0  550.37   19.73   0
  -2   7   2  222.26   16.68   0
   0   8   5   60.81   14.06   0
  -4   6   4  436.42   27.30   0
  -2   5  -1  539.58   18.25   0
  -1   6   0  264.88   15.97   0
   1   8   7   59.53   12.07   0
   2   7   5  123.51   14.95   0
  -3   4  -1  142.83   12.90   0
  -3   7   4  314.50   20.23   0
  -1   5  -1  972.34   23.34   0
  -1   7   2  524.07   20.89   0
  -4   6   5  678.92   33.10   0
  -1   8   6   49.23   13.47   0
   0   8   6  154.46   15.13   0
   1   8   8   30.83   10.22   0
   1   8   9   62.95   10.08   0
   2   6   3  535.61   22.49   0
  -3   7   5  327.12   21.08   0
  -2   7   3  197.93   17.03   0
  -3   6   2  413.56   19.39   0
  -3   7   8  119.38   18.74   0
  -2   6   1  543.26   19.45   0
  -1   8   8   60.15   11.60   0
  -1   8   9  117.61   11.86   0
   0   4  -1  403.91   16.02   0
   0   6   1 1357.07   28.47   0
   0   7   3  226.18   17.23   0
   2   7   6  130.57   14.35   0
  -3   7   7  307.90   21.12   0
  -1   7   3  392.55   20.05   0
   0   8   8  143.33   13.41   0
   0   8   9  107.22   11.42   0
  -1   6   1  234.55   14.51   0
   0   5   0   48.95    8.45   0
  -2   5   0  234.84   13.71   0
  -2   7   4  136.35   16.60   0
  -1   4  -1  100.59    9.89   0
   2   7   7  274.82   17.68   0
  -3   4   0  219.66   13.67   0
  -3   5   1  451.79   18.50   0
  -3   6   3  183.67   16.40   0
  -1   5   0 1349.97   25.14   0
   0   7   4  187.72   16.25   0
   2   6   4  474.84   21.02   0
  -2   6   2  619.39   20.72   0
  -1   7   4  439.62   21.31   0
  -4   5   4  222.68   21.71   0
  -2   7   5  161.80   17.98   0
   2   7   8   73.26   11.81   0
  -1   6   2  219.89   14.43   0
   2   7   9  110.99   13.58   0
   2   7  11   14.11    9.69   0
   0   7   5  138.94   16.25   0
   2   5   3  207.66   15.61   0
   2   7  10  100.92   11.49   0
  -4   5   5   81.22   18.15   0
  -3   5   2  482.96   19.53   0
  -2   5   1  202.19   12.92   0
  -2   7  10  126.79   12.89   0
   2   6   5  430.61   20.07   0
  -2   6   3  363.59   18.43   0
  -2   7   7   43.08   16.07   0
  -2   7   9  109.04   14.57   0
  -4   5   6  348.13   27.56   0
  -3   4   1  429.78   16.88   0
  -3   6   5  137.65   17.41   0
  -3   6  10   94.57   14.44   0
  -1   4   0  529.45   15.76   0
  -1   5   1  896.31   19.88   0
  -1   7   6  344.91   21.75   0
   0   6   3 1024.95   25.54   0
   0   7   6  111.73   16.36   0
  -1   6   3  179.52   15.19   0
   1   7  12  130.51   10.46   0
  -3   6   6   76.25   16.99   0
  -1   7   7  285.11   21.02   0
  -1   7  11  191.46   12.56   0
   0   7  12   28.50    7.34   0
   2   6   6  277.15   17.83   0
  -3   6   7  299.06   23.23   0
  -3   6   8  198.47   24.10   0
  -3   6   9  183.51   19.13   0
  -2   6   4  426.48   21.36   0
   0   7   7   60.21   16.18   0
  -2   5   2  622.29   18.82   0
  -1   7   9  346.10   20.31   0
  -1   7  10  190.69   15.08   0
   0   5   2  426.25   15.57   0
   0   7   8  112.71   16.88   0
   2   5   4  197.92   15.43   0
  -1   6   4  455.59   20.35   0
   0   6   4  849.65   25.15   0
   0   7   9   72.99   14.43   0
   0   7  11  116.57   11.69   0
  -2   6   5  581.92   24.94   0
  -1   5   2 1167.86   23.61   0
   0   7  10   79.51   12.78   0
   2   6   7  393.38   19.35   0
  -3   5   4  398.27   19.52   0
   2   6  13  209.14   12.99   0
  -2   5   3  210.71   14.67   0
  -1   6   5   87.87   15.59   0
   0   6   5  574.69   24.00   0
   2   6   8  216.81   16.51   0
  -3   5   5  450.82   22.42   0
  -1   6  13   30.25    6.70   0
   2   5   5  218.51   15.96   0
  -2   6   7  582.56   28.60   0
  -1   5   3  859.45   22.00   0
   2   6   9  268.39   16.90   0
  -3   4   3  254.21   16.16   0
  -2   6   9  436.38   25.90   0
  -2   6  10  301.00   20.67   0
  -1   6   6   47.82   16.73   0
   0   6   6  878.29   29.03   0
   2   6  10  334.65   17.18   0
  -3   5   6  751.72   29.03   0
  -2   5   4  163.45   14.79   0
  -3   5   7  232.78   22.62   0
  -2   5  13   41.22    8.35   0
  -1   6  12  125.91   11.92   0
   0   6  13  272.76   12.38   0
  -3   5   9  371.68   26.66   0
   0   6   7  915.21   30.27   0
   1   6   8  216.32   18.36   0
   2   5   6  386.86   18.84   0
  -1   4   2  498.70   15.32   0
  -1   5   4 1168.14   26.82   0
  -1   6   8  130.21   20.04   0
  -1   6  11  151.63   16.29   0
   0   5   4  299.46   15.86   0
   1   6  12  189.67   14.36   0
   3   5  10  176.05   15.33   0
   3   5  12  284.18   16.04   0
  -3   4   4  192.22   16.30   0
  -2   5   5  272.75   17.91   0
  -1   6   9  182.16   21.28   0
  -1   6  10    5.99   16.12   0
   0   6   8  588.66   27.55   0
   1   6   9  218.25   19.16   0
   1   6  11  215.75   17.09   0
   0   6   9  414.33   24.71   0
   0   6  11  566.06   22.82   0
   1   6  10   63.96   12.42   0
   0   6  10  427.68   23.64   0
   2   5   7  415.01   19.62   0
   2   5  14   73.36    9.44   0
  -3   4   5   93.74   15.61   0
  -3   4  11  116.19   18.07   0
  -1   5   5  670.85   21.98   0
   0   5   5  379.91   18.76   0
  -2   5   7   94.97   20.17   0
  -2   5  11   69.23   16.59   0
   2   4   5 1117.20   25.89   0
   2   5   8   83.28   14.89   0
  -3   4  10   95.72   20.29   0
  -2   5   9  103.32   22.85   0
  -1   5   6 1039.16   30.25   0
   0   5  14   74.61    8.68   0
   1   5  14  365.77   13.94   0
   2   5  13  329.59   15.52   0
   3   4  14   97.25   12.56   0
  -3   4   7  342.33   25.93   0
   0   5   6  151.49   14.12   0
   1   5   7  853.13   27.78   0
   2   5   9  359.93   19.80   0
   3   4   8  221.25   21.05   0
  -3   3  12  459.28   19.67   0
  -3   4   8  154.91   26.13   0
  -3   4   9  182.63   25.03   0
  -1   5   7  554.52   26.34   0
  -1   5  12  305.48   17.75   0
   2   5  10  149.98   15.95   0
   2   5  11   39.20   13.45   0
   2   5  12  299.10   16.83   0
  -3   3   4 1317.11   29.57   0
   0   5  13  181.03   13.12   0
   1   5  13  375.34   16.56   0
  -1   4   4  783.03   20.51   0
  -1   5   8  558.76   28.68   0
  -1   5  11  436.25   24.50   0
   0   4   4 1078.68   22.44   0
   1   5   8  669.24   26.06   0
   2   4   6  837.31   23.38   0
   2   4  15  459.29   14.61   0
   3   4  13  191.98   14.71   0
  -2   3  14  168.39   10.07   0
  -1   5   9  606.30   31.14   0
  -1   5  10  234.03   24.31   0
   1   5  12  249.38   17.71   0
   3   4   9  188.05   16.65   0
  -1   4  14   44.86    7.56   0
   0   4  15  375.26   12.18   0
   0   5  12   82.85   12.00   0
   1   5  10  635.95   26.19   0
   1   5  11  308.12   21.00   0
   3   4  10  130.01   16.99   0
   3   4  12   49.96   13.34   0
   0   5   9  128.75   19.51   0
   0   5  10  224.14   21.03   0
   0   5  11  132.35   17.63   0
   3   4  11   66.52   12.68   0
  -3   5   2  436.14   20.03   0
  -2   6   4  403.12   21.26   0
  -1   6   4  416.91   20.46   0
   1   5   4  900.80   24.62   0
  -3   6   5  133.24   17.64   0
   3   4  10  158.57   17.00   0
   1   6   8  201.91   16.31   0
  -3   6   6   74.15   20.47   0
  -3   6  10  102.93   14.39   0
  -2   5   2  647.11   19.86   0
  -1   6  13   36.06    6.51   0
  -2   6   5  582.40   24.63   0
  -2   6  12  263.64   11.39   0
  -1   6   5  104.44   16.45   0
   0   6   6  953.33   27.85   0
   1   4   3  806.65   20.42   0
   1   6  10   97.13   12.86   0
   2   5  12  277.73   13.41   0
  -3   6   9  190.41   19.70   0
   1   5   5  790.89   23.24   0
   2   5   9  351.78   18.46   0
   2   5  11   47.15   10.66   0
  -3   5   3  370.24   19.00   0
  -3   6   8  187.50   19.33   0
   0   6   7  888.04   26.91   0
   2   5  10  121.26   13.48   0
  -1   6   6   41.50   15.58   0
  -2   6  11  272.91   13.91   0
   0   5   4  254.51   14.80   0
   0   6   8  533.92   22.48   0
   1   4  15   60.49    8.87   0
   2   4   6  911.15   24.38   0
   0   6   9  419.47   20.93   0
   0   6  10  413.98   20.05   0
  -4   5   9  147.25   18.57   0
  -2   6   9  415.23   21.34   0
  -2   6  10  303.44   17.10   0
  -1   6  11  144.41   13.16   0
   1   4   4  434.93   15.65   0
   1   5  13  383.92   14.18   0
   2   4  13  334.34   13.76   0
  -4   5   7  571.47   31.50   0
  -4   5   8  182.44   24.36   0
  -3   5   4  357.76   19.55   0
  -1   6   9  200.97   18.25   0
   1   5   7  831.19   23.11   0
  -1   5   4 1160.16   26.57   0
   0   5   5  350.92   17.15   0
   1   5   8  688.79   21.48   0
   2   4  12  212.42   12.68   0
  -2   5  13   35.08    6.42   0
   0   4  15  377.70   10.99   0
   1   5   9  530.26   19.89   0
   1   5  11  326.99   15.86   0
  -3   5   5  373.96   21.35   0
   0   5  13  202.48   11.45   0
   1   4   5  491.25   16.95   0
   2   4   9  862.64   24.11   0
   2   4  10  701.78   21.56   0
   2   4  11  728.33   20.54   0
  -2   4   2 1385.73   25.25   0
  -1   5   5  727.98   23.44   0
   1   3  15  377.63   13.27   0
  -3   5   6  743.07   28.97   0
  -2   5   5  257.71   18.81   0
  -2   5  12   35.07    8.38   0
   0   5   7   86.27   13.05   0
   0   5  12   91.68   12.10   0
   2   3  13  134.80   12.29   0
  -2   4  14  198.84    8.20   0
   1   4   6  231.34   13.47   0
  -3   5   7  197.38   20.90   0
  -3   5   8  185.07   20.61   0
  -3   5   9  331.69   21.96   0
  -1   5  12  315.93   14.83   0
   0   5  10  265.03   17.15   0
   0   5  11  129.98   12.01   0
  -3   4   3  244.40   16.25   0
  -2   5  11   58.31   11.34   0
   2   3   7  275.96   15.81   0
  -4   4  10  435.55   18.17   0
  -2   5   7   63.55   16.91   0
  -1   5   7  559.50   23.94   0
  -1   5  11  496.28   19.88   0
   1   4   7  406.14   16.49   0
  -2   4   3  559.61   18.53   0
  -2   5   8   60.89   17.13   0
  -2   5   9   84.49   16.70   0
  -2   5  10  123.68   15.70   0
  -1   5   8  633.50   25.29   0
  -1   5   9  623.02   25.26   0
  -1   5  10  286.93   18.32   0
   0   3  15   70.49    7.03   0
   1   4  12  150.63   12.65   0
   2   3   8   73.71   12.65   0
  -3   4  12   68.45    7.92   0
   0   4   5  825.86   20.75   0
   1   2  15   39.85    8.74   0
   1   3  14  464.84   14.64   0
   1   4   8  227.20   14.57   0
   2   3  11   34.24   10.89   0
  -4   4   9  565.86   24.80   0
  -2   4  13  298.55   11.27   0
   0   4  13  463.92   15.83   0
   1   4   9  144.50   13.44   0
   2   3   9  295.81   16.49   0
   2   3  10   27.44   11.31   0
  -4   4   6  235.06   23.08   0
  -4   4   8  460.72   25.42   0
  -3   4   4  209.16   16.80   0
  -4   4   7  500.91   27.99   0
  -1   4  13   74.83   10.09   0
  -3   4  11  109.65   11.21   0
  -2   4   4 1131.91   26.56   0
   0   4   6 1258.16   25.76   0
   0   4  12  319.02   16.32   0
  -3   3  13  183.81    8.29   0
  -2   3  14  174.45    8.54   0
  -2   4  12  316.06   14.09   0
   1   3  13  754.89   19.42   0
  -4   3  11   16.63    7.62   0
  -3   4   5   99.76   16.87   0
  -1   4   5   83.37   12.22   0
  -1   4  12  125.00   12.82   0
   0   2  15  449.66   12.68   0
   0   4   7 1122.08   25.43   0
   0   4  11  596.25   21.42   0
   2   2  12  178.31   12.60   0
  -3   4  10   93.76   14.79   0
  -1   3  14  267.02   11.06   0
  -3   4   6   45.42   17.75   0
  -2   4  11  201.96   15.14   0
   0   4   9  670.86   22.27   0
   1   2  14   32.72    8.47   0
   1   3  12  364.99   15.46   0
  -3   4   7  335.22   24.39   0
   2   2  11  830.21   21.76   0
  -2   4  10  275.81   18.04   0
  -4   3  10   60.11   11.58   0
  -3   3  12  355.28   12.64   0
  -2   3  13  195.88   11.04   0
  -1   4   7  265.15   15.70   0
  -1   4   8  402.30   20.43   0
  -1   4   9  164.74   17.80   0
  -1   4  10   -4.30   10.14   0
   1   3  11  380.71   16.25   0
  -4   3   4   92.46   18.53   0
   0   1  15   98.69    7.70   0
   1   3  10  974.67   22.33   0
  -4   3   9   56.16   17.73   0
  -2   2  14  291.74   10.24   0
  -1   1  15  353.26   10.22   0
   1   2  13   96.88   11.01   0
  -3   2  13   77.47    6.83   0
  -3   3   3 2111.30   36.56   0
   0   2  14  522.46   14.88   0
   0   3  12  161.13   13.79   0
   1   1  14  266.38   12.64   0
  -4   3   5   33.87   18.89   0
  -4   3   8   20.95   17.69   0
  -3   3  11  543.94   18.28   0
  -2   3  12  186.77   12.64   0
  -1   2  14   96.20    8.65   0
  -4   3   6  346.00   26.92   0
  -1   3  12  306.15   15.45   0
   0   3  11  185.37   14.50   0
   1   2  12   31.98   10.44   0
  -5   2   6   73.34   23.55   0
  -3   3   4 1317.55   31.77   0
  -2   1  14   52.58    6.37   0
  -2   2  13  452.75   14.49   0
  -2   3  11  238.14   15.90   0
  -1   3  11  687.77   22.10   0
   0   3   7  184.64   12.70   0
   0   3  10  359.52   17.93   0
  -3   2  12   62.46    8.47   0
  -3   3   9  564.25   24.96   0
   0   1  14  158.16   10.55   0
   0   3   8  345.05   16.19   0
   0   3   9  288.05   16.53   0
  -3   1  13  245.83    9.62   0
  -1   2  13  197.56   12.64   0
  -3   3   6 1690.15   40.60   0
  -2   0  14  205.48    8.46   0
  -2   3   9  646.01   25.18   0
  -1   3   6 1421.02   29.57   0
  -1   3   9  570.71   22.36   0
   1   2  10   63.04   10.82   0
  -2   2  12  570.73   18.21   0
  -2   3   6  411.82   20.61   0
  -1   3   7  740.57   23.99   0
  -1   3   8  908.59   26.38   0
   1   2   8   39.59    9.49   0
   1   2   9   40.60    9.07   0
  -2   3   7  388.24   21.66   0
  -1   2  12  150.62   13.03   0
   1   1  12  394.32   16.40   0
  -5   1   8  476.17   22.81   0
  -2   1  13  110.54    9.72   0
   0  -1  14   90.37    9.69   0
   0   1  13  151.87   12.02   0
   1   0  13  293.87   14.06   0
  -4   2   8  438.57   24.26   0
  -3  -1  13  241.54    9.51   0
  -3   1  12  331.18   12.67   0
  -4   2   4 1087.30   36.92   0
  -3   2  10  146.21   13.97   0
  -2   2  11  589.58   19.79   0
  -1  -1  14  245.23    9.91   0
  -1   1  13  667.75   18.28   0
  -5   0   9  143.45   12.25   0
  -5   1   7  709.32   31.56   0
  -4   2   7  518.49   29.52   0
  -1   2  11  844.61   23.72   0
   0   2  10  490.99   19.40   0
  -4   2   5  918.66   37.14   0
  -4   2   6  243.45   26.44   0
   1   1  11  196.49   13.66   0
  -5   1   6  388.26   31.14   0
  -3   2   9  179.46   16.64   0
  -2   1  12   71.32   11.32   0
  -2   2  10  224.64   16.81   0
  -1   2  10  252.78   16.95   0
   0   0  13  596.49   17.53   0
   1   0  12  285.88   14.93   0
  -3   0  12  117.88    9.35   0
  -1   1  12  534.90   18.65   0
   1   1  10  899.10   22.10   0
  -5  -1   9  305.74   12.65   0
  -5   0   8  114.93   14.43   0
  -3   2   8   71.09   13.59   0
  -1   0  13   24.83    6.94   0
  -4  -2  11  237.81    9.48   0
  -3   2   4  225.05   20.31   0
  -2  -1  13  150.30    9.03   0
  -1   2   9  271.53   17.44   0
  -3   2   5  182.79   19.42   0
  -3   2   6  161.22   21.23   0
   0  -1  13  179.68   11.37   0
   1   1   9 1556.25   27.16   0
  -3   1  10  628.03   20.29   0
   0  -2  13  566.98   15.75   0
  -7   3  -5  475.63   36.54   0
  -5   0  -6  255.52   38.46   0
  -4   0  -7 1158.76   48.42   0
  -4   2  -9  379.04   37.67   0
  -3   6  -7   51.86   28.04   0
  -6   1  -6   48.57   33.38   0
  -4   3  -9  274.51   36.95   0
  -4   6  -7  244.82   24.37   0
  -3   5  -8  393.23   35.17   0
  -7   3  -4  414.82   43.17   0
  -7   4  -4   72.16   30.85   0
  -6   2  -7  292.76   38.69   0
  -4   1  -8  147.57   30.74   0
  -3   1  -8  809.48   44.08   0
  -2   4  -8  424.40   42.41   0
  -1   2  -7  116.29   31.88   0
  -6   4  -7  233.92   27.52   0
  -5   0  -5   82.28   33.93   0
  -2   2  -8  884.05   47.07   0
  -7   3  -3  486.02   48.34   0
  -6   3  -7  190.86   30.69   0
  -6   5  -6  125.92   21.94   0
  -5   1  -7  635.13   43.81   0
  -5   4  -8   76.26   19.72   0
  -5   6  -6  176.70   22.71   0
  -2   3  -8   17.76   30.62   0
  -7   3  -2  620.52   58.64   0
  -7   4  -3  152.82   33.19   0
  -5   3  -8  325.88   33.74   0
  -2   1  -7  498.28   31.91   0
  -7   4  -2  135.68   41.73   0
  -6   1  -4  266.12   39.70   0
  -5   0  -4  358.87   39.79   0
  -5   5  -7  396.44   27.23   0
  -4   2  -8  390.39   36.67   0
  -3   2  -8  366.35   34.59   0
  -3   4  -8  204.09   32.40   0
  -6   1  -3  221.13   39.73   0
  -6   4  -6  533.52   33.97   0
  -4   1  -7  290.58   31.14   0
  -4   3  -8  320.01   34.40   0
  -3   1  -7  471.54   33.54   0
  -6   5  -5   89.03   21.53   0
  -5   2  -7  394.65   35.06   0
  -4   6  -6  235.50   23.44   0
  -6   2  -5  514.30   39.65   0
  -5   4  -7  224.38   28.35   0
  -3   6  -6   90.62   24.25   0
  -6   6  -3  224.98   22.72   0
  -5   6  -5   30.24   17.16   0
  -6   4  -5  370.97   31.08   0
  -5   5  -6  246.26   24.57   0
  -4   7  -4  112.22   18.45   0
  -2   3  -7  110.35   28.12   0
  -6   2  -4  393.41   35.04   0
  -6   3  -5   37.69   25.98   0
  -4   1  -6  313.65   27.90   0
  -4   4  -7  475.13   33.90   0
  -1   4  -6  183.72   36.37   0
  -6   5  -4  124.27   21.43   0
  -5   2  -6  333.38   32.76   0
  -3   7  -4  249.62   26.64   0
  -1   3  -6 1108.19   47.13   0
  -3   3  -7  686.35   36.62   0
  -2   5  -6  237.20   30.12   0
  -6   2  -3  290.31   32.84   0
  -5   1  -4 1157.15   47.25   0
  -6   2  -2  761.03   42.31   0
  -6   5  -3  153.28   22.16   0
  -6   6  -1  187.58   25.60   0
  -5   5  -5  626.58   31.86   0
  -4   1  -5  317.00   24.48   0
  -3   5  -6  250.39   27.16   0
  -3   6  -5   71.59   20.27   0
  -6   2  -1  365.26   37.66   0
  -6   4  -3  307.68   29.34   0
  -5   1  -3 1158.84   44.72   0
  -4   3  -6  418.08   28.34   0
  -3   2  -6  556.62   28.20   0
  -2   4  -6  680.65   35.20   0
  -6   5  -2  134.44   22.07   0
  -5   3  -5  746.91   35.74   0
  -5   7  -1  142.32   18.02   0
  -2   3  -6  373.67   27.38   0
  -6   3  -2  278.67   27.63   0
  -5   6  -3   73.87   17.63   0
  -3   3  -6  860.71   34.28   0
  -2   7  -3   56.61   22.34   0
  -5   1  -2 1064.17   42.70   0
  -5   5  -4  862.72   34.94   0
  -4   6  -4  395.32   24.17   0
  -3   7  -3  454.74   23.73   0
  -1   4  -5  346.53   29.82   0
  -5   7   0  114.05   16.81   0
  -4   2  -5  669.52   29.87   0
  -2   5  -5  432.26   28.08   0
  -6   3  -1  287.04   28.91   0
  -5   1  -1 1120.20   48.77   0
  -4   7  -2  112.50   16.92   0
  -2   6  -4  437.66   26.49   0
  -6   3   0   98.80   25.99   0
  -6   4  -1  463.05   31.06   0
  -6   5   0  107.53   24.29   0
  -6   5   3  114.69   29.56   0
  -5   3  -4  466.25   26.82   0
  -5   4  -4   84.66   16.16   0
  -4   4  -5  477.03   27.13   0
  -3   6  -4  140.47   19.27   0
  -3   8   0   63.98   19.52   0
  -6   3   1  141.56   28.04   0
  -6   5   1   38.49   24.25   0
  -6   5   2  166.34   27.30   0
  -5   5  -3  495.27   29.03   0
  -5   7   1  192.56   20.95   0
  -3   2  -5  129.30   17.08   0
  -6   4   0  465.54   31.98   0
  -4   1  -3  500.13   25.44   0
  -2   8   0  378.36   28.11   0
  -6   4   2  381.83   32.81   0
  -5   7   2  248.26   23.62   0
  -4   6  -3  459.50   24.72   0
  -3   3  -5 1336.87   35.53   0
  -3   4  -5  150.11   19.70   0
  -1   5  -4  412.99   29.13   0
  -5   3  -3  382.26   27.14   0
  -5   4  -3  238.63   23.39   0
  -5   6  -1   61.84   17.32   0
  -4   7  -1   62.58   15.99   0
  -2   7  -2   71.37   16.54   0
  -5   5  -2  767.20   33.42   0
  -4   3  -4  194.86   19.65   0
  -4   4  -4  886.28   31.79   0
  -3   8   1   50.25   15.72   0
  -5   2  -1  247.33   22.85   0
  -4   5  -3   87.32   17.91   0
  -4   7   0  235.50   18.11   0
  -3   2  -4  897.94   25.86   0
  -2   8   1  542.53   27.45   0
  -5   6   1  191.85   21.25   0
  -3   3  -4 1790.63   35.91   0
  -2   4  -4 1536.67   35.22   0
  -5   4  -1  116.82   19.51   0
  -5   6   2   62.46   20.27   0
  -5   6   5  172.97   25.38   0
  -4   3  -3  407.55   21.61   0
  -4   7   1   99.98   15.71   0
  -2   7  -1  193.65   17.54   0
  -5   2   1   67.57   21.63   0
  -4   5  -2  118.05   17.74   0
  -3   6  -2  208.26   18.18   0
  -3   8   3   48.90   15.36   0
  -1   5  -3  900.25   29.72   0
  -1   6  -2  395.45   22.84   0
  -5   3   0  860.52   30.17   0
  -5   5   1  902.36   34.07   0
  -4   7   2  119.96   16.19   0
  -2   6  -2  436.86   21.42   0
  -5   5   6  465.12   26.80   0
  -4   4  -2  702.69   26.37   0
  -3   4  -3  280.19   17.96   0
  -3   8   4   61.64   15.40   0
  -5   3   1  430.25   25.29   0
  -4   3  -2  426.50   20.95   0
  -4   7   3  131.21   17.48   0
  -3   3  -3 2167.34   36.07   0
  -3   8   5   63.67   15.83   0
  -5   5   3  661.88   34.70   0
  -5   5   5  517.99   30.60   0
  -3   6  -1  121.65   15.64   0
  -2   7   0  166.07   16.63   0
  -1   4  -3  320.71   18.52   0
  -1   7   0  262.60   19.34   0
  -5   3   2  515.83   27.64   0
  -4   2  -1 1602.38   33.43   0
  -4   7   4   72.78   18.32   0
  -4   7   6   65.80   17.10   0
  -3   5  -2  343.91   19.90   0
  -3   7   1  376.34   22.22   0
  -5   3   3  497.81   28.33   0
  -5   3   4  519.64   29.68   0
  -5   4   2  118.93   21.00   0
  -5   4   5  341.91   25.60   0
  -4   6   1  272.14   21.05   0
  -5   4   3  188.67   23.55   0
  -5   4   4  119.36   22.15   0
  -4   4  -1 1033.09   30.25   0
  -4   5   0  425.53   22.72   0
  -2   6  -1  343.04   19.65   0
  -1   5  -2 1106.76   28.06   0
  -1   6  -1  114.35   15.66   0
  -4   6   2  421.72   24.24   0
  -4   6   8  228.68   18.88   0
  -3   3  -2 1533.44   29.20   0
  -4   6   3  390.28   25.05   0
  -2   8   5  308.74   21.54   0
  -1   7   1  458.90   21.29   0
  -4   5   1  178.75   19.83   0
  -3   7   3  349.51   22.66   0
  -1   8   4  205.82   19.12   0
  -4   6   4  344.99   26.77   0
  -2   8   6  293.37   21.14   0
  -4   2   1  841.02   25.45   0
  -4   6   5  618.17   32.95   0
  -3   7   4  284.20   22.55   0
  -4   4   1  381.55   23.09   0
  -1   8   5  160.29   21.10   0
   0   5  -1  472.45   22.66   0
  -1   6   0  260.79   16.82   0
   0   7   2  139.41   19.12   0
   0   8   5   66.39   17.22   0
  -4   5   3  289.23   23.89   0
  -3   7   6  577.35   30.23   0
  -1   7   2  538.28   22.76   0
  -4   4   2 1068.75   32.11   0
  -2   7   3  178.11   18.91   0
  -1   8   6   35.89   15.07   0
  -4   2   3  875.89   29.89   0
  -4   3   2  386.15   20.07   0
  -4   5   4  229.29   25.20   0
  -4   5   7  563.49   30.23   0
  -2   6   1  571.20   22.33   0
  -1   8   9  115.55   14.55   0
  -3   4   0  252.52   15.97   0
  -3   5   1  405.91   21.31   0
  -3   6  10   98.27   12.78   0
  -2   4  -1  972.34   23.37   0
  -1   8   8   62.27   14.57   0
   0   8   6  155.35   19.03   0
  -3   5  11  307.56   16.61   0
  -3   6   3  176.06   19.43   0
  -2   5   0  191.05   14.88   0
  -4   3   3  156.38   17.61   0
  -4   4   7  454.72   27.30   0
  -3   3   0 3429.27   42.52   0
  -1   7   3  372.31   22.10   0
  -1   6   1  155.35   12.70   0
  -5   3  -6  119.41   31.61   0
  -2   8   1  543.74   40.88   0
  -1   3  -5  973.26   45.79   0
  -1   5  -4  402.94   38.63   0
  -1   7  -1  397.57   37.75   0
   1   5   0 1154.92   58.71   0
  -5   7  -1  131.65   22.41   0
  -4   7  -2  100.44   21.12   0
  -3   6  -4  141.86   26.91   0
  -4   2  -6  692.47   40.51   0
  -4   5  -5  277.62   28.32   0
  -3   5  -5  369.62   32.13   0
  -2   8   2  498.28   39.37   0
   0   5  -2  368.15   34.88   0
   0   7   2  158.76   35.30   0
  -6   5  -3  107.78   24.61   0
  -6   6  -1  196.62   24.99   0
  -5   6  -3   98.83   20.92   0
  -4   3  -6  474.79   35.71   0
  -2   4  -5  537.79   35.21   0
  -1   7   0  425.22   39.51   0
  -5   4  -5   56.13   23.43   0
  -2   6  -3  400.23   32.56   0
  -1   4  -4  487.83   33.47   0
  -5   5  -4  810.33   34.55   0
  -5   7   0  119.03   21.06   0
  -2   5  -4  345.24   30.17   0
  -2   8   3  424.55   36.35   0
  -1   5  -3  776.48   39.26   0
   0   6   0 1046.18   46.57   0
  -4   7  -1   55.33   19.85   0
  -3   8   3   45.05   23.73   0
  -2   3  -5  546.15   31.06   0
  -6   6   0  270.93   25.51   0
  -3   4  -5  153.57   23.12   0
  -3   6  -3  122.36   23.46   0
  -3   7  -1  477.35   32.49   0
  -5   6  -2  167.95   20.85   0
  -5   7   1  190.56   23.12   0
  -4   5  -4   46.53   21.00   0
  -3   5  -4  366.84   27.43   0
  -3   8   4   76.72   23.57   0
   0   5  -1  518.07   32.65   0
  -6   5  -2  145.53   22.86   0
  -2   7   0  126.52   25.51   0
  -6   4  -3  331.83   28.64   0
  -4   7   0  221.24   23.28   0
  -6   6   1  332.19   27.45   0
  -5   4  -4  102.50   21.02   0
  -5   7   2  197.40   23.67   0
  -4   3  -5  716.57   33.17   0
  -1   4  -3  293.28   23.87   0
  -4   6  -2  371.56   25.94   0
  -3   6  -2  208.30   23.34   0
  -2   5  -3  119.08   17.22   0
  -1   5  -2 1184.17   40.12   0
  -6   3  -3  132.11   29.53   0
  -5   6  -1   65.49   17.74   0
  -5   7   3  130.69   22.39   0
  -6   5  -1  168.80   21.10   0
  -4   7   1  131.68   22.72   0
  -3   4  -4  346.35   24.87   0
  -2   3  -4  141.76   19.62   0
  -5   3  -4  614.13   30.69   0
  -4   5  -3   81.70   19.66   0
  -2   6  -1  310.36   26.15   0
   0   5   0   61.17   16.92   0
   0   6   2 1106.59   42.01   0
  -1   7   3  391.85   30.94   0
  -5   6   0  129.02   18.96   0
  -4   6  -1  385.16   25.57   0
  -4   7   2   80.02   20.41   0
  -6   5   0   84.60   18.59   0
  -5   4  -3  248.32   22.30   0
  -2   4  -3  717.75   29.16   0
  -2   5  -2  307.08   23.16   0
  -1   5  -1  989.31   34.84   0
  -4   3  -4  212.90   22.27   0
  -3   7   2  527.61   32.69   0
  -1   4  -2  562.91   23.96   0
  -1   7   4  392.88   29.61   0
  -4   7   3  126.02   22.16   0
  -2   6   0  562.97   30.13   0
   0   6   3  916.11   38.25   0
  -5   6   1  157.90   19.97   0
  -4   2  -4 1288.84   36.46   0
  -3   4  -3  283.69   21.38   0
  -3   5  -2  350.21   24.60   0
   0   5   1  129.42   21.20   0
  -6   5   1   14.49   15.82   0
  -5   5  -1  387.79   25.14   0
  -4   7   4   67.96   19.78   0
  -4   7   5   31.78   18.97   0
  -3   6   0   97.25   17.28   0
  -5   4  -2  344.08   23.28   0
  -5   6   2   42.74   17.91   0
  -4   7   6   53.17   19.46   0
  -2   5  -1  547.98   25.92   0
  -2   7   4  132.61   25.07   0
   0   6   4  852.75   40.58   0
  -6   5   2  120.97   19.38   0
  -2   4  -2 1367.78   33.87   0
  -2   6   1  597.25   29.65   0
  -1   6   2  238.27   24.32   0
  -4   5  -1  164.49   19.12   0
  -4   6   1  304.70   24.21   0
  -2   7   5  160.40   25.48   0
  -1   4  -1   87.45   15.98   0
  -6   3  -1  243.62   23.92   0
  -5   5   0  688.41   29.41   0
  -5   6   3   81.40   19.34   0
  -4   3  -3  388.99   22.66   0
  -3   3  -3 2294.05   41.79   0
  -3   5  -1  510.31   24.76   0
  -3   6   1  214.87   22.88   0
  -3   7   8  131.50   18.75   0
  -4   4  -2  736.34   27.05   0
  -3   4  -2  316.94   20.00   0
  -3   7   7  298.10   24.92   0
  -2   7   8  152.85   21.08   0
  -5   6   4   56.65   21.04   0
  -2   7   7   69.77   22.28   0
  -5   3  -2  438.51   24.05   0
  -5   4  -1  133.58   20.15   0
  -5   6   5  129.51   22.22   0
  -5   6   6   83.49   21.17   0
  -4   2  -3 1075.89   31.61   0
  -2   5   0  207.82   19.59   0
  -2   6   2  623.31   31.48   0
  -6   4   1  532.43   27.21   0
  -5   5   1  836.37   32.37   0
  -4   5   0  425.31   24.28   0
  -3   6   2  423.14   28.64   0
  -6   3   0  116.44   20.96   0
  -4   6   3  399.33   29.40   0
   0   5   3  375.06   24.05   0
  -6   4   2  371.60   24.76   0
  -5   2  -2  363.90   23.43   0
  -4   3  -2  381.82   21.05   0
  -4   4  -1  909.88   28.38   0
  -2   6   3  348.87   27.19   0
  -1   6   4  442.55   28.56   0
  -5   5   2  621.17   30.32   0
  -4   6   4  317.81   28.72   0
  -4   6   9  191.80   16.39   0
  -3   3  -2 1650.45   33.46   0
  -3   4  -1  128.59   15.60   0
  -5   3  -1  189.18   19.79   0
  -4   5   1  173.31   20.06   0
  -2   5   1  198.64   19.08   0
  -6   3   1  141.86   20.56   0
  -6   4   3  318.20   25.03   0
  -4   6   5  551.76   34.85   0
  -1   6   5   62.92   23.16   0
  -5   5   3  662.90   31.38   0
  -4   6   7  166.89   23.35   0
  -4   6   8  198.24   21.00   0
  -3   6   4  220.55   27.48   0
  -6   4   4  283.46   27.53   0
  -6   4   5  303.93   32.08   0
  -6   4   6  185.38   24.10   0
   0   5   4  276.05   23.16   0
  -4   4   0  934.68   28.00   0
  -4   5   2  343.44   24.71   0
  -3   6   5  147.78   25.64   0
  -2   4   0 1621.35   32.54   0
  -1   6   6   57.12   21.07   0
  -5   5   8  262.56   22.17   0
  -1   6  10   25.77   21.97   0
  -5   2  -1  234.58   20.17   0
  -5   5   5  446.70   30.94   0
  -5   5   7  272.76   26.15   0
  -3   4   0  243.55   16.90   0
  -3   5   2  469.26   25.13   0
  -3   6   6   83.33   24.15   0
  -1   5   3  881.04   30.52   0
  -1   6   7  128.12   22.67   0
  -3   3  -1 2752.74   39.35   0
  -1   6   8  128.24   22.67   0
  -1   6   9  202.33   23.31   0
  -2   6   7  613.32   33.31   0
   0   5   5  396.13   24.99   0
  -2   6   9  455.54   26.89   0
  -6   3   4  201.63   24.85   0
  -6   3   7  177.10   22.62   0
  -3   5   3  345.80   24.41   0
  -2   5   3  170.14   20.30   0
  -6   2   2  331.39   25.20   0
  -6   3   5  164.44   30.08   0
  -6   3   6  258.36   30.95   0
  -2   4   1 1476.05   30.95   0
  -5   3   1  462.37   24.88   0
  -4   2  -1 1397.37   30.39   0
  -3   4   1  441.63   20.21   0
   0   5   6  195.13   21.39   0
  -5   2   0  834.12   28.51   0
  -5   4   9  100.21   15.31   0
  -6   2   3  388.86   26.23   0
  -5   4   4  110.76   21.87   0
  -4   4   2 1089.04   32.12   0
  -4   5   6  348.79   32.03   0
  -2   5   4  162.75   20.63   0
  -3   3   0 3302.04   41.19   0
  -1   5   5  861.58   31.35   0
   0   5   7   93.19   19.69   0
  -5   3   2  503.48   26.12   0
  -5   4   6  146.90   25.69   0
  -2   5  12   23.39   10.91   0
  -3   4   2  462.61   21.05   0
  -2   4   2 1189.30   28.30   0
   0   5   8  205.87   24.92   0
  -6   2   5  474.20   31.42   0
  -4   4   3  677.38   29.46   0
  -3   5  10  255.09   20.10   0
  -2   5   5  248.34   23.11   0
  -5   3  10  309.55   16.76   0
  -4   4  11  389.74   16.31   0
  -1   5   6 1029.48   34.82   0
  -6   1   7   67.91   19.20   0
  -4   2   0  904.96   24.11   0
  -3   5   7  230.14   28.75   0
  -3   5   8  178.46   26.13   0
  -3   5   9  312.75   26.03   0
  -2   5  11   54.77   14.20   0
  -4   4   4  822.33   33.20   0
  -1   5   7  549.42   29.33   0
  -1   5  11  501.05   24.04   0
  -4   4  10  398.53   20.58   0
  -3   3   1 1572.22   28.79   0
  -2   5  10  124.33   18.93   0
  -4   3   2  360.90   19.10   0
  -4   3  12   40.55    7.24   0
  -4   4   5  759.21   34.10   0
  -1   5   8  611.79   30.89   0
  -1   5   9  618.58   29.60   0
  -5   2   2  147.48   17.41   0
  -3   4  12   59.79    9.50   0
  -5   1   1  686.46   27.10   0
  -5   3   6  218.59   26.82   0
  -4   4   6  202.69   27.37   0
  -1   4   4  738.00   23.09   0
  -1   3  12  301.10   14.32   0
  -1   4   9  218.54   15.67   0
   1   0  11 1057.84   23.63   0
  -4   4   9  612.03   19.21   0
  -3   2  13   77.48    6.79   0
  -3   3  12  403.62   12.74   0
  -2   4  10  274.52   16.11   0
  -1   2  13  197.16   11.38   0
  -1   4   6  133.82   12.86   0
   0   2  12  464.42   16.62   0
   0   3  10  304.36   14.18   0
   1   2   8   55.82    9.84   0
  -2   3  12  204.53   12.15   0
  -4   2  12  168.04    7.65   0
  -4   3  11   28.20    6.72   0
   0   3   9  266.98   13.18   0
  -3   0  13  130.83    7.28   0
  -3   1  13  240.60    8.62   0
  -3   4   9  142.58   14.12   0
  -2   4   4 1053.17   28.70   0
  -1   0  13   36.33    8.09   0
  -1   3  11  641.06   19.00   0
   0   1  12  156.11   11.80   0
   1   0  10  669.16   18.61   0
  -5   3   9  407.89   14.40   0
   0   0  12  406.58   14.91   0
   0   2  11  754.75   19.50   0
   0   3   7  193.19   11.35   0
   1   1   9 1628.08   25.48   0
  -2   0  13  513.38   13.16   0
  -2   1  13  107.24    8.32   0
  -2   4   5  992.57   26.99   0
  -1   2  12  151.37   11.85   0
  -2   3  11  251.51   13.70   0
  -2   4   7  819.15   25.35   0
  -4   1  12  201.01    8.00   0
  -4   4   6  226.22   20.57   0
  -3   2  12   71.19    8.23   0
   0   2  10  459.16   15.16   0
   1   0   9  598.83   17.37   0
  -4   0  12  237.76    8.27   0
  -3   4   5   67.56   17.43   0
  -3   4   7  330.41   19.76   0
  -3   4   6   86.70   16.37   0
  -1  -1  12  378.06   13.70   0
   0  -1  11  169.44   12.60   0
  -5   3   8  496.34   16.80   0
  -4   2  11  313.06   10.90   0
  -3   3  10  569.95   18.15   0
  -2   3  10  334.43   15.50   0
  -1   2  11  819.00   20.33   0
   0   0  11 1012.29   21.37   0
   0   2   9  894.54   18.89   0
  -3  -1  12  289.58    9.95   0
  -3   1  12  322.16   11.27   0
  -1   0  12   22.94    8.14   0
  -2  -1  12   55.21    8.10   0
  -2   1  12   68.45    9.20   0
  -3   0  12  121.82    8.49   0
  -3   2  11   98.68   10.58   0
  -2   2  11  598.01   17.80   0
  -2   3   9  657.28   20.08   0
  -1   3   7  567.38   17.30   0
  -5   3   7  476.69   18.91   0
  -3   3   9  597.03   19.68   0
  -1   3   6 1126.72   22.47   0
  -6   2   7  460.45   16.34   0
  -4   1  11  125.42    8.17   0
   0   0  10  583.44   17.02   0
  -4   2  10  387.65   13.72   0
  -4   3   8   36.21   11.58   0
  -2   3   8  302.96   15.78   0
  -5   3   6  288.19   19.66   0
  -4   0  11  327.55   10.53   0
  -3  -2  11   80.00    8.03   0
  -2  -2  11  560.12   15.46   0
  -1  -1  11  356.69   14.22   0
  -1   0  11  196.11   11.78   0
  -5  -1  10  269.96    9.17   0
  -5   0  10  132.84    7.50   0
  -3   1  11  480.40   15.43   0
  -3   2  10  145.32   12.05   0
  -2   1  11  184.78   11.71   0
  -2   2  10  221.37   13.39   0
  -1   2   9  269.37   13.62   0
  -5   3   5  297.78   25.02   0
  -4   3   7  213.77   15.87   0
  -2   3   7  392.99   17.98   0
  -6   2   6  366.47   17.39   0
  -1   1  10 1102.92   22.08   0
   0   0   9 1355.32   23.47   0
   0   1   8  429.83   13.37   0
  -3  -1  11  458.53   13.60   0
  -3   0  11   96.46    9.33   0
  -2   3   5  428.18   17.47   0
  -1   2   8  652.98   17.86   0
  -5   1   9  310.84   11.49   0
  -4   3   6  365.16   19.84   0
  -2   2   9 1739.93   29.13   0
   0  -1   9  323.67   14.92   0
  -6   0   8  261.89    9.86   0
  -4  -2  10  388.49   11.54   0
  -3   2   9  203.17   13.74   0
  -3   3   6 1735.17   34.04   0
  -2   1  10   53.18   10.54   0
  -6  -1   8   50.67    6.00   0
  -6   2   5  487.07   22.25   0
  -4   3   5   13.10   14.96   0
  -3   1  10  590.85   17.65   0
  -1  -1  10  620.91   17.44   0
  -1   2   7 1062.94   21.04   0
  -4   0  10  392.37   13.35   0
  -3   3   5 1751.50   35.39   0
   0   0   8 1922.33   26.59   0
  -5   0   9  134.59    8.83   0
  -4   2   8  532.63   18.87   0
  -4   3   4  103.20   18.67   0
  -3   3   4 1247.79   32.18   0
  -2  -2  10  201.57   13.42   0
  -2   2   8  819.80   21.47   0
  -6   2   4  373.17   26.03   0
  -5  -1   9  311.26   10.95   0
  -4  -3   9   32.64    6.86   0
  -3  -2  10   20.10    7.70   0
  -3   2   8   90.86   12.39   0
  -2   0  10  136.93   11.65   0
  -7   0   5  103.39   10.17   0
  -5   1   8  460.74   15.30   0
  -3   0  10  215.57   12.34   0
  -2  -1  10  104.89   11.09   0
   0  -1   8  412.86   15.85   0
  -5   2   6  102.05   13.12   0
  -2   1   9  422.09   16.02   0
  -1   1   8 1515.97   25.02   0
  -6   0   7  353.11   12.47   0
  -6   1   6  142.41   11.55   0
  -4   2   7  563.74   20.26   0
  -1  -2   9  510.42   17.37   0
  -3  -3   9  521.27   15.49   0
  -1  -1   9  706.29   18.48   0
  -5   1   7  672.51   19.56   0
  -4   1   8  146.78   13.04   0
  -1   1   7 1321.34   22.99   0
  -5  -2   8   46.09    7.10   0
  -3   0   9  562.65   17.97   0
  -6   1   5  103.94   12.69   0
  -5  -1   8  351.91   13.22   0
  -3   2   6  160.22   14.34   0
  -2  -2   9  422.85   16.30   0
  -6  -3   6   74.63    6.94   0
  -6   0   6  366.22   14.34   0
  -5   2   4  148.20   20.75   0
  -3  -1   9  788.85   20.45   0
  -4  -3   8   20.81    8.11   0
  -5   1   6  398.16   17.53   0
  -4   0   8  623.33   19.63   0
  -4   1   7  324.75   16.51   0
  -1  -1   8  902.21   20.30   0
  -6  -1   6   72.34    8.72   0
  -6   1   4  107.14   14.86   0
  -5   2   3  116.31   20.45   0
  -2   0   8 1077.77   22.99   0
  -7  -2   4   91.39    8.06   0
  -6  -2   6  175.45   10.03   0
  -4  -2   8  385.78   15.14   0
  -3  -3   8  419.14   16.08   0
  -3   0   8   84.50   11.32   0
  -3   1   7  582.66   19.90   0
  -5  -4   6   19.34    6.91   0
  -5   2   2  148.96   28.20   0
  -6   0   5  582.82   19.31   0
  -5  -2   7   66.44    9.97   0
  -5  -1   7  648.95   18.90   0
  -3  -4   7   96.37   12.48   0
  -7   0   2   74.76   17.31   0
  -6   1   3   90.06   16.76   0
  -4   1   6  964.45   25.29   0
  -3  -1   8  410.27   16.59   0
  -2  -2   8  946.30   22.62   0
  -2   1   6  481.19   16.38   0
  -4   0   7  749.53   22.05   0
  -4   2   3  944.79   30.16   0
  -7  -3   3  213.69   10.34   0
  -6  -3   5  119.12    8.87   0
  -3   1   6 1009.93   24.24   0
  -6  -1   5  132.23   11.72   0
  -3   0   7  814.31   21.93   0
  -7   0   1  139.58   22.69   0
  -6  -2   5  372.50   14.33   0
  -6   1   2  170.39   21.31   0
  -5  -3   6  460.21   15.49   0
  -5  -1   6  522.74   18.76   0
  -4  -2   7  894.93   22.86   0
  -4   1   5  214.13   15.73   0
  -2  -3   7  291.90   16.09   0
  -7  -1   2  400.28   20.38   0
  -5  -2   6   61.38   11.65   0
  -3  -3   7  294.64   15.50   0
  -7   0   0   51.67   24.47   0
  -6   1   1  149.59   24.22   0
  -3  -1   7  537.79   18.34   0
  -3   1   5 1680.00   29.67   0
  -2  -2   7  798.83   21.35   0
  -6  -1   4  155.68   13.70   0
  -2   0   6  858.02   20.31   0
  -7  -2   2  131.47   11.09   0
  -6  -3   4  278.29   13.31   0
  -6   1   0   78.44   28.37   0
  -5   1   3  982.59   28.34   0
  -3  -4   6  193.67   13.83   0
  -3   0   6  465.75   17.79   0
  -7  -4   1   71.56    8.29   0
  -7   0  -1   65.00   31.25   0
  -6  -2   4  228.23   13.81   0
  -7  -1   1  220.83   18.40   0
  -5  -1   5  192.84   14.60   0
  -6  -4   3  188.44   11.09   0
  -5  -3   5  126.29   12.25   0
  -4  -2   6  259.21   15.29   0
  -4   0   5  750.04   22.36   0
  -3   1   4  696.21   19.50   0
  -6   0   2  603.29   25.02   0
  -5  -2   5  295.86   15.74   0
  -5   1   2 1165.62   32.07   0
  -3  -1   6  874.10   22.38   0
  -2  -1   6  357.02   14.65   0
  -7  -2   1  218.05   14.88   0
  -6  -1   3  100.68   13.89   0
  -4  -5   4  234.22   14.60   0
  -4  -4   5  167.71   13.21   0
  -4   1   3  404.38   19.12   0
  -7  -1   0  295.92   22.54   0
  -5  -5   3  406.33   14.95   0
  -3  -2   6  261.45   15.10   0
  -3   0   5  443.24   17.12   0
  -7  -4   0   81.66    9.24   0
  -6  -3   3  133.81   12.00   0
  -5   1   1  631.10   29.32   0
  -6   0   1  977.17   32.44   0
  -5   0   3  189.02   16.00   0
  -4  -1   5  318.99   16.35   0
  -5   2  -7  396.61   36.85   0
  -1   6  -8   34.78   23.28   0
  -4   3  -9  329.75   33.20   0
  -4   4  -9  479.10   31.98   0
  -3   1  -8  847.41   38.64   0
  -3   2  -9  270.15   30.15   0
  -2   7  -7   14.39   15.28   0
  -1   4  -9  139.52   29.91   0
  -5   2  -6  296.32   34.17   0
  -2   1  -8  101.69   19.17   0
   0   4  -8  331.28   37.95   0
  -5   3  -7  311.38   33.99   0
  -4   2  -8  547.14   36.62   0
  -3   6  -8   35.43   16.44   0
  -4   1  -6  345.85   30.91   0
  -3   3  -9  719.06   39.01   0
  -3   4  -9   76.44   26.00   0
  -2   3  -9  168.78   30.31   0
  -4   5  -8   36.88   15.22   0
  -5   6  -5   59.59   22.71   0
  -4   3  -8  284.96   30.05   0
  -1   5  -8  395.17   36.76   0
   0   2  -7 1228.33   44.98   0
  -5   2  -4  252.04   41.28   0
  -5   3  -6  142.91   28.22   0
  -4   1  -5  313.70   31.06   0
  -4   2  -7  730.90   38.30   0
  -4   4  -8  374.24   30.14   0
  -3   2  -8  453.15   31.60   0
  -2   1  -7  581.16   30.34   0
  -3   5  -8  406.48   29.12   0
  -3   7  -6  154.73   16.59   0
  -2   2  -8  867.18   38.96   0
   0   5  -7  165.90   35.91   0
  -2   5  -8  136.96   25.10   0
  -1   3  -8  863.26   41.64   0
  -1   4  -8   97.59   27.30   0
  -1   6  -7  212.35   26.00   0
  -3   3  -8 1136.28   42.88   0
  -3   6  -7   86.51   18.47   0
  -5   3  -5  721.14   38.63   0
  -5   6  -4   37.47   21.37   0
  -4   3  -7  431.96   32.11   0
  -3   4  -8  229.93   28.40   0
  -2   3  -8   25.04   21.48   0
   0   4  -7  867.78   47.29   0
  -4   4  -7  452.02   31.68   0
  -3   2  -7  403.41   28.22   0
  -2   4  -8  411.97   32.84   0
  -5   4  -5   95.57   25.29   0
  -5   3  -4  597.19   36.38   0
  -4   7  -4  111.71   16.84   0
  -2   2  -7 1749.97   45.42   0
  -5   5  -4  820.05   37.78   0
  -3   5  -7  318.43   27.34   0
  -3   8  -3   61.13   15.26   0
  -1   5  -7  592.34   34.44   0
  -5   4  -4   86.45   24.75   0
  -4   2  -5  780.75   36.03   0
  -4   3  -6  474.77   30.70   0
  -4   5  -6   87.21   22.25   0
  -3   3  -7  838.06   35.60   0
  -5   3  -3  351.11   33.07   0
  -4   4  -6  537.26   32.50   0
  -4   6  -5  222.16   22.93   0
  -3   4  -7  213.55   24.85   0
  -3   6  -6  101.15   19.56   0
  -1   4  -7  285.20   28.50   0
  -1   7  -5  297.17   22.40   0
  -3   2  -6  601.91   28.88   0
  -2   3  -7  157.36   22.46   0
  -2   7  -5  146.15   16.98   0
   0   5  -6  156.80   27.47   0
  -5   5  -3  516.20   34.09   0
  -4   7  -3   69.22   16.53   0
  -2   6  -6  334.63   24.76   0
  -2   8  -3  277.05   18.51   0
  -1   8  -3   18.13   14.29   0
   0   3  -6  155.01   24.30   0
  -5   4  -3  237.44   27.49   0
  -5   6  -1  103.03   31.01   0
  -4   2  -4 1283.66   40.80   0
  -3   8  -2   72.47   17.43   0
   0   4  -6  798.64   37.03   0
   0   7  -4   51.69   20.55   0
  -5   6   0  151.10   40.45   0
  -4   5  -5  244.77   24.41   0
  -3   5  -6  243.11   23.13   0
  -3   7  -4  232.76   19.04   0
  -2   2  -6 1218.39   35.10   0
  -5   5  -2  720.21   37.80   0
  -4   4  -5  452.20   28.70   0
  -4   6  -4  447.08   27.39   0
  -3   3  -6  974.96   34.45   0
   0   8  -2  223.35   23.47   0
  -4   7  -2  113.25   18.27   0
  -3   2  -5  142.73   17.52   0
  -3   4  -6  303.32   24.50   0
  -3   6  -5   70.05   18.35   0
  -2   5  -6  364.11   26.50   0
  -5   4  -1  121.02   32.24   0
  -5   5  -1  410.65   35.04   0
  -4   2  -3 1078.46   37.84   0
  -2   7  -4  102.18   15.70   0
  -1   7  -4  188.01   19.21   0
  -4   3  -4  193.41   22.43   0
  -3   8  -1   94.66   15.39   0
  -2   3  -6  351.10   22.89   0
  -2   6  -5  238.54   21.47   0
  -5   5   0  599.20   40.58   0
  -4   5  -4   48.84   20.35   0
  -2   8  -2  211.53   17.68   0
  -3   5  -5  347.89   23.89   0
  -3   6  -4  128.13   18.65   0
  -3   8   0   60.75   14.54   0
   0   6  -4  587.49   28.63   0
  -4   3  -3  373.57   24.12   0
  -4   5  -3   62.89   20.12   0
  -4   6  -2  395.38   26.20   0
  -2   5  -5  475.25   25.03   0
  -3   7  -2  401.05   22.23   0
  -2   7  -3   61.47   11.97   0
   0   8  -1   66.28   15.56   0
   1   6  -3   36.84   20.90   0
  -3   8   1   42.07   16.83   0
  -2   4  -5  532.35   24.49   0
  -2   6  -4  522.18   24.42   0
  -1   3  -5 1162.08   30.66   0
  -3   5  -4  291.42   18.08   0
  -3   6  -3  123.14   18.16   0
  -4   3  -2  411.14   23.38   0
  -4   7   2  117.33   24.14   0
  -4   7   3  159.36   31.68   0
  -3   3  -4 1563.97   33.55   0
  -3   4  -4  305.68   19.65   0
  -3   8   2  182.31   19.02   0
   0   5  -4  279.87   21.50   0
  -4   4  -2  821.22   30.83   0
  -3   7  -1  428.32   23.60   0
  -2   8   0  409.47   21.17   0
  -4   6   0  653.74   30.13   0
   0   6  -3  636.09   26.36   0
   0   8   0  249.92   17.66   0
  -4   3  -1  431.32   23.04   0
  -4   5  -1  160.41   20.48   0
  -3   6  -2  216.15   19.45   0
  -3   8   4   60.46   19.69   0
  -2   6  -3  389.85   21.02   0
  -1   5  -4  467.06   22.88   0
  -1   8   0   67.51   13.25   0
   0   4  -4 1352.19   33.08   0
   1   5  -3  658.25   29.55   0
   1   7  -1  216.18   20.01   0
  -3   3  -3 2225.14   38.66   0
  -2   3  -4  150.18   11.84   0
  -2   4  -4 1564.89   33.47   0
  -1   6  -3  130.32   16.74   0
   1   8   1  161.83   16.98   0
  -4   4  -1  949.09   31.18   0
  -4   6   1  288.82   25.48   0
  -3   4  -3  269.72   17.88   0
  -3   7   0  543.59   25.09   0
  -2   8   1  478.26   22.59   0
   1   6  -2  124.87   18.26   0
  -2   7  -1  172.63   16.37   0
  -4   3   0  552.77   25.30   0
  -4   6   2  434.13   29.45   0
   1   4  -3  137.06   19.02   0
  -3   5  -2  352.17   19.89   0
  -3   6  -1  126.98   16.77   0
  -3   7   1  385.29   22.18   0
  -2   5  -3  151.06   15.24   0
  -2   8   2  484.98   22.76   0
  -1   8   1   69.79   13.39   0
   0   7  -1  229.40   17.13   0
   0   8   1  204.97   16.52   0
  -4   5   1  168.69   23.79   0
  -1   7  -1  376.30   19.32   0
  -1   5  -3  905.45   25.86   0
   0   6  -2  804.72   25.55   0
   1   8   2   40.52   13.40   0
  -4   4   1  394.77   27.28   0
  -3   4  -2  267.54   15.02   0
  -3   7   2  519.31   24.36   0
  -2   7   0  156.63   16.06   0
  -2   8   3  395.80   21.95   0
  -1   6  -2  434.94   19.95   0
   1   7   0  193.01   17.13   0
  -4   5   2  353.71   25.95   0
  -3   6   0  109.51   16.14   0
  -4   5   3  315.06   30.61   0
  -3   5  -1  511.62   22.24   0
  -2   8   4  281.01   20.48   0
  -1   4  -3  309.36   15.33   0
  -4   5   4  173.11   27.09   0
  -2   5  -2  329.51   16.27   0
  -1   7   0  332.07   17.70   0
   2   8   4  434.40   21.33   0
  -2   8   5  363.11   22.01   0
  -2   8   6  305.02   23.48   0
  -3   6   1  214.21   17.93   0
  -3   7   5  372.77   25.67   0
  -1   8   3  110.34   14.51   0
   1   8   3  105.05   13.51   0
  -3   5   0  611.83   23.11   0
  -2   4  -2 1279.94   24.92   0
  -1   5  -2 1186.84   25.90   0
  -1   6  -1  110.76   12.57   0
   0   5  -2  387.39   17.61   0
   1   7   1  461.70   19.94   0
  -2   6   0  568.03   21.15   0
  -2   7   2  249.14   17.86   0
  -1   7   1  468.71   19.89   0
  -1   8   4  168.64   16.30   0
   2   8   5  557.96   21.94   0
  -1   4  -2  771.46   18.76   0
   1   8   4  175.24   14.67   0
  -3   6   8  157.44   21.51   0
  -2   7   3  220.94   18.25   0
  -1   8   9  139.94   12.68   0
   0   4  -2 1353.94   25.12   0
   0   8   4  207.18   16.23   0
   1   5  -1  678.07   21.07   0
   1   6   0  774.09   22.54   0
  -2   6   1  522.48   19.74   0
  -1   6   0  241.18   13.99   0
   2   6   1   93.55   14.93   0
  -8   1  -7   44.90   21.76   0
  -8   1  -4  147.76   27.53   0
  -7  -1  -7  531.02   41.86   0
  -7   0  -1   64.34   26.37   0
  -6   0 -11  336.48   33.11   0
  -8   1  -6   82.43   27.08   0
  -7  -1  -5  361.12   39.60   0
  -5  -2  -8  229.81   36.27   0
  -4  -2  -1  708.15   32.74   0
  -6  -1  -1   46.57   25.09   0
  -7   0  -9  158.88   26.83   0
  -6  -1  -9  209.06   34.94   0
  -5  -2  -3  294.21   30.40   0
  -5  -1 -10  550.43   41.64   0
  -8   2  -6  223.24   27.16   0
  -8   2  -4  281.48   35.82   0
  -5  -2  -4  274.74   30.75   0
  -5   0 -11   33.84   28.65   0
  -4  -1 -10   19.66   30.98   0
  -4   0 -11  743.15   53.22   0
  -6   2 -11  228.75   28.75   0
  -5  -2  -5  113.26   28.08   0
  -4  -2  -7  739.61   37.34   0
  -4  -2  -3 1106.96   37.63   0
  -3  -1  -9 1426.07   52.11   0
  -7   1  -9  283.50   26.35   0
  -6  -1  -7  287.81   36.59   0
  -4  -2  -5  508.64   31.41   0
  -4  -2  -4 1425.67   42.36   0
  -7   0  -5  161.34   33.23   0
  -7   1  -1  509.60   32.77   0
  -6   0   0 1058.92   40.43   0
  -5   1 -11  449.91   33.82   0
  -7   2  -9   72.09   18.54   0
  -6  -1  -6   30.92   23.12   0
  -7   1  -8  243.89   26.34   0
  -7   2   0  149.66   26.74   0
  -6   0  -9  533.59   38.84   0
  -6   1 -10  152.35   25.58   0
  -5  -1  -8  600.28   40.07   0
  -5  -1  -1 1122.96   40.13   0
  -5   0 -10  152.11   28.80   0
  -4   0 -10  944.47   49.43   0
  -7   1  -2  562.32   35.79   0
  -6   3 -10   54.89   19.96   0
  -3  -1  -8  464.61   27.49   0
  -7   1  -7  354.93   30.42   0
  -7   1  -6  385.59   34.14   0
  -7   1  -5  373.73   36.62   0
  -7   2  -1  174.27   24.70   0
  -7   3   0  451.49   31.81   0
  -6   1  -9  178.12   28.18   0
  -5  -1  -4  996.04   42.37   0
  -5   1 -10  454.03   33.25   0
  -3  -1  -7  703.50   31.74   0
  -7   2  -7   62.93   20.18   0
  -6   0  -6 1204.85   50.53   0
  -6   4  -9  180.98   21.91   0
  -7   2  -2  234.49   28.28   0
  -7   3  -7  292.92   22.66   0
  -6   0  -5  819.95   44.96   0
  -4   0  -9  592.99   36.19   0
  -4   1 -10   96.23   31.36   0
  -7   2  -6  104.67   23.51   0
  -6   1  -8  195.80   29.94   0
  -6   1   0   74.70   23.25   0
  -7   3  -1  594.59   33.41   0
  -7   4  -6   89.31   17.89   0
  -5   2 -10  105.88   23.37   0
  -5   3 -10  275.44   28.39   0
  -4  -1  -5  160.95   22.17   0
  -7   2  -4  111.27   22.84   0
  -7   3  -6  375.68   27.00   0
  -7   4  -1   95.35   25.07   0
  -4  -1  -4  277.72   23.77   0
  -7   3  -2  552.66   34.75   0
  -6   1  -7  347.03   31.92   0
  -5   0  -7  407.44   33.99   0
  -5   1  -9  588.79   37.25   0
  -7   3  -5  503.76   31.97   0
  -7   4  -5   95.20   20.48   0
  -7   4  -2  144.44   25.76   0
  -6   1  -1   97.69   25.99   0
  -6   2   1  729.86   36.45   0
  -5   0  -1  477.38   28.94   0
  -4   0  -8 1120.01   42.73   0
  -7   3  -4  368.56   32.94   0
  -7   4  -4   69.76   22.66   0
  -6   2  -8  233.58   28.07   0
  -3   0  -8  199.56   26.50   0
  -6   1  -6   55.42   20.89   0
  -4   3 -10  151.69   29.25   0
  -6   1  -5  129.29   31.49   0
  -6   1  -3  233.11   33.82   0
  -6   3  -8   40.56   20.47   0
  -6   5  -7  157.35   18.76   0
  -5   0  -5   53.16   23.32   0
  -5   1  -8  545.47   36.30   0
  -5   2  -9  177.42   26.48   0
  -4   1  -9   69.98   24.57   0
  -6   2  -7  296.99   30.11   0
  -5   0  -4  360.14   30.24   0
  -5   0  -3  447.42   30.61   0
  -5   4  -9   70.45   18.58   0
  -3   1  -9 1104.31   45.47   0
  -5   1   1  633.63   32.23   0
  -3   0  -7  442.35   27.51   0
  -6   3  -7  181.60   25.26   0
  -6   3   1  154.31   23.44   0
  -6   4  -7  226.32   23.02   0
  -5   1  -7  636.92   37.18   0
  -5   5  -8  275.13   23.00   0
  -4   0  -6 1711.87   47.45   0
  -6   5  -6  109.32   17.88   0
  -4   1  -8  209.37   27.53   0
  -4   2  -9  346.14   30.31   0
  -6   2  -5  533.52   38.33   0
  -5   1  -6  650.27   38.18   0
  -6   4  -6  562.33   30.67   0
  -6   4   1  538.37   31.16   0
  -6   5   1   15.72   23.29   0
  -4   0  -4 2397.01   51.79   0
  -3   1  -8  832.07   37.78   0
  -3   2  -9  283.99   31.64   0
  -6   5  -5   75.35   20.44   0
  -6   6  -2  375.83   34.19   0
  -5   1  -1 1151.67   42.18   0
  -5   4  -8  114.30   21.31   0
  -4   0  -3 1364.30   37.63   0
  -6   3  -1  286.20   33.09   0
  -5   1  -4 1123.14   45.59   0
  -5   2  -7  420.06   34.26   0
  -6   3  -2  331.77   36.32   0
  -6   4  -5  289.16   24.01   0
  -6   4   0  445.45   33.96   0
  -6   5  -4  125.87   23.41   0
  -6   5   0  116.46   27.06   0
  -5   1  -3 1107.67   45.42   0
  -3   3  -9  680.45   42.32   0
  -6   3  -3  139.32   24.02   0
  -4   2  -8  560.63   34.02   0
  -6   4  -4  295.21   26.67   0
  -6   5  -3  198.24   28.58   0
  -5   2  -6  320.83   30.12   0
  -5   3  -7  329.33   30.78   0
  -4   5  -8   31.58   18.17   0
  -4   1  -6  321.93   28.15   0
  -4   6  -7  239.53   20.06   0
  -4   3  -8  298.38   27.97   0
  -3   1  -7  605.47   31.12   0
  -5   2  -5  100.09   24.96   0
  -5   2   0  839.07   39.07   0
  -5   6  -5   31.86   16.62   0
  -5   6   3   59.61   28.50   0
  -4   4  -8  358.06   27.85   0
  -3   2  -8  421.05   30.82   0
  -5   3  -6  168.52   25.99   0
  -5   5  -6  288.24   25.28   0
  -5   7  -2  155.99   23.31   0
  -4   1  -5  359.41   26.93   0
  -5   7  -1  137.88   32.23   0
  -4   7  -5  200.97   18.73   0
  -5   2  -2  375.96   33.90   0
  -4   1  -4   75.00   19.38   0
  -5   3  -5  662.04   34.67   0
  -5   6  -4   48.81   19.97   0
  -4   5  -7   65.36   19.56   0
  -3   1  -6  864.64   33.13   0
  -5   5  -5  664.53   33.85   0
  -5   6   2   47.53   24.88   0
  -4   1  -3  517.37   28.74   0
  -4   1  -2  372.03   26.24   0
  -4   2  -6  802.05   36.35   0
  -4   6  -6  222.64   21.15   0
  -3   4  -8  204.93   25.52   0
  -3   6  -7   52.60   17.81   0
  -5   3  -4  540.36   34.82   0
  -5   4  -5   75.97   24.54   0
  -5   4   2  125.88   23.57   0
  -4   4  -7  482.91   30.21   0
  -5   3   0  811.47   40.58   0
  -5   6  -3   74.59   22.98   0
  -3   2  -7  421.02   28.00   0
  -5   3  -2  410.68   33.74   0
  -5   4  -4   63.41   23.80   0
  -5   5  -4  910.76   38.95   0
  -5   6  -2  180.80   29.14   0
  -4   2   2 1327.75   40.01   0
  -4   7  -4  125.35   16.92   0
  -4   2  -5  672.82   32.38   0
  -4   7   4   83.23   26.68   0
  -5   4  -3  253.96   29.90   0
  -5   5   1  920.56   43.76   0
  -5   4  -2  378.96   33.30   0
  -5   4  -1  137.48   30.46   0
  -5   5  -2  770.40   43.52   0
  -4   4  -6  473.12   30.25   0
  -4   6  -5  206.85   22.09   0
  -3   5  -7  320.61   24.29   0
  -3   7  -5  264.71   18.60   0
  -4   2  -4 1192.96   38.23   0
  -4   2   1  792.56   32.93   0
  -3   3  -7  818.25   33.56   0
  -3   4  -7  180.49   22.12   0
  -3   6  -6   85.32   17.06   0
  -4   2   0  904.66   34.60   0
  -4   3  -5  693.45   31.26   0
  -4   3   3  130.87   20.72   0
  -4   4   4  813.19   34.17   0
  -4   7   3  138.96   25.34   0
  -4   2  -2 1425.76   40.99   0
  -4   2  -1 1557.42   42.80   0
  -4   5  -5  266.39   24.69   0
  -4   6  -4  453.88   26.98   0
  -4   7  -2  117.60   18.82   0
  -3   8  -2  108.30   15.29   0
  -4   4  -5  433.90   28.36   0
  -4   6   4  308.22   25.21   0
  -2   5  -7   84.05   19.56   0
  -7   4  -6   48.40   21.37   0
  -5   1  -9  615.34   44.23   0
  -4   5  -9   27.95   29.30   0
  -7   2  -3  243.64   40.69   0
  -4   3 -10  208.77   34.09   0
  -3   0  -8  186.59   30.77   0
  -7   4  -5  118.21   25.52   0
  -6   2  -8  214.23   33.80   0
  -6   4  -8  211.76   25.00   0
  -2   2  -9 1218.32   60.47   0
  -6   3  -8   24.61   24.95   0
  -6   5  -7  168.39   21.69   0
  -5   2  -9  204.98   31.35   0
  -7   3  -4  396.82   37.06   0
  -7   3  -3  487.21   48.04   0
  -7   3  -2  591.00   48.16   0
  -5   3  -9  315.76   31.64   0
  -6   1  -1   85.78   37.70   0
  -5   5  -8  301.63   24.49   0
  -2   1  -8  125.67   29.81   0
  -5   0  -5   59.75   23.86   0
  -3   0  -7  349.47   25.88   0
  -3   2  -9  289.82   34.64   0
  -3   4  -9   63.91   28.32   0
  -6   1  -3  236.31   39.42   0
  -6   4  -7  208.96   25.96   0
  -5   0  -2  304.47   34.78   0
  -6   3  -7  167.92   28.76   0
  -5   0  -3  360.89   30.26   0
  -5   2  -8  168.37   30.57   0
  -4   0  -6 1590.41   49.81   0
  -4   1  -8  165.21   23.99   0
  -4   3  -9  282.22   33.04   0
  -3   3  -9  778.61   43.75   0
  -6   2  -6  820.28   44.50   0
  -6   5  -6  117.85   20.93   0
  -5   3  -8  286.21   31.47   0
  -5   4  -8  100.15   23.25   0
  -4   5  -8   51.11   20.66   0
  -4   6  -7  221.06   22.26   0
  -5   1  -6  586.46   38.91   0
  -4   0  -5 1147.84   42.26   0
  -3   5  -8  379.11   32.85   0
  -6   3  -6   54.60   26.60   0
  -6   4  -6  581.48   33.55   0
  -4   2  -8  468.06   34.60   0
  -6   2   0  421.24   41.66   0
  -5   2  -7  384.50   35.60   0
  -6   6  -3  233.60   24.53   0
  -4   4  -8  373.67   30.60   0
  -2   3  -8   11.44   28.95   0
  -6   2  -3  363.92   38.95   0
  -6   2  -2  837.72   48.42   0
  -6   2  -1  445.24   42.06   0
  -6   3  -5   67.64   25.17   0
  -3   1  -7  409.22   26.27   0
  -6   4  -5  317.85   25.39   0
  -6   6  -2  328.16   33.23   0
  -6   3  -4  191.89   28.86   0
  -6   5  -4  153.54   22.45   0
  -5   2  -6  339.52   32.49   0
  -4   1  -6  343.37   27.60   0
  -3   3  -8 1106.68   44.31   0
  -6   3   1  119.48   29.91   0
  -5   1   0 1364.74   52.32   0
  -5   6  -5   52.60   16.65   0
  -4   2  -7  644.67   34.03   0
  -4   5  -7   43.65   19.67   0
  -6   5  -3  109.87   23.04   0
  -5   1  -1 1167.16   52.50   0
  -4   6  -6  264.26   21.76   0
  -6   3  -2  334.22   35.67   0
  -6   3   0  112.23   30.90   0
  -5   3  -6  161.87   27.97   0
  -3   1  -6  730.90   31.29   0
  -3   7  -5  260.24   23.14   0
  -2   2  -7 1716.97   48.02   0
  -6   3  -1  297.42   36.38   0
  -6   4  -3  344.83   32.03   0
  -6   5  -2  141.70   26.59   0
  -5   2  -5   89.73   26.32   0
  -5   4  -6  283.60   29.08   0
  -4   1  -5  343.06   26.59   0
  -4   3  -7  414.51   30.08   0
  -3   5  -7  285.61   26.87   0
  -5   7  -2  184.33   19.41   0
  -6   4  -1  408.39   37.08   0
  -6   4   0  489.09   38.75   0
  -6   5   0  111.49   29.93   0
  -5   6  -4   38.65   17.86   0
  -4   2  -6  739.14   34.48   0
  -3   6  -6   94.43   19.33   0
  -5   2  -4  230.57   26.49   0
  -5   3  -5  665.22   35.21   0
  -3   3  -7  773.23   35.84   0
  -3   4  -7  213.04   26.30   0
  -2   3  -7  123.74   24.88   0
  -5   4  -5   70.57   23.83   0
  -5   2  -3  417.13   31.66   0
  -5   6  -3  105.21   20.60   0
  -5   7   0  130.98   23.25   0
  -4   4  -6  504.18   30.64   0
  -3   2  -6  624.08   29.07   0
  -4   1  -3  564.74   29.10   0
  -4   2  -5  720.58   33.66   0
  -5   2  -1  252.20   30.33   0
  -5   2   0  863.24   41.95   0
  -5   4  -4  148.85   23.67   0
  -4   7  -3   62.28   15.88   0
  -3   5  -6  245.78   24.09   0
  -3   7  -4  244.89   19.82   0
  -5   6  -2  179.03   22.58   0
  -5   3  -3  420.35   29.26   0
  -5   5  -3  503.52   32.38   0
  -4   5  -5  262.59   24.51   0
  -3   6  -5   90.60   18.85   0
  -2   7  -4   85.65   20.73   0
  -5   4  -3  248.21   25.68   0
  -4   2  -4 1251.18   38.29   0
  -3   4  -6  277.55   25.57   0
  -5   3  -2  398.56   28.58   0
  -5   6  -1   91.12   22.88   0
  -2   3  -6  360.93   24.80   0
  -2   6  -5  168.02   20.66   0
  -2   8  -2  335.29   23.38   0
  -5   5  -2  725.79   36.31   0
  -2   4  -6  659.89   31.50   0
  -5   4  -2  373.49   27.86   0
  -5   5   4  672.89   34.71   0
  -5   6   3   44.86   27.08   0
  -5   3   1  481.04   35.13   0
  -5   5  -1  387.28   32.52   0
  -5   6   2   64.45   28.25   0
  -4   3  -4  169.27   20.50   0
  -4   5  -4   57.18   19.02   0
  -4   6  -3  436.94   26.92   0
  -3   7  -3  412.90   22.40   0
  -5   4  -1   93.92   23.10   0
  -5   4   3  202.23   27.12   0
  -4   7  -1   66.40   16.71   0
  -5   5   0  754.55   40.51   0
  -5   4   1  248.45   30.02   0
  -5   4   2   98.95   26.70   0
  -5   5   2  757.53   41.95   0
  -4   2  -2 1554.27   38.93   0
  -3   2  -4  919.46   28.09   0
  -3   8   0   60.77   16.02   0
  -2   5  -5  414.03   24.88   0
  -4   7   0  234.83   21.20   0
  -2   7  -3   68.71   15.78   0
  -4   5  -3   64.19   16.53   0
  -4   7   5   41.35   23.94   0
  -3   7  -2  388.22   21.64   0
  -2   3  -5  476.69   22.62   0
  -1   7  -3  236.01   20.94   0
  -4   4  -3  775.08   31.41   0
  -4   7   1  124.01   20.81   0
  -2   6  -4  479.99   24.35   0
  -1   6  -4  351.74   26.16   0
  -3   8   1   40.03   15.05   0
  -1   4  -5  358.28   25.02   0
  -1   8  -1   59.04   16.37   0
  -4   2   1  815.24   33.46   0
  -4   2   2 1464.92   43.60   0
  -4   3  -2  360.02   21.40   0
  -4   5  -2  130.85   21.27   0
  -4   7   2  126.75   23.24   0
  -4   7   3  121.01   26.03   0
  -3   6  -3   98.09   14.26   0
  -4   6   6  167.08   22.65   0
  -3   8   2  168.13   19.28   0
  -3   7  -1  428.98   23.20   0
  -3   8   5   58.25   20.60   0
  -4   3  -1  451.22   22.41   0
  -4   6   0  794.66   33.77   0
  -3   8   3   87.43   19.17   0
  -3   8   4   72.26   18.17   0
  -2   5  -4  339.88   20.86   0
  -2   7  -2   80.02   14.49   0
  -4   5   6  329.42   23.82   0
  -3   5  -3  533.35   23.61   0
  -4   4  -1  993.64   31.53   0
  -3   3  -3 2226.63   38.41   0
  -2   6  -3  359.82   20.33   0
  -1   5  -4  425.95   22.23   0
  -4   5   0  394.20   25.49   0
  -4   6   2  431.13   34.06   0
  -4   6   4  396.50   31.43   0
  -3   4  -3  278.63   18.08   0
  -3   7   0  509.47   24.92   0
  -2   4  -4 1472.27   32.02   0
  -1   7  -2  404.76   19.93   0
  -4  -6  -2  482.10   18.17   0
  -3  -7  -5  487.76   18.52   0
  -6  -6  -6  343.70   15.09   0
  -6  -5  -3   81.38   10.46   0
  -5  -4   0  144.16   13.06   0
  -4  -7  -6   69.21   10.91   0
  -4  -4   1  503.62   17.66   0
  -4  -7  -7   96.42   13.33   0
  -4  -2   2 1370.89   25.18   0
  -4  -1   2  408.91   16.46   0
  -3  -7  -6  608.85   19.81   0
  -2  -6  -2 1086.38   24.31   0
  -6  -3  -1  114.02   13.10   0
  -5  -6  -4  204.16   13.76   0
  -4  -7  -8  135.49   12.95   0
  -3  -7  -8  287.43   18.22   0
  -3  -7  -7  392.35   18.77   0
  -3  -6  -2  174.45   13.87   0
  -3  -5   0  316.17   14.49   0
  -3  -3   2 1570.52   25.52   0
  -7  -4  -5  138.57   12.81   0
  -3  -4   1  419.01   15.71   0
  -2  -3   2  659.02   16.70   0
  -6  -6  -8  266.38   14.21   0
  -6  -5  -4  170.60   12.83   0
  -5  -5  -2  506.97   19.21   0
  -4  -6  -3  399.69   17.86   0
  -4  -5  -1  441.45   17.18   0
  -2  -4   1  838.82   19.40   0
  -7  -3  -4  373.26   17.12   0
  -2  -6  -3  537.95   19.29   0
  -5  -4  -1  156.99   14.03   0
  -5  -3   0  517.26   19.08   0
  -4  -4   0  510.60   17.91   0
  -4  -3   1   31.64   10.88   0
  -3  -5  -1  493.31   17.19   0
  -2  -5  -1  259.96   14.12   0
  -7  -2  -4  179.07   17.95   0
  -6  -5  -5  258.11   15.13   0
  -5  -6  -6  100.12   12.80   0
  -7  -3  -5  374.46   18.21   0
  -5  -2   0  276.66   15.43   0
  -4  -2   1  821.15   20.22   0
  -3  -4   0  557.02   17.12   0
  -3  -3   1 1538.90   25.04   0
  -5  -6  -7   99.87   12.76   0
  -5  -1   0 1147.55   27.01   0
  -4  -6  -5  449.84   20.11   0
  -2  -4   0  853.86   19.14   0
  -6  -5  -6   28.75    9.15   0
  -6  -2  -2  488.30   20.77   0
  -5  -4  -2  241.43   15.27   0
  -6  -4  -4  361.38   17.95   0
  -5  -6  -8  127.03   13.20   0
  -5  -5  -4  576.20   20.80   0
  -4  -4  -1  503.12   18.09   0
  -4  -3   0  406.71   16.11   0
  -3  -5  -2  422.65   17.10   0
  -2  -6  -5  464.42   19.34   0
  -7  -4  -9   89.78   14.12   0
  -7  -2  -5  159.26   16.02   0
  -6  -5  -7   46.38   12.45   0
  -6  -3  -3  267.07   16.22   0
  -5  -6  -9  114.42   13.53   0
  -3  -6  -5  165.04   15.18   0
  -1  -5  -3 1701.48   29.40   0
  -6  -5  -8  125.50   13.71   0
  -2  -6  -6  282.37   17.08   0
  -6  -4  -5  313.48   18.76   0
  -5  -5  -5  804.02   24.71   0
  -5  -4  -3  166.35   15.17   0
  -3  -6  -6  130.90   14.72   0
  -6  -5 -10  165.25   14.28   0
  -6  -5  -9  177.76   14.99   0
  -4  -6 -11  329.07   17.90   0
  -4  -2   0  969.82   21.46   0
  -3  -5  -3  425.48   17.07   0
  -2  -6  -7  392.72   18.99   0
  -2  -5  -3  193.76   13.22   0
  -6  -2  -3  508.40   19.66   0
  -4  -6 -10  343.09   20.56   0
  -4  -6  -9  396.48   19.63   0
  -4  -5  -4  292.79   16.63   0
  -4  -4  -2  867.78   22.70   0
  -3  -6 -11   97.56   17.72   0
  -3  -6  -7  167.35   15.17   0
  -2  -6  -8  196.72   16.57   0
  -1  -5  -4 1027.64   24.86   0
  -4  -3  -1  374.50   15.40   0
  -6  -4  -6  593.06   23.10   0
  -3  -6  -8  182.45   16.00   0
  -7  -3  -9  405.94   21.13   0
  -5  -4  -4  279.92   17.35   0
  -3  -5  -4  301.02   16.55   0
  -7  -2  -7   48.63   15.34   0
  -5  -5  -7  637.06   24.76   0
  -3  -4  -2  356.17   14.74   0
  -2  -5  -4  222.03   13.72   0
  -4  -4  -3  677.87   20.79   0
  -2  -4  -2 2520.29   31.30   0
  -1  -5  -5  828.89   23.37   0
  -6  -2  -4  292.40   17.25   0
  -5  -5  -8  567.12   23.73   0
  -5  -3  -3  356.67   17.07   0
  -6  -4  -8  338.05   20.66   0
  -5  -4  -5   54.35   11.37   0
  -4  -3  -2  143.67   12.06   0
  -2  -5  -5  225.87   15.17   0
  -1  -5  -6  537.33   22.97   0
  -7  -2  -9  113.84   17.64   0
  -6  -4 -12  314.09   17.06   0
  -6  -4  -9  386.44   22.07   0
  -5  -5 -10  382.04   20.23   0
  -7  -2 -10   84.88   16.28   0
  -6  -4 -11  254.88   17.87   0
  -6  -3  -6   14.86   14.24   0
  -6  -1  -4  302.29   17.55   0
  -5  -1  -2  945.88   23.95   0
  -4  -5 -13   38.39   12.52   0
  -4  -5  -7  158.66   16.95   0
  -4  -4  -4 1164.40   26.68   0
  -3  -4  -3  249.26   13.26   0
  -5  -4  -6  200.12   16.99   0
  -5  -3  -4  251.98   16.36   0
  -7  -1  -9  384.33   26.90   0
  -6  -2  -5  323.43   18.52   0
  -3  -5 -13  151.84   18.14   0
  -7  -1 -11  127.24   18.77   0
  -6  -3  -7  110.43   16.76   0
  -5  -4 -14   67.95   13.73   0
  -4  -5 -12  111.46   15.97   0
  -4  -5  -9  252.61   20.19   0
  -4  -3  -3  252.55   13.86   0
  -3  -3  -2 2520.91   31.19   0
  -4  -4  -5  557.38   21.41   0
  -3  -4  -4  370.49   15.70   0
  -2  -5  -7  510.38   20.75   0
  -6  -2  -6  701.26   24.69   0
  -6  -1  -5  245.16   17.23   0
  -5  -3  -5  674.91   23.07   0
  -3  -5 -12  429.19   21.04   0
  -5  -4 -13  169.54   15.40   0
  -5  -4  -8  203.04   17.94   0
  -2  -5 -11   29.68   17.27   0
  -2  -5  -8   98.58   14.65   0
  -6  -3 -12   19.45   13.18   0
  -6  -3  -9  126.69   15.16   0
  -5  -1  -3  939.86   23.45   0
  -3  -5 -11  456.16   22.11   0
  -3  -5 -10  268.12   19.35   0
  -2  -5 -10  154.22   18.72   0
  -6  -3 -11   97.34   16.29   0
  -6  -3 -10   92.26   17.70   0
  -5  -4 -12   25.12   14.35   0
  -5  -4  -9  153.47   18.24   0
  -5  -4 -11  195.18   18.91   0
  -5  -4 -10  245.79   20.53   0
  -5  -3  -6  474.50   20.97   0
  -4  -3  -4  445.80   16.99   0
  -3  -4  -5  197.45   13.68   0
  -6  -1  -6   44.02   13.88   0
  -4  -4 -14  177.57   15.50   0
  -3  -3  -3 1660.40   25.91   0
  -5   0  -3  390.58   19.16   0
  -4  -4  -7  759.30   24.87   0
  -6  -2 -13  192.29   14.14   0
  -4  -2  -3 1017.06   21.62   0
  -2  -4  -5  995.19   22.50   0
  -5  -3 -14  174.93   14.42   0
  -5  -3  -7  322.99   19.77   0
  -4  -4  -8  489.49   22.78   0
  -3  -4 -14  108.81   14.62   0
  -3  -4  -6  147.15   13.39   0
  -6  -1  -7  246.00   18.97   0
  -5  -1  -4  995.57   23.89   0
  -4  -3  -5  239.23   14.64   0
  -6  -2 -11  302.90   21.23   0
  -6  -2 -10  264.17   22.10   0
  -5  -3  -8  283.97   19.82   0
  -4  -4  -9  666.14   26.26   0
  -5  -3 -13  265.21   17.83   0
  -3  -4  -7  339.39   17.86   0
  -3  -3  -4 1346.84   23.97   0
  -1  -4  -6  211.26   13.94   0
  -6  -1  -8  238.18   20.04   0
  -6   0  -7  741.08   29.02   0
  -5  -3  -9  267.80   20.28   0
  -5  -2 -15   51.24   10.29   0
  -3  -4 -13  205.20   17.19   0
  -5  -3 -12  191.73   18.69   0
  -5  -3 -11  477.79   24.48   0
  -5  -3 -10  359.21   23.12   0
  -4  -3  -6  238.45   15.14   0
  -4  -2  -4 1405.70   25.08   0
  -2  -4 -13  337.32   20.10   0
  -6  -1  -9  210.38   20.80   0
  -6   0 -13  214.00   14.42   0
  -3  -4  -8  212.12   17.02   0
  -2  -4  -7  887.82   23.06   0
  -1  -4  -7  441.17   17.69   0
  -5  -1  -5 1794.92   31.18   0
  -3  -4 -12   53.61   15.55   0
  -7  -1  -6  451.94   27.79   0
  -7   0  -4  214.85   21.02   0
  -6  -2 -12  220.72   21.01   0
  -6  -2  -5  339.32   24.73   0
  -5  -1  -1 1091.15   30.31   0
  -3  -3 -11  700.86   34.65   0
  -5  -3 -10  377.97   29.70   0
  -5  -3  -7  276.99   23.96   0
  -5  -2 -13  204.88   23.89   0
  -3  -3  -4 1340.37   29.95   0
  -7   0 -12   75.22   12.62   0
  -6  -1  -3  352.39   22.14   0
  -5  -3  -9  299.44   27.74   0
  -4  -3  -5  255.97   18.46   0
  -2  -3  -9  259.87   23.44   0
  -7  -1 -10  155.51   19.43   0
  -7  -1  -9  341.34   24.59   0
  -7  -1  -8  276.28   25.06   0
  -6  -2 -11  306.16   24.38   0
  -6  -2  -6  646.65   31.67   0
  -5  -1 -14  236.77   21.61   0
  -7   0  -5  171.04   20.11   0
  -6   0  -2 1084.68   31.50   0
  -4  -3 -10   86.76   21.61   0
  -4  -3  -6  254.39   19.61   0
  -4  -2 -13  310.38   25.08   0
  -3  -3 -10  847.36   32.43   0
  -3  -3  -5 2437.65   39.29   0
  -7   1  -4  278.06   22.50   0
  -6  -2 -10  234.08   25.04   0
  -5  -2  -4  299.11   20.00   0
  -4  -3  -7  394.02   22.73   0
  -2  -3  -7  238.63   17.61   0
  -7   0 -11  122.23   14.85   0
  -6  -1  -4  311.21   21.98   0
  -4  -3  -8  416.15   25.68   0
  -3  -3  -9 1180.03   33.92   0
  -3  -3  -6 1503.04   32.45   0
  -7   0  -6  192.83   22.08   0
  -3  -3  -8  816.02   28.04   0
  -6  -1 -12   43.60   15.45   0
  -4  -2  -3 1043.31   26.13   0
  -7   0 -10  115.28   17.30   0
  -5  -2 -11   64.01   20.84   0
  -3  -2 -12  191.95   26.19   0
  -7   0  -9  194.38   20.54   0
  -7   0  -8  136.07   21.20   0
  -7   1 -11  121.49   13.37   0
  -6   0  -3  766.45   27.29   0
  -5   0 -14   70.25   15.78   0
  -6  -1 -11  144.44   19.76   0
  -5  -2 -10  253.17   25.76   0
  -5  -2  -6  253.35   20.21   0
  -7   2  -5  108.06   22.99   0
  -6  -1  -6   31.58   18.54   0
  -5  -2  -7  271.86   21.63   0
  -5  -1  -3 1033.87   27.97   0
  -4  -2  -4 1464.61   30.69   0
  -6  -1 -10  160.01   21.71   0
  -6   1 -13  107.87   12.60   0
  -5  -2  -8  233.09   24.09   0
  -4  -2 -11  906.82   33.37   0
  -7   1  -9  286.12   20.96   0
  -7   2 -10   47.08   12.44   0
  -6  -1  -9  193.96   23.45   0
  -6  -1  -8  221.24   25.09   0
  -6  -1  -7  256.53   24.86   0
  -4  -1 -13   90.05   21.24   0
  -3  -2 -11  145.36   20.24   0
  -6   0  -4  637.61   26.89   0
  -4  -2  -5  502.35   21.36   0
  -7   3  -8  305.96   27.24   0
  -7   3  -7  416.58   31.25   0
  -7   2  -8   60.79   18.03   0
  -7   2  -7   58.48   18.33   0
  -4  -2  -6  908.16   27.93   0
  -6   0 -11  381.21   22.91   0
  -6   1  -3  183.92   18.13   0
  -5   0  -2  298.06   17.53   0
  -4  -2  -8  688.85   28.35   0
  -4  -2  -7  747.08   27.39   0
  -3  -2 -10  237.79   20.51   0
  -6   1 -12   76.37   12.83   0
  -5  -1 -11  578.96   30.06   0
  -2  -2  -9 1392.43   34.46   0
  -6   0 -10  451.47   25.72   0
  -6   0  -6 1084.67   36.73   0
  -4  -1 -12   62.74   17.67   0
  -4   1 -14   21.20   13.78   0
  -3  -2  -9  563.73   24.82   0
  -6   2 -12  188.35   14.35   0
  -3  -2  -6  303.82   16.13   0
  -2  -2  -8 1294.57   30.60   0
  -6   0  -8  439.30   28.16   0
  -6   0  -7  789.53   34.83   0
  -6   1  -4  327.65   21.73   0
  -5  -1  -9  612.82   29.92   0
  -3  -2  -7  494.08   18.70   0
  -3  -1 -12  462.14   26.65   0
  -6   1 -11   86.20   15.12   0
  -5  -1  -8  550.75   28.29   0
  -5  -1  -7  686.56   29.67   0
  -5   0 -12   91.04   18.01   0
  -5   0  -3  425.38   19.98   0
  -4   0 -13  400.48   22.79   0
  -6   2  -3  253.46   20.00   0
  -6   1  -5  144.97   20.20   0
  -6   3 -11   16.37    9.64   0
  -4  -1  -4  299.35   16.21   0
  -3   0 -13   79.46   19.10   0
  -5   0 -11   61.64   19.03   0
  -6   1  -9  244.86   22.81   0
  -3  -1 -11  666.98   28.08   0
  -6   1  -8  189.94   24.07   0
  -6   1  -7  409.43   28.23   0
  -5   1 -12  280.46   19.83   0
  -5   1  -2  974.68   27.08   0
  -4  -1  -5  186.23   15.07   0
  -4   0 -12  246.92   21.65   0
  -6   2 -10  256.20   18.06   0
  -5   0 -10  166.18   21.10   0
  -4  -1  -9  142.76   20.49   0
  -4   1 -13   62.35   14.69   0
  -5   0  -5   52.14   16.29   0
  -4  -1  -8  363.44   23.60   0
  -4  -1  -7  280.02   19.47   0
  -6   2  -9  284.79   21.27   0
  -6   2  -5  457.08   27.21   0
  -6   3  -4  167.83   20.42   0
  -6   4  -4  283.98   27.96   0
  -5   0  -6  239.70   20.49   0
  -5   2 -12   91.12   13.93   0
  -3  -1 -10  540.34   26.23   0
  -2  -1 -10  100.06   20.67   0
  -6   2  -8  202.44   22.35   0
  -6   2  -6  771.16   33.81   0
  -6   3  -9  114.36   15.42   0
  -5   0  -8  247.89   23.96   0
  -5   0  -7  361.69   24.43   0
  -5   1 -11  585.84   27.05   0
  -5   3 -12   82.90   11.61   0
  -4   2 -13  255.01   16.92   0
  -4   3 -13   78.21   11.77   0
  -3   0 -12  102.39   18.75   0
  -3   1 -13  269.96   20.70   0
  -6   2  -7  299.03   26.61   0
  -3  -1  -9 1542.13   37.20   0
  -6   3  -8   63.72   17.31   0
  -6   3  -5   56.93   19.68   0
  -6   4  -7  264.27   24.41   0
  -6   3  -6   58.98   21.19   0
  -5   1 -10  433.87   25.44   0
  -5   4 -11   37.43   10.21   0
  -2  -1  -9  435.61   21.92   0
  -5   1  -4 1216.81   33.81   0
  -5   2 -11  109.14   16.79   0
  -4   0 -10  955.85   34.24   0
  -3  -1  -7  714.87   24.47   0
  -3   2 -13  173.14   17.26   0
  -3   3 -13  249.67   18.48   0
  -5   3 -11  302.36   18.09   0
  -3   0 -11  131.29   19.60   0
  -4   0  -4 2291.37   37.58   0
  -5   1  -8  600.62   29.96   0
  -3   1 -12  370.81   23.19   0
  -5   1  -7  673.93   31.22   0
  -5   4 -10   47.39   12.43   0
  -5   5  -9  259.45   15.93   0
  -4   0  -8 1135.12   34.41   0
  -4   0  -5 1036.59   28.35   0
  -5   2  -3  445.05   23.57   0
  -5   3 -10  278.68   19.31   0
  -4   0  -7 1156.60   33.81   0
  -4   0  -6 1535.10   35.88   0
  -5   2  -9  163.92   19.13   0
  -5   6  -5   59.78   27.12   0
  -3   0 -10   18.91   12.68   0
  -5   2  -8  199.61   22.94   0
  -5   2  -4  217.60   21.94   0
  -5   4  -9   89.35   15.31   0
  -5   5  -8  291.60   19.27   0
  -3   2 -12  150.10   18.21   0
  -3   4 -12   42.04   11.33   0
  -4   4 -11  194.16   14.97   0
  -3   1 -11  602.11   27.56   0
  -2   0 -10  991.51   31.76   0
  -5   2  -6  322.08   26.96   0
  -5   3  -3  358.56   24.45   0
  -5   5  -3  543.25   38.04   0
  -4   1  -9   62.28   19.19   0
  -4   3 -11  222.75   18.48   0
  -3   3 -12  259.70   17.87   0
  -5   3  -8  301.57   23.33   0
  -4   1  -3  510.68   21.38   0
  -4   5 -10   20.89   10.27   0
  -2   2 -12  176.26   20.51   0
  -2   4 -12  126.40   15.26   0
  -5   3  -4  539.39   29.95   0
  -5   4  -3  213.38   23.66   0
  -4   2 -10  634.00   28.27   0
  -2   1 -11  275.82   25.70   0
  -5   3  -6  124.81   23.50   0
  -5   3  -5  703.26   34.04   0
  -5   4  -7  239.09   23.64   0
  -5   5  -5  697.40   36.64   0
  -4   1  -8  128.12   15.63   0
  -3   0  -7  492.55   22.66   0
  -2   0  -9  974.36   30.22   0
  -2   3 -12   99.87   16.47   0
  -5   4  -4  151.31   24.82   0
  -4   1  -7  309.20   22.76   0
  -4   6  -8  173.22   13.85   0
  -5  -3  -2  393.50   20.75   0
  -4  -5  -8  112.30   19.25   0
  -4  -4  -3  603.25   23.10   0
  -4  -3  -1  369.85   17.26   0
  -3  -5  -8  237.38   20.95   0
  -7  -3 -11  165.30   17.83   0
  -6  -4  -7  505.66   26.39   0
  -4  -4 -13  261.48   25.05   0
  -6  -3  -4  260.02   20.35   0
  -3  -4  -3  239.33   16.04   0
  -1  -4  -7  453.01   25.19   0
  -1  -4  -6  201.24   17.37   0
  -7  -3 -10  258.33   19.81   0
  -7  -3  -9  360.71   23.36   0
  -7  -2  -5  190.06   19.07   0
  -6  -4 -10  286.10   22.06   0
  -6  -4  -9  319.98   23.29   0
  -4  -2   0  972.37   25.20   0
  -3  -3  -1 2348.44   33.88   0
  -4  -4  -4 1159.75   31.09   0
  -2  -4  -4 1366.09   28.49   0
  -7  -1  -4  360.81   24.97   0
  -3  -4 -12   44.69   18.94   0
  -5  -4  -6  198.79   20.66   0
  -5  -3 -14  142.24   18.28   0
  -7  -2  -6  186.23   21.37   0
  -5  -4 -11  156.30   21.37   0
  -4  -4 -12  354.51   24.05   0
  -4  -4  -5  505.27   25.09   0
  -4  -3 -14  146.90   25.91   0
  -2  -4 -10  707.06   32.32   0
  -7  -2 -12   20.35   11.60   0
  -5  -4  -7  198.41   21.80   0
  -6  -3  -6   16.93   17.66   0
  -5  -4 -10  229.63   24.29   0
  -5  -4  -9  166.06   23.28   0
  -5  -4  -8  181.08   22.74   0
  -3  -4 -11   93.15   19.39   0
  -3  -4  -5  200.39   16.50   0
  -3  -3  -2 2605.97   36.58   0
  -2  -4  -9  886.38   32.78   0
  -2  -4  -6  907.26   26.38   0
  -7  -2  -7   52.17   18.73   0
  -6  -3 -12   22.96   15.21   0
  -4  -4 -11  592.80   28.95   0
  -4  -4  -6  666.01   27.56   0
  -2  -4  -8  547.07   25.64   0
  -2  -4  -7  894.68   28.12   0
  -7  -2 -11   86.80   14.73   0
  -7  -1  -5  309.43   22.52   0
  -5  -2  -2  346.86   19.42   0
  -4  -2  -1  773.27   22.04   0
  -3  -4  -6  169.87   16.54   0
  -7  -2 -10   72.65   16.97   0
  -6  -3 -11   80.68   18.24   0
  -6  -3  -7  132.48   21.09   0
  -6  -2  -4  314.41   22.04   0
  -4  -3  -3  258.37   16.74   0
  -3  -4 -10  146.49   20.56   0
  -6  -3 -10   84.06   19.98   0
  -6  -3  -8  140.45   23.06   0
  -3  -4  -9  222.84   20.13   0
  -6  -3  -9  141.08   22.25   0
  -5  -3  -5  645.77   26.60   0
  -7  -1 -12  131.24   14.06   0
  -7  -1  -6  405.82   25.22   0
  -6  -1  -3  337.14   23.64   0
  -4  -3 -13  208.94   22.27   0
  -4  -3  -4  447.46   20.56   0
  -5  -3  -6  540.53   26.21   0
  -5  -2  -3  349.07   19.87   0
  -7  -1  -7  492.36   27.83   0
  -4  -2  -2 1381.98   28.50   0
  -7  -1 -10  160.47   19.43   0
  -6  -2 -12  209.83   19.85   0
  -6  -2  -6  616.42   29.60   0
  -5  -3 -11  482.25   29.34   0
  -5  -3  -7  291.63   23.29   0
  -4  -3 -12  307.02   24.27   0
  -3  -3 -12  491.19   28.44   0
  -3  -3  -4 1374.26   28.68   0
  -2  -3 -11   43.45   20.59   0
  -7  -1  -9  373.28   26.18   0
  -5  -3 -10  387.28   27.42   0
  -4  -3  -5  242.20   18.45   0
  -7   0  -6  240.68   25.17   0
  -6  -1  -4  337.09   21.58   0
  -5  -1  -2  975.54   27.38   0
  -4  -3  -6  247.93   19.02   0
  -7   0 -11  106.58   14.02   0
  -6  -2  -9  331.89   26.95   0
  -6  -2  -8  284.33   26.20   0
  -6  -1 -13  130.95   15.30   0
  -3  -3 -11  713.57   29.96   0
  -2  -3 -10   20.70   17.29   0
  -7   0  -7   77.54   19.68   0
  -6   0  -3  733.72   27.15   0
  -4  -3  -7  383.17   22.38   0
  -7   0 -10  129.76   17.93   0
  -6  -1  -5  261.85   21.70   0
  -5  -2  -5   69.13   15.18   0
  -5  -1 -14  231.49   17.95   0
  -4  -3  -9  531.01   27.78   0
  -4  -3  -8  482.69   26.04   0
  -3  -3 -10  854.07   31.09   0
  -3  -3  -6 1425.44   30.98   0
  -2  -3  -9  293.53   21.26   0
  -7   0  -8  129.32   20.88   0
  -7   1  -6  319.18   24.86   0
  -5  -2 -12   77.92   19.23   0
  -4  -2 -13  332.89   23.19   0
  -2  -3  -8   71.37   14.77   0
  -2  -3  -7  233.41   16.13   0
  -6  -1 -12   55.68   15.51   0
  -3  -3  -9 1089.60   32.33   0
  -5  -2  -6  217.18   18.91   0
  -5  -1  -3  978.20   27.29   0
  -6   0 -13  212.45   16.52   0
  -5  -2 -11   77.17   21.30   0
  -4  -1 -14   41.43   18.49   0
  -7   1  -9  291.47   22.04   0
  -7   1  -8  306.04   24.64   0
  -6  -1  -7  279.55   24.57   0
  -5  -2  -7  300.49   21.88   0
  -4  -2 -12  278.14   23.43   0
  -7   2  -9   20.47   19.45   0
  -7   2  -7   49.08   20.74   0
  -6  -1  -8  229.50   24.81   0
  -5  -2  -9  158.66   21.60   0
  -5  -2  -8  230.58   23.29   0
  -5  -1 -13  262.58   21.15   0
  -7   2  -8   64.01   19.80   0
  -6   1 -13  102.54   12.22   0
  -5   0  -2  244.65   17.34   0
  -3  -2 -12  194.22   21.20   0
  -6   0 -12  272.42   19.29   0
  -6   0  -5  841.55   30.33   0
  -2  -2 -11  785.71   30.62   0
  -5  -1 -12  356.98   24.50   0
  -4  -2  -6  990.49   27.94   0
  -6   0  -6 1105.23   35.77   0
  -4  -2 -10  283.81   19.73   0
  -3  -2 -11  140.91   19.34   0
  -6   1 -12   66.73   12.64   0
  -6   1  -4  306.06   20.78   0
  -5   0 -13  136.46   16.04   0
  -4  -2  -9  591.43   27.51   0
  -4  -2  -8  698.38   27.35   0
  -4  -1  -3  555.18   18.91   0
  -4   0 -14  232.22   18.33   0
  -3  -1 -13  341.27   23.46   0
  -6   0 -10  430.88   25.64   0
  -5  -1 -11  589.21   29.52   0
  -5   0  -3  391.98   19.04   0
  -3  -2 -10  237.12   20.53   0
  -3   0 -14   30.17   19.10   0
  -2  -2 -10 1042.53   30.81   0
  -6   0  -8  439.74   28.73   0
  -6   2 -12  179.16   13.79   0
  -5  -1  -6  931.62   29.79   0
  -5  -1  -7  646.35   27.29   0
  -3  -2  -6  293.97   15.91   0
  -6   1 -11   84.36   14.46   0
  -6   1  -5  117.48   18.53   0
  -3  -2  -7  764.10   23.90   0
  -2  -2  -9 1218.48   30.32   0
  -6   3 -11    6.38    9.88   0
  -5   0 -12  118.60   18.63   0
  -5   1 -13  225.10   16.58   0
  -5   1  -2  895.75   26.96   0
  -4  -1  -4  298.55   14.93   0
  -2  -2  -8 1297.11   29.01   0
  -2  -1 -12  487.21   26.58   0
  -6   1 -10  169.66   18.55   0
  -6   1  -6   59.85   18.88   0
  -5   0  -4  340.25   18.62   0
  -4   0 -13  446.64   23.46   0
  -4   2 -14  140.42   13.92   0
  -3  -1 -12  629.34   27.77   0
  -6   1  -9  248.38   22.39   0
  -5   2 -13   95.95   11.22   0
  -3   1 -14  178.67   17.25   0
  -6   1  -8  211.54   23.59   0
  -5   0 -11   72.81   17.97   0
  -4  -1  -5  172.65   14.15   0
  -6   2 -10  255.21   18.35   0
  -6   2  -5  436.76   25.43   0
  -6   4  -9  183.18   17.25   0
  -4  -1 -10   28.49   17.35   0
  -3   0 -13  116.43   17.70   0
  -5   0 -10  167.38   21.00   0
  -5   1 -12  281.10   19.93   0
  -4  -1  -6  294.31   17.72   0
  -3  -1 -11  659.00   27.69   0
  -3   2 -14   65.22   13.82   0
  -6   2  -9  286.04   21.25   0
  -6   3  -5   43.87   22.05   0
  -6   4  -8  230.36   23.85   0
  -5   0  -6  253.61   21.20   0
  -5   1  -3 1032.14   28.36   0
  -4  -1  -8  316.14   22.00   0
  -4  -1  -7  255.37   18.85   0
  -4   0 -12  217.79   21.38   0
  -2  -1 -11  274.29   21.45   0
  -6   2  -7  328.62   25.88   0
  -6   4  -6  559.36   33.93   0
  -5   0  -9  223.56   22.26   0
  -6   3  -8   49.31   17.77   0
  -6   3  -6   64.25   20.56   0
  -4  -5   1  189.12   18.64   0
  -3  -1   7  521.59   23.32   0
  -7  -3   2  348.65   16.16   0
  -6  -4   2  326.71   17.07   0
  -5  -4   3   90.48   14.70   0
  -4   0   7  685.54   24.75   0
  -7   0   4   73.85   12.46   0
  -4  -3   5  122.42   14.89   0
  -4  -2   6  208.37   18.22   0
  -3  -5   0  310.67   21.12   0
  -3  -3   5  822.86   25.42   0
  -3  -2   6  223.08   18.02   0
  -3   0   7  850.35   25.85   0
  -7  -2   3  125.17   11.49   0
  -6  -5  -2   51.86   16.45   0
  -2  -4   2 1029.68   26.92   0
  -5   1   6  430.59   23.17   0
  -4  -5   0  294.28   20.56   0
  -4  -4   3  368.78   20.66   0
  -2  -3   4  341.19   17.83   0
  -2  -1   6  348.58   16.69   0
  -7  -4  -1   33.19   11.60   0
  -6  -5  -3   68.50   20.05   0
  -6  -3   3  147.98   14.87   0
  -6   1   5   95.53   15.35   0
  -5  -3   4  277.62   17.66   0
  -5   0   6  102.06   15.18   0
  -6  -4   1  251.25   16.80   0
  -6  -2   4  227.13   15.77   0
  -6   0   5  630.92   22.02   0
  -5  -5  -1  501.69   25.05   0
  -5  -4   2   84.65   14.64   0
  -2   0   6  909.13   23.32   0
  -7  -3   1  234.35   14.55   0
  -4  -1   6  607.00   23.29   0
  -3  -1   6  954.53   26.28   0
  -2  -4   1  958.51   25.82   0
  -7  -1   3  340.29   15.85   0
  -4  -3   4   37.99   13.08   0
  -3  -4   2  208.74   16.42   0
  -7  -4  -2  196.65   15.83   0
  -7   1   3  452.14   21.30   0
  -4  -2   5  524.33   21.24   0
  -4   0   6  263.76   17.79   0
  -3  -2   5  108.21   14.04   0
  -2  -3   3  573.75   19.51   0
  -7   0   3   63.30   13.22   0
  -3   0   6  490.60   19.86   0
  -5  -5  -3  644.48   30.90   0
  -5  -3   3  497.60   21.37   0
  -5  -1   5  205.29   16.50   0
  -2  -1   5  239.60   14.27   0
  -8  -2  -1  254.78   14.05   0
  -5  -2   4  273.17   18.40   0
  -2  -2   4 2180.77   33.60   0
  -8  -1   0   99.63   10.65   0
  -6   0   4  456.43   19.76   0
  -6   1   4  106.87   15.05   0
  -5   1   5  323.93   19.08   0
  -4  -3   3   26.34    8.62   0
  -4  -1   5  320.22   17.72   0
  -8   0   0  169.09   13.92   0
  -7  -4  -4   79.28   15.67   0
  -7  -2   1  213.23   14.29   0
  -4  -2   4  836.51   24.18   0
  -8  -2  -2  383.15   17.25   0
  -7  -4  -5  169.08   19.24   0
  -7  -3  -1  365.85   18.62   0
  -4   0   5  761.94   23.23   0
  -3  -4   0  659.98   21.93   0
  -8  -1  -1   47.12    9.56   0
  -7   0   2   87.46   12.19   0
  -7   1   2  381.23   17.99   0
  -6  -1   3  103.15   15.24   0
  -5  -1   4  739.20   23.82   0
  -4  -4   0  477.59   21.64   0
  -6  -4  -2  321.30   20.32   0
  -6  -2   2  338.28   18.28   0
  -3  -3   2 1736.72   30.16   0
  -3   1   5 1593.14   30.46   0
  -8  -2  -3  324.39   17.29   0
  -8   1  -1  104.39   15.90   0
  -7  -2   0  161.77   14.20   0
  -7  -1   1  214.92   14.94   0
  -6  -3   0  306.71   18.54   0
  -4  -1   4  120.31   13.78   0
  -7   2   1  241.21   20.53   0
  -6  -4  -3  425.36   22.83   0
  -6   1   3   93.05   14.36   0
  -5  -3   1  446.04   20.45   0
  -5   1   4  787.28   24.57   0
  -3  -4  -1  141.06   14.75   0
  -3  -2   3    6.99    9.43   0
  -3  -1   4 1407.92   26.87   0
  -8  -1  -2   70.17   10.91   0
  -4  -4  -1  494.96   21.95   0
  -8  -2  -4  324.21   17.79   0
  -7  -3  -3  307.82   19.52   0
  -7   1   1  261.06   17.41   0
  -6  -4  -4  352.35   22.33   0
  -4  -3   1   18.38   11.19   0
  -6  -3  -1   96.99   14.83   0
  -3  -4  -2  357.50   19.32   0
  -8  -2  -5  232.91   17.43   0
  -8   0  -2  233.01   14.49   0
  -8   1  -2   87.40   14.73   0
  -7  -1   0  254.16   16.38   0
  -5  -3   0  493.90   20.43   0
  -4  -4  -2  898.57   26.71   0
  -4   1   4  195.02   14.91   0
  -8  -1  -3   81.77   12.21   0
  -6   2   2  455.01   22.59   0
  -5  -4  -3  178.87   18.28   0
  -8  -2  -6  415.66   23.09   0
  -3  -2   2  332.95   14.21   0
  -7  -2  -2  238.45   16.97   0
  -7   2   0  184.01   16.22   0
  -6  -4  -7  520.67   30.77   0
  -6  -2   0  773.18   24.68   0
  -6   1   2  189.98   15.90   0
  -3  -1   3  683.93   18.42   0
  -6  -3  -2  130.33   13.51   0
  -6  -1   1  142.15   15.02   0
  -5  -2   1  119.30   14.38   0
  -5   1   3  942.74   25.64   0
  -4  -4  -3  611.12   23.97   0
  -3  -3   0 1524.25   27.46   0
  -8  -1  -4  146.13   14.00   0
  -8   0  -3  169.87   13.72   0
  -8   1  -3   67.01   15.20   0
  -7  -1  -1  520.18   20.90   0
  -7   1   0  465.29   19.30   0
  -5  -3  -1  362.09   19.06   0
  -7  -3  -9  417.66   26.59   0
  -7  -2  -3   62.44   14.51   0
  -5  -4  -5   71.22   20.03   0
  -8  -1  -5  178.60   15.86   0
  -7  -3  -8  341.75   23.89   0
  -7  -3  -7  621.39   25.95   0
  -6  -3  -3  249.38   19.31   0
  -6  -2  -1  234.24   17.42   0
  -6   0   1  985.47   26.73   0
  -4  -4  -4 1121.95   30.68   0
  -4  -2   1  730.87   19.88   0
  -8   0  -4  141.10   14.15   0
  -5   0   2  341.62   17.79   0
  -4  -1   2  371.68   15.63   0
  -4   1   3  349.61   16.26   0
  -4   2   3  953.39   26.22   0
  -8  -1  -6   63.83   13.79   0
  -7   2  -1  171.02   16.07   0
  -6   1   1  154.59   15.10   0
  -6   2   1  724.86   23.88   0
  -5  -4  -6  178.83   20.16   0
  -7  -2  -4  195.07   17.50   0
  -7   1  -1  516.31   20.40   0
  -5  -1   1  766.00   22.52   0
  -8  -1  -8   65.94   13.81   0
  -8  -1  -7   71.78   13.95   0
  -8   0  -5  166.01   15.15   0
  -5   2   2  162.28   15.53   0
  -6  -2  -2  497.26   21.98   0
  -8   0  -6  113.95   15.02   0
  -7  -1  -3  258.50   17.88   0
  -7   0  -2  142.81   14.75   0
  -6  -3  -5  280.79   20.40   0
  -6   0   0 1066.50   26.89   0
  -4  -3  -2  139.29   13.50   0
  -4  -2   0  761.12   19.44   0
  -6  -1  -1   33.47   12.63   0
  -5  -2  -1  420.61   17.81   0
  -4   0   2 1855.43   29.40   0
  -8   0  -7  134.71   15.38   0
  -8   1  -6   42.79   13.51   0
  -7   2  -2  193.36   16.15   0
  -5   0   1   76.12   12.22   0
  -4  -1   1  213.61   12.78   0
  -8   0  -8  119.42   15.14   0
  -8   1  -7   82.25   15.37   0
  -7  -2  -6  175.24   18.46   0
  -6  -3  -6   -0.37   14.73   0
  -6  -2  -3  555.96   22.38   0
  -6   2   0  476.89   20.33   0
  -5  -1   0 1030.43   24.92   0
  -7  -1  -4  360.01   20.19   0
  -7  -2 -10   84.94   17.81   0
  -7   0  -3  110.12   14.65   0
  -6  -3 -10   84.76   22.44   0
  -6  -3  -7  126.41   18.15   0
  -5  -3  -4  249.41   18.11   0
  -4   1   2  522.39   17.60   0
  -7  -2  -9  124.93   17.52   0
  -6  -3  -9  153.37   22.52   0
  -6  -3  -8  129.90   18.85   0
  -6  -1  -2  275.44   17.69   0
  -6   0  -1  410.70   19.11   0
  -5   2   1  106.27   13.66   0
  -4  -3  -3  249.59   15.34   0
  -7   1  -3  247.87   17.02   0
  -7   2  -3  235.86   17.34   0
  -6  -2  -4  304.75   19.94   0
  -4  -2  -1  778.26   19.83   0
  -5  -3  -5  633.78   24.47   0
  -5   0   0  571.50   19.35   0
  -4   0   1 1279.22   23.73   0
  -7   0  -7   61.53   29.17   0
  -7   0  -6  217.05   35.14   0
  -6  -1  -8  233.74   34.97   0
  -4  -2  -7  659.19   36.10   0
  -3  -2  -7  671.99   31.09   0
  -6  -1  -5  258.19   33.60   0
  -5  -1 -10  584.10   40.78   0
  -5   3 -12   81.46   19.79   0
  -3  -2  -6  265.95   22.06   0
  -6  -1  -6   42.74   29.74   0
  -6   0 -10  431.86   36.67   0
  -5   0 -11   51.02   27.07   0
  -4  -1 -10    9.95   25.15   0
  -4   1 -12  106.74   26.55   0
  -4   3 -12  136.58   25.36   0
  -6   3 -11   23.29   14.64   0
  -3   0 -11  123.28   31.30   0
  -7   2  -9   22.51   16.87   0
  -7   3  -9  207.02   20.54   0
  -6   2 -11  222.58   21.84   0
  -4   0 -11  845.34   44.28   0
  -4   2 -12  139.33   26.93   0
  -2   0 -10  890.44   43.78   0
  -6   0  -9  475.32   37.43   0
  -4  -1  -9  125.09   26.58   0
  -3  -1  -9 1390.97   47.59   0
  -7   1  -7  359.31   32.86   0
  -7   1  -4  288.40   38.16   0
  -5  -1  -3  993.65   43.23   0
  -7   1  -6  360.25   36.88   0
  -7   1  -5  349.14   39.61   0
  -5  -1  -7  677.53   41.06   0
  -5   0 -10  173.48   31.54   0
  -5   1 -11  526.08   35.23   0
  -4   4 -11  191.08   28.53   0
  -7   2  -8   46.90   19.31   0
  -6   0  -8  390.28   38.98   0
  -5  -1  -4  954.00   43.23   0
  -3   1 -11  589.99   40.30   0
  -7   3  -8  243.54   22.36   0
  -6   0  -3  847.07   47.54   0
  -3  -1  -8  559.79   31.46   0
  -6   2 -10  248.70   26.52   0
  -6   3 -10   62.44   17.63   0
  -5   2 -11   81.13   23.05   0
  -2   0  -9  988.22   42.32   0
  -6   0  -5  804.14   46.92   0
  -6   0  -4  661.70   44.42   0
  -6   1  -9  216.29   32.10   0
  -5   0  -9  164.54   32.57   0
  -7   2  -6   97.67   26.55   0
  -4   2 -11  311.63   31.45   0
  -4   3 -11  215.89   27.29   0
  -3  -1  -7  632.95   31.06   0
  -7   2  -5  148.58   31.04   0
  -7   2  -4  134.84   34.37   0
  -6   1  -8  207.74   32.63   0
  -6   4  -9  191.79   20.40   0
  -5   0  -8  243.19   32.74   0
  -4   0  -9  569.92   36.90   0
  -3   0  -9  418.86   34.61   0
  -6   2  -9  269.21   25.37   0
  -4  -1  -4  315.23   27.47   0
  -4   1 -10   71.99   28.57   0
  -3   1 -10  275.48   34.01   0
  -7   4  -5   83.03   27.77   0
  -6   3  -9  118.79   22.16   0
  -5   2 -10  115.33   26.70   0
  -5   5  -9  220.11   21.62   0
  -2   0  -8  842.98   36.97   0
  -7   3  -5  501.77   36.69   0
  -7   3  -3  410.52   41.74   0
  -6   1  -7  404.72   37.23   0
  -5   1  -9  624.53   40.09   0
  -7   4  -3  150.31   36.97   0
  -4   0  -8 1150.89   45.79   0
  -4   4 -10  369.01   28.31   0
  -3   4 -10   64.04   27.05   0
  -6   1  -2  342.80   39.51   0
  -6   2  -8  198.65   30.66   0
  -5   0  -6  274.58   33.47   0
  -3   0  -8  211.28   26.22   0
  -3   2 -10   60.37   28.36   0
  -5   0  -2  288.35   32.67   0
  -4   3 -10  188.22   28.60   0
  -3   3 -10  336.09   37.69   0
  -6   1  -4  345.95   39.42   0
  -6   1  -3  259.90   38.11   0
  -5   0  -3  500.85   35.95   0
  -5   1  -8  600.98   39.51   0
  -5   2  -9  197.28   30.45   0
  -4   0  -7 1282.16   46.59   0
  -4   5  -9   14.79   17.79   0
  -3   5  -9  193.17   29.72   0
  -5   3  -9  335.24   31.43   0
  -3   0  -7  441.96   28.03   0
  -2   2  -9 1219.66   49.49   0
  -6   2  -6  781.35   42.49   0
  -6   3  -7  204.81   27.67   0
  -5   1  -7  648.66   41.79   0
  -5   5  -8  269.85   21.74   0
  -4   0  -6 1614.56   49.24   0
  -6   5  -6  103.89   19.86   0
  -5   2  -8  181.83   29.45   0
  -4   1  -8  221.45   27.73   0
  -2   1  -8  125.89   26.09   0
  -2   3  -9  184.64   37.02   0
  -4   4  -9  440.78   30.72   0
  -3   2  -9  293.33   31.22   0
  -6   2  -4  369.84   37.75   0
  -6   3  -6   36.71   25.80   0
  -5   1  -6  644.60   39.01   0
  -5   3  -8  316.42   31.38   0
  -5   4  -8   84.32   22.19   0
  -4   0  -5 1004.06   36.38   0
  -3   4  -9   70.93   26.66   0
  -6   2  -3  388.03   39.67   0
  -6   2  -2  823.60   48.82   0
  -6   4  -6  527.46   32.04   0
  -3   3  -9  727.18   39.27   0
  -6   5  -5   77.73   20.93   0
  -5   1  -5 1975.03   57.59   0
  -5   2  -7  391.73   33.81   0
  -4   1  -7  331.21   29.78   0
  -6   3  -5   50.68   24.79   0
  -6   6  -2  373.80   39.56   0
  -5   5  -7  365.73   25.99   0
  -4   2  -8  552.03   35.46   0
  -4   6  -7  252.45   20.74   0
  -6   4  -5  440.69   31.17   0
  -5   1  -1 1136.72   53.30   0
  -2   2  -8  834.49   38.95   0
  -6   5  -4  104.63   21.99   0
  -5   1  -3  980.90   45.56   0
  -5   3  -7  349.27   31.65   0
  -3   1  -7  547.78   29.37   0
  -3   5  -8  373.41   28.83   0
  -6   3  -3  187.49   32.47   0
  -6   3  -1  273.77   36.00   0
  -6   4  -4  277.25   29.96   0
  -5   1  -2 1071.67   47.26   0
  -5   2  -6  365.11   32.12   0
  -4   1  -6  308.76   27.23   0
  -4   3  -8  273.76   29.59   0
  -4   4  -8  360.30   29.35   0
  -3   6  -7   82.36   21.67   0
  -6   3  -2  374.44   38.23   0
  -6   4   0  480.52   43.57   0
  -5   5  -6  248.99   24.71   0
  -5   6  -5   25.16   16.86   0
  -4   2  -7  686.54   34.88   0
  -3   3  -8 1088.82   42.18   0
  -3   4  -8  198.46   26.49   0
  -2   3  -8   26.97   24.01   0
  -6   4  -2  461.48   38.26   0
  -6   5  -2  174.40   31.65   0
  -6   5  -1  155.65   33.16   0
  -5   2  -5  106.17   24.92   0
  -5   3  -6  162.36   27.29   0
  -4   5  -7   43.48   19.48   0
  -6   4  -1  406.23   39.14   0
  -5   4  -6  285.45   28.13   0
  -4   1  -5  353.56   26.92   0
  -4   6  -6  253.41   20.78   0
  -3   1  -6  788.13   31.09   0
  -5   7  -2  176.80   20.00   0
  -4   3  -7  434.45   30.03   0
  -5   2  -4  213.43   26.87   0
  -5   6  -4   51.85   16.96   0
  -4   4  -7  516.32   31.44   0
  -3   2  -7  389.53   27.68   0
  -2   2  -7 1804.70   46.02   0
  -5   3  -5  755.38   35.97   0
  -5   5  -5  605.89   32.85   0
  -4   1  -4  105.67   20.98   0
  -3   5  -7  354.89   26.58   0
  -3   7  -5  263.51   18.83   0
  -5   4  -5   33.03   22.89   0
  -5   7  -1  137.38   22.89   0
  -2   5  -7  101.43   23.41   0
  -5   2  -2  374.02   32.35   0
  -3   6  -6   93.87   17.95   0
  -2   7  -5  135.37   19.50   0
  -5   3  -4  620.00   32.78   0
  -5   6  -3  100.73   19.70   0
  -4   5  -6   59.77   15.98   0
  -4   6  -5  232.22   20.84   0
  -2   3  -7  136.82   22.92   0
  -2   6  -6  359.87   27.77   0
  -5   5  -4  898.49   37.91   0
  -4   4  -6  499.19   28.99   0
  -2   4  -7  546.46   31.56   0
  -3   2  -6  589.94   27.47   0
  -5   3  -3  385.92   28.68   0
  -5   6  -2  168.17   23.42   0
  -4   7  -3   54.45   15.51   0
  -5   5  -3  541.55   32.91   0
  -5   6   3   53.04   31.78   0
  -2   2  -6 1383.52   37.00   0
  -5   4  -3  222.20   26.04   0
  -5   6  -1   58.52   22.68   0
  -4   3  -5  619.72   29.93   0
  -4   5  -5  229.92   22.62   0
  -7   4   0  113.80   39.84   0
  -6   1  -3  227.80   36.24   0
  -6   3  -5   19.45   28.13   0
  -5   0  -3  476.40   43.45   0
  -5   2  -6  303.60   31.41   0
  -5   4  -6  263.27   29.49   0
  -5   6  -4   40.65   19.27   0
  -3   1  -6  790.66   37.31   0
  -3   7  -3  403.72   31.22   0
  -1   4  -5  305.23   38.59   0
  -5   1  -5 2088.33   58.67   0
  -5   3  -6  138.36   28.21   0
  -6   2  -4  424.69   35.38   0
  -2   3  -6  373.69   31.95   0
  -2   5  -5  529.96   40.60   0
  -6   1  -2  344.69   38.99   0
  -4   4  -6  489.16   33.51   0
  -6   4  -4  266.88   24.84   0
  -6   5  -3  173.28   23.22   0
  -6   6  -1  227.96   22.85   0
  -5   7  -1  131.31   20.39   0
  -4   2  -6  767.71   36.41   0
  -3   2  -6  603.86   31.91   0
  -4   5  -5  224.30   24.74   0
  -3   3  -6  985.65   39.44   0
  -3   6  -4  127.49   23.17   0
  -6   2  -3  338.10   30.89   0
  -5   2  -5   53.20   16.27   0
  -5   4  -5   77.78   21.56   0
  -5   6  -3   76.97   17.84   0
  -4   7  -2   96.73   19.36   0
  -3   5  -5  371.23   28.95   0
  -6   6   0  252.37   24.36   0
  -5   3  -5  752.14   34.69   0
  -5   5  -4  865.18   33.98   0
  -6   5  -2  182.53   23.05   0
  -5   7   0  114.18   17.64   0
  -3   7  -2  376.15   25.29   0
  -2   4  -5  543.18   31.33   0
  -6   2  -2  755.97   36.15   0
  -6   6   1  310.75   27.14   0
  -4   2  -5  727.09   29.91   0
  -1   4  -4  549.88   35.18   0
  -6   6   2  244.83   28.07   0
  -5   2  -4  241.36   24.16   0
  -5   4  -4  102.26   19.08   0
  -4   3  -5  670.16   29.17   0
  -3   2  -5  128.53   17.49   0
  -2   5  -4  338.47   26.08   0
  -6   3  -2  387.45   27.64   0
  -6   4  -2  393.75   28.12   0
  -5   3  -4  595.21   29.44   0
  -5   5  -3  487.47   27.33   0
  -5   7   1  223.13   20.49   0
  -4   5  -4   31.36   12.81   0
  -6   2  -1  415.08   29.82   0
  -3   6  -3   98.16   18.20   0
  -5   7   2  149.92   19.60   0
  -3   8   2  190.62   26.06   0
  -2   7  -1  190.47   22.56   0
  -1   5  -3  721.20   33.99   0
  -6   2   0  413.22   29.98   0
  -5   6  -1   82.61   16.90   0
  -3   7  -1  384.57   23.38   0
  -6   2   1  705.32   39.80   0
  -6   3  -1  271.34   24.01   0
  -5   4  -3  249.24   21.95   0
  -5   7   3  152.38   19.79   0
  -4   2  -4 1174.75   31.82   0
  -4   4  -4  866.68   30.52   0
  -4   6  -2  336.00   21.68   0
  -6   5   1   47.65   19.03   0
  -5   3  -3  383.40   25.15   0
  -4   3  -4  193.16   18.00   0
  -2   4  -4 1391.35   35.70   0
  -6   3   0   97.78   20.55   0
  -6   5   4  112.36   25.27   0
  -3   4  -4  341.09   21.88   0
  -6   5   3  155.69   24.67   0
  -5   6   0  142.30   17.78   0
  -3   6  -2  218.85   18.85   0
  -2   6  -2  384.77   24.06   0
  -6   3   1  140.22   21.66   0
  -6   4   1  559.59   29.24   0
  -3   3  -4 1997.40   38.25   0
  -2   5  -3  130.22   17.83   0
  -5   4  -2  392.94   24.80   0
  -5   5  -1  415.60   25.05   0
  -4   7   1   92.03   15.80   0
  -3   7   0  533.94   24.38   0
  -2   7   0  143.58   20.96   0
  -2   8   3  422.86   30.54   0
  -6   3   2  348.13   26.82   0
  -6   3   3  238.58   25.85   0
  -6   4   2  365.61   27.74   0
  -6   4   3  381.84   28.51   0
  -6   4   4  314.93   25.75   0
  -5   3  -2  423.32   24.43   0
  -5   6   1  163.83   17.96   0
  -4   4  -3  744.56   26.87   0
  -4   6  -1  370.34   21.99   0
  -3   8   4   68.08   18.58   0
  -5   1   0 1570.52   42.20   0
  -4   5  -2  128.12   16.19   0
  -1   6  -1   82.48   21.45   0
  -5   2  -1  218.81   20.02   0
  -5   4  -1  101.49   18.45   0
  -5   5   0  804.72   30.32   0
  -5   6   2   61.65   16.30   0
  -2   4  -3  687.58   24.00   0
  -4   6   0  669.88   26.07   0
  -3   7   1  381.72   22.60   0
  -2   8   4  283.60   23.45   0
  -5   6   3   48.38   16.92   0
  -4   7   3  118.62   16.33   0
  -2   6  -1  318.15   19.97   0
  -5   6   4   44.20   18.62   0
  -5   6   5   92.18   19.51   0
  -4   5  -1  130.48   16.53   0
  -2   5  -2  311.12   18.81   0
  -2   7   1   97.62   16.37   0
  -5   2   0  794.04   27.53   0
  -5   4   0  517.64   25.38   0
  -4   2  -2 1621.55   32.90   0
  -4   7   4   61.41   15.30   0
  -2   8   5  334.78   25.17   0
  -4   6   1  268.52   20.58   0
  -5   5   2  595.47   28.57   0
  -4   7   5   39.94   15.98   0
  -4   7   6   39.04   16.50   0
  -3   6   0  109.11   15.83   0
  -5   2   1   75.51   16.47   0
  -5   4   1  207.50   21.14   0
  -2   8   6  278.71   21.23   0
  -1   6   0  220.91   18.47   0
  -5   5   3  633.99   30.03   0
  -5   5   7  305.59   21.34   0
  -4   4  -1  995.49   28.41   0
  -4   5   0  440.77   21.71   0
  -3   5  -1  459.20   19.82   0
  -2   6   0  502.83   21.82   0
  -5   3   1  404.73   23.71   0
  -4   6   2  396.92   23.12   0
  -3   7   3  380.62   23.32   0
  -1   5  -1  951.91   26.82   0
  -1   8   6   41.33   19.09   0
  -5   2   2  140.52   18.06   0
  -5   4   2  124.75   19.75   0
  -5   5   4  719.84   33.07   0
  -5   5   6  444.14   27.78   0
  -4   3  -1  425.50   19.43   0
  -3   3  -2 1629.75   30.30   0
  -2   5  -1  544.70   20.38   0
  -3   6   1  195.00   17.60   0
  -1   8   7  131.88   21.33   0
  -5   2   3  144.02   19.98   0
  -5   3   2  548.48   25.54   0
  -5   4   7  133.64   18.77   0
  -4   5   1  152.00   17.43   0
  -4   6   3  378.07   23.10   0
  -2   7   3  197.26   18.93   0
  -5   4   4  125.30   22.81   0
  -5   4   6  177.21   22.86   0
  -4   6   4  320.07   23.31   0
  -3   5   0  592.08   21.51   0
  -5   3   4  521.85   27.94   0
  -5   3   6  240.56   22.59   0
  -4   2   0 1020.25   26.35   0
  -4   3   0  565.35   21.46   0
  -3   7   9  162.09   15.19   0
  -2   6   1  584.15   22.55   0
  -1   6   1  226.76   16.84   0
  -4   5   2  348.11   21.80   0
  -4   5  10  156.81   14.93   0
  -4   6   5  550.56   29.47   0
  -4   6   7  161.87   21.56   0
  -3   6   2  421.93   22.11   0
  -3   7   8  103.65   16.99   0
  -4   4   1  395.89   22.08   0
  -3   3  -1 2730.22   36.67   0
  -2   7   4  122.87   18.90   0
  -1   5   0 1332.43   28.30   0
  -4   5   3  305.42   22.28   0
  -3   5   1  404.44   19.35   0
  -3   6   3  139.34   18.17   0
  -4   2   1  900.66   25.08   0
  -1   7   4  375.92   22.91   0
  -4   4   2 1050.35   30.36   0
  -4   4  10  498.60   20.24   0
  -4   5   4  205.75   21.79   0
  -4   5   9  143.43   17.59   0
  -1   6   2  204.31   16.30   0
  -2   7   6  110.45   20.49   0
  -4   2   2 1385.74   29.97   0
  -4   4   3  679.96   26.69   0
  -4   5   6  306.92   28.65   0
  -3   6  10   82.51   13.04   0
  -2   7   7   37.44   18.34   0
  -1   7   5  316.09   23.16   0
   0   7   5  113.65   19.21   0
  -2   5  -1  519.15   19.42   0
   0   6   1 1335.76   31.26   0
   0   7   3  237.91   19.24   0
   2   6   4  426.03   23.51   0
   2   7   8   87.77   16.80   0
  -4   6   3  393.76   21.58   0
  -1   8   7  116.23   15.25   0
  -1   8   8   78.74   12.63   0
  -1   8   9  165.53   13.30   0
  -4   5   1  150.66   17.10   0
   0   5   0   82.43   12.68   0
   1   5   1 1237.40   30.36   0
  -4   4   0  880.40   28.01   0
  -3   4  -1  143.80   13.65   0
  -3   5   0  618.65   21.22   0
  -4   6   4  378.01   24.57   0
  -1   6   1  159.72   12.96   0
   0   7   4  184.99   18.71   0
   2   5   3  208.33   18.27   0
  -1   4  -1   96.96   11.04   0
   1   6   3  284.37   19.38   0
   2   6   5  413.68   22.89   0
  -2   5   0  239.10   14.74   0
  -2   7   4  142.81   18.62   0
  -1   5   0 1417.94   28.53   0
   0   6   2 1195.05   30.10   0
   1   7   6  246.42   18.97   0
  -4   5   2  345.68   20.36   0
  -4   6   5  602.94   27.21   0
  -4   6   6  150.56   21.67   0
  -4   6   7  177.34   22.68   0
  -3   5   1  375.73   18.21   0
  -2   6   2  639.84   22.99   0
  -2   7   5  177.71   20.04   0
  -1   6   2  251.62   16.49   0
   0   5   1  128.68   12.95   0
   1   5   2 1461.07   31.28   0
   1   7   7  302.19   19.42   0
   1   6   4  308.23   19.62   0
  -4   5   3  319.58   21.97   0
  -3   4   0  250.64   14.66   0
  -2   7   6  120.46   19.04   0
   0   6   3 1027.45   27.91   0
   1   7  11  169.22   13.51   0
  -2   7  10  120.54   12.95   0
   1   7  10  321.86   17.22   0
  -2   5   1  188.74   13.55   0
  -2   6   3  327.65   19.68   0
  -2   7   7   54.04   17.03   0
  -1   5   1  936.08   22.20   0
   2   6   7  340.96   20.54   0
  -2   4   0 1688.84   27.65   0
  -2   7   8  126.67   17.82   0
  -1   6   3  182.36   16.26   0
   0   7   7   30.33   12.34   0
  -4   5   4  169.90   17.92   0
  -3   5   2  497.61   20.65   0
  -1   7  11  185.14   13.02   0
   0   7   8  128.15   17.40   0
  -1   7   8  263.31   21.12   0
  -1   7  10  186.58   15.88   0
   0   5   2  387.83   16.35   0
   0   6   4  797.63   26.37   0
   0   7   9   62.39   14.72   0
   0   7  10   72.51   13.73   0
   2   5   5  230.20   20.58   0
  -2   6   4  437.43   22.30   0
  -1   7   9  344.88   20.89   0
  -4   5   5  111.40   18.76   0
  -3   4   1  462.66   17.62   0
   2   6  10  375.68   19.66   0
   2   6  11  362.26   17.28   0
  -4   5   9  143.76   20.58   0
  -1   5   2 1188.55   25.64   0
  -4   5   6  328.37   25.37   0
   0   6   5  578.16   24.08   0
  -4   4   3  681.69   25.49   0
  -4   5   7  510.88   30.17   0
  -4   5   8  144.48   22.92   0
   1   5   4 1002.71   26.63   0
  -2   4   1 1404.09   25.35   0
  -1   6   5   65.84   17.71   0
   0   5   3  347.62   16.29   0
   1   6   7  169.16   17.55   0
   1   6  13  164.04   11.84   0
  -2   6   6  429.34   24.78   0
  -3   4   2  495.52   18.48   0
  -2   5   3  193.45   15.17   0
   1   6   8  178.69   17.96   0
  -4   4   4  869.30   28.37   0
  -2   6   7  591.10   29.32   0
  -1   6   6   60.24   16.44   0
   1   6  12  198.69   14.51   0
  -2   6   8  268.73   24.29   0
  -2   6  10  332.35   21.07   0
   0   6   7  953.32   31.81   0
   1   6   9  200.81   17.99   0
   1   6  11  262.81   17.09   0
   2   5   7  415.77   20.97   0
  -2   6   9  425.54   26.10   0
  -1   6   7  109.48   19.68   0
  -1   6  12  128.76   12.09   0
   0   5   4  309.00   16.55   0
   1   5   5  810.73   24.95   0
   1   6  10   63.90   14.52   0
  -4   4   5  795.71   29.68   0
  -2   5   4  179.92   15.44   0
   0   6   8  574.45   26.45   0
   0   6  12  151.52   13.01   0
  -1   4   2  457.25   15.24   0
  -1   5   4 1151.72   27.71   0
  -1   6   8  103.44   19.38   0
   0   6  11  596.61   22.94   0
   2   5   8   98.40   15.30   0
   2   5  13  327.54   16.56   0
  -4   3   3  131.11   16.95   0
  -1   6   9  192.13   20.87   0
   0   6  10  446.85   23.69   0
  -4   4   9  581.64   30.20   0
   1   5   6  498.94   21.55   0
  -4   4   7  484.25   30.09   0
  -4   4   8  493.74   30.83   0
  -2   5   5  220.78   17.85   0
  -1   5  14  231.92   10.21   0
   0   5   5  378.08   18.89   0
   2   5   9  330.46   19.07   0
   2   5  12  264.90   15.48   0
   1   5  14  356.32   14.13   0
   2   5  10  118.34   15.18   0
  -3   4   4  218.05   16.99   0
  -2   5  12   31.85    9.53   0
   0   5  14   75.82    9.73   0
  -4   3   4   93.94   16.61   0
  -2   4   3  519.97   18.02   0
  -2   5   6   75.06   18.15   0
   1   5   7  821.69   26.25   0
   2   4   6  874.71   26.03   0
  -3   4  12   96.84   10.69   0
  -2   4  14  196.78    9.19   0
  -1   4   3  561.67   17.60   0
  -1   5  13  296.00   13.42   0
   0   5   6  179.50   17.42   0
  -2   5   7   87.17   18.91   0
  -2   5  11   40.51   14.34   0
  -1   5   6 1041.87   30.84   0
   1   5   8  686.20   25.66   0
   1   5  13  359.17   16.30   0
  -4   3   5   15.14   15.86   0
  -4   3  10   61.11   17.33   0
  -3   4   5   78.61   15.07   0
  -2   5   8   57.70   20.28   0
  -2   5  10  131.95   20.37   0
   0   5  13  154.61   12.36   0
  -2   5   9   99.88   22.38   0
  -1   5   7  550.06   26.37   0
  -1   5  12  296.70   17.25   0
   0   5   7  105.86   16.33   0
   1   5   9  603.42   25.33   0
   1   5  12  239.97   16.97   0
  -3   3  13  206.31   10.66   0
  -2   4   4 1186.24   26.80   0
   1   4   5  527.24   18.57   0
   1   4  15   58.65    7.82   0
   1   5  10  683.22   26.18   0
   1   5  11  333.91   20.11   0
   2   4   7  818.89   25.08   0
   2   4  14  269.21   13.96   0
  -4   3   9   63.07   21.56   0
  -3   3   3 2125.36   33.85   0
  -1   5  11  457.98   23.39   0
   0   4  15  389.02   12.64   0
   0   5   8  207.58   19.89   0
  -4   3   7  232.00   26.98   0
  -4   3   8   28.16   22.75   0
  -1   5  10  260.03   22.73   0
  -1   4  14   37.48    7.46   0
   0   5  10  267.47   22.16   0
  -2   4   5 1012.46   28.32   0
   2   4  13  312.39   15.94   0
  -2   4  12  305.08   16.52   0
   0   4   5 1083.71   25.48   0
   1   4   6  237.25   15.30   0
  -4   2  10  391.72   25.62   0
  -3   3  12  398.79   16.63   0
  -1   4   5   96.24   13.30   0
   2   3  15   75.73   11.15   0
   2   4  12  221.23   16.07   0
  -2   4   6  510.21   25.32   0
   2   4  10  649.65   23.59   0
   2   4  11  639.88   22.42   0
  -3   2  13   71.56    8.42   0
  -2   4  11  210.57   19.94   0
  -1   4  13   73.09   11.12   0
  -3   3   5 1609.38   35.18   0
  -3   3  11  557.48   23.71   0
  -2   4   7  708.16   31.26   0
   0   4   6 1292.92   29.94   0
  -7   2  -8   55.84   17.79   0
  -5  -1 -12  345.47   24.96   0
  -5  -1  -4  963.68   27.64   0
  -4  -1 -13   77.58   17.02   0
  -4   0 -14  265.64   20.89   0
  -3  -2 -11  157.62   19.72   0
  -6   0  -5  736.62   29.08   0
  -4  -2 -10  357.50   25.36   0
  -4  -2  -6  906.40   27.27   0
  -3  -1 -13  297.31   23.42   0
  -2  -2 -10 1179.18   33.87   0
  -6   0 -11  380.32   23.48   0
  -5   0 -13  118.86   15.94   0
  -4  -2  -9  589.08   27.39   0
  -4  -2  -7  685.87   25.91   0
  -6   1 -12   54.65   12.08   0
  -5  -1 -11  544.91   28.53   0
  -6   0  -6 1204.64   37.34   0
  -2  -2  -9 1364.63   32.09   0
  -6   0  -9  440.80   27.75   0
  -6   1  -4  322.97   24.21   0
  -6   2 -12  164.45   14.05   0
  -5  -1 -10  589.43   29.62   0
  -4   1 -14   10.32   11.99   0
  -3  -2  -6  281.32   15.53   0
  -6   0  -8  386.13   28.03   0
  -5   0  -3  354.16   19.30   0
  -3  -2  -8  305.20   19.10   0
  -3  -2  -7  774.79   24.11   0
  -3   1 -14  167.26   20.64   0
  -2  -2  -8 1279.16   29.19   0
  -6   1 -11   84.51   14.65   0
  -5  -1  -8  543.18   27.92   0
  -5   0 -12   96.88   19.68   0
  -5   1 -13  193.18   16.32   0
  -4   0 -13  361.39   22.69   0
  -4   2 -14  136.16   13.77   0
  -3  -1 -12  510.26   26.77   0
  -4  -1 -11  325.38   23.68   0
  -3   2 -14   53.59   18.36   0
  -6   1 -10  130.99   18.21   0
  -6   1  -5  133.54   19.83   0
  -6   2 -11  207.49   15.88   0
  -6   3 -11   20.04   10.08   0
  -5   2 -13   79.63   11.70   0
  -3   0 -13   97.58   18.48   0
  -5   0 -11   59.70   19.43   0
  -6   1  -6   67.03   20.53   0
  -5   0  -4  325.35   19.99   0
  -4  -1 -10   20.02   17.59   0
  -3  -1 -11  710.21   28.75   0
  -6   1  -8  204.24   25.27   0
  -5   1 -12  285.77   20.71   0
  -4  -1  -5  182.71   14.56   0
  -5   0 -10  169.97   21.27   0
  -4  -1  -9  155.69   20.06   0
  -4  -1  -8  374.51   24.14   0
  -4  -1  -7  274.86   20.63   0
  -2   1 -13   77.46   23.16   0
  -6   2  -9  289.09   22.25   0
  -6   2  -5  390.96   26.89   0
  -6   3  -4  164.75   25.23   0
  -5   0  -9  248.60   23.74   0
  -5   2 -12   99.90   14.50   0
  -2  -1 -10  103.28   17.39   0
  -2   0 -12  187.95   22.40   0
  -5   0  -8  240.52   23.24   0
  -5   0  -7  407.06   26.20   0
  -5   1 -11  595.61   27.80   0
  -5   3 -12   77.44    9.98   0
  -3   0 -12   79.38   19.21   0
  -3   1 -13  201.43   19.51   0
  -6   2  -7  329.49   27.44   0
  -6   4  -8  209.08   20.29   0
  -5   1  -3  979.32   30.22   0
  -3  -1  -9 1576.20   38.73   0
  -6   3  -5   62.24   21.32   0
  -6   4  -5  406.04   31.89   0
  -6   3  -7  169.06   23.01   0
  -6   3  -6   40.99   20.83   0
  -6   4  -7  235.98   24.47   0
  -6   4  -6  538.27   33.06   0
  -5   1 -10  516.63   27.73   0
  -5   4 -11   45.50   10.70   0
  -3  -1  -8  691.49   26.59   0
  -3   2 -13  167.28   17.11   0
  -2  -1  -9  460.79   22.39   0
  -2   2 -13  319.17   23.74   0
  -5   2 -11  108.60   17.45   0
  -4   0 -10  926.56   34.35   0
  -3  -1  -7  733.06   25.05   0
  -5   1  -4 1316.20   36.57   0
  -5   3 -11  317.39   18.90   0
  -4   4 -12  103.23   11.77   0
  -3   0 -11  126.17   20.80   0
  -4   0  -9  601.49   29.27   0
  -4   2 -12  148.08   17.61   0
  -3   1 -12  424.46   24.71   0
  -2  -1  -8  334.28   19.01   0
  -2   0 -11  648.50   29.66   0
  -5   1  -8  651.29   31.51   0
  -5   1  -5 1973.07   45.98   0
  -4   3 -12  141.17   14.63   0
  -2   1 -12  343.78   24.97   0
  -5   1  -7  694.40   32.61   0
  -5   4 -10   39.65   13.59   0
  -4   0  -8 1153.18   36.42   0
  -5   3 -10  264.85   20.42   0
  -5   5  -9  256.32   16.51   0
  -4   0  -7 1223.25   35.63   0
  -5   2  -9  159.63   21.71   0
  -5   2  -3  395.23   25.10   0
  -1   0 -10  546.08   29.39   0
  -3   2 -12  169.45   19.55   0
  -3   4 -12   40.85   11.57   0
  -5   6  -5   36.33   30.29   0
  -4   2 -11  261.84   19.86   0
  -3   0  -9  465.26   26.13   0
  -5   2  -4  244.08   24.84   0
  -5   3  -9  361.49   23.76   0
  -5   4  -9   68.37   15.82   0
  -4   3 -11  271.65   20.27   0
  -4   4 -11  181.43   15.64   0
  -3   3 -12  255.67   19.59   0
  -2   2 -12  166.18   20.71   0
  -1   1 -11  227.92   25.64   0
  -5   2  -7  401.47   28.09   0
  -5   2  -5   98.80   24.04   0
  -4   1  -9   88.66   20.18   0
  -2   1 -11  256.90   23.81   0
  -5   3  -8  277.41   23.69   0
  -4   5 -10    5.76   10.85   0
  -3   0  -8  205.74   19.35   0
  -2   3 -12   95.98   17.08   0
  -5   3  -3  342.93   27.57   0
  -5   4  -8  122.39   19.00   0
  -4   2 -10  681.39   32.36   0
  -2   0  -9 1051.59   32.05   0
  -1   0  -9  574.06   27.63   0
  -5   3  -7  279.99   25.91   0
  -4   1  -8  144.32   16.77   0
  -3   0  -7  517.77   24.85   0
  -3   1 -10  261.35   23.12   0
  -5   3  -4  544.51   33.43   0
  -4   1  -7  361.96   25.67   0
  -4   3 -10  245.19   23.18   0
  -2   5 -11  145.35   14.47   0
  -5   4  -3  226.61   27.61   0
  -4   1  -6  302.61   23.60   0
  -4   1  -5  306.03   23.27   0
  -4   6  -8  190.19   15.19   0
  -3   3 -11  499.44   25.44   0
  -3   4 -11  174.23   16.63   0
  -5   4  -6  286.26   29.70   0
  -5   4  -4   63.45   25.91   0
  -4   5  -9   18.51   13.80   0
  -2   1 -10  132.69   21.33   0
  -5   4  -5   78.26   26.07   0
  -3   1  -9 1299.03   38.88   0
  -1   1 -10  645.03   31.26   0
  -4   3  -9  270.57   24.42   0
  -3   2 -10   84.07   20.15   0
  -3   5 -10  160.01   15.33   0
  -4   2  -8  335.37   21.80   0
  -4   4  -9  432.56   26.15   0
  -3   6  -9   26.93   10.53   0
  -2   3 -11  147.93   20.52   0
  -2   4 -11  154.57   18.06   0
  -1   4 -11  190.42   20.32   0
  -4   2  -2 1606.91   42.03   0
  -4   6  -7  240.21   19.15   0
  -3   1  -8  840.11   32.97   0
  -4   2  -7  719.52   32.44   0
  -4   5  -8   18.44   17.02   0
  -3   3 -10  318.56   25.64   0
  -3   4 -10   55.93   17.28   0
  -3   7  -7  161.26   14.58   0
  -4   3  -8  299.13   24.63   0
  -2   1  -9  312.51   24.05   0
  -4   2  -3 1068.65   38.20   0
  -3   1  -7  544.43   26.83   0
  -3   2  -9  309.90   25.39   0
  -2   2 -10  927.67   34.41   0
  -4   2  -4 1302.07   41.66   0
  -1   1  -9 1744.89   43.28   0
  -1   2 -10  155.77   27.13   0
  -4   3  -7  447.04   27.78   0
  -4   5  -7   74.66   16.13   0
  -3   1  -6  708.70   28.12   0
  -3   5  -9  235.08   19.77   0
  -1   5 -10  154.16   17.44   0
  -6  -5 -11  101.15   12.00   0
  -6  -5  -9  176.51   14.52   0
  -5  -3  -2  398.47   17.67   0
  -4  -6 -12  344.76   18.39   0
  -3  -3   0 1512.36   24.54   0
  -7  -3  -8  269.97   19.29   0
  -6  -5 -10  175.54   14.48   0
  -6  -3  -4  283.21   16.80   0
  -4  -4  -2  947.91   22.83   0
  -3  -6  -6  138.95   15.15   0
  -3  -5  -3  438.13   17.28   0
  -2  -6  -6  293.17   17.17   0
  -4  -6  -8  342.16   19.48   0
  -4  -5  -4  258.56   16.51   0
  -3  -6 -12   29.09   12.59   0
  -2  -5  -3  192.65   13.07   0
  -7  -3  -9  380.76   21.63   0
  -5  -5  -6  855.74   26.18   0
  -4  -6 -11  351.82   17.95   0
  -4  -6  -9  405.19   19.98   0
  -2  -6  -7  454.53   19.41   0
  -7  -3 -10  283.21   19.83   0
  -5  -4  -4  275.64   17.12   0
  -2  -6 -10  388.90   20.21   0
  -1  -5  -4 1036.10   24.20   0
  -3  -6 -11   82.25   14.03   0
  -2  -6  -9  296.22   17.99   0
  -7  -2  -8   35.31   19.37   0
  -6  -4  -7  528.64   23.34   0
  -6  -2  -4  263.01   16.99   0
  -5  -5 -13  217.80   16.40   0
  -5  -5  -7  593.66   24.43   0
  -5  -2  -2  354.68   17.49   0
  -3  -6 -10  104.13   15.12   0
  -3  -6  -9  192.49   16.31   0
  -3  -5  -4  304.58   16.62   0
  -5  -3  -3  386.63   18.23   0
  -5  -5  -8  560.16   23.99   0
  -4  -2  -1  748.13   19.93   0
  -3  -3  -1 2417.80   30.78   0
  -7  -2  -9  110.24   19.55   0
  -6  -4  -8  353.40   21.06   0
  -5  -5 -12  245.18   16.65   0
  -5  -4  -5   80.00   14.08   0
  -7  -2 -10   76.83   18.19   0
  -6  -3  -6   17.56   14.20   0
  -5  -5  -9  485.43   23.02   0
  -4  -5  -6   34.91   10.06   0
  -3  -5  -5  587.18   21.05   0
  -5  -5 -11  714.51   24.93   0
  -5  -5 -10  402.02   21.25   0
  -6  -4 -11  258.80   18.19   0
  -6  -2  -5  287.84   18.44   0
  -4  -5  -7  154.35   16.61   0
  -1  -5  -6  526.73   20.02   0
  -5  -4  -6  216.74   18.25   0
  -4  -5 -13   42.15   13.09   0
  -2  -4  -3  773.14   19.44   0
  -5  -4 -14   65.08   11.90   0
  -4  -5  -8  131.10   17.75   0
  -3  -5 -13  140.09   17.43   0
  -3  -3  -2 2622.09   32.45   0
  -2  -5  -6  385.79   18.23   0
  -1  -5  -7  827.73   24.53   0
  -5  -4  -7  222.88   18.50   0
  -4  -5  -9  232.19   20.05   0
  -4  -3  -3  259.38   14.65   0
  -3  -5  -7  249.16   18.63   0
  -6  -2  -6  688.61   24.94   0
  -4  -5 -11   58.95   15.81   0
  -4  -2  -2 1416.42   26.03   0
  -3  -4  -4  417.12   16.35   0
  -1  -5  -9  581.91   25.28   0
  -1  -5  -8  601.98   23.51   0
  -6  -3 -13   38.44   10.65   0
  -6  -3  -9  138.52   19.37   0
  -5  -4 -13  164.32   15.97   0
  -5  -4  -8  167.12   14.84   0
  -6  -3 -12   22.46   13.34   0
  -6  -3 -11   78.76   16.16   0
  -5  -4  -9  137.88   17.90   0
  -5  -2  -4  354.43   17.49   0
  -4  -4  -6  712.54   24.04   0
  -3  -5 -11  443.12   22.67   0
  -2  -5 -11   58.52   14.74   0
  -2  -5  -8  106.29   15.15   0
  -2  -4  -4 1298.23   24.35   0
  -6  -2  -7  553.17   24.70   0
  -5  -4 -12   32.22   14.50   0
  -5  -4 -10  205.03   20.02   0
  -2  -5 -10  130.86   16.47   0
  -2  -5  -9  331.78   19.33   0
  -6  -1  -6   51.84   17.26   0
  -5  -4 -11  184.52   19.42   0
  -5  -3  -6  511.22   21.95   0
  -3  -4  -5  204.47   14.10   0
  -3  -3  -3 1677.47   26.74   0
  -6  -2  -8  273.18   22.04   0
  -6  -2 -13  181.62   14.94   0
  -5  -3  -7  320.19   20.26   0
  -2  -4 -14  251.85   20.42   0
  -2  -4  -5  909.80   22.23   0
  -6  -2  -9  318.39   24.06   0
  -5  -3 -14  193.97   16.07   0
  -5  -2  -5  128.01   14.48   0
  -4  -4 -13  260.07   19.14   0
  -4  -4  -8  511.68   23.47   0
  -3  -4 -14  111.90   14.76   0
  -3  -4  -6  149.50   14.05   0
  -5  -1  -4  965.53   24.96   0
  -4  -3  -5  253.18   15.41   0
  -5  -3  -8  270.51   20.31   0
  -4  -4  -9  610.11   25.97   0
  -5  -3 -13  265.22   18.79   0
  -5  -2 -15   76.19   10.79   0
  -4  -4 -11  599.32   27.53   0
  -4  -4 -10  165.06   16.80   0
  -4  -3 -15   78.42   12.35   0
  -6  -1  -8  216.22   20.98   0
  -5  -3  -9  273.84   21.37   0
  -3  -4 -13  208.31   17.81   0
  -2  -4 -13  340.79   19.84   0
  -5  -3 -12  136.21   15.47   0
  -5  -3 -11  471.75   25.54   0
  -5  -3 -10  383.16   25.04   0
  -4  -3  -6  266.30   16.17   0
  -3  -4  -8  214.55   16.75   0
  -6  -1  -9  235.86   22.10   0
  -2  -3 -15   73.75   17.44   0
  -6  -1 -11  119.02   18.18   0
  -6  -1 -10  158.93   20.89   0
  -6   0 -13  200.59   15.38   0
  -5  -1  -5 1798.25   32.60   0
  -4  -3 -14  137.75   15.52   0
  -3  -4 -10  122.87   18.19   0
  -3  -4  -9  196.50   18.40   0
  -3  -3 -15  189.74   15.34   0
  -1  -4 -11  352.06   21.11   0
  -5  -2 -14   69.42   12.85   0
  -3  -3  -5 2482.02   33.70   0
  -2  -4  -8  510.39   20.46   0
  -1  -4 -10   89.51   17.76   0
  -1  -4  -8  211.49   15.43   0
  -6   1 -12   68.23   19.26   0
  -5  -1 -15  159.94   13.00   0
  -3  -2 -16   62.85   12.78   0
  -2  -4 -11  796.91   26.81   0
  -2  -4  -9  856.33   25.91   0
  -1  -4  -9  130.34   14.81   0
  -6   0 -12  234.52   17.93   0
  -6   0  -9  389.43   25.43   0
  -4  -3 -13  221.95   19.61   0
  -2  -4 -10  749.70   25.78   0
  -6   0 -11  343.60   22.20   0
  -5  -2 -13  195.61   17.29   0
  -5  -2  -8  197.97   19.50   0
  -4  -3  -8  450.09   21.53   0
  -4  -2  -5  546.17   18.55   0
  -6   1 -11   77.71   19.49   0
  -6   1 -10  170.57   27.16   0
  -5  -1  -6  925.69   26.01   0
  -4  -3  -9  512.12   23.48   0
  -4  -2 -15  269.96   15.84   0
  -3  -3  -6 1490.98   27.88   0
  -5  -2 -12   88.51   17.31   0
  -5  -2 -11   86.30   19.08   0
  -5  -2 -10  267.95   21.87   0
  -5   0  -5   64.77   15.04   0
  -4  -3 -11  425.26   24.60   0
  -4  -3 -10   63.31   16.67   0
  -2  -3 -14   24.05   13.46   0
  -5  -1 -14  192.37   14.39   0
  -4  -2  -6  883.71   22.92   0
  -4  -1  -4  307.12   14.00   0
  -3  -3  -7 1001.63   24.82   0
  -5  -1  -7  656.94   24.94   0
  -4  -2 -14  337.13   19.25   0
  -5  -1 -13  277.61   17.54   0
  -5   0 -14   67.10   10.81   0
  -4  -1 -15   54.69   10.71   0
  -3  -3 -12  542.51   25.76   0
  -3  -3  -8  674.07   22.76   0
  -2  -3 -13  129.73   16.13   0
  -5  -1 -12  339.93   21.00   0
  -5   0  -6  214.12   16.60   0
  -4  -2  -7  689.96   22.83   0
  -3  -3 -10  785.46   26.97   0
  -3  -3  -9 1126.26   29.24   0
  -2  -2 -15  318.89   17.97   0
  -2  -1 -16   50.07   11.30   0
  -7  -5  -3  215.38   12.61   0
  -5  -3   3  508.23   17.91   0
  -5  -1   3  834.42   22.21   0
  -4  -5   2  352.97   15.32   0
  -4  -4   3  416.74   16.77   0
  -4  -2   4  958.86   22.13   0
  -5  -2   3   97.82   12.32   0
  -3  -3   4 1305.82   24.99   0
  -2  -3   4  324.42   13.66   0
  -7  -3  -1  334.29   15.03   0
  -5  -6  -1  111.63   10.43   0
  -5   0   2  322.10   16.52   0
  -4  -7  -3   47.73   11.32   0
  -4  -6   0  330.81   14.62   0
  -4   0   3 1518.33   27.17   0
  -3  -1   4 1321.36   22.60   0
  -2  -5   2  166.30   12.61   0
  -7  -4  -2  203.59   11.26   0
  -7  -2  -1   76.35   13.23   0
  -6  -5  -1   43.00    8.59   0
  -6  -3   1  123.49   12.06   0
  -6  -1   1  111.45   12.86   0
  -3  -2   4  235.57   12.38   0
  -2  -6   0  410.66   17.08   0
  -2  -2   4 2053.14   27.03   0
  -3  -6   0  339.58   15.13   0
  -1  -5   1  594.27   20.47   0
  -6  -4   0  635.32   18.35   0
  -6  -2   1  356.81   16.17   0
  -5  -5   0  769.64   20.00   0
  -5  -3   2  452.36   17.79   0
  -4  -5   1  179.09   12.97   0
  -7  -1  -2  401.92   22.95   0
  -5  -6  -2  168.02   11.86   0
  -4  -4   2  852.11   21.61   0
  -4  -2   3 1041.50   22.54   0
  -7  -5  -5  174.53   11.82   0
  -5  -2   2  193.09   13.27   0
  -3  -3   3 1080.91   22.33   0
  -2  -3   3  544.26   15.49   0
  -7  -2  -2  217.09   14.33   0
  -6  -3   0  290.14   14.91   0
  -2  -6  -1  102.01   12.49   0
  -6  -6  -5  182.27   11.92   0
  -6  -1   0  203.05   14.66   0
  -5   0   1   66.64   12.00   0
  -4  -7  -5  186.75   14.41   0
  -4   0   2 1651.38   27.45   0
  -3  -4   2  202.49   12.24   0
  -7  -5  -6   60.06   10.12   0
  -6  -2   0  772.00   21.45   0
  -3  -2   3   15.90    5.93   0
  -5  -6  -3  123.32   11.78   0
  -5  -5  -1  490.80   17.73   0
  -4  -5   0  302.18   14.58   0
  -4  -3   2  216.11   12.92   0
  -6  -6  -6  336.64   14.82   0
  -6  -5  -3   92.23   10.83   0
  -4  -6  -2  530.51   18.17   0
  -5  -1   1  802.47   21.16   0
  -4  -2   2 1301.81   23.99   0
  -4  -1   2  439.80   15.29   0
  -7  -2  -3   60.63   11.75   0
  -6  -3  -1  126.60   12.71   0
  -4  -7  -7   87.67   15.71   0
  -2  -6  -2  942.52   23.30   0
  -7  -4  -5  160.43   12.17   0
  -6  -4  -2  301.48   15.58   0
  -3  -6  -2  181.96   13.43   0
  -2  -5   0  162.26   11.83   0
  -6  -6  -8  259.96   15.26   0
  -6  -2  -1  199.56   14.72   0
  -6  -1  -1   40.87   11.82   0
  -3  -4   1  398.38   14.98   0
  -4  -6  -3  400.38   16.95   0
  -4  -5  -1  484.43   17.14   0
  -2  -4   1  893.82   19.77   0
  -7  -2  -4  177.21   16.43   0
  -5  -4  -1  166.01   12.91   0
  -4  -3   1   24.42    9.49   0
  -3  -2   2  332.95   12.27   0
  -7  -4  -6  171.88   13.00   0
  -4  -4   0  588.03   18.28   0
  -6  -3  -2  150.44   13.59   0
  -5  -2   0  278.05   14.20   0
  -3  -6  -3  116.55   12.41   0
  -5  -5  -3  726.43   20.93   0
  -4  -2   1  801.88   19.02   0
  -3  -5  -1  492.64   16.83   0
  -7  -4  -7   82.48   12.08   0
  -6  -2  -2  429.94   17.97   0
  -6  -1  -2  272.90   16.06   0
  -4  -6  -4  579.18   19.63   0
  -3  -3   1 1629.33   25.09   0
  -7  -2  -5  188.42   15.33   0
  -4  -5  -2  189.81   13.79   0
  -3  -4   0  661.89   17.61   0
  -7  -4  -8   48.08   11.01   0
  -6  -4  -4  381.22   17.66   0
  -5  -4  -2  266.99   14.81   0
  -4  -4  -1  527.59   17.64   0
  -4  -3   0  398.04   15.32   0
  -3  -6  -4  347.26   16.32   0
  -2  -4   0  937.42   19.32   0
  -4  -6  -5  410.85   18.01   0
  -7  -2  -6  166.38   15.88   0
  -6  -5  -7   56.52   11.85   0
  -5  -2  -1  467.01   17.28   0
  -3  -5  -2  482.79   16.87   0
  -5  -1  -1 1145.45   23.95   0
  -4  -5  -3  138.94   13.04   0
  -5  -6 -10   56.13   12.89   0
  -5  -4  -3  165.29   13.51   0
  -4  -6  -6  373.46   17.96   0
  -7  -2  -7   45.79   14.17   0
  -6  -3  -4  288.06   16.43   0
  -5  -5  -5  761.04   23.16   0
  -5  -3  -2  431.21   17.10   0
  -4  -1   0 1069.48   21.09   0
  -3  -6  -5  133.16   13.67   0
  -3  -4  -1  168.08   11.35   0
  -3  -3   0 1474.41   23.33   0
  -7  -1  -8  267.76   27.74   0
  -6  -5 -11  101.33   11.89   0
  -6  -5  -9  198.83   15.25   0
  -4  -4  -2  902.04   21.53   0
  -7  -2  -8   50.98   14.84   0
  -6  -5 -10  181.99   14.13   0
  -6  -4  -6  639.71   22.55   0
  -4  -3  -1  367.98   14.34   0
  -4  -5  -4  288.14   15.79   0
  -3  -5  -3  435.10   16.57   0
  -2  -4  -1  780.25   17.87   0
  -7  -2 -10   82.94   17.77   0
  -6  -3  -5  308.20   17.36   0
  -6  -1  -4  325.54   17.37   0
  -5  -5  -6  886.42   25.66   0
  -5  -4  -4  257.14   15.79   0
  -5  -2  -2  353.30   15.83   0
  -3  -6  -6  114.83   13.85   0
  -6  -4  -7  535.33   22.46   0
  -5  -1  -2  964.85   22.49   0
  -2  -5  -3  180.82   12.35   0
  -4  -2  -1  744.17   18.28   0
  -5  -5  -7  668.26   24.59   0
  -4  -4  -3  665.26   19.51   0
  -3  -6  -7  172.62   15.06   0
  -3  -4  -2  387.85   14.48   0
  -3  -4  10   10.56    4.62   0
  -2  -3  11  121.93    8.37   0
  -2  -2  11  570.51   15.16   0
  -2   1   7  122.62   11.90   0
  -1  -5  10  270.36    9.49   0
  -1   1   7 1374.15   24.92   0
   0   0   9 1393.85   23.93   0
   1  -2  10  149.45   11.19   0
  -4  -2   9  412.63   12.89   0
  -4   0   7  677.21   20.75   0
  -1  -2  11  403.79   14.30   0
   1  -3  10  285.26   13.31   0
  -5  -2   7   67.35    9.87   0
  -3  -3  10  259.70   10.17   0
  -3  -2  10   19.66    7.63   0
  -2   0   9 1011.77   22.23   0
   0  -1  10  469.23   15.43   0
  -5  -3   7  419.72   13.55   0
  -4  -1   8  106.03   10.80   0
  -2  -1  10  115.45   10.63   0
  -1   0   9   67.68    9.34   0
  -1  -1  10  583.21   17.22   0
   0   0   8 1791.74   26.16   0
  -2  -4  10  256.72   10.05   0
   1  -4   9  119.22   11.62   0
   1  -1   8 1148.63   21.04   0
  -4   0   6  247.36   16.26   0
  -2  -2  10  162.21   11.32   0
  -1  -4  10   64.33    8.42   0
   1  -2   9   32.67    7.25   0
  -4  -4   8   98.58    7.37   0
  -2  -3  10  279.96   12.38   0
  -2   0   8 1211.88   24.08   0
   0  -1   9  293.14   12.99   0
   1  -3   9  816.71   19.75   0
  -4  -2   8  456.49   15.04   0
  -3  -4   9  255.46   10.09   0
  -2  -5   9   43.12    6.22   0
  -1  -6   8   37.34    6.13   0
  -1  -3  10  503.04   15.98   0
  -1   0   8   36.11    6.80   0
  -5  -2   6   59.31   10.55   0
  -3  -2   9  452.54   15.41   0
  -2  -1   9  157.82   11.74   0
  -5  -4   6   20.43    6.36   0
  -4  -5   7   93.58    6.76   0
  -3  -6   7   59.17    6.35   0
  -3  -3   9  521.48   15.31   0
  -1  -1   9  678.00   18.11   0
  -3  -5   8  303.87   10.32   0
   1  -2   8   44.15    8.92   0
  -5  -3   6  477.58   14.94   0
  -1   0   7  442.82   14.73   0
   0  -4   9  288.12   13.70   0
   0  -1   8  366.88   13.47   0
   1  -4   8   92.84   11.65   0
  -2  -2   9  392.17   15.11   0
   0  -6   7  411.14   14.59   0
   1  -3   8  793.61   19.99   0
  -2  -3   9  199.00   11.88   0
  -1  -4   9  163.25   11.58   0
  -1  -2   9  450.94   15.97   0
   0  -5   8  111.23   10.79   0
  -4  -4   7  479.94   14.11   0
  -4  -1   6  616.46   19.44   0
  -3  -2   8   31.65   10.40   0
  -2  -1   8  375.61   14.99   0
  -1  -3   9  631.63   18.31   0
  -1  -1   8  904.65   20.42   0
  -5  -2   5  247.06   15.01   0
  -2  -6   7  310.85   10.76   0
  -2  -5   8   47.25    7.67   0
   1  -2   7  148.26   10.71   0
  -3  -3   8  481.84   16.07   0
  -5  -4   5  208.68   11.02   0
  -5  -3   5  141.97   11.63   0
  -4  -6   5  119.23    7.83   0
  -4  -5   6  306.81   11.62   0
  -3  -6   6   61.23    7.03   0
  -3  -5   7  171.53   10.33   0
   0  -4   8  349.87   15.43   0
   1  -3   7 1174.41   23.61   0
  -2  -7   5  174.07    9.62   0
  -2  -4   8  510.58   16.60   0
  -1  -2   8  344.61   14.44   0
  -4  -2   6  269.90   14.81   0
  -4  -1   5  315.81   16.14   0
  -2  -1   7   71.84    8.48   0
  -1  -7   5  227.00   11.13   0
  -1  -4   8  121.23   12.20   0
  -1  -1   7  771.68   18.44   0
   0  -6   6  592.04   19.21   0
  -5  -2   4  263.78   16.68   0
  -3  -2   7  176.05   13.17   0
  -1  -3   8  715.82   19.38   0
   0  -5   7  173.08   13.07   0
  -4  -4   6  176.23   11.68   0
  -2  -5   7   40.02    9.36   0
  -3  -7   4  215.40    9.69   0
  -2  -6   6  253.80   11.69   0
  -5  -4   4  197.65   12.01   0
   0  -4   7  871.90   21.65   0
   1  -4   6  228.50   16.28   0
  -5  -3   4  264.98   14.79   0
  -4  -5   5  256.18   12.18   0
  -3  -5   6  271.80   13.24   0
  -1  -2   7  757.37   18.91   0
   1  -3   6  963.65   22.27   0
  -4  -6   4  285.33   11.55   0
  -3  -6   5  132.38    9.45   0
  -2  -4   7  747.52   20.80   0
  -5  -2   3   98.89   14.36   0
  -3  -2   6  235.28   13.72   0
  -1  -4   7  233.35   13.82   0
   1  -5   5  592.20   24.13   0
  -4  -4   5  170.80   12.82   0
  -1  -7   4  434.73   14.56   0
   0  -6   5  483.64   18.05   0
   0  -5   6  162.10   13.34   0
  -4  -7   2   44.55    6.59   0
  -3  -4   6  207.73   13.89   0
  -3  -3   6  799.22   21.69   0
  -6  -5   0   60.55   11.10   0
  -2  -6   5  253.93   12.69   0
  -3  -7   3  316.17   11.68   0
  -1  -6   5   51.27    9.97   0
   0  -7   3  155.42   13.89   0
  -4  -5   4  217.54   13.32   0
  -4  -1   3  355.74   17.37   0
  -3  -5   5  311.99   14.71   0
  -1  -2   6  745.70   18.03   0
  -6  -4   0  621.26   23.25   0
  -4  -6   3  274.07   12.09   0
  -3  -6   4  172.24   11.24   0
  -2  -4   6  416.29   17.30   0
  -2  -3   6  446.35   16.14   0
  -1  -8   1  104.91   11.90   0
  -5  -6   1   32.20    7.88   0
  -5  -2   2  176.87   16.29   0
  -3  -2   5  113.26   11.69   0
  -3  -1   4 1420.10   25.52   0
  -2  -8   1  346.58   12.65   0
  -1  -4   6  162.89   12.38   0
  -1  -3   6  562.98   17.01   0
  -4  -4   4  484.34   17.89   0
  -3  -4   5  198.04   13.97   0
   0  -6   4  560.76   18.87   0
   0  -5   5   88.63   12.10   0
  -3  -8   0   84.76    7.85   0
  -3  -3   5  807.95   20.91   0
  -2  -5   5  151.18   12.64   0
  -2  -6   4  323.86   14.26   0
  -2   3  13  173.04   10.71   0
  -1   3  14  264.70   11.20   0
   0   4  11  591.44   23.73   0
   1   3  14  498.15   16.12   0
  -1   4   9  174.18   18.34   0
  -1   4  10    0.71   15.06   0
   3   2  10  199.56   16.01   0
  -3   3  10  571.24   25.41   0
  -1   2  15  228.43    9.09   0
   0   1  16  131.50    7.50   0
   0   3  14   92.38    9.90   0
   1   2  15   43.76    7.31   0
   2   2  14  308.35   13.51   0
   3   1  13  279.46   13.54   0
  -3   3   7  669.60   32.78   0
  -3   3   8  710.77   33.49   0
  -1   3  13  439.52   16.10   0
   0   2  15  337.49   11.65   0
  -3   2  12   67.38    9.49   0
   1   3   7 1797.19   29.46   0
   3   1  12  561.86   19.31   0
  -3   1  13  257.14   10.61   0
   2   0  15  318.50   11.79   0
   1   3   8  833.51   21.77   0
   1   3  11  452.60   19.26   0
  -1   2  14   92.39    9.00   0
   0   3  12  148.31   14.64   0
   1   3   9 1009.32   25.04   0
   1   3  10 1045.68   26.31   0
   2   1  14  130.19   10.68   0
  -2   1  14   52.44    6.69   0
  -2   3  10  336.72   21.35   0
   0   2  14  502.45   15.96   0
   3   1   9 1371.09   32.00   0
   3   1  10  498.86   20.64   0
  -3   2  11   78.01   11.91   0
  -1   3  11  680.34   23.57   0
   0   1  15  105.94    8.17   0
   0   3  11  170.03   15.64   0
  -2   3   8  346.28   23.78   0
   0   3   7  189.80   14.01   0
   0   3  10  332.23   19.48   0
   1   2  13  110.62   12.40   0
   2   2   8 1247.85   24.90   0
   3   0  12   95.06   13.38   0
  -1   0  15  110.66    6.66   0
  -1   3  10  505.12   22.83   0
   0   3   8  381.88   18.85   0
   2   2   9 1182.28   24.65   0
  -1   2  13  179.58   12.68   0
  -1   3   7  496.01   19.59   0
  -1   3   8  941.62   28.41   0
  -1   3   9  569.19   23.46   0
   2   0  14  459.48   14.58   0
   2   1  13  133.15   11.84   0
  -3   2  10  146.38   16.01   0
   0   0  15  210.30    9.01   0
   0   2  13  441.47   17.06   0
   1  -1  15  305.60   10.30   0
   1   1  14  268.52   12.80   0
  -1   1  14  392.01   12.98   0
  -4   1   9  203.14   19.33   0
  -3   2   9  207.09   22.45   0
  -2   1  13  110.70    9.18   0
   0  -1  15   81.98    6.53   0
   0   1  14  167.78   11.27   0
  -1   2  12  150.19   13.89   0
   0   2  12  474.15   18.81   0
   1   2  11  422.94   17.76   0
   2   1  12  459.93   16.98   0
  -3   2   8   91.29   23.99   0
  -3   1  11  521.49   18.28   0
   1   1  13  666.59   18.96   0
  -3   2   6  139.92   22.95   0
  -3   2   7  611.17   30.96   0
  -1   0  14   51.55    7.46   0
  -1   2  11  801.67   23.46   0
   0   2  11  733.11   22.30   0
   1   2   8   66.91    9.73   0
   0   1  13  157.11   12.22   0
  -2   0  13  477.52   13.66   0
  -2   1  12   53.59   10.05   0
   1  -1  14  317.77   11.55   0
  -1  -2  14  124.28    7.53   0
  -1   2  10  245.57   16.62   0
   0   2  10  434.92   18.67   0
   1  -2  14   18.32    6.38   0
   1   1  12  451.24   17.67   0
   2  -1  13   84.60   10.31   0
   2   1   9  438.44   15.89   0
  -3   1  10  604.66   19.98   0
   0   2   9  963.47   25.29   0
   2  -2  13  380.82   14.13   0
  -3  -1  12  320.63   11.05   0
  -1   1  12  538.95   18.24   0
  -1   2   9  261.50   17.12   0
   0  -2  14  311.82   10.32   0
   0  -1  14   87.29    7.93   0
  -2  -1  13  147.36    8.65   0
  -2   2   6 1375.00   33.64   0
  -2   2   7 1157.14   31.79   0
   0   1  12  152.04   12.96   0
   1   1  11  196.66   13.40   0
  -4  -1  10  122.32   10.59   0
  -3   0  11  109.37   10.18   0
  -2  -2  13  190.80    8.33   0
  -1   0  13   29.74    6.91   0
  -1   2   8  672.49   22.76   0
   0   0  13  527.39   16.68   0
   2   0  11  665.05   18.90   0
  -3   1   9  585.80   21.71   0
  -2   0  12  598.35   16.79   0
   1   1  10  947.12   22.61   0
  -4  -2  10  396.12   12.75   0
  -1   1  11  754.69   21.54   0
   0   1  11  168.97   11.25   0
   1  -3  13  325.79   11.32   0
   1   0  12  276.49   14.45   0
  -3   1   8  407.56   20.82   0
  -2   1  10   54.77   11.77   0
  -1  -3  13  273.79    9.21   0
   1  -2  13   31.92    7.62   0
   2  -2  12  224.68   12.49   0
   2   0  10 1007.52   21.68   0
  -1   0  12   23.62    9.70   0
   0  -1  13  172.94   10.78   0
   1   1   9 1428.21   25.78   0
  -3   0  10  210.96   13.10   0
  -2  -1  12   64.73    8.47   0
  -1  -2  13  112.14    7.88   0
   0   0  12  433.91   16.05   0
   0   1  10  360.87   15.89   0
  -3   1   7  553.02   24.69   0
  -2   0  11  967.42   21.78   0
   1  -4  12   46.94    8.43   0
   1   0  11 1135.06   23.33   0
   2  -1  11  277.44   14.08   0
  -4   0   7  592.12   26.14   0
  -2  -3  12   96.00    6.84   0
  -3   1   6  975.47   32.23   0
  -2  -2  12  309.81   10.95   0
   0   1   9  296.06   14.34   0
  -1  -4  12   24.67    5.06   0
  -1  -1  12  383.60   14.15   0
  -1   1   9  930.82   22.55   0
   2  -2  11  423.69   15.42   0
  -3  -3  10  257.88   10.55   0
  -1  -3  10  523.84   16.09   0
   0   0   8 1896.39   26.21   0
  -3  -1  10  516.78   15.48   0
  -3   1   8  411.96   16.71   0
   0  -3   9  284.41   14.48   0
   0  -1   9  296.29   13.48   0
  -6  -1   6   86.68    9.83   0
  -5  -3   8  211.42    8.75   0
  -5   1   5  337.52   22.46   0
  -4   1   7  339.22   16.47   0
  -3  -2  10   21.24    7.92   0
  -2  -1  10  130.83   10.98   0
  -1   0   9   66.16    9.55   0
  -1   1   7 1279.49   23.00   0
  -5   0   7  175.20   12.35   0
  -4  -3   9   32.82    6.60   0
  -4  -1   9  150.28   10.71   0
  -3   0   9  564.11   17.89   0
  -1  -4   9  156.83   11.25   0
   0  -2   9  585.67   17.12   0
  -5  -2   8   53.91    7.37   0
  -4  -2   9  392.21   13.19   0
  -2   0   9 1089.52   22.73   0
  -6  -2   6  189.36    9.71   0
  -4   0   8  651.36   18.79   0
  -2  -5   8   52.03    8.91   0
  -2  -4   9  339.70   12.62   0
  -5  -4   7   52.62    5.88   0
  -5   1   4  733.39   29.68   0
  -4   1   6  914.29   23.77   0
  -2   1   7  133.08   11.23   0
   0  -1   8  372.57   13.53   0
  -1   0   8   44.20    8.61   0
  -5   0   6  129.55   12.35   0
  -3  -3   9  532.52   15.62   0
  -1  -3   9  529.01   16.91   0
  -4  -1   8  143.44   11.86   0
  -3  -2   9  459.47   15.28   0
  -2   0   8 1114.68   22.99   0
   0  -2   8  802.10   19.05   0
  -5  -3   7  347.42   12.07   0
  -4   1   5  192.73   15.24   0
  -3   1   6 1016.06   23.60   0
  -2  -2   9  376.39   14.79   0
  -5  -2   7   64.26    8.71   0
  -4  -3   8   13.99    7.51   0
  -4  -2   8  432.48   15.30   0
  -6  -2   5  398.62   14.34   0
  -1  -1   8  840.10   18.96   0
  -1   0   7  418.95   14.03   0
  -5   0   5  491.55   18.96   0
  -3  -5   7  168.53    9.78   0
  -3  -1   8  349.67   15.69   0
  -5  -4   6   23.83    6.27   0
  -4   1   4  203.65   16.91   0
  -3   0   7  844.31   21.31   0
  -3   1   5 1547.99   28.46   0
  -4  -4   7  469.64   14.33   0
  -4  -1   7  209.84   13.79   0
  -3  -3   8  428.55   15.82   0
  -2  -5   7   35.39    8.67   0
   0  -2   7 1483.32   24.95   0
  -3  -2   8   37.50   10.29   0
   0  -3   7  403.91   16.28   0
  -5  -3   6  452.90   15.00   0
  -4  -5   6  289.07   11.25   0
  -2  -2   8  874.40   20.99   0
  -5   0   4  348.52   18.29   0
  -4  -3   7   63.08   10.58   0
  -4  -2   7  907.23   21.85   0
  -4   1   3  410.45   23.32   0
  -1  -1   7  715.12   17.38   0
  -6  -2   4  207.67   12.78   0
  -3   0   6  450.44   17.09   0
  -1  -4   7  230.63   14.43   0
  -7  -3   1  259.65   15.76   0
  -6  -1   3   93.27   14.64   0
  -3  -6   5  125.59    9.67   0
  -3  -4   7   97.58   10.57   0
  -2   0   6  854.82   19.99   0
  -4  -1   6  596.69   19.90   0
  -4   0   5  869.14   22.78   0
  -2  -6   5  253.99   14.47   0
  -2  -4   7  730.40   20.40   0
  -2  -1   7   94.89   10.55   0
  -5  -4   5  190.44   10.95   0
  -3  -5   6  284.53   13.10   0
  -3  -2   7  165.23   13.16   0
  -1  -3   7  560.69   18.01   0
  -5  -5   4  147.66    9.64   0
  -2  -5   6  100.33   11.15   0
  -6  -2   3  243.69   15.11   0
  -2  -3   7  303.79   15.09   0
  -2  -2   7  843.27   20.55   0
  -7  -3   0  297.87   19.52   0
  -6  -5   2   43.81    7.22   0
  -6  -1   2  184.47   18.49   0
  -4  -3   6  152.10   12.96   0
  -3   0   5  461.44   17.14   0
  -4  -1   5  282.29   15.29   0
  -2  -1   6  379.98   14.68   0
  -1  -4   6  205.51   14.11   0
  -7  -4  -1   31.02   11.79   0
  -6  -1   1  150.91   22.62   0
  -5  -6   2   87.22    8.21   0
  -5  -4   4  174.10   12.18   0
  -3  -2   6  243.03   13.96   0
  -2  -4   6  467.33   18.48   0
  -1  -5   5  715.10   21.95   0
  -6  -4   2  326.29   13.98   0
  -6  -2   2  323.00   17.66   0
  -5  -2   4  175.38   11.84   0
  -2  -6   4  322.29   14.71   0
  -1  -3   6  581.00   17.95   0
  -6  -5   1   29.89    7.48   0
  -5  -1   3  837.57   24.27   0
  -4   0   3 1391.87   28.41   0
  -2  -3   6  456.94   16.99   0
  -5   0   1   63.92   21.19   0
  -4  -7   1   39.46    8.67   0
  -4  -5   4  206.47   12.76   0
  -3  -1   5 1148.79   24.04   0
  -7  -4  -2  180.14   15.01   0
  -6  -6  -1  236.99   11.98   0
  -6  -1   0  190.97   22.79   0
  -3  -4   5  200.62   14.47   0
  -2  -1   5  213.55   11.64   0
  -7  -3  -2  659.88   27.95   0
  -6  -2   1  318.84   18.80   0
  -5  -4   3   95.49   11.59   0
  -6  -4   1  259.94   13.57   0
  -4  -4   4  488.98   18.11   0
  -3  -6   3  122.75   10.98   0
  -3  -2   5   96.23   11.03   0
  -6  -5   0   53.89    8.91   0
  -5  -5   2  502.72   17.08   0
  -5  -3   3  486.31   18.38   0
  -5  -1   2 1037.44   26.71   0
  -4  -2   4  930.92   23.02   0
  -4   0   2 1843.73   32.32   0
  -4  -6   2  460.19   15.43   0
  -4  -3   4   51.18   11.09   0
  -2  -6   3  381.20   15.68   0
  -2  -2   5  974.97   20.39   0
  -1  -5   4  938.78   24.04   0
  -1  -3   5 1779.15   27.64   0
  -2   5  12   39.41    8.85   0
   0   5   7  103.39   14.16   0
  -4   4   4  829.05   27.56   0
  -3   5   7  209.81   23.19   0
  -2   4  14  195.06    8.71   0
  -3   4   3  215.71   15.71   0
  -3   5   8  198.68   22.92   0
  -2   5   6   92.27   17.38   0
  -1   4   3  491.71   16.95   0
  -1   5  12  294.43   15.09   0
   0   4   4 1097.55   23.03   0
   0   5   8  226.99   17.92   0
   1   4   6  227.11   14.44   0
  -2   5  11   58.83   12.66   0
   0   5   9  117.52   16.65   0
   1   4  13  134.42   12.34   0
  -5   3   5  249.62   25.81   0
  -2   4   3  523.87   18.67   0
  -2   5   7   77.62   19.03   0
   0   4  14  369.20   13.49   0
  -5   3   8  528.23   29.34   0
  -2   5   8   74.40   17.94   0
  -2   5   9  121.15   18.93   0
  -1   5   8  615.63   27.83   0
  -1   5  10  290.65   20.88   0
   1   4   7  442.10   18.33   0
  -5   3   6  272.13   26.92   0
  -4   4   6  209.70   23.09   0
  -3   4  12   79.92    8.88   0
  -1   5   9  657.43   28.06   0
   1   4  12  145.65   13.22   0
  -4   4   7  501.34   30.20   0
  -4   4   8  472.26   28.74   0
  -2   4  13  302.45   12.31   0
  -1   4   4  749.33   21.28   0
   0   3  15   69.27    8.21   0
  -1   3  15  292.82   10.66   0
   1   4   8  213.45   15.51   0
   1   4  11  389.57   17.95   0
  -4   3   3   99.77   14.97   0
  -2   4   4 1183.69   28.08   0
   0   4  13  433.16   16.81   0
   1   4   9  138.37   14.24   0
   1   4  10   57.86   12.83   0
  -1   4  13   67.76   10.14   0
   0   4   6 1376.66   28.83   0
  -3   3  13  186.80    9.24   0
  -1   4   5   78.18   13.11   0
  -5   2   9   76.79   18.23   0
  -3   4   6   62.49   18.26   0
  -3   4  10   93.51   16.90   0
  -2   3  14  160.51    8.74   0
  -2   4   5  916.51   28.25   0
   0   4  12  306.66   17.72   0
  -4   3   4   88.28   16.85   0
  -1   4  12  124.10   13.93   0
   0   4   7 1217.14   29.21   0
  -3   4   8  144.31   22.89   0
  -2   4  11  205.01   17.12   0
  -5   2   8   81.29   21.26   0
  -2   4   6  581.25   26.42   0
  -4   3   5   17.75   17.77   0
  -3   3  12  357.44   14.21   0
  -2   4  10  223.60   20.78   0
  -1   2  15  189.40    9.38   0
  -1   4  11  524.38   23.02   0
   0   2  15  462.52   14.49   0
  -5   2   7   82.41   24.16   0
  -2   4   9  703.72   29.78   0
  -1   4   7  264.95   16.75   0
  -1   4  10   23.84   15.22   0
  -4   3   6  331.40   27.36   0
  -4   3   7  239.59   26.55   0
  -4   3   8   38.73   22.18   0
  -1   4   8  278.05   18.77   0
  -1   4   9  206.78   20.83   0
  -3   2  13   71.34    7.47   0
   0   3  13  108.11   12.54   0
   1   2  14   25.03   10.44   0
  -3   3  11  539.98   20.17   0
  -2   2  14  281.19   10.81   0
  -1   3  13  455.46   17.17   0
   1   3  11  408.22   19.08   0
  -2   3  12  199.59   14.54   0
   1   3   9  990.13   25.54   0
   1   3  10  981.14   26.02   0
  -4   2   3  878.31   28.70   0
  -5   1   8  471.86   28.11   0
  -3   3   9  626.76   30.45   0
  -1   2  14  102.33   10.31   0
  -1   3  12  303.09   17.87   0
   0   1  15  108.76    9.05   0
   0   2  14  506.60   16.52   0
  -3   2  12   57.04    9.43   0
  -3   3   8  708.27   33.90   0
  -2   3  11  213.47   17.49   0
   1   2  13  105.01   12.76   0
  -5   1   7  603.04   35.45   0
  -4   2   4 1047.36   33.80   0
  -3   1  13  241.56   10.50   0
  -2   2  13  443.39   15.59   0
  -5   0   9  137.69   14.97   0
  -2   1  14   46.41    7.12   0
  -2   3  10  280.73   21.67   0
  -1   3  11  753.50   26.12   0
  -4   2   8  402.62   31.20   0
  -2   3   6  440.38   23.59   0
  -4   2   5  844.57   36.08   0
  -4   2   6  236.34   29.05   0
  -4   2   7  524.54   34.47   0
  -3   2  11   88.69   13.70   0
  -2   3   7  391.45   25.02   0
  -1   2  13  176.95   13.98   0
  -1   3  10  503.60   24.75   0
   0   0  15  219.95   10.65   0
   0   2  13  528.11   19.38   0
   1   2  12   34.78   12.89   0
  -1   3   7  810.57   28.54   0
  -1   3   9  569.86   25.72   0
  -5   0   8  123.34   19.91   0
  -3   0  13  133.74    8.69   0
  -2   2  12  670.93   21.30   0
  -1   1  14  383.06   14.50   0
  -3   1  12  315.44   14.17   0
  -3   2  10  156.17   18.42   0
  -2   0  14  235.96   10.08   0
  -3  -1  13  211.02    9.75   0
   1   2  11  403.50   20.07   0
  -5   0   7  183.90   26.70   0
  -3   2   4  192.19   19.72   0
  -2  -1  14   54.65    6.81   0
  -3   2   9  213.27   22.05   0
   1   0  14  150.35   12.81   0
   1   2  10   70.01   14.53   0
  -4   4   6  251.51   22.62   0
  -2   1  12   62.27   11.20   0
  -7   2   2  169.51   29.30   0
  -7   2   4  175.72   23.41   0
  -6   2   8  360.51   13.38   0
  -6   3   2  379.14   31.56   0
  -6   3   5  194.97   24.83   0
  -3   4   5   89.39   18.02   0
  -3   4   6   66.24   17.31   0
  -7   2   3  171.97   25.77   0
  -5   3   8  487.62   18.23   0
   0   2   8  740.05   20.60   0
  -6   3   3  249.26   26.97   0
  -6   3   4  233.47   25.99   0
  -4   3   9   66.19   13.05   0
  -2   2  11  636.26   20.28   0
  -2   3   9  670.06   23.42   0
  -1   2  10  274.77   16.19   0
  -5   1  10  317.80   11.57   0
  -5   3   7  470.58   22.21   0
  -4   1  11  140.86   10.21   0
  -6   2   7  409.95   17.14   0
  -4   2  10  364.56   15.43   0
  -4   3   8   35.39   13.74   0
  -7   1   5  257.55   18.02   0
  -6   1   8   46.03    7.89   0
  -5   3   6  227.45   18.42   0
  -4   0  11  381.51   13.47   0
  -3   3   8  750.42   25.63   0
  -1   2   9  258.70   15.88   0
  -5   3   2  501.64   31.52   0
  -5   3   5  275.66   26.29   0
  -3   1  11  501.48   17.17   0
  -2   1  11  192.50   13.78   0
  -2   3   7  399.45   20.55   0
  -6   2   6  402.21   20.52   0
  -4   3   1  170.10   21.93   0
  -7   1   4  558.92   26.99   0
  -5   2   8   67.93    9.29   0
  -4   2   9  528.44   19.90   0
  -3   3   7  771.94   27.16   0
  -2   3   4  668.00   23.10   0
  -2   3   5  434.07   20.61   0
  -6   2   5  497.03   26.57   0
  -5   1   9  307.02   13.17   0
  -4   3   2  332.12   25.37   0
  -3   3   2 2128.23   42.28   0
  -7   1   3  479.41   33.70   0
  -3   0  11  120.09   11.42   0
  -3   3   6 1781.69   39.30   0
  -7   1   1  242.28   29.55   0
  -7   1   2  469.92   36.64   0
  -6   1   7   62.10   10.21   0
  -4   3   4   98.89   19.78   0
  -3   2   9  207.54   16.49   0
  -3   3   4 1281.52   35.16   0
  -3   3   5 1667.45   38.81   0
  -6   2   2  398.30   33.14   0
  -5   2   7   79.25   11.55   0
  -4   2   8  527.09   21.42   0
  -2   1  10   53.40   12.32   0
  -5   0   9  131.99   10.06   0
  -4   0  10  388.64   14.98   0
  -1   1   9  969.25   24.64   0
  -6   1   6  151.22   14.83   0
  -5   1   8  466.58   17.73   0
  -5   2   6  104.43   17.44   0
  -4  -2  10  392.79   14.69   0
  -3   2   8  106.44   14.42   0
  -7  -1   5  106.40   10.48   0
  -4   1   9  260.58   15.72   0
  -5   2   5  442.89   26.17   0
  -2   2   7 1256.32   28.74   0
  -3   0  10  201.52   14.13   0
  -2   0  10  153.13   15.74   0
  -2   1   9  400.12   18.57   0
  -7   0   3   57.97   19.56   0
  -5   2   1   85.95   24.59   0
  -1   1   8 1476.56   28.82   0
  -6  -1   7   48.70    8.22   0
  -5   2   2  168.60   26.20   0
  -2   2   6 1465.30   31.32   0
  -6  -2   7  230.89   10.43   0
  -6   0   6  372.02   17.31   0
  -6   1   4  126.52   22.58   0
  -5   0   8  118.62   11.90   0
  -4   0   9  447.95   17.88   0
  -4   1   8  157.21   15.16   0
  -4   2   0  807.84   33.80   0
  -3   2   6  151.43   16.29   0
  -7   0   0   43.66   26.80   0
  -7   0   1  156.52   28.54   0
  -4   2   5  879.93   30.91   0
  -2  -1  10  121.99   14.89   0
  -2   2   5 1948.90   36.25   0
  -1   0   9   51.41   12.29   0
  -6   1   0   65.36   29.79   0
  -5   1   6  377.62   19.75   0
  -4  -3   9   30.63    8.76   0
  -7  -2   4  127.68   10.80   0
  -6   1   1  139.65   29.07   0
  -6   1   2  182.51   28.95   0
  -3   1   8  425.47   19.29   0
  -3   0   9  560.35   20.28   0
  -3   2   4  164.34   16.86   0
  -5   0   7  189.16   14.88   0
  -3   2   3  277.94   19.92   0
  -2   0   9 1109.26   26.34   0
  -6  -3   6   66.38    7.69   0
  -5   1   5  350.08   22.60   0
  -4   0   8  609.81   21.57   0
  -7  -1   2  390.93   27.46   0
  -6  -2   6  189.66   11.38   0
  -3   1   7  547.36   20.98   0
  -5   1   4  879.62   33.25   0
  -4   1   6  931.84   27.59   0
  -7  -1  -1  466.12   37.75   0
  -7  -1   0  258.51   31.68   0
  -6  -1   5  128.44   14.26   0
  -5  -1   7  719.71   21.61   0
  -2  -1   9  162.29   14.51   0
  -6   0   3  675.62   33.98   0
  -4  -1   8  129.82   13.93   0
  -4   1   5  188.96   18.08   0
  -3  -2   9  445.52   18.02   0
  -3   1   6  996.34   27.15   0
  -2   0   8 1211.95   27.84   0
  -2   1   6  502.09   19.24   0
  -5  -2   7   70.23   10.53   0
  -5   1   0 1465.95   51.11   0
  -5   1   1  578.61   38.76   0
  -2   8   7  315.12   21.64   0
   2   6   1   94.96   14.82   0
   3   7   5  456.11   23.14   0
  -3   4  -1  123.23   13.01   0
  -3   6   1  216.65   16.14   0
  -3   7   4  322.69   20.54   0
   0   7   1   41.96   12.41   0
   2   5   0  151.31   15.07   0
  -3   7   5  367.34   25.35   0
  -3   7   7  320.21   27.96   0
  -2   6   0  514.51   18.87   0
  -1   8   4  193.22   16.57   0
   0   4  -2 1369.06   25.14   0
  -3   5   0  635.37   21.64   0
  -3   7   6  630.57   31.24   0
  -2   5  -1  532.41   18.08   0
  -2   7   2  223.50   16.54   0
  -1   4  -2  683.97   18.40   0
   0   8   4  252.42   17.74   0
   1   7   2  457.10   19.85   0
   2   8   7  393.23   17.47   0
   1   8   5  120.33   13.79   0
  -3   6   2  432.97   19.93   0
  -1   6   0  223.17   14.02   0
  -1   8   5  167.29   16.26   0
   0   5  -1  496.80   17.50   0
   0   6   0 1019.40   24.96   0
   2   8   8  247.47   13.69   0
  -2   7   3  194.08   16.70   0
  -1   5  -1  917.00   21.91   0
  -1   7   2  520.98   20.36   0
   0   7   2  158.48   15.00   0
   0   8   5   71.14   14.31   0
   1   4  -1  450.52   17.22   0
  -2   6   1  507.92   19.56   0
  -1   8   6   49.69   13.27   0
   1   8   6  101.73   13.48   0
   2   6   2 1053.83   27.36   0
   2   7   4  109.75   14.22   0
  -3   4   0  268.98   15.67   0
  -3   5   1  407.31   18.95   0
  -1   8   7  113.68   14.80   0
  -1   8   9  137.03   13.33   0
   1   7   3  537.21   21.18   0
  -3   6   3  173.29   16.81   0
  -1   8   8   65.90   12.22   0
   1   8   7   52.23   11.17   0
   2   5   1  239.28   16.38   0
  -2   7   4  127.52   16.29   0
  -1   7   3  410.27   19.60   0
  -1   6   1  154.87   10.73   0
   0   4  -1  373.29   14.74   0
   0   6   1 1242.32   26.42   0
   0   7   3  236.48   17.00   0
   0   8   7  211.27   16.28   0
   1   8   8   42.33   10.45   0
   1   8  10   25.84    8.22   0
  -3   6   4  260.23   19.05   0
  -2   6   2  562.08   20.84   0
   0   5   0   72.91   10.31   0
   0   8   8  132.66   14.11   0
   0   8   9  106.37   11.67   0
   1   8   9   45.71   10.23   0
   2   7   5  118.25   14.33   0
  -3   5   2  468.49   20.20   0
  -3   4   1  458.07   18.73   0
  -3   6   5  133.78   17.69   0
  -1   7   4  402.70   21.06   0
   1   6   2   24.41    9.49   0
   3   7   9  373.13   15.78   0
   3   7  10  228.65   14.30   0
  -2   7   9  127.40   15.75   0
   0   7   4  185.51   16.97   0
  -3   6   6   89.26   19.32   0
  -3   6   8  182.31   23.79   0
  -2   7   8  148.03   18.19   0
  -1   6   2  248.52   14.74   0
   0   6   2 1154.35   25.47   0
   2   5   2  528.79   19.57   0
  -1   7   5  341.33   20.71   0
   1   7   5  409.79   20.97   0
  -1   5   1 1249.21   23.41   0
   0   5   1  123.22   10.27   0
   0   7   5  133.08   16.78   0
   1   6   3  291.39   16.43   0
   2   6   4  485.22   20.51   0
   2   7   7  234.97   15.95   0
   3   5   4  343.05   21.55   0
   3   6   6   99.55   14.45   0
  -3   4   2  461.57   19.15   0
  -1   7   6  333.03   21.99   0
  -3   5   4  370.15   19.82   0
   2   7   8   79.63   12.65   0
  -1   7   7  300.24   22.17   0
   0   7   6  130.93   17.32   0
   2   7  12   94.52    9.32   0
  -2   4   1 1446.55   24.79   0
  -1   7   8  263.26   20.83   0
  -1   7   9  345.59   20.98   0
   0   7  12   30.31    7.48   0
   1   7   7  329.15   20.40   0
  -3   5   5  393.02   22.08   0
  -2   6  11  323.03   17.80   0
   0   7   7   50.57   15.48   0
   1   6   4  290.53   16.50   0
   2   6   5  452.69   19.75   0
   1   7   8  333.81   20.48   0
   1   7  12  128.88   10.02   0
   0   5   2  423.88   15.27   0
   0   6   4  877.23   25.33   0
   0   7   8  121.64   17.23   0
   0   7  11  116.15   12.27   0
   3   5   5  571.24   22.28   0
  -2   6  10  368.69   22.02   0
   0   7   9   44.51   14.91   0
   1   7   9  260.42   18.40   0
   1   7  10  309.57   17.43   0
   1   7  11  156.26   13.23   0
  -3   5   7  209.73   24.86   0
  -3   5   8  218.58   26.43   0
  -2   6   8  283.89   25.00   0
  -2   6   9  441.14   26.46   0
  -1   6   5   67.74   16.38   0
   2   6   6  265.59   18.68   0
   1   6   5  263.56   17.58   0
   3   6   9  215.65   17.20   0
  -3   4   4  215.96   17.90   0
   0   6   5  531.55   23.67   0
   1   5   3 1704.09   29.61   0
   2   5   4  215.87   15.59   0
   3   6  12   23.92   10.02   0
  -1   5   3  934.23   23.03   0
   3   6  10   80.07   12.75   0
   3   6  11   72.23   11.38   0
   0   5   3  367.81   15.41   0
   3   5   6  478.20   22.08   0
   1   6   6  240.75   19.39   0
   1   6  14  119.63    9.09   0
  -3   4   5   84.68   17.47   0
  -2   5   5  282.04   19.99   0
  -1   6   7  143.29   21.85   0
  -1   6  11  131.81   16.82   0
  -1   6   8  102.48   23.58   0
   0   6  13  287.84   13.51   0
  -3   4   6   65.76   21.63   0
  -2   4   3  436.10   16.91   0
  -1   6   9  224.05   26.01   0
  -1   6  10   25.70   19.02   0
   0   6   7 1014.74   36.13   0
   1   5   4 1119.74   27.83   0
  -6  -1   5  113.37   12.11   0
  -5   0   6  128.56   11.84   0
  -2  -5   7   32.21    7.94   0
  -2  -4   8  454.26   14.89   0
  -1  -1   8  801.17   18.17   0
  -3   1   6 1000.21   22.74   0
  -1  -3   8  738.27   19.50   0
   0  -3   7  436.24   16.37   0
   0  -2   7 1512.55   24.74   0
  -4   1   5  174.49   14.96   0
  -1  -2   8  315.75   14.02   0
  -6  -3   5  114.72    8.48   0
  -5  -5   5  118.01    7.91   0
  -5  -4   6   18.71    6.44   0
  -4  -4   7  478.73   13.98   0
  -3  -3   8  476.90   16.54   0
  -2  -1   8  346.52   14.44   0
  -6  -2   5  377.32   14.05   0
  -3  -6   5  115.38    9.42   0
  -3  -2   8   29.97    9.54   0
  -2  -3   8  398.26   15.75   0
  -2   0   7  759.48   19.23   0
  -1  -4   7  234.86   14.11   0
  -2  -2   8  908.77   21.45   0
  -6  -4   4  212.69   10.66   0
  -1  -1   7  732.04   17.93   0
  -7  -3   2  328.62   14.27   0
  -6  -1   4  177.32   14.53   0
  -5  -3   6  458.45   15.44   0
  -4  -2   7  879.56   22.33   0
  -4   1   4  181.49   16.49   0
  -4  -6   4  283.32   11.39   0
  -2  -5   6  101.22   10.99   0
  -3  -1   7  513.56   17.90   0
  -2  -1   7   85.14   10.44   0
  -6  -3   4  251.05   12.03   0
  -6  -2   4  224.13   13.18   0
  -5  -4   5  170.57   10.83   0
  -4  -4   6  198.24   12.52   0
  -3  -3   7  302.32   15.74   0
  -3   0   6  507.50   18.46   0
  -2   0   6  904.92   20.69   0
  -5  -5   4  158.23    9.77   0
  -5  -1   5  193.65   15.11   0
  -5   0   4  349.02   18.18   0
  -4  -5   5  231.06   11.84   0
  -3  -2   7  160.47   12.83   0
  -2  -3   7  332.91   15.75   0
  -4  -1   6  630.61   20.48   0
  -4   0   5  792.68   22.58   0
  -4   1   3  417.03   22.39   0
  -1  -5   5  703.09   22.26   0
  -1  -4   6  182.88   14.12   0
  -7  -2   1  234.14   17.49   0
  -6  -1   3  104.18   14.02   0
  -6  -5   2   44.93    7.05   0
  -6  -4   3  199.83   10.91   0
  -5  -6   2   97.66    9.49   0
  -3  -1   6  911.60   22.21   0
  -2  -4   6  473.46   18.66   0
  -1  -3   6  619.27   18.60   0
  -1  -2   6  711.53   17.95   0
  -4  -6   3  279.28   12.40   0
  -2  -1   6  338.27   13.97   0
  -7  -4   0   99.53   10.37   0
  -6  -3   3  125.57   11.00   0
  -6  -2   3  231.76   14.73   0
  -4  -4   5  157.83   13.02   0
  -3  -3   6  768.18   21.34   0
  -5  -1   4  715.77   22.20   0
  -4  -1   5  324.01   15.79   0
  -4   0   4 1368.54   27.73   0
  -2  -3   6  487.88   17.36   0
  -2  -2   6  581.15   17.60   0
  -6  -1   2  177.41   15.99   0
  -4  -5   4  167.39   12.07   0
  -7  -3   0  282.98   14.96   0
  -5  -3   4  284.28   15.26   0
  -4  -3   5  119.31   12.71   0
  -3  -7   1  368.33   15.88   0
  -1  -5   4  865.44   23.87   0
  -6  -5   1   38.37    7.77   0
  -5  -2   4  191.85   11.95   0
  -3  -4   5  213.31   14.28   0
  -3  -1   5 1130.89   23.20   0
  -3   0   4  562.93   18.00   0
  -2  -4   5  502.21   18.44   0
  -6  -3   2  226.08   13.54   0
  -6  -2   2  320.37   16.42   0
  -5  -6   1   33.80    7.72   0
  -5   0   2  305.22   17.62   0
  -4  -7   0   60.93    9.09   0
  -2  -5   4   32.22   10.67   0
  -1  -3   5 1747.17   27.37   0
  -7  -2  -1   80.70   16.22   0
  -5  -4   3   88.34   11.15   0
  -4  -4   4  490.53   18.30   0
  -3  -3   5  826.01   21.34   0
  -6  -1   1  116.90   15.46   0
  -5  -5   2  497.81   16.17   0
  -4  -1   4  130.99   12.89   0
  -2  -3   5  540.64   17.53   0
  -6  -5   0   53.15    8.62   0
  -6  -4   1  264.17   13.23   0
  -5  -3   3  500.56   18.56   0
  -4  -3   4   37.33   10.56   0
  -4  -2   4  918.65   22.57   0
  -7  -4  -2  200.51   12.89   0
  -3  -6   2   97.46   10.78   0
  -3  -4   4  279.60   14.71   0
  -1  -5   3  667.83   21.18   0
  -6  -3   1  146.71   12.71   0
  -5  -6   0  132.28    9.89   0
  -5   0   1   67.66   13.79   0
  -3  -1   4 1356.46   23.64   0
  -7  -3  -2  634.33   21.76   0
  -6  -1   0  198.07   17.36   0
  -4  -7  -1  184.60   11.28   0
  -5  -5   1  482.04   16.70   0
  -3  -3   4 1233.20   24.37   0
  -2  -5   3   92.91   11.60   0
  -1  -3   4 1283.31   23.20   0
  -6  -5  -1   41.80    8.71   0
  -4  -5   2  377.04   15.59   0
  -3  -2   4  232.16   12.54   0
  -7  -4  -3   74.35   11.07   0
  -7  -2  -3   55.03   20.34   0
  -5  -3   2  487.94   18.11   0
  -5  -2   2  196.69   14.39   0
  -2  -3   4  354.75   13.87   0
  -2  -2   4 2114.06   27.42   0
  -6  -6  -3  286.09   13.11   0
  -3  -7  -1  691.56   20.02   0
  -7  -3  -3  344.73   19.11   0
  -5  -6  -1  127.96   10.46   0
  -5   0   0  540.18   23.71   0
  -3  -6   1  139.85   11.64   0
  -3  -4   3  138.04   12.28   0
  -6  -1  -1   27.26   14.98   0
  -2  -6   1  426.64   16.64   0
  -1  -5   2 1071.82   24.92   0
  -4   5   3  278.62   21.50   0
  -3   5   2  508.55   22.88   0
  -5   4   3  180.24   20.25   0
  -3   6  10  100.77   14.64   0
  -2   6   5  555.90   29.72   0
   0   6   7 1012.43   33.60   0
  -4   5   4  210.56   22.63   0
  -3   6   7  294.79   28.25   0
  -3   6   9  189.51   21.35   0
   0   5   4  301.92   20.13   0
   0   6   8  550.25   27.65   0
   1   5   6  477.44   27.16   0
  -5   3   2  512.64   29.44   0
  -5   4   4  109.88   21.23   0
  -5   4   9  100.12   17.42   0
  -3   4   1  419.29   18.79   0
  -2   6   6  456.32   30.08   0
   0   6   9  404.92   25.75   0
   0   6  10  429.82   24.74   0
  -4   5   5  114.92   23.02   0
  -4   5  10  158.34   15.98   0
  -2   4   1 1453.62   29.28   0
  -5   4   5  338.73   28.24   0
  -5   4   8  128.04   23.12   0
  -2   6  10  326.59   23.03   0
  -4   5   6  362.08   30.30   0
  -4   5   9  136.23   21.52   0
  -2   6   8  270.54   27.49   0
  -2   6   9  399.30   27.74   0
  -1   6  10   20.48   18.18   0
  -4   3   1  179.74   16.88   0
  -4   5   7  519.66   34.43   0
  -4   5   8  201.81   26.25   0
  -3   5   4  409.08   25.91   0
  -3   5  12  319.95   14.00   0
  -5   3   3  458.10   26.81   0
  -3   4   2  470.16   20.83   0
  -2   5   4  185.09   19.73   0
   1   5   8  685.80   29.58   0
  -5   3   4  541.69   28.93   0
  -4   4  11  392.95   17.91   0
  -3   5  11  300.93   18.38   0
   0   5   6  227.77   21.02   0
  -5   3   9  423.05   26.04   0
  -4   4   4  870.18   33.07   0
  -3   5   6  773.26   35.70   0
  -2   5   5  195.34   23.08   0
  -5   3   5  274.46   27.30   0
  -3   5  10  248.19   22.65   0
  -1   5  13  307.79   15.66   0
  -5   3   8  452.83   32.45   0
  -3   4   3  250.31   19.28   0
  -3   5   7  201.16   23.58   0
  -3   5   8  207.54   28.87   0
  -3   5   9  339.09   31.06   0
  -2   5  12   24.26   10.80   0
  -5   2   3  135.58   20.16   0
  -5   3   7  448.82   33.88   0
  -4   2   1  686.58   24.15   0
  -4   4   5  790.78   35.37   0
  -4   4  10  437.07   23.88   0
  -2   5   6   88.00   20.78   0
  -1   4   3  605.23   21.63   0
   0   5  12   94.86   18.70   0
  -2   4   3  457.02   20.58   0
  -2   5  11   57.59   15.77   0
  -2   5   7   72.18   22.06   0
  -3   4   4  204.56   18.91   0
  -3   4  12   48.91   10.20   0
  -2   5  10  126.68   21.79   0
   0   5   9  137.60   21.17   0
   0   5  10  310.86   24.06   0
  -5   2   4  121.89   21.14   0
  -5   2   9   83.54   17.74   0
  -5   2   8   69.16   22.04   0
  -4   3  11   21.75   11.37   0
  -3   4   5   67.48   17.93   0
  -2   4   4 1080.25   29.76   0
  -1   4  14   45.64    9.14   0
  -5   2   6   61.86   25.15   0
  -5   2   7   97.22   26.73   0
  -4   2   2 1432.30   32.03   0
  -4   3   4  124.46   18.22   0
  -3   4  11  105.03   15.69   0
   0   4   5 1060.41   28.03   0
  -5   1   9  304.60   23.25   0
  -3   3  13  199.13   10.75   0
  -3   4   6   50.80   21.78   0
   1   4   7  409.94   22.72   0
  -4   3  10   42.85   16.43   0
  -3   3   3 2143.16   36.09   0
  -3   4   7  362.54   31.60   0
  -3   4   8  142.65   28.19   0
  -2   4  12  324.59   17.85   0
  -1   3  15  283.42   11.97   0
  -1   4   5   94.35   15.28   0
  -4   3   9   70.16   22.21   0
  -2   3  14  162.73    9.80   0
   0   4   6 1417.90   33.23   0
   0   4  13  466.98   19.58   0
   1   4   8  232.85   20.00   0
  -4   2   3  756.26   25.93   0
  -4   3   7  215.87   29.25   0
  -2   4   6  502.54   28.21   0
   0   3  15   75.27    9.97   0
  -5   1   6  346.16   35.93   0
  -2   4  11  222.95   20.93   0
   1   4  10   70.10   17.36   0
  -2   4   7  673.22   32.58   0
  -1   4   6  133.86   18.43   0
  -2   4   8  258.14   27.34   0
  -2   4   9  736.37   36.22   0
   0   4   7  863.33   27.76   0
  -4   2   4 1120.00   33.15   0
  -3   2  13   64.58    8.49   0
  -3   3  11  525.56   24.50   0
  -1   4   7  396.45   25.61   0
  -1   4  11  443.47   25.94   0
  -3   3   5 1725.28   41.35   0
  -2   3  13  163.39   12.37   0
   0   4  11  611.84   28.35   0
  -1   4  10   15.42   18.76   0
   0   4  10  545.80   29.84   0
  -4   1  11  117.48   13.65   0
  -4   2   5  870.24   35.87   0
  -3   3   6 1771.18   47.23   0
  -3   3  10  605.04   32.65   0
  -2   3   4  772.25   24.71   0
   0   3  14   86.34   12.65   0
  -4   2   6  209.52   30.01   0
  -3   3   7  767.88   38.95   0
  -3   3   9  589.97   37.12   0
  -1   5   2 1153.59   26.94   0
   0   6   3  895.34   32.45   0
   2  -1  -1 1147.02   12.24   0
   4   3   5  251.08   15.87   0
   0   2   3  442.24    9.13   0
   0   4   4 1031.98   20.70   0
   0   5   4  287.96   16.58   0
   1   5   5  818.71   24.54   0
   0   1   2  828.58    9.82   0
   1   3   5 1076.99   19.67   0
   3   4   6  146.52   14.65   0
   0   3   4  890.93   16.75   0
   2   4   6  894.78   23.08   0
   2   5   6  379.73   19.52   0
   2   2   5 1383.44   19.33   0
   3   1   4 1506.70   18.26   0
   4   4   6  652.88   27.99   0
  -1   4   3  434.22   14.71   0
   2   1   4  126.78    6.53   0
  -2   3   0  175.46    7.87   0
   4   3   6  232.01   17.40   0
   0   4   5 1061.83   22.93   0
   0   5   5  396.73   19.98   0
   1   4   6  243.32   14.06   0
   1   5   6  449.09   21.23   0
   3   4   7  346.83   19.59   0
   2   5   7  385.68   21.72   0
   0   2   4  903.69   15.08   0
  -2   4   1 1444.99   26.34   0
   0   3   5 1000.77   19.29   0
   3   2   6  297.55   12.79   0
  -1   4   4  697.04   18.75   0
  -1   5   4 1086.85   29.56   0
   2   3   7  261.18   14.06   0
   0   5   6  217.41   17.82   0
   4   3   7  392.89   21.82   0
   0   4   6 1369.67   27.42   0
   3   1   5 2146.58   23.58   0
   2   1   5  941.26   15.13   0
   2   4   8  503.19   21.53   0
   1   0   2 3985.83   18.92   0
   1   2   6  186.48   10.09   0
  -1   2   3 1136.55   16.48   0
   0   3   6  286.62   12.96   0
   3   2   7  757.85   19.19   0
  -1   5   5  782.82   27.16   0
   3   0   3  228.61    6.58   0
   4   1   5  173.68   10.28   0
   2   3   8   75.99   12.24   0
   4   3   8  452.73   24.73   0
   1   4   8  234.36   16.89   0
  -1   1   1 2051.37   15.26   0
   1   1   5 1039.34   15.97   0
   2   1   6 1154.55   18.08   0
  -1   5   6 1116.24   31.69   0
   0   1   4  760.00   13.22   0
   1   2   7  490.40   14.59   0
   1   3   8  860.44   21.98   0
  -2   4   3  407.86   17.56   0
   0   3   7  221.95   12.69   0
   3   2   8  305.97   14.59   0
   3   3   9 1117.40   29.71   0
  -1   2   4  943.41   16.65   0
  -1   4   6  116.44   12.40   0
   1   4   9  139.25   14.97   0
   4   1   6  347.51   14.62   0
   1   1   6 1679.72   21.24   0
  -2   3   3  270.41   13.11   0
  -2   4   4 1164.64   27.78   0
  -1   5   7  569.77   27.62   0
   1   3   9  916.94   23.73   0
  -1   4   7  361.22   17.70   0
   0   3   8  361.40   15.75   0
   1   2   8   31.82    6.24   0
  -1   2   5  173.19    9.81   0
   0   2   7  988.18   19.68   0
   0   4   9  623.19   23.33   0
   1   0   4 2239.02   19.77   0
   1   1   7 2178.31   25.64   0
  -2   3   4  604.66   17.16   0
  -2   4   5 1026.54   26.68   0
   0   0   1 2779.27   13.52   0
  -1   4   8  341.57   18.30   0
   1   2   9   31.82    9.53   0
   3   0   5  140.01    7.01   0
   3   1   8  500.67   15.29   0
   0   2   8  622.08   17.02   0
  -2   2   2 2639.16   25.37   0
   3   2  10  224.47   16.25   0
  -2   3   5  540.79   17.31   0
   1   0   5 1031.19   15.17   0
  -2   4   6  572.02   22.98   0
   2   0   6  500.82   11.70   0
  -2   2   3 1122.61   18.97   0
   0   1   7  288.30   11.35   0
   0   2   9  888.16   20.95   0
   0   3  10  281.96   16.33   0
   1   2  10   53.26   10.44   0
   3   1   9 1247.29   24.29   0
  -1   1   5 3436.40   31.14   0
   1   0   6 1565.46   19.79   0
   1   0  -1 2851.63   18.06   0
   2   0   7  969.36   16.58   0
  -1   2   8  663.47   18.26   0
   0   1   8  277.79   10.82   0
   3   0   7  373.37   11.08   0
   0   0   5 3276.80   26.88   0
   0   2  10  411.88   16.35   0
   2   1  10  107.64   10.89   0
   3   1  10  550.26   19.03   0
   0   0   6 2884.91   27.38   0
   1   1  10  790.26   19.71   0
  -2   2   6 1492.48   25.54   0
  -1   1   7 1346.99   22.54   0
  -1   2   9  261.16   13.98   0
   0   1   9  250.88   12.16   0
   3   0   8  202.11   11.08   0
   1   0   8  439.42   13.02   0
  -2   3   8  335.96   17.67   0
   2   1  11  264.35   15.29   0
   0   0   7 2963.73   29.69   0
  -2   2   7 1300.17   25.26   0
  -1   1   8 1550.69   25.23   0
   2   0   9  913.74   18.81   0
  -1   0   3  326.77    8.91   0
   3   0   9  408.78   15.54   0
   1   0   9  569.28   15.56   0
  -2   1   2 1084.63   13.72   0
  -1   0   2  910.61   11.46   0
   0   0   8 1803.65   24.89   0
  -1   0   6  140.37    9.32   0
   2   0  10  904.10   20.39   0
   0   0   9 1349.70   23.35   0
   1  -1   4 1856.09   16.76   0
   2  -1   5 1220.43   14.18   0
   3   0  10    0.32   10.14   0
  -2   2   9 1722.89   32.75   0
  -1   0   7  432.60   13.85   0
   2  -1   6  772.00   12.65   0
  -1   1  10 1044.66   23.86   0
   2  -1   4   62.89    4.03   0
   1  -1   3 2511.50   16.52   0
   2  -1   7  486.19   11.54   0
  -1   0   8   45.55    8.52   0
   0  -1   5  621.80   13.01   0
   0  -1   6   34.73    6.93   0
   2  -1   8  110.89    8.24   0
  -1   0   9   56.41    9.84   0
   0  -1   7  802.29   16.92   0
   1   0   0  427.05    4.42   0
   3   0   2 1005.77   11.43   0
  -3   2   6  144.57   15.13   0
  -2   1   9  401.00   17.93   0
  -3   2   3  309.90   10.21   0
  -2   0   4 2663.29   27.12   0
  -2   0   5 1123.74   20.30   0
   0  -1   8  383.59   13.60   0
   1  -1   9 1724.44   26.05   0
   2  -1   9  279.19   12.21   0
  -2   0   6  933.49   20.32   0
   3  -1   6  847.98   13.54   0
   3  -1   7  491.71   12.14   0
  -2   0   3 1060.67   15.61   0
  -2   0   7  769.98   20.29   0
  -1  -1   6 1356.80   22.01   0
   0  -1   9  310.70   13.87   0
   1  -1   2 3810.38   16.61   0
   1  -1  10  685.86   18.94   0
   2  -1  10  150.00   11.90   0
  -1  -1   7  707.69   17.64   0
   0  -1   2 2349.27   16.17   0
   3  -1   7  466.30   12.55   0
   0   1   6   10.55    5.66   0
   1  -1   3 2516.21   17.88   0
   2  -1   6  759.35   13.71   0
   2   1  10   90.64    9.56   0
   0   3   8  280.71   11.79   0
   0   4   8  509.29   18.30   0
  -1   3   4 1222.41   19.08   0
   0   0   4 5633.94   31.96   0
   1  -1   4 1876.73   17.77   0
   1   2  10   77.49    9.38   0
  -1   2   3 1294.34   15.79   0
   0   2   8  636.40   15.08   0
   3   0  10    9.33    6.39   0
   0   1   7  290.99   10.48   0
   2  -1   7  516.08   12.80   0
   3  -1   8  775.04   17.55   0
   0   3   9  291.11   13.39   0
   0   0   5 3000.85   25.72   0
   1  -1   5 1192.71   16.18   0
   0   2   9  866.38   18.99   0
  -1   3   6 1441.35   24.12   0
   0   0   6 2789.57   27.28   0
   0   1   8  277.28   10.24   0
   1  -1   6 2170.99   23.25   0
   2  -1   8  133.87    9.13   0
   3  -1   9 1110.13   22.84   0
   0   3  10  349.46   16.10   0
  -1   1   3 2859.83   22.26   0
  -1   3   7  713.21   19.49   0
   0   0   7 2887.71   29.80   0
   0   1   9  244.18   12.00   0
   0   2  10  371.04   14.85   0
   1  -1   7 1872.39   23.51   0
   2  -1   9  304.00   12.75   0
  -1   2   7 1098.39   20.95   0
   3  -1  10  272.13   16.71   0
  -1   1   2 3168.86   18.35   0
   0   0   8 1874.26   25.93   0
   1  -1   8 1122.97   20.10   0
   2  -2   5 1896.66   20.84   0
   0  -1   4 1170.69   16.11   0
   2  -2   3 1821.01   14.51   0
   2  -1  10  154.59   12.60   0
  -1   1   7 1342.54   22.93   0
   0  -1   3  731.99   11.65   0
   0  -1   5  661.88   13.96   0
   0   0   9 1345.39   23.74   0
  -1   2   9  245.78   13.63   0
  -1   0   4  121.50    7.70   0
  -1   1   8 1515.92   25.49   0
  -1   0   3  347.92    8.70   0
   0  -1   2 2355.29   16.60   0
   1  -2   4  532.02   11.46   0
   1  -2   5  272.24    9.71   0
   2  -1   0  566.04    8.40   0
   1  -2   6  223.79   10.09   0
   1  -2   7  102.33    8.99   0
  -1   0   8   34.85    9.14   0
  -1   1   1 1924.43   10.11   0
  -1   0   2  892.24   10.46   0
  -1   1  10 1022.63   23.90   0
   1  -2   3  205.51    6.37   0
   1  -2   8   57.20    9.57   0
  -2   2   5 1985.32   26.60   0
  -2   2   6 1423.02   26.14   0
  -2   2   7 1129.76   25.96   0
  -1  -1   5 2901.94   29.80   0
  -2   2   4 3212.32   27.25   0
  -2   3   6  421.53   18.91   0
  -2   3   7  419.75   22.93   0
  -2   2   8  829.23   25.08   0
  -2   3   5  554.96   16.95   0
   0  -2   5  550.50   12.89   0
   0  -2   4 1534.68   19.17   0
  -2   1   8  307.96   16.60   0
  -2   2   9 1829.18   37.08   0
  -1  -1   3 2008.84   19.62   0
   0  -1   1   51.16    2.91   0
  -2   0   5 1067.15   19.75   0
  -2   0   6  865.21   20.27   0
  -2   1   9  384.30   18.23   0
  -1  -1   9  680.74   20.42   0
   1  -2   2  908.20    8.94   0
  -2   2   3 1226.94   13.89   0
  -2   3   4  541.72   11.49   0
   0  -2   3  793.32   12.52   0
  -2   0   4 2600.08   25.36   0
  -1   0   1 2660.05   14.36   0
  -1  -1   2 1515.84   14.91   0
  -1  -2   6  713.05   18.16   0
  -1  -2   5  305.88   10.96   0
  -1  -2   7  765.02   20.44   0
   1  -3   6 1131.65   19.81   0
   1  -3   7 1050.00   21.70   0
  -2  -1   6  365.02   14.93   0
  -1  -2   4  510.94   13.16   0
  -1  -2   8  323.02   15.74   0
   1  -3   5  821.37   15.18   0
  -2  -1   7   79.25    9.09   0
   0  -2   2  860.57   10.75   0
  -2  -1   4  257.41   10.50   0
   0  -3   6  126.15   10.77   0
  -1  -2   3  817.59   14.49   0
   0  -3   7  449.48   16.71   0
  -2  -1   3  296.23    9.86   0
  -2   0   2  811.53   11.55   0
   0  -3   5  140.48    9.27   0
   0  -3   8  124.52   13.27   0
   0   1   0  579.97    4.85   0
   1   0   0  586.39    6.20   0
  -3   1   7  526.52   22.55   0
  -3   2   7  658.87   29.57   0
  -3   2   6  159.46   15.95   0
  -1  -1   1 3304.16   18.73   0
   0  -3   4  672.02   13.88   0
   2  -1   1  679.77    8.15   0
  -3   0   7  809.16   25.18   0
  -2  -2   6  571.15   19.06   0
  -2   2   2 2419.24   14.12   0
  -3   2   5  164.94   11.89   0
  -2  -2   5  960.40   20.98   0
  -1  -2   2  865.40   13.11   0
  -1  -3   7  532.48   19.24   0
  -3  -1   5 1113.96   24.09   0
  -3  -1   7  484.58   21.69   0
  -3   2   4  149.78    8.67   0
   0  -2   1  123.60    4.42   0
  -3  -1   4 1218.35   21.81   0
  -3   1   3  779.42   14.34   0
  -3  -1   3  660.43   15.27   0
  -2  -3   5  488.09   18.09   0
  -2  -3   6  452.14   18.98   0
  -2  -1   1  571.59   10.31   0
  -1  -2   1 2813.95   20.22   0
  -3  -2   5  109.11   12.66   0
  -2  -3   4  356.29   14.92   0
   0  -4   6  905.08   23.38   0
  -3  -2   4  246.28   13.40   0
  -1   0   0  537.88    5.50   0
  -3  -1   2 1932.60   23.18   0
  -3   2   3  281.69    9.02   0
  -3  -2   3   23.72    7.84   0
  -2  -3   3  577.38   16.38   0
  -1  -4   6  175.37   16.73   0
  -1  -1   0 2252.42   14.24   0
  -4   0   5  814.84   25.03   0
  -1  -4   5  195.11   14.49   0
  -4   1   5  195.24   18.04   0
  -2  -2   1 1298.82   16.62   0
   0  -4   4 1240.74   20.77   0
   0  -1   0  441.11    4.52   0
   1  -2   1   37.38    1.99   0
  -4   0   4 1357.18   26.75   0
  -1  -4   4  187.52   12.82   0
   1  -3   2 1408.42   12.62   0
  -3  -3   4 1288.26   28.98   0
  -2  -1   0  643.11   10.19   0
  -1  -3   1  965.87   15.14   0
  -3  -3   3 1053.20   25.10   0
  -2   0   0 2887.27   17.30   0
  -1  -4   3  141.58   10.38   0
  -1  -2   0 3447.61   21.87   0
   0  -4   3 1010.48   17.77   0
  -4  -2   4  844.34   25.91   0
  -2  -4   4  996.50   26.76   0
   0  -3   1  547.15   10.09   0
  -3  -2   1  593.49   15.15   0
  -2  -3   1  663.98   15.09   0
  -2  -2   0 3663.27   26.86   0
  -3  -3   2 1171.34   23.77   0
   1  -4  -1  325.60    8.19   0
  -1  -5   2  971.34   28.20   0
  -2  -2   1 1394.75   19.02   0
  -2  -4   2 1055.34   25.00   0
  -2   1   7  142.06   19.99   0
  -1  -5   1  624.17   21.42   0
  -2   1   6  467.17   17.97   0
  -1   2   6  369.54    9.67   0
  -3  -1   6  918.87   31.88   0
  -2   0   2  806.66   12.16   0
  -1  -2  -1 1182.87   11.87   0
   1   0   0  452.46    5.87   0
  -3  -2   3   21.79    9.20   0
  -3  -1   7  534.14   29.31   0
  -2  -3   0  517.30   13.34   0
  -2  -2   0 3217.69   25.72   0
  -3  -3   3 1073.50   25.82   0
  -1  -5   0 1173.86   24.26   0
  -1  -4  -1   90.11    7.57   0
  -3  -3   2 1596.68   27.55   0
  -3  -2   2  347.00   13.39   0
  -3  -1   3  664.39   18.23   0
  -2  -4   0  920.52   20.21   0
  -2   1   4  648.46   12.50   0
  -3   0   6  488.89   26.39   0
  -3   0   5  465.30   20.73   0
  -2  -5   1  252.20   18.05   0
  -3  -4   2  186.56   14.99   0
  -3  -3   1 1609.23   26.05   0
  -3  -1   2 2091.82   26.44   0
  -2  -1   0  651.26   10.39   0
  -3   0   4  588.01   17.76   0
  -2  -3  -1  706.88   13.66   0
  -3  -4   1  489.88   18.87   0
  -2  -5   0  165.66   14.79   0
  -2  -2  -1 2914.36   22.60   0
  -2   0   1  684.98    9.71   0
  -1  -1  -1 3829.73   17.16   0
  -3  -1   1  795.17   16.39   0
  -4  -2   4  868.21   32.34   0
  -4  -2   3  990.29   29.23   0
  -1   0   0  595.53    6.06   0
  -4  -1   5  309.30   28.09   0
  -4  -3   2  196.37   15.65   0
  -4  -2   2 1213.29   28.37   0
  -3  -3  -1 2344.84   29.02   0
   0  -4  -2 1355.36   14.67   0
  -4  -3   1   30.16   11.05   0
  -3   1   5 1586.46   32.81   0
  -2  -1  -1  844.05   11.20   0
  -1  -2  -2 1638.48   13.68   0
  -4  -2   1  719.51   21.74   0
  -3  -2  -1   72.50    7.85   0
  -2  -4  -2 2485.59   28.49   0
  -4  -1   2  380.03   17.31   0
  -4  -2   0  930.64   23.08   0
  -2  -5  -2  528.08   19.52   0
  -4   0   3 1442.38   30.97   0
  -3  -1  -1 1734.48   19.97   0
  -3   1   3  756.62   17.78   0
   1  -2  -1  866.75    7.57   0
   1   0   1  358.29    6.29   0
  -4  -1   0 1081.18   22.79   0
  -4   0   2 1702.87   29.57   0
  -2  -4  -3  755.89   17.68   0
  -2  -3  -3  338.32   10.67   0
  -4  -3  -2  162.98   13.73   0
  -1  -3  -3 1410.14   15.97   0
  -5  -1   2 1028.15   37.36   0
  -3  -2  -3  177.55    9.72   0
   1  -1   0 2902.01   16.24   0
  -4  -4  -3  696.68   25.09   0
  -4  -3  -3  268.66   15.28   0
  -3   0  -1  362.40   10.34   0
  -5  -1   0 1106.37   31.47   0
  -5   0   3  212.36   31.13   0
  -4   1   3  391.81   21.38   0
  -3   1   1  451.77   12.91   0
  -5   0   2  319.51   25.29   0
  -1   1   1 1929.62   10.94   0
  -5  -2  -2  349.81   19.56   0
  -4   1   2  469.10   19.40   0
  -2  -3  -4  177.09    9.14   0
  -5   0   1   77.80   17.56   0
  -4   0  -1 1686.02   25.56   0
   1  -3  -1 1295.33   14.65   0
  -4   1   1  379.82   16.99   0
  -5  -2  -3  314.04   17.76   0
  -5  -1  -2 1048.47   27.34   0
  -4  -1  -3  579.32   15.73   0
  -1   4   0  538.41   17.69   0
   0   2   2  168.44    7.44   0
   2   2   4 2955.47   26.40   0
   1   5   3 1719.66   32.96   0
   2   5   4  220.19   16.37   0
   3   3   5 2590.34   30.92   0
   1   3   4 1237.60   18.72   0
   1   4   4  253.53   10.82   0
   4   4   5  522.96   22.72   0
  -1   5   0 1173.14   32.20   0
   2   4   5  899.64   20.53   0
   0   3   3  734.48   13.88   0
   2   3   5  134.84    8.81   0
   3   1   4 1389.27   14.74   0
   1   1   3 1670.65   13.55   0
   3   2   5  237.60    9.28   0
   1   2   4  581.08   10.98   0
   4   2   5  574.85   16.37   0
  -1   5   1 1052.75   28.14   0
  -2   4  -2 1294.38   30.69   0
   3   4   6  160.20   13.16   0
  -1   2   1  804.76   11.14   0
   0   2   3  605.74   10.71   0
   4   4   6  668.81   26.01   0
   1   3   5  870.52   16.75   0
   1   5   5  749.02   22.34   0
   4   3   6  216.35   15.46   0
   0   5   4  258.18   15.52   0
  -2   4  -1  929.58   26.38   0
   1   4   6  238.73   13.28   0
   1   5   6  424.21   19.75   0
   1   2   5  246.58    9.43   0
   3   2   6  266.41   11.16   0
  -1   5   3  832.23   26.65   0
   0   5   5  367.90   19.12   0
   2   4   7  805.86   23.82   0
   2   5   7  451.52   22.35   0
   1   3   6  674.46   17.39   0
   3   3   7  895.16   23.08   0
  -1   2   2 1475.23   18.13   0
  -1   3   3 1223.92   20.17   0
   0   2   4  949.22   15.80   0
   1   1   4 2527.61   20.82   0
  -2   3   0  181.70   10.47   0
  -1   4   4  753.99   21.18   0
  -1   5   4 1171.94   32.32   0
  -2   2  -2 4317.26   23.73   0
   0   5   6  221.47   18.38   0
  -2   5   1  210.33   29.44   0
   1   0   2 4061.03   16.47   0
  -1   3   4 1233.20   23.01   0
   1   2   6  175.96   10.42   0
  -2   3   1  499.44   16.57   0
  -2   4   2 1304.80   30.79   0
  -2   5   2  622.68   34.97   0
   0   3   6  307.83   14.51   0
   2   0   3  876.99    8.57   0
  -1   4   5   95.91   13.09   0
   0   5   7  116.96   17.35   0
   2   2   7 1165.24   21.89   0
  -2   2  -1 1968.14   21.24   0
  -2   1  -9  298.05   41.43   0
   0   1   0  576.44    8.00   0
   3   4  -1  429.71   28.57   0
  -1   3  -8  817.78   55.99   0
   2   4  -1  814.10   29.72   0
  -2   1  -6  611.69   26.89   0
  -1   3  -5  844.18   39.47   0
   0   4  -6  779.70   57.81   0
   1   2   1 1067.36   14.51   0
   2   3   1  700.33   17.42   0
  -2   0  -5  878.20   17.11   0
   0   3  -1  698.88   20.77   0
   3   4   0  636.04   30.52   0
  -2   1  -5  984.58   26.46   0
  -2   2  -7 1829.22   67.38   0
  -2   2  -6 1521.90   54.16   0
   2   2   2 3529.92   23.43   0
  -1   3  -3 1574.80   37.34   0
   0   4  -2 1374.62   37.96   0
  -1   4  -6  236.17   53.20   0
   2   5  -2  184.64   37.26   0
  -1   3  -2 1173.75   27.04   0
  -1   4  -4  424.23   32.52   0
  -2   3  -6  359.35   44.25   0
   0   4  -1  395.33   21.09   0
   0   5  -4  269.50   44.28   0
   2   4   1  739.00   24.38   0
   3   3   2 2714.38   29.84   0
  -1   2  -1   95.53    8.66   0
   0   5  -3  310.18   34.78   0
   0  -1  -1  370.34    6.88   0
  -1   3  -1 2137.72   29.97   0
   2   5   0  178.59   23.85   0
  -2   2  -3 1961.56   28.72   0
  -1   4  -2  538.48   21.32   0
   0   4   0 2729.81   36.39   0
  -2   4  -6  687.56   59.13   0
  -1   5  -4  387.31   40.44   0
   0   2   1 3048.28   22.71   0
   1   5   0 1111.03   31.82   0
  -2   3  -3   52.03   13.07   0
  -2   4  -4 1518.11   49.82   0
  -1   5  -3  775.12   38.77   0
   2   5   1  234.10   20.48   0
  -3   1  -7  480.66   24.84   0
  -1   2   0  559.78   11.55   0
  -1   3   0 2144.08   26.42   0
  -1   5  -2 1059.48   36.30   0
  -2   2  -2 4739.84   36.81   0
  -2   3  -2  675.21   19.54   0
   0   4   1 3289.06   36.59   0
   0   5   0   51.38   15.13   0
   1   5   1 1217.09   30.45   0
  -3   3  -7  721.06   54.15   0
  -1  -1  -3 1058.95    8.58   0
   1   4   2  161.35   10.90   0
  -3   1  -6  805.97   25.06   0
  -3   2  -5  147.43   16.92   0
  -1   5  -1  908.35   32.79   0
   0   1   1  328.40    6.01   0
   1   5   2 1516.03   37.91   0
  -2   2  -1 2308.47   30.27   0
  -1   1   0 2931.70   23.18   0
  -3  -2  -4  500.64   16.45   0
  -2  -1  -4  108.84    8.92   0
  -1  -4 -10   71.90   13.28   0
   0  -4 -10  549.96   23.91   0
  -4  -4  -4 1109.17   37.27   0
  -4  -4  -3  655.67   30.98   0
  -3  -2  -5  233.65   13.05   0
  -3  -2   0  453.52   13.80   0
   0  -2  -8  559.97   14.33   0
   0  -1  -6   14.79    5.48   0
   0   0  -1 3370.30   13.20   0
  -4  -4  -5  506.15   27.75   0
  -2  -4 -10  580.92   21.72   0
  -3  -2  -6  245.49   13.79   0
  -2  -1  -5  866.33   18.25   0
  -4  -3  -4  444.74   27.10   0
  -4  -3  -5  248.86   22.58   0
  -4  -3  -3  251.57   23.21   0
  -1  -3 -10  942.15   24.77   0
   0   0  -2 3396.13   18.54   0
   1  -1  -6 1964.06   21.05   0
  -2  -3 -10   16.10   11.31   0
  -2  -1  -6 1197.42   22.89   0
  -1  -2  -9   34.45    9.02   0
   0  -3 -10  342.61   19.40   0
   0  -1  -7  278.00   12.22   0
   0  -2  -9  847.24   20.98   0
  -3  -2  -8  291.81   16.37   0
   0   0  -3 5448.92   28.74   0
  -2  -1  -7  571.63   18.58   0
  -3  -1  -2 1774.08   29.87   0
  -1   0  -3  609.58   12.59   0
  -4  -2  -4 1427.11   41.32   0
  -1  -3 -11  434.04   23.24   0
  -4  -2  -3  967.46   33.52   0
  -1   0  -4 2453.94   27.02   0
  -3  -1  -6  588.66   20.54   0
   0   0  -4 5103.46   32.17   0
  -4  -2  -7  650.01   27.35   0
  -3  -1  -1 2152.77   25.82   0
  -2  -1  -8  336.51   16.62   0
  -4  -2  -2 1230.86   30.65   0
  -3  -1  -7  689.30   24.15   0
  -1   0  -5 1016.35   20.03   0
   0  -1  -8  392.91   14.96   0
  -1   0  -6 1527.58   25.88   0
  -5  -3  -7  282.74   36.28   0
  -2  -2 -11  769.91   26.92   0
  -1  -2 -11  377.13   22.18   0
  -4  -1  -6  337.85   25.02   0
  -3  -1  -9 1376.92   33.90   0
  -1   0   0  522.05    6.14   0
  -4  -2 -10  265.11   22.21   0
  -2   0  -1  750.69   12.41   0
   0  -1  -9  201.65   14.94   0
  -3  -1   0  804.24   12.21   0
  -2   0  -7 1215.70   28.70   0
  -1  -1 -10  800.67   25.89   0
  -5  -2  -7  251.83   28.69   0
  -3   0  -6  503.39   24.30   0
  -3   0  -3  234.38   15.16   0
  -5  -2  -8  263.23   30.75   0
  -4  -1  -9  129.61   20.64   0
  -4  -1  -2  290.79   14.88   0
  -2   0  -8  911.51   27.06   0
  -1   0  -8  415.32   18.41   0
  -2  -1 -11  261.53   21.32   0
  -4  -1 -10   19.65   17.11   0
   1   0  -4   94.66    4.50   0
  -5  -1  -7  677.70   42.85   0
  -1  -1 -11  153.54   20.50   0
  -4   0  -5  909.58   32.11   0
  -3   0  -9  420.44   25.39   0
  -1   0  -9  530.31   21.47   0
  -4  -1  -1  543.78   14.57   0
  -4   0  -8 1207.55   42.25   0
  -3   0  -1  339.58   10.53   0
  -5  -1  -4 1048.24   39.67   0
  -3   0 -10   -0.64   16.92   0
  -2   0 -10 1048.90   32.21   0
  -2   1  -5 1194.10   27.13   0
   1   0  -5   18.30    4.32   0
  -4   0  -9  514.90   30.53   0
  -2   1  -6  939.52   26.65   0
  -1   1  -5 1164.05   22.97   0
  -1   1  -4 2160.78   27.05   0
  -2   1  -3  526.62   15.46   0
  -3   1  -5 1595.54   36.45   0
  -2   1  -7  550.62   23.43   0
  -1   0 -10  569.37   24.48   0
  -1   1  -6 2258.17   32.98   0
  -5  -1  -3 1052.81   31.01   0
  -3   1  -4 2258.68   37.87   0
  -3   0 -11  117.06   20.33   0
  -2   0 -11  598.70   29.16   0
  -5   0  -6  298.44   34.27   0
  -4   0  -2 2132.41   28.14   0
  -2   1  -8  128.79   17.64   0
  -2   1  -2 1914.49   22.02   0
   1   0  -6  131.47    8.17   0
  -5   0  -5   62.75   24.99   0
  -4   1  -7  384.79   30.74   0
  -4   1  -5  367.47   25.21   0
  -3   1  -9 1217.33   38.68   0
  -2   1  -9  290.20   21.90   0
  -5   0  -4  321.85   24.31   0
  -4   1  -8  192.59   26.71   0
  -4   1  -9   42.07   21.98   0
  -3   0   0 1127.59   13.22   0
   0   1  -3  631.39   10.61   0
  -2   1 -10  121.63   20.03   0
  -4   0  -1 1664.37   21.80   0
  -4   1  -3  480.28   17.83   0
  -1   1  -1 8660.32   33.23   0
  -5   1  -6  651.58   40.30   0
  -2   2  -6 1288.01   31.30   0
  -5   1  -5 1940.35   51.21   0
  -3   2  -7  385.91   24.86   0
  -3   2  -5  151.09   17.34   0
  -2   1 -11  288.00   25.93   0
  -2   2  -4 3652.79   40.49   0
  -4   1  -2  344.28   12.99   0
  -3   2  -4  919.42   24.79   0
  -1   1 -10  570.95   25.94   0
  -5   1  -4 1121.22   33.74   0
  -4   2  -6  732.43   35.85   0
  -1   2  -5  252.53   13.33   0
  -4   2  -8  355.85   31.01   0
  -3   2  -9  280.46   25.77   0
  -1   2  -4  478.19   14.67   0
  -2   2  -9 1249.30   36.32   0
  -1   2  -7   91.55   12.40   0
  -2   1   0  578.83    9.32   0
  -1   2  -3  287.67   10.81   0
  -5   1  -3 1057.30   26.88   0
  -3   2  -2  574.63   15.16   0
  -1   2  -8   38.68   12.67   0
  -4   1  -1  532.34   14.07   0
  -2   0   1  705.51    6.02   0
  -1   2  -2 1008.61   15.34   0
  -5   2  -5   50.73   17.10   0
  -3   1   0 1623.02   17.15   0
  -1   1   0 3147.65   16.91   0
  -1   2  -9   51.90   18.69   0
  -4   0   0 1200.57   15.96   0
  -5   2  -4  219.56   20.47   0
  -3   3  -7  748.35   33.49   0
  -3   3  -6  923.05   33.16   0
  -3   3  -5 1373.88   34.38   0
   0   1  -1   39.39    3.12   0
  -2   3  -6  339.97   20.21   0
  -2   3  -5  567.24   21.89   0
   0   2  -6  788.07   18.50   0
  -4   3  -6  397.64   29.96   0
  -5   2  -3  419.91   20.48   0
  -2   3  -8   14.73   13.01   0
  -2   3  -3   49.85   10.18   0
  -1   2  -1  105.50    6.41   0
  -2   3  -9  187.41   23.02   0
  -1   3  -6 1104.07   25.26   0
  -4   2  -1 1366.23   22.04   0
  -1   3  -4  737.04   18.44   0
  -4   1   0  864.83   15.10   0
  -3   3  -2 1597.84   26.82   0
  -2   3  -2  677.26   16.77   0
   1   1  -5 2204.55   19.64   0
  -3   0   1  925.16    8.38   0
  -1   3  -3 1765.65   24.89   0
   0   2  -2  767.92   11.37   0
   1   1  -6 1230.13   18.16   0
   1   1  -4 1533.23   14.18   0
  -5   3  -4  478.64   28.07   0
  -3   4  -6  280.12   25.47   0
  -3   3  -1 2829.78   32.47   0
  -3   4  -7  153.35   24.98   0
  -3   4  -5  128.40   20.78   0
  -3   1   1  416.62    8.64   0
  -3   4  -4  316.50   21.73   0
  -2   4  -5  466.50   24.62   0
  -2   4  -7  563.88   29.26   0
  -2   4  -4 1433.84   33.17   0
  -4   2   0  846.07   17.33   0
  -4   4  -4  751.35   32.43   0
  -3   4  -3  301.26   19.04   0
   0   2  -1   92.44    4.53   0
  -2  -5  -1  259.35   15.25   0
  -2  -2  -1 2954.98   24.45   0
   1  -4  -3  544.83   13.40   0
  -2  -4  -2 2418.31   30.38   0
  -1  -4  -3  917.76   17.43   0
   0  -5  -3  337.76   13.82   0
  -2  -3  -2  500.33   12.61   0
  -3  -2   1  426.27   13.73   0
  -2  -5  -2  566.62   19.49   0
  -1  -5  -3 1664.91   27.55   0
  -1  -3  -3 1788.13   19.91   0
  -2  -6  -1  122.72   15.54   0
  -3  -5   0  307.31   17.82   0
   0  -6  -3  969.42   27.38   0
  -3  -3  -1 2222.88   29.46   0
  -3  -1   3  623.07   18.32   0
  -2  -4  -3  715.25   17.76   0
  -3  -5  -1  435.26   19.46   0
  -2  -5  -3  199.33   13.76   0
  -2  -2  -2 3776.20   26.73   0
  -2  -3  -3  299.16   10.18   0
   0  -4  -4 1023.35   17.98   0
  -3  -4  -2  337.55   15.29   0
  -2   0   2  732.33    9.21   0
  -1  -4  -4  265.97   10.11   0
   0  -2  -3  367.14    6.78   0
  -3  -5  -2  496.32   20.50   0
  -3  -3  -2 2670.65   31.70   0
  -1  -3  -4 1301.08   17.57   0
   0  -3  -4  827.32   13.44   0
  -4  -4   1  577.01   28.59   0
  -3  -1   1  714.71   15.90   0
   0  -1  -2  767.11    7.29   0
  -4  -3   0  353.09   19.25   0
  -2  -6  -4  427.20   20.70   0
  -2  -3  -4  198.43    9.12   0
  -4  -4  -1  471.88   21.49   0
  -3  -2  -2  609.81   14.08   0
  -1  -5  -5  851.89   21.58   0
  -3  -5  -4  313.21   17.17   0
  -3  -4  -4  372.60   15.00   0
  -3  -1   0  725.19   14.37   0
   0  -4  -5 1052.30   19.11   0
  -2  -4  -5  872.11   19.52   0
  -1   0   0  494.43    5.68   0
   1  -2  -3 1122.16   10.36   0
  -2  -1  -2  727.01   11.11   0
   1  -3  -4 1331.61   15.96   0
  -2   0   1  919.86   10.92   0
  -1  -3  -5 1014.34   16.48   0
  -1  -2  -4  566.59   10.21   0
  -4  -4  -3  609.93   22.56   0
  -4  -2   0  701.24   22.75   0
  -3  -5  -5  556.88   20.77   0
  -2  -3  -5  143.03    8.71   0
  -2  -2  -4 3310.17   25.98   0
  -1  -5  -6  534.96   19.24   0
   0  -3  -5  951.49   15.20   0
  -4  -4  -4 1122.81   28.58   0
  -2  -4  -6  898.73   20.47   0
  -1  -6  -6  225.69   19.99   0
  -1  -4  -6  209.92   11.40   0
  -4  -2  -2 1134.96   23.37   0
  -3  -5  -6  546.52   20.65   0
  -1  -1  -3 1219.82   12.53   0
  -3  -2  -4  635.73   14.62   0
  -3  -1  -2 1854.68   22.31   0
  -2  -1  -3 1017.36   13.91   0
   1  -4  -5   82.72    9.08   0
  -3  -4  -6  137.60   12.21   0
  -4  -4  -5  478.46   20.83   0
  -2  -3  -6  551.30   14.51   0
  -2  -5  -7  505.55   20.30   0
  -2  -2  -5 1814.84   20.77   0
  -1  -2  -5  255.58    8.31   0
  -4  -1   1  209.86   18.34   0
  -5  -3  -2  410.67   27.72   0
  -4  -1   0 1051.00   27.33   0
  -3  -2  -5  255.14   10.85   0
  -3  -1  -3  646.58   14.65   0
  -1  -4  -7  458.02   16.06   0
   0  -1  -3  827.05    9.47   0
  -3  -4  -7  317.22   16.11   0
  -5  -3  -3  331.96   22.59   0
  -2  -1  -4  109.89    6.89   0
  -1   0  -1  420.08    7.07   0
   0  -3  -6  310.06   11.63   0
  -2  -3  -7  250.69   11.94   0
  -2   0  -1  667.13   11.50   0
  -1  -1  -4 2383.85   20.12   0
  -5  -3  -4  220.09   19.68   0
  -2  -5  -8   86.47   12.04   0
   0  -2  -5  988.86   14.03   0
  -5  -2  -1  415.98   32.05   0
  -3  -1  -4 1503.65   21.80   0
  -5  -2  -2  319.73   25.25   0
  -4  -2  -5  433.00   16.55   0
  -3  -2  -6  241.68   11.28   0
  -2  -4  -8  480.72   19.07   0
  -1  -3  -7 1585.76   24.11   0
  -3   0   1  823.25   15.79   0
   0  -4  -7 1212.79   25.03   0
  -5  -2  -3  291.00   21.71   0
  -4  -1  -3  511.28   17.64   0
  -3   0   0 1129.35   19.39   0
  -4  -4  -8  366.05   19.64   0
  -3   0   2 1561.61   16.23   0
  -2  -1  -5  787.05   14.95   0
  -2   0  -2 2398.33   22.66   0
  -5  -2  -4  296.92   19.64   0
  -3  -3  -8  749.49   21.26   0
  -3  -1  -5 2059.92   26.86   0
  -3   0  -1  274.90   11.56   0
   1  -2  -4  972.05   11.24   0
  -3  -2  -7  656.47   17.46   0
  -2  -2  -7 1193.41   20.75   0
  -1  -1  -5  947.46   15.11   0
  -1   0  -2 4259.45   24.75   0
  -5  -2  -5   80.70   15.37   0
  -2  -4  -9  864.84   26.48   0
  -1  -3  -8  912.50   21.86   0
   0  -3  -7  202.82   11.38   0
   0  -1  -4  571.71    9.84   0
  -2   0  -3  895.40   15.97   0
  -3  -1  -6  798.00   18.91   0
   0  -2  -6 1115.73   17.39   0
  -5  -1  -2 1003.51   37.94   0
  -3   0  -3  208.28   12.18   0
  -2  -3  -9  296.55   16.91   0
  -5  -1  -4  873.21   31.63   0
  -4  -2  -8  558.18   20.78   0
  -4  -1  -6  253.83   15.61   0
  -3   0  -4 1360.30   25.03   0
  -2   0  -4 1730.07   23.60   0
  -4   0  -2 2407.22   39.78   0
  -4   0  -1 1291.71   29.17   0
  -5  -1  -5 1689.42   40.99   0
  -4   0   0 1117.71   25.46   0
  -2  -1  -7  565.24   16.71   0
  -4  -1  -7  264.34   16.66   0
  -1  -3  -9 1086.91   27.50   0
  -1  -2  -8   64.81   10.21   0
  -5  -1  -6  883.45   32.27   0
  -4   0  -4 2237.57   39.94   0
  -3   0  -5   83.84    9.62   0
  -2  -3 -10    8.66   14.54   0
  -2   0  -5 1042.35   20.70   0
  -1   0  -4 2037.46   22.52   0
  -4  -1  -8  334.16   19.70   0
  -3   0  -6  428.98   18.61   0
   0   0  -1 3519.67   13.90   0
  -4  -2 -10  302.70   20.62   0
  -3  -2 -10  190.45   17.54   0
  -4   0  -6 1720.43   37.72   0
  -3  -1  -9 1429.16   31.98   0
  -1  -2  -9   35.82   12.72   0
  -5   0  -3  519.62   34.66   0
  -4  -1  -9  124.74   16.98   0
  -2  -2 -10 1061.27   30.72   0
  -2  -3 -11   51.72   21.37   0
   0   0  -2 3308.89   18.57   0
  -4   0  -7 1231.76   34.52   0
  -2  -1  -9  457.94   20.18   0
  -2   0  -7 1126.77   26.32   0
  -5   0  -6  307.16   29.93   0
   0  -2  -8  742.38   21.63   0
  -4  -1 -10    6.25   15.30   0
  -3  -1 -10  575.74   26.37   0
  -3   0  -8  185.51   17.85   0
  -3   1  -2 1082.04   23.87   0
   0   0  -3 5330.08   29.30   0
  -4   0  -8 1253.56   37.59   0
  -3   1  -4 2219.88   39.25   0
  -2   1  -2 1708.46   24.32   0
  -3   1  -1 2541.76   29.94   0
  -1  -2 -10   83.94   22.18   0
  -3   1  -5 1625.75   36.79   0
  -2   1  -4   73.97   12.96   0
  -4   1  -4   93.89   20.30   0
  -4   1  -3  577.71   26.95   0
  -4   0  -9  722.93   32.75   0
  -3   0  -9  468.36   25.49   0
  -1  -1  -9 1458.22   33.40   0
  -1   0  -7 1443.47   28.45   0
  -2   1  -6  962.82   28.24   0
  -2   1   0  578.50   10.53   0
  -1   1  -3 2106.87   25.48   0
  -1  -2   6  721.50   18.51   0
  -1  -1   2 2171.56   17.22   0
  -1  -1   8  720.96   18.18   0
   0  -3   9  225.98   13.10   0
  -1  -2   7  734.07   19.14   0
  -1   1   4 2177.72   19.36   0
   0  -4   4 1175.14   22.98   0
  -1   0   9   57.56   10.05   0
   0  -4   3  966.27   19.25   0
  -1  -2   2  828.81   12.65   0
  -1  -2   8  333.45   14.91   0
  -1  -3   4 1110.65   21.21   0
  -1  -3   5 1800.96   28.59   0
  -1   0   2  882.52    9.74   0
  -1  -3   6  593.77   18.99   0
   0  -4   2 1309.76   20.29   0
   1  -5   4  468.51   19.44   0
  -1  -3   3  890.29   17.07   0
  -1  -3   7  534.31   19.05   0
  -1  -2   9  403.21   16.09   0
  -1   0  10   87.13   11.78   0
  -1   1   9  931.90   24.17   0
  -1  -1  10  560.42   18.06   0
   1  -5   3  901.39   23.09   0
  -1  -1   1 3207.61   18.88   0
  -1  -3   2 1135.16   17.02   0
   0  -4   1  311.87   10.45   0
   1  -4   0  545.83   10.17   0
  -2  -1   5  187.33   11.92   0
  -2  -1   6  274.32   14.48   0
  -1  -4   5  175.28   14.54   0
  -1  -4   6  185.31   15.09   0
   0  -5   5   74.88   13.54   0
  -2  -1   4  228.46   10.82   0
  -1   2   7 1090.37   22.13   0
   0  -5   4  247.42   16.21   0
  -2  -2   4 2052.86   27.52   0
  -2  -2   6  586.20   19.66   0
  -2   0   6  893.66   22.84   0
  -2  -2   7  838.79   23.83   0
  -2  -1   8  365.93   17.71   0
  -2   0   7  783.83   23.49   0
  -1   2   6  362.18   10.98   0
   0  -5   3  324.94   16.32   0
  -2  -2   3 1864.64   23.19   0
  -2  -1   3  295.02   10.23   0
  -1  -4   2  284.76   12.09   0
  -2  -3   5  508.06   19.10   0
  -2   0   4 2618.60   26.99   0
  -2   0   8 1150.75   29.09   0
  -2  -3   4  374.49   15.12   0
  -2  -1   9  142.60   14.38   0
  -1   0   1 2836.23   14.34   0
   0  -5   2  395.70   15.76   0
  -2  -3   3  528.74   15.22   0
  -2  -3   7  304.13   17.80   0
  -2   0   9 1176.96   31.27   0
  -2   0   3 1003.13   14.66   0
  -1  -5   5  849.06   28.46   0
  -1  -4   1  414.22   13.06   0
  -2  -3   2  679.03   15.46   0
  -2   1   7   99.55   15.02   0
  -1  -5   4  978.97   27.51   0
  -1  -1   0 2386.25   14.24   0
  -1   2   5  147.16    5.83   0
  -2  -4   4  945.46   25.45   0
  -2  -4   5  481.21   21.34   0
  -2  -4   6  442.16   22.14   0
  -2   1   5  187.85    9.91   0
   0  -5   1  523.60   15.72   0
   0  -3  -1  755.74    9.11   0
  -2  -4   3 1048.94   24.32   0
  -2  -2   1 1289.49   16.77   0
  -2  -3   1  652.13   14.51   0
  -3  -2   5   85.27   11.32   0
  -3  -1   5 1094.06   27.52   0
  -2   1   4  650.58   12.30   0
  -1  -4   0 2587.25   25.87   0
  -3  -1   4 1225.35   25.15   0
  -3  -3   4 1263.18   28.60   0
  -3  -3   5  836.87   26.54   0
  -3  -3   6  797.21   27.47   0
  -3  -2   3   20.91    8.27   0
  -3  -1   8  371.48   22.98   0
  -3  -1   3  615.94   16.68   0
  -3   0   5  462.72   19.12   0
  -2  -3   0  477.13   12.25   0
  -2  -2   0 3543.20   25.71   0
  -3  -2   2  326.14   12.52   0
  -2  -5   3   78.43   14.45   0
  -3  -3   2 1636.09   26.33   0
  -3   0   4  560.03   16.80   0
   0  -4  -1 3443.77   23.98   0
  -3  -1   2 2028.62   25.30   0
  -2   1   3  224.36    7.04   0
  -3  -4   3  110.91   13.98   0
  -2  -4   0  979.30   19.53   0
  -2  -1   0  627.41   10.14   0
  -3  -2   1  595.66   15.09   0
  -3  -4   2  180.83   14.25   0
  -1  -4  -1  112.96    7.44   0
  -2  -5   1  245.46   16.14   0
  -3  -1   1  735.49   15.53   0
  -2  -3  -1  830.92   14.40   0
  -4  -1   5  299.87   23.28   0
  -3   0   2 1676.89   21.27   0
  -4  -3   4   33.44   10.79   0
  -4  -2   3  981.64   26.41   0
  -2  -4  -1  743.19   16.55   0
  -4  -3   3   33.50    9.30   0
  -4  -3   2  198.38   14.30   0
  -4  -2   2 1299.10   26.51   0
  -4  -1   3  313.01   16.78   0
  -3   1   4  712.63   17.35   0
  -4   0   6  264.72   29.01   0
  -4  -4   2  785.40   26.60   0
  -4  -3   1   19.26   10.49   0
  -4  -2   1  725.49   19.92   0
  -4  -1   2  385.24   15.90   0
  -3  -3  -1 2467.31   28.38   0
  -2  -1  -1  816.16   10.94   0
  -1  -3  -2 2928.92   21.11   0
  -3  -2  -1   74.83    7.39   0
  -2   0   0 3117.45   18.95   0
  -3  -4  -1  159.02   12.04   0
  -2  -5  -1  258.43   14.29   0
  -2   2   5 1683.03   20.59   0
  -4  -4   1  455.90   20.31   0
  -4   0   3 1343.84   26.78   0
  -1  -4  -2  172.48    7.71   0
  -4  -2   0  833.47   20.40   0
  -4  -1   1  209.92   12.63   0
  -2  -4  -2 2498.73   27.37   0
  -1  -2  -2 1743.72   14.21   0
  -3  -3  -2 2822.32   29.36   0
  -3  -1  -1 1623.08   18.31   0
  -4  -3  -1  393.27   15.78   0
  -4  -1   0  983.69   20.06   0
  -3   0   0 1164.99   15.50   0
  -5  -2   2  169.06   16.96   0
  -4  -2  -1  692.94   17.76   0
  -3   1   2 1801.23   21.13   0
  -5  -1   3  820.42   32.12   0
  -5  -2   1  124.88   14.44   0
   0  -3  -2  744.11    7.84   0
  -4   1   4  197.14   17.27   0
  -2   2   4 3101.63   22.89   0
  -2  -1  -2  826.66   11.24   0
  -5  -2   0  261.52   16.62   0
  -4  -1  -1  552.96   14.82   0
  -2  -3  -3  316.52    9.74   0
  -2   0  -1  706.05    9.55   0
  -4  -2  -2 1313.15   22.13   0
  -3  -1  -2 1952.06   20.12   0
  -2  -4  -3  706.44   15.73   0
  -5   0   3  193.40   22.08   0
  -4   0   0 1119.27   20.00   0
  -3  -4  -3  257.51   12.31   0
  -3   1   1  385.76   10.51   0
  -5  -3  -1  347.66   18.58   0
  -3   0  -1  314.72    8.64   0
  -2  -2  -3 2135.76   19.83   0
  -5  -2  -1  443.45   18.49   0
  -5  -1   0 1036.81   26.46   0
  -3  -2  -3  180.72    8.64   0
  -1  -1  -2 6538.41   24.47   0
  -1  -3  -3 1490.37   15.51   0
  -4  -3  -3  271.26   12.88   0
  -4  -1  -2  294.53   11.17   0
  -1  -4  -3  949.57   14.85   0
  -5   0   1   59.12   12.22   0
  -4  -4  -3  678.95   21.07   0
  -1   0  -1  431.66    5.90   0
  -4  -2  -3 1043.38   19.56   0
  -4   0  -1 1436.96   20.79   0
  -4   1   1  365.74   13.88   0
  -3  -1  -3  602.66   12.05   0
  -5   0   0  568.81   19.29   0
  -3  -4  -4  396.98   14.13   0
  -5  -3  -3  359.53   17.16   0
  -3   0  -2 1047.98   14.20   0
  -2  -3  -4  189.49    8.18   0
  -2  -1  -3  943.71   12.40   0
  -4  -4  -4 1176.46   25.57   0
  -4  -1  -3  500.15   13.11   0
  -3  -2  -4  665.57   13.79   0
  -2  -4  -4 1265.06   19.82   0
  -2   0  -2 2405.69   17.64   0
   0  -2  -2   44.30    2.29   0
  -4  -2  -4 1508.94   23.04   0
  -2  -2  -4 3010.68   23.92   0
  -5   1   1  562.57   22.70   0
  -5  -2  -4  297.75   13.98   0
  -3  -3  -5 2464.22   27.60   0
  -3  -1  -4 1382.23   17.58   0
  -3   2   2  732.01   14.67   0
  -4  -4  -5  518.12   18.68   0
  -4   0  -3 1344.53   18.87   0
  -3  -4  -5  202.83   11.65   0
  -3   0  -3  170.25    7.07   0
  -5   1   0 1310.25   28.06   0
  -3  -2  -5  243.35    9.52   0
  -4   2   2 1273.58   26.01   0
  -5  -2  -5   90.85    9.96   0
  -2  -1  -4   98.52    5.56   0
  -1  -1  -3 1645.86   13.24   0
   1   5  -1  627.33   25.58   0
   3   4   1  146.44   14.44   0
  -2   1  -3  553.30   10.60   0
  -2   4  -7  523.68   52.97   0
  -1   3  -1 2143.21   26.85   0
  -1   4  -2  702.25   22.56   0
   2   3   2  494.56   12.03   0
   2   5   0  211.26   19.27   0
  -2   4  -5  556.13   39.10   0
   0   4   0 2832.45   34.16   0
   1   4   1  114.29   11.44   0
   0   2   1 3235.46   22.90   0
   0   3   1  750.69   14.66   0
   1   2   2 1623.33   15.13   0
   1   3   2 3002.77   25.99   0
   2   4   2 2382.11   30.08   0
  -1   5  -2 1113.97   33.71   0
  -2   3  -2  641.61   17.42   0
   0   4   1 3419.12   35.60   0
   0   5   0   65.72   12.86   0
  -2   5  -5  439.06   46.21   0
  -3   2  -5  163.25   15.66   0
  -1   4   0  528.77   16.79   0
  -3   3  -5 1267.47   37.28   0
  -2   4  -2 1332.06   30.45   0
   0   1   1  338.23    5.70   0
   0   6  -1  294.48   23.87   0
   1   6   0  890.33   32.68   0
   2   5   2  509.84   20.27   0
  -2   3  -1  517.02   14.79   0
   0   3   2  770.91   14.47   0
   1   5   2 1384.99   28.99   0
   2   3   3  339.36   10.48   0
  -3   3  -4 1806.86   36.63   0
  -3   4  -5  137.82   33.36   0
  -1   5   0 1163.57   28.68   0
   0   6   0  964.00   32.29   0
   2   6   1   86.28   21.85   0
  -3   2  -4  913.47   21.56   0
  -2   2  -1 2286.10   22.94   0
  -2   4  -1  945.12   24.61   0
  -2   5  -2  299.59   24.22   0
  -1   1   0 3074.26   18.37   0
  -1   4   1  367.07   14.41   0
  -1   6  -1   83.61   18.58   0
  -3   1  -5 1672.81   23.38   0
  -3   4  -4  333.36   30.10   0
   0   2   2  131.51    6.44   0
   3   3   3 1566.98   20.07   0
   0   5   2  405.75   17.35   0
   0   6   1 1126.38   33.61   0
  -2   5  -1  526.35   25.37   0
  -1   5   1 1231.55   28.51   0
   2   6   2 1149.16   37.44   0
  -3   4  -3  283.80   22.67   0
  -1   6   0  190.90   19.67   0
   1   6   2   16.27   16.33   0
  -2   3   0  246.28   11.32   0
  -2   4   0 1517.69   28.25   0
   2   2   3 1770.75   15.01   0
  -3   2  -3  308.75   12.81   0
  -3   5  -4  366.44   47.15   0
  -1   4   2  502.76   16.38   0
  -3   4  -2  323.28   20.54   0
  -3   5  -3  542.17   41.12   0
  -2   5   0  184.83   18.20   0
  -1   3   2 1349.98   20.52   0
  -1   5   2 1173.70   27.72   0
   0   3   3  573.08   12.68   0
   0   5   3  339.60   16.60   0
  -2   2   0 4819.64   33.70   0
   1   6   3  317.18   21.78   0
  -2   4   1 1409.66   27.24   0
   2   4   4 1213.28   22.02   0
   1   4   4  393.11   14.15   0
  -3   4  -1  133.17   15.65   0
  -2   3   1  539.67   15.23   0
  -2   5   1  184.31   17.43   0
   2   5   4  220.03   16.33   0
   2   3   4  218.46    9.77   0
  -3   5  -1  461.23   30.08   0
  -1   2   2 1519.28   18.69   0
   1   3   4 1155.23   18.18   0
  -1   5   3  944.17   26.21   0
   0   4   4 1018.90   21.72   0
  -2   6   1  489.44   28.08   0
   1   6   4  312.95   23.27   0
  -2   4   2 1348.68   27.46   0
  -2   5   2  510.80   22.83   0
  -1   3   3 1315.31   21.55   0
  -1   1   1 2026.12   16.73   0
  -1   6   3  152.66   19.09   0
  -2   2   1 3807.67   32.23   0
   0   3   4  888.70   17.37   0
   0   6   4  813.97   30.88   0
  -3   2  -1  174.76   11.03   0
  -2   3   2 1193.61   22.45   0
   0   1   2  826.25    9.84   0
  -4   4  -3  786.37   44.55   0
  -3   1  -3  961.54   17.52   0
   1   4   5  498.23   16.78   0
   1   5   5  820.16   24.36   0
  -1   4   4  751.28   21.25   0
  -1   5   4 1162.26   29.71   0
   2   5   5  205.86   17.99   0
  -4   3  -3  438.23   30.12   0
  -2   5   3  177.26   17.72   0
  -2   4   3  447.49   19.24   0
  -1   6   4  422.93   24.91   0
  -1   2   3 1293.64   19.01   0
   1   3   5  924.55   18.10   0
  -4   4  -1  895.45   38.44   0
  -3   2   0  555.53   16.93   0
  -2   2   2 2605.09   29.56   0
  -1   5   5  778.75   27.63   0
  -3   1  -2  986.24   18.30   0
  -1   4   5   80.74   12.92   0
   0   3   5  936.37   19.58   0
   1   5   6  490.53   22.98   0
  -2   4   4 1018.54   27.35   0
   1   6   6  248.59   29.56   0
  -4   3  -1  389.51   24.10   0
   1   4   6  238.48   14.81   0
  -4   2  -3 1086.64   36.25   0
  -4   4   0  957.05   37.68   0
  -3   3   2 2118.43   35.78   0
  -2   1   1 1151.15   17.96   0
  -1   3   5 1215.79   24.77   0
  -2   5   5  201.87   20.33   0
  -4   4   1  385.32   28.71   0
  -3   1  -1 2725.88   31.38   0
  -2   4   5  900.75   28.03   0
  -1   4   6  137.43   15.29   0
   0   1   3  941.83   13.14   0
   1   3   6  638.29   17.70   0
   1   5   7  855.18   31.17   0
   0   5   7   73.06   17.76   0
  -3   4   4  197.74   20.10   0
   0   2   5 1085.89   18.89   0
  -4   2  -1 1433.76   36.50   0
  -4   3   1  152.56   19.74   0
  -2   5   6   76.79   18.94   0
   0   4   7  986.86   28.43   0
   1   4   7  380.03   19.96   0
  -2   3   5  496.88   20.46   0
  -1   1   3 2639.61   26.37   0
  -3   1   0 1693.83   27.54   0
  -2   1   2  958.17   18.64   0
  -2   2   4 3163.16   38.40   0
  -1   3   6 1413.22   29.14   0
  -1   2   5  177.16   11.97   0
  -4   2   0  907.51   31.28   0
  -1   4   7  365.00   22.14   0
  -4   3   2  348.24   24.30   0
  -3   4   5  107.02   19.49   0
  -3   2   3  300.13   17.41   0
   0   5   8  180.40   23.10   0
   1   5   8  759.75   39.45   0
  -2   3   6  398.43   20.69   0
   0   1   4  725.06   14.11   0
   1   3   7 1620.52   29.75   0
  -4   2   1  699.80   29.23   0
  -2   1   3  237.63   12.86   0
   0   2   6 1171.17   22.35   0
   0   4   8  495.33   25.88   0
  -4   3   3   97.79   20.64   0
  -1   1   4 2084.51   26.84   0
  -1   3   7  483.39   19.35   0
   1   4   8  217.99   20.61   0
  -3   4   6   64.57   19.60   0
  -3   2   4  185.08   16.78   0
   1   2   6  141.15   10.32   0
   0   5   9  108.91   27.71   0
   2   2   5 2189.16   21.85   0
  -4   3   4  116.99   21.36   0
   0   3   8  320.04   19.11   0
  -1   0   1 2942.79   23.33   0
  -4   1  -2  390.65   23.55   0
   0   1   5  874.01   17.77   0
   0   4   9  593.66   30.74   0
  -4   1  -1  515.95   25.10   0
  -4   2   3  845.89   33.04   0
  -3   2   5  185.24   18.53   0
  -1   1   5 3243.13   36.56   0
   1   3   8  882.39   26.63   0
   2   3   7  257.43   18.50   0
  -3   1   3  862.82   26.08   0
  -1   4   9  188.23   23.94   0
  -4   1   0  887.31   31.61   0
  -4   3   5   29.66   21.92   0
   1   4   9  140.64   23.25   0
  -3   3   7  617.66   31.12   0
  -2   0   1  613.01   14.86   0
  -1   2  -7  147.01   20.41   0
  -1   2  -6  207.71   19.89   0
   0   2  -4 1718.49   27.12   0
   1   2  -6  693.04   24.52   0
  -4   0  -9  617.76   48.10   0
   2   1  -2  392.85    7.92   0
  -2   1  -3  506.33   11.90   0
   1   2  -8  314.44   24.89   0
  -4   0  -7 1294.36   43.64   0
  -2   2  -8  825.12   40.02   0
  -1   2  -4  525.53   17.13   0
  -3   1  -5 1703.31   31.40   0
  -2   2  -9 1173.89   47.79   0
  -2   2  -6 1418.47   38.83   0
   0   2 -10  308.20   30.60   0
   1   2  -9  381.15   30.10   0
  -2   2  -5 1855.85   35.11   0
  -4   0  -6 1662.35   36.30   0
   2   2  -6  556.71   21.71   0
  -3   0  -3  144.15    6.42   0
   2   2  -7  802.17   29.93   0
  -4   1  -9   74.12   39.48   0
  -3   1  -4 2155.01   27.59   0
  -3   2  -9  277.81   37.16   0
  -3   2  -8  433.90   39.03   0
  -2   2  -4 3556.07   37.78   0
  -4   1  -8  188.81   36.32   0
  -2   1  -2 1766.19   17.26   0
  -1   1  -1 8468.12   30.89   0
  -2   3  -8   16.20   25.93   0
  -2   3  -7  139.79   26.20   0
  -1   2  -2 1170.20   16.82   0
  -2   2  -3 1855.86   23.88   0
  -2   3  -9  176.58   31.08   0
   1   3  -6  586.29   25.49   0
   1   3  -8  749.90   35.35   0
   1   3  -5 1852.72   34.21   0
  -4   2  -9  367.85   47.90   0
  -3   1  -3  964.52   15.74   0
  -2   3  -5  469.61   22.13   0
  -4   2  -8  528.62   47.05   0
   1   3  -4 1159.11   24.62   0
  -3   3  -8 1022.10   51.47   0
  -4   2  -7  632.20   39.66   0
  -3   3  -6  973.04   36.54   0
  -2   2  -2 4796.15   32.93   0
  -4   2  -6  717.40   32.34   0
  -1   4  -7  251.92   27.67   0
  -3   3  -5 1377.07   33.39   0
  -2   0  -1  679.25    6.65   0
  -1   2  -1   48.27    4.52   0
   0   3  -2 1500.03   21.53   0
   0   4  -7  839.22   38.88   0
   0   4  -6  879.04   34.73   0
  -2   3  -3   55.67    9.40   0
  -2   4  -7  510.01   35.66   0
  -1   4  -5  378.54   22.47   0
   2   2  -2 1896.30   18.22   0
  -1   3  -2  939.07   17.30   0
  -4   2  -5  710.10   25.30   0
  -2   1  -1  605.46    9.17   0
  -4   1  -4   94.74    8.86   0
  -2   4  -5  477.80   25.71   0
   1   3  -2 1147.77   18.65   0
  -4   3  -7  437.25   39.54   0
   1   4  -6  140.66   20.94   0
  -3   1  -2 1044.30   13.94   0
  -3   4  -7  156.36   31.77   0
  -4   3  -6  416.77   31.25   0
  -2   3  -2  715.32   16.35   0
  -2   4  -4 1238.52   29.97   0
  -1   4  -3  287.69   15.69   0
   0   4  -3 1002.25   24.14   0
   0   3  -1  404.73   10.58   0
   2   3  -3  584.08   15.74   0
  -4   2  -4 1198.84   24.78   0
  -3   2  -2  588.27   13.35   0
  -3   4  -5  157.94   20.51   0
  -1   1   0 3217.52   16.70   0
   0   2   0 9999.99   35.59   0
  -4   3  -5  606.41   27.59   0
   1   4  -3  128.88   12.68   0
  -1   4  -2  758.51   19.68   0
  -3   4  -4  293.23   19.24   0
  -1   2   0  571.77    9.88   0
   1   1   0 2124.90   10.45   0
  -2   3  -1  588.05   14.08   0
   0   5  -5  116.06   21.98   0
  -2   4  -2 1407.39   25.95   0
  -1   5  -4  438.30   24.95   0
   2   3  -2  730.80   15.14   0
  -4   2  -3  989.19   20.18   0
  -2   5  -4  333.63   23.93   0
  -1   4  -1   75.37   10.19   0
   0   3   0  183.56    7.97   0
   0   4  -1  350.68   13.91   0
  -1   5  -3  774.51   26.91   0
  -4   4  -5  460.78   31.33   0
  -2   5  -3  127.18   16.56   0
  -4   3  -3  313.98   16.65   0
  -3   2  -1  192.78    8.28   0
  -2   2   0 4557.60   28.06   0
  -2   4  -1  970.54   21.37   0
   1   5  -4  885.52   31.91   0
  -4   4  -4  880.76   32.52   0
  -3   5  -4  263.65   23.17   0
  -3   1  -1 2390.19   18.65   0
   1   5  -3  670.00   25.44   0
  -2   5  -2  311.52   18.02   0
   0   4   0 2737.77   29.39   0
  -1   5  -1  886.42   24.37   0
  -4   2  -2 1379.48   21.30   0
   0   3   1  815.40   13.19   0
  -4   3  -2  390.46   15.80   0
  -2   4   0 1623.19   25.20   0
  -1   3   1 1346.90   17.53   0
  -1   6  -2  421.53   24.25   0
   0   4   1 3365.37   31.38   0
   0   5   0   77.55   11.07   0
   1   5  -1  559.19   20.37   0
  -4   1  -2  356.44   10.00   0
  -4   4  -2  778.65   25.84   0
  -3   3   0 3406.03   32.75   0
   0   6  -2  813.92   31.38   0
  -3   2   0  556.19   11.89   0
  -2   3   1  524.88   12.60   0
   1   2   1 1178.30   11.89   0
  -2   2   1 3965.38   26.31   0
  -2   5   0  186.03   12.74   0
  -2   4   1 1471.08   23.80   0
   0   1   1  374.59    5.56   0
  -4   3  -1  400.98   15.33   0
   0   6  -1  327.00   21.87   0
  -1   5   1  872.31   20.92   0
  -4   4  -1 1050.15   27.66   0
   0   3   2  830.76   13.61   0
  -2   5   1  201.90   14.59   0
   0   2   2  102.73    5.81   0
  -2   3   2 1156.36   18.06   0
  -2   4   2 1264.39   22.51   0
  -1   5   2 1183.03   24.78   0
  -1   6   1  217.87   17.70   0
   0   5   2  427.82   15.72   0
  -4   3   0  533.77   17.05   0
  -4   4   0 1007.72   26.90   0
  -2   6   1  544.73   23.95   0
  -3   2   1  535.48   12.02   0
  -2   5   2  538.87   19.48   0
  -1   4   3  668.69   16.48   0
   2   4   1  813.58   19.18   0
  -1   3   3 1375.50   19.02   0
  -1   6   2  225.24   17.64   0
   0   4   3  686.67   15.19   0
  -1   5   3  899.25   22.41   0
  -3   4   2  468.76   17.00   0
   0   5   3  312.09   14.40   0
   1   2   2 1782.02   16.00   0
  -3   3   2 2184.27   27.75   0
  -2   4   3  502.03   16.34   0
  -3   5   2  432.07   20.53   0
  -2   5   3  204.98   15.08   0
  -4   4   1  402.04   20.50   0
   1   1   1 3735.24   15.83   0
  -1   6   3  171.41   16.42   0
   1   3   3 1824.32   20.98   0
   1   5   3 1601.78   27.78   0
   1   6   2   14.54   14.76   0
  -4   3   1  153.33   12.80   0
  -1   2   3 1259.42   15.77   0
  -2   6   3  284.85   20.12   0
  -1   1   2 3336.60   19.26   0
  -1   5   4 1058.79   24.56   0
   0   2   3  401.48    8.72   0
  -3   2   2  824.81   15.40   0
  -3   4   3  221.51   14.57   0
  -3   5   3  370.62   19.99   0
  -1   3   4 1288.76   19.98   0
   0   3   4  918.16   16.68   0
   2   3   2  466.32   11.99   0
;
_shelx_hkl_checksum              81693
_olex2_submission_special_instructions 'No special instructions were received'
loop_
_space_group_symop_operation_xyz
'x, y, z'
'-x, -y, -z'
loop_
_atom_site_label
_atom_site_type_symbol
_atom_site_fract_x
_atom_site_fract_y
_atom_site_fract_z
_atom_site_U_iso_or_equiv
_atom_site_adp_type
_atom_site_occupancy
_atom_site_site_symmetry_order
_atom_site_calc_flag
_atom_site_refinement_flags_posn
_atom_site_refinement_flags_adp
_atom_site_refinement_flags_occupancy
_atom_site_disorder_assembly
_atom_site_disorder_group
Pt1 Pt 0.000000 0.500000 0.500000 0.02211(17) Uani 1 2 d S . P . .
Fe1 Fe 0.500000 1.000000 0.500000 0.0209(3) Uani 1 2 d S . P . .
N1 N 0.3145(9) 0.8200(8) 0.4820(4) 0.0246(12) Uani 1 1 d . . . . .
N2 N 0.6732(9) 0.7987(8) 0.5300(4) 0.0266(12) Uani 1 1 d . . . . .
N3 N 0.3508(8) 0.9677(7) 0.6495(4) 0.0232(11) Uani 1 1 d . . . . .
C1 C 0.1996(10) 0.7001(10) 0.4864(5) 0.0237(13) Uani 1 1 d . . . . .
C2 C 0.7881(10) 0.6827(9) 0.5249(5) 0.0236(13) Uani 1 1 d . . . . .
C3 C 0.1527(11) 0.9843(10) 0.6749(5) 0.0293(14) Uani 1 1 d . . . . .
H3 H 0.081068 0.993573 0.621560 0.035 Uiso 1 1 calc R U . . .
C4 C 0.0461(12) 0.9886(11) 0.7760(6) 0.0331(15) Uani 1 1 d . . . . .
H4 H -0.094807 1.001431 0.790933 0.040 Uiso 1 1 calc R U . . .
C5 C 0.1506(12) 0.9736(11) 0.8550(5) 0.0330(16) Uani 1 1 d . . . . .
C6 C 0.3546(12) 0.9447(11) 0.8300(5) 0.0320(15) Uani 1 1 d . . . . .
H6 H 0.428330 0.926887 0.882634 0.038 Uiso 1 1 calc R U . . .
C7 C 0.4502(11) 0.9420(10) 0.7271(5) 0.0277(14) Uani 1 1 d . . . . .
H7 H 0.589730 0.921542 0.710738 0.033 Uiso 1 1 calc R U . . .
C8 C 0.0465(12) 0.9895(11) 0.9586(6) 0.0340(15) Uani 1 1 d . . . . .
N4 N -0.0004(10) 0.4974(10) 0.9543(5) 0.0360(14) Uani 1 1 d . . . . .
C9 C 0.1899(13) 0.4577(11) 0.8932(6) 0.0375(17) Uani 1 1 d . . . . .
C10 C 0.2036(14) 0.4768(11) 0.7859(6) 0.0385(17) Uani 1 1 d . . . . .
H10 H 0.090619 0.509976 0.757669 0.046 Uiso 1 1 calc R U . . .
C11 C 0.3872(13) 0.4460(11) 0.7215(6) 0.0396(18) Uani 1 1 d . . . . .
H11 H 0.399008 0.460948 0.648643 0.048 Uiso 1 1 calc R U . . .
C12 C 0.5521(14) 0.3940(12) 0.7621(7) 0.0424(19) Uani 1 1 d . . . . .
H12 H 0.676269 0.374130 0.717658 0.051 Uiso 1 1 calc R U . . .
C13 C 0.5328(13) 0.3712(12) 0.8697(7) 0.0405(18) Uani 1 1 d . . . . .
H13 H 0.644947 0.334787 0.898137 0.049 Uiso 1 1 calc R U . . .
C14 C 0.3533(13) 0.4007(12) 0.9353(6) 0.0395(18) Uani 1 1 d . . . . .
H14 H 0.341359 0.382421 1.008291 0.047 Uiso 1 1 calc R U . . .
loop_
_atom_site_aniso_label
_atom_site_aniso_U_11
_atom_site_aniso_U_22
_atom_site_aniso_U_33
_atom_site_aniso_U_23
_atom_site_aniso_U_13
_atom_site_aniso_U_12
Pt1 0.0189(2) 0.0238(2) 0.0229(2) -0.00508(15) -0.00288(14) 0.00117(14)
Fe1 0.0185(7) 0.0226(7) 0.0203(7) -0.0048(5) -0.0012(5) 0.0001(5)
N1 0.027(3) 0.026(3) 0.019(3) -0.004(2) -0.002(2) 0.003(2)
N2 0.023(3) 0.031(3) 0.022(3) -0.003(2) -0.001(2) -0.002(2)
N3 0.021(3) 0.023(3) 0.022(3) -0.005(2) 0.000(2) 0.002(2)
C1 0.024(3) 0.024(3) 0.024(3) -0.008(2) -0.005(2) -0.002(3)
C2 0.022(3) 0.026(3) 0.023(3) -0.002(3) -0.005(2) 0.004(3)
C3 0.030(4) 0.032(4) 0.026(3) -0.006(3) -0.006(3) -0.003(3)
C4 0.029(4) 0.038(4) 0.027(3) -0.002(3) 0.002(3) 0.003(3)
C5 0.037(4) 0.036(4) 0.022(3) -0.006(3) 0.002(3) -0.003(3)
C6 0.037(4) 0.035(4) 0.022(3) -0.004(3) -0.004(3) -0.002(3)
C7 0.030(4) 0.030(3) 0.022(3) -0.004(3) -0.003(2) -0.005(3)
C8 0.037(4) 0.031(4) 0.030(3) -0.004(3) -0.001(3) -0.004(3)
N4 0.036(4) 0.040(4) 0.029(3) -0.008(3) -0.002(2) -0.008(3)
C9 0.041(4) 0.037(4) 0.032(4) -0.010(3) 0.000(3) -0.005(3)
C10 0.047(5) 0.035(4) 0.031(4) -0.003(3) -0.006(3) -0.005(3)
C11 0.047(5) 0.036(4) 0.030(4) -0.007(3) 0.004(3) -0.004(3)
C12 0.044(5) 0.041(4) 0.038(4) -0.010(3) 0.000(3) -0.006(4)
C13 0.039(4) 0.044(4) 0.040(4) -0.018(3) -0.004(3) -0.002(3)
C14 0.044(5) 0.046(5) 0.029(4) -0.010(3) -0.007(3) -0.004(4)
loop_
_atom_type_symbol
_atom_type_description
_atom_type_scat_dispersion_real
_atom_type_scat_dispersion_imag
_atom_type_scat_source
C C 0.0181 0.0091 'International Tables Vol C Tables 4.2.6.8 and 6.1.1.4'
H H 0.0000 0.0000 'International Tables Vol C Tables 4.2.6.8 and 6.1.1.4'
Fe Fe -1.1336 3.1974 'International Tables Vol C Tables 4.2.6.8 and 6.1.1.4'
N N 0.0311 0.0180 'International Tables Vol C Tables 4.2.6.8 and 6.1.1.4'
Pt Pt -4.5932 6.9264 'International Tables Vol C Tables 4.2.6.8 and 6.1.1.4'
loop_
_geom_angle_atom_site_label_1
_geom_angle_atom_site_label_2
_geom_angle_atom_site_label_3
_geom_angle
_geom_angle_site_symmetry_1
_geom_angle_site_symmetry_3
_geom_angle_publ_flag
C1 Pt1 C1 180.0 . 2_566 ?
C1 Pt1 C2 88.4(3) . 1_455 ?
C1 Pt1 C2 91.6(3) . 2_666 ?
C1 Pt1 C2 88.4(3) 2_566 2_666 ?
C1 Pt1 C2 91.6(3) 2_566 1_455 ?
C2 Pt1 C2 180.0 2_666 1_455 ?
N1 Fe1 N1 180.0 . 2_676 ?
N1 Fe1 N3 88.0(2) 2_676 2_676 ?
N1 Fe1 N3 92.0(2) . 2_676 ?
N1 Fe1 N3 88.0(2) . . ?
N1 Fe1 N3 92.0(2) 2_676 . ?
N2 Fe1 N1 91.8(3) . 2_676 ?
N2 Fe1 N1 88.2(3) 2_676 2_676 ?
N2 Fe1 N1 88.2(3) . . ?
N2 Fe1 N1 91.8(3) 2_676 . ?
N2 Fe1 N2 180.0(2) . 2_676 ?
N2 Fe1 N3 92.4(2) 2_676 2_676 ?
N2 Fe1 N3 87.6(2) 2_676 . ?
N2 Fe1 N3 87.6(2) . 2_676 ?
N2 Fe1 N3 92.4(2) . . ?
N3 Fe1 N3 180.0 2_676 . ?
C1 N1 Fe1 170.1(5) . . ?
C2 N2 Fe1 165.2(5) . . ?
C3 N3 Fe1 120.9(5) . . ?
C3 N3 C7 118.1(6) . . ?
C7 N3 Fe1 120.8(4) . . ?
N1 C1 Pt1 177.4(6) . . ?
N2 C2 Pt1 173.4(5) . 1_655 ?
N3 C3 H3 118.5 . . ?
N3 C3 C4 123.0(7) . . ?
C4 C3 H3 118.5 . . ?
C3 C4 H4 120.6 . . ?
C3 C4 C5 118.8(7) . . ?
C5 C4 H4 120.6 . . ?
C4 C5 C8 119.9(7) . . ?
C6 C5 C4 118.3(6) . . ?
C6 C5 C8 121.8(7) . . ?
C5 C6 H6 120.3 . . ?
C5 C6 C7 119.4(7) . . ?
C7 C6 H6 120.3 . . ?
N3 C7 C6 122.2(7) . . ?
N3 C7 H7 118.9 . . ?
C6 C7 H7 118.9 . . ?
C8 C8 C5 175.9(12) 2_577 . ?
N4 N4 C9 113.8(9) 2_567 . ?
C10 C9 N4 115.8(8) . . ?
C14 C9 N4 123.6(7) . . ?
C14 C9 C10 120.6(8) . . ?
C9 C10 H10 120.7 . . ?
C11 C10 C9 118.6(8) . . ?
C11 C10 H10 120.7 . . ?
C10 C11 H11 119.4 . . ?
C12 C11 C10 121.2(8) . . ?
C12 C11 H11 119.4 . . ?
C11 C12 H12 120.5 . . ?
C11 C12 C13 119.0(8) . . ?
C13 C12 H12 120.5 . . ?
C12 C13 H13 119.4 . . ?
C14 C13 C12 121.1(9) . . ?
C14 C13 H13 119.4 . . ?
C9 C14 H14 120.3 . . ?
C13 C14 C9 119.4(8) . . ?
C13 C14 H14 120.3 . . ?
loop_
_geom_bond_atom_site_label_1
_geom_bond_atom_site_label_2
_geom_bond_distance
_geom_bond_site_symmetry_2
_geom_bond_publ_flag
Pt1 C1 1.970(7) . ?
Pt1 C1 1.970(7) 2_566 ?
Pt1 C2 1.980(7) 1_455 ?
Pt1 C2 1.980(7) 2_666 ?
Fe1 N1 1.926(6) . ?
Fe1 N1 1.926(6) 2_676 ?
Fe1 N2 1.926(6) 2_676 ?
Fe1 N2 1.926(6) . ?
Fe1 N3 2.008(5) 2_676 ?
Fe1 N3 2.008(5) . ?
N1 C1 1.170(10) . ?
N2 C2 1.154(10) . ?
N3 C3 1.335(10) . ?
N3 C7 1.356(9) . ?
C3 H3 0.9500 . ?
C3 C4 1.394(10) . ?
C4 H4 0.9500 . ?
C4 C5 1.399(11) . ?
C5 C6 1.387(12) . ?
C5 C8 1.439(10) . ?
C6 H6 0.9500 . ?
C6 C7 1.392(9) . ?
C7 H7 0.9500 . ?
C8 C8 1.186(16) 2_577 ?
N4 N4 1.239(13) 2_567 ?
N4 C9 1.434(11) . ?
C9 C10 1.404(11) . ?
C9 C14 1.395(13) . ?
C10 H10 0.9500 . ?
C10 C11 1.399(12) . ?
C11 H11 0.9500 . ?
C11 C12 1.387(14) . ?
C12 H12 0.9500 . ?
C12 C13 1.400(12) . ?
C13 H13 0.9500 . ?
C13 C14 1.383(12) . ?
C14 H14 0.9500 . ?
loop_
_geom_torsion_atom_site_label_1
_geom_torsion_atom_site_label_2
_geom_torsion_atom_site_label_3
_geom_torsion_atom_site_label_4
_geom_torsion
_geom_torsion_site_symmetry_1
_geom_torsion_site_symmetry_2
_geom_torsion_site_symmetry_3
_geom_torsion_site_symmetry_4
_geom_torsion_publ_flag
Fe1 N3 C3 C4 -170.9(6) . . . . ?
Fe1 N3 C7 C6 171.0(5) . . . . ?
N3 C3 C4 C5 -0.5(12) . . . . ?
C3 N3 C7 C6 -4.2(10) . . . . ?
C3 C4 C5 C6 -3.5(11) . . . . ?
C3 C4 C5 C8 176.0(7) . . . . ?
C4 C5 C6 C7 3.6(11) . . . . ?
C5 C6 C7 N3 0.3(11) . . . . ?
C7 N3 C3 C4 4.3(10) . . . . ?
C8 C5 C6 C7 -176.0(7) . . . . ?
N4 N4 C9 C10 -171.2(8) 2_567 . . . ?
N4 N4 C9 C14 9.8(13) 2_567 . . . ?
N4 C9 C10 C11 178.0(7) . . . . ?
N4 C9 C14 C13 -178.0(8) . . . . ?
C9 C10 C11 C12 1.3(12) . . . . ?
C10 C9 C14 C13 2.9(12) . . . . ?
C10 C11 C12 C13 0.4(12) . . . . ?
C11 C12 C13 C14 -0.4(13) . . . . ?
C12 C13 C14 C9 -1.2(13) . . . . ?
C14 C9 C10 C11 -2.9(12) . . . . ?
