#------------------------------------------------------------------------------
#$Date: 2021-06-05 21:52:41 +0300 (Sat, 05 Jun 2021) $
#$Revision: 266081 $
#$URL: file:///home/coder/svn-repositories/cod/cif/7/70/70/7707041.cif $
#------------------------------------------------------------------------------
#
# This file is available in the Crystallography Open Database (COD),
# http://www.crystallography.net/
#
# All data on this site have been placed in the public domain by the
# contributors.
#
data_7707041
loop_
_publ_author_name
'Heinz, Werner R.'
'Staude, Dominik'
'Mayer, David'
'Bunzen, Hana'
'Fischer, Roland A.'
_publ_section_title
;
 Scrutinizing ligand exchange reactions in the formation of the precious
 group metal-organic framework Ru<sup>II,II</sup>-HKUST-1: the impact of
 diruthenium tetracarboxylate precursor and modulator choice.
;
_journal_issue                   15
_journal_name_full
'Dalton transactions (Cambridge, England : 2003)'
_journal_page_first              5226
_journal_page_last               5235
_journal_paper_doi               10.1039/d1dt00118c
_journal_volume                  50
_journal_year                    2021
_chemical_compound_source        'see text'
_chemical_formula_moiety         'C34 H28 F4 O10 Ru2'
_chemical_formula_sum            'C34 H28 F4 O10 Ru2'
_chemical_formula_weight         874.70
_chemical_properties_physical    Air-sensitive,Moisture-sensitive
_space_group_IT_number           15
_space_group_name_Hall           '-C 2yc'
_space_group_name_H-M_alt        'C 1 2/c 1'
_symmetry_cell_setting           monoclinic
_symmetry_Int_Tables_number      15
_symmetry_space_group_name_Hall  '-C 2yc'
_symmetry_space_group_name_H-M   'C 1 2/c 1'
_atom_sites_solution_hydrogens   geom
_audit_update_record
;
2020-11-11 deposited with the CCDC.	2021-03-29 downloaded from the CCDC.
;
_cell_angle_alpha                90
_cell_angle_beta                 113.270(11)
_cell_angle_gamma                90
_cell_formula_units_Z            8
_cell_length_a                   29.179(10)
_cell_length_b                   18.400(7)
_cell_length_c                   17.212(6)
_cell_measurement_reflns_used    8706
_cell_measurement_temperature    100
_cell_measurement_theta_max      30.4222
_cell_measurement_theta_min      2.5607
_cell_volume                     8489(5)
_computing_cell_refinement       'SAINT (Bruker, 2017)'
_computing_data_collection       'APEX III Control Software (Bruker, 2016)'
_computing_data_reduction        'SAINT (Bruker, 2017)'
_computing_molecular_graphics    'PLATON (Spek, 2011)'
_computing_publication_material  'PLATON (Spek, 2011), enCIFer (Allen, 2014)'
_computing_structure_refinement
'SHELXL2014 (Sheldrick, 2014), SHELXLE (Huebschle, 2011)'
_computing_structure_solution    'SHELXT (Sheldrick, 2015)'
_diffrn_ambient_temperature      100
_diffrn_detector                 ' CMOS plate '
_diffrn_detector_area_resol_mean 16
_diffrn_measured_fraction_theta_full 0.998
_diffrn_measured_fraction_theta_max 0.997
_diffrn_measurement_device       ' \k-geometry diffractometer '
_diffrn_measurement_device_type  ' Bruker Photon CMOS '
_diffrn_measurement_method       ' phi- and omega-rotation '
_diffrn_radiation_monochromator  'Helios optic'
_diffrn_radiation_probe          x-ray
_diffrn_radiation_source         'IMS microsource'
_diffrn_radiation_type           MoK\a
_diffrn_radiation_wavelength     0.71073
_diffrn_reflns_av_R_equivalents  0.0553
_diffrn_reflns_av_unetI/netI     0.0195
_diffrn_reflns_limit_h_max       35
_diffrn_reflns_limit_h_min       -35
_diffrn_reflns_limit_k_max       22
_diffrn_reflns_limit_k_min       -22
_diffrn_reflns_limit_l_max       20
_diffrn_reflns_limit_l_min       -20
_diffrn_reflns_number            131612
_diffrn_reflns_reduction_process
;
;
_diffrn_reflns_theta_full        25.24
_diffrn_reflns_theta_max         25.35
_diffrn_reflns_theta_min         2.21
_exptl_absorpt_coefficient_mu    0.775
_exptl_absorpt_correction_T_max  0.7383
_exptl_absorpt_correction_T_min  0.6250
_exptl_absorpt_correction_type   multi-scan
_exptl_absorpt_process_details   'SADABS 2016/2, Bruker, 2016'
_exptl_crystal_colour            'clear green'
_exptl_crystal_density_diffrn    1.369
_exptl_crystal_density_method    'Not Measured'
_exptl_crystal_description       fragment
_exptl_crystal_F_000             3488
_exptl_crystal_size_max          0.280
_exptl_crystal_size_mid          0.133
_exptl_crystal_size_min          0.045
_refine_diff_density_max         2.592
_refine_diff_density_min         -2.341
_refine_diff_density_rms         0.430
_refine_ls_extinction_coef       0.0060(4)
_refine_ls_extinction_expression FC^*^=KFC[1+0.001XFC^2^\L^3^/SIN(2\Q)]^-1/4^
_refine_ls_extinction_method     'shelxl-2014/7 (sheldrick 2014'
_refine_ls_goodness_of_fit_ref   1.139
_refine_ls_hydrogen_treatment    constr
_refine_ls_matrix_type           full
_refine_ls_number_parameters     422
_refine_ls_number_reflns         7767
_refine_ls_number_restraints     0
_refine_ls_restrained_S_all      1.139
_refine_ls_R_factor_all          0.0843
_refine_ls_R_factor_gt           0.0773
_refine_ls_shift/su_max          0.001
_refine_ls_shift/su_mean         0.000
_refine_ls_structure_factor_coef Fsqd
_refine_ls_weighting_details
'W=1/[\S^2^(FO^2^)+(0.1582P)^2^+57.6731P] WHERE P=(FO^2^+2FC^2^)/3'
_refine_ls_weighting_scheme      calc
_refine_ls_wR_factor_gt          0.2202
_refine_ls_wR_factor_ref         0.2320
_reflns_number_gt                7351
_reflns_number_total             7767
_reflns_threshold_expression     I>2\s(I)
_cod_data_source_file            d1dt00118c2.cif
_cod_data_source_block           mo_staudo3_0m_sq
_cod_depositor_comments
'Adding full bibliography for 7707038--7707041.cif.'
_cod_original_sg_symbol_H-M      'C 2/c'
_cod_database_code               7707041
_shelx_res_file
;
 
    mo_staudo3_0m_sq.res created by SHELXL-2014/7
 
 
TITL mo_StauDo3_0m_a.res in C2/c
CELL 0.71073 29.1791 18.4004 17.2116 90.000 113.270 90.000
ZERR 12.00 0.0102 0.0070 0.0057 0.000 0.011 0.000
LATT 7
SYMM -x, y, -z+1/2
SFAC C O F RU H
UNIT 272 80 32 16 224
LIST 6 ! automatically inserted. Change 6 to 4 for CHECKCIF!!
TEMP -173.150
L.S. 10
FMAP 2
PLAN -20
ABIN
ACTA
TWIN 1 0 1.334 0 -1 0 0 0 -1
EADP C9 C10 C11 C12 C13 C14 F2
WGHT    0.158200   57.673096
EXTI    0.005985
BASF   0.08605
FVAR       0.18107   0.83153
RU1   4    0.505123    0.048081    0.462894    11.00000    0.02943    0.02500 =
         0.03169    0.00174    0.01814   -0.00363
RU02  4    0.237496    0.308918    0.991450    11.00000    0.02926    0.02289 =
         0.02872    0.00171    0.01193    0.00876
F1    3    0.795768    0.023130    0.825788    11.00000    0.03529    0.06842 =
         0.07454    0.02805    0.00492   -0.00298
F3    3    0.037337    0.155550    0.527233    11.00000    0.07555    0.08520 =
         0.05814   -0.00364   -0.03055    0.00517
F4    3    0.475831    0.349579    0.843593    11.00000    0.05362    0.07255 =
         0.09081    0.00460    0.04575   -0.00778
O1    2    0.578222    0.056366    0.549514    11.00000    0.03295    0.02802 =
         0.03762    0.00433    0.01891   -0.00337
O2    2    0.567726   -0.038866    0.622527    11.00000    0.03540    0.03373 =
         0.03733    0.00722    0.01684   -0.00696
O3    2    0.480308    0.117572    0.532902    11.00000    0.03997    0.02957 =
         0.03968    0.00238    0.02539   -0.00055
O4    2    0.471975    0.022526    0.607743    11.00000    0.04614    0.03791 =
         0.03758   -0.00109    0.02829   -0.00296
O5    2    0.187523    0.286519    0.869618    11.00000    0.03463    0.03106 =
         0.02987    0.00054    0.00892    0.01230
O6    2    0.211529    0.169646    0.886475    11.00000    0.03431    0.02620 =
         0.03127   -0.00439    0.00804    0.00768
O7    2    0.292491    0.334060    0.947744    11.00000    0.03703    0.02742 =
         0.04469    0.00789    0.02084    0.01162
O8    2    0.317324    0.217243    0.965139    11.00000    0.03440    0.02796 =
         0.03882    0.00161    0.01748    0.00813
O9    2    0.203403    0.424543    0.973058    11.00000    0.04421    0.02882 =
         0.03948    0.00554    0.01782    0.01050
O10   2    0.517149    0.153144    0.395978    11.00000    0.03607    0.03512 =
         0.04538    0.00792    0.02119   -0.00079
C1    1    0.594450    0.010952    0.609810    11.00000    0.03340    0.03246 =
         0.03124   -0.00183    0.01839   -0.00273
C2    1    0.647608    0.014700    0.667906    11.00000    0.03181    0.03193 =
         0.03312   -0.00097    0.01983   -0.00151
C3    1    0.666957   -0.031641    0.736875    11.00000    0.04190    0.03595 =
         0.04089    0.00439    0.02076   -0.00308
AFIX  43
H3    5    0.645365   -0.064910    0.747925    11.00000   -1.20000
AFIX   0
C4    1    0.716563   -0.030437    0.789405    11.00000    0.04424    0.04176 =
         0.03876    0.01079    0.01354   -0.00224
AFIX  43
H4    5    0.729844   -0.063215    0.835593    11.00000   -1.20000
AFIX   0
C5    1    0.746741    0.020323    0.772807    11.00000    0.03409    0.04248 =
         0.04632    0.00798    0.01187   -0.00301
C6    1    0.729073    0.067953    0.706311    11.00000    0.03210    0.04585 =
         0.05347    0.01075    0.01819   -0.00688
AFIX  43
H6    5    0.750689    0.102293    0.697007    11.00000   -1.20000
AFIX   0
C7    1    0.679197    0.064997    0.653109    11.00000    0.03629    0.03371 =
         0.03814    0.00922    0.01615    0.00108
AFIX  43
H7    5    0.666296    0.097223    0.606312    11.00000   -1.20000
AFIX   0
C8    1    0.466410    0.089140    0.587637    11.00000    0.02670    0.03271 =
         0.03518    0.00035    0.01449   -0.00321
C9    1    0.440512    0.135795    0.627200    11.00000    0.06432    0.08831 =
         0.05656   -0.01812    0.03075    0.01847
C10   1    0.430970    0.109564    0.694890    11.00000    0.06432    0.08831 =
         0.05656   -0.01812    0.03075    0.01847
AFIX  43
H10   5    0.443859    0.063648    0.718817    11.00000   -1.20000
AFIX   0
C11   1    0.402520    0.150270    0.728073    11.00000    0.06432    0.08831 =
         0.05656   -0.01812    0.03075    0.01847
AFIX  43
H11   5    0.396984    0.133913    0.776003    11.00000   -1.20000
AFIX   0
C12   1    0.383241    0.213432    0.689785    11.00000    0.06432    0.08831 =
         0.05656   -0.01812    0.03075    0.01847
C13   1    0.394090    0.244300    0.624560    11.00000    0.06432    0.08831 =
         0.05656   -0.01812    0.03075    0.01847
AFIX  43
H13   5    0.381865    0.290891    0.602121    11.00000   -1.20000
AFIX   0
C14   1    0.423437    0.203687    0.594442    11.00000    0.06432    0.08831 =
         0.05656   -0.01812    0.03075    0.01847
AFIX  43
H14   5    0.431964    0.222766    0.550614    11.00000   -1.20000
AFIX   0
F2    3    0.352876    0.252293    0.718775    11.00000    0.06432    0.08831 =
         0.05656   -0.01812    0.03075    0.01847
C15   1    0.184300    0.221271    0.844897    11.00000    0.03092    0.03388 =
         0.03117    0.00261    0.01598    0.00846
C16   1    0.145292    0.203503    0.759538    11.00000    0.02994    0.03480 =
         0.03334    0.00246    0.01291    0.00841
C17   1    0.135013    0.132526    0.734975    11.00000    0.04288    0.03746 =
         0.05574    0.00564   -0.00149    0.00194
AFIX  43
H17   5    0.151955    0.094579    0.772866    11.00000   -1.20000
AFIX   0
C18   1    0.099558    0.115613    0.654062    11.00000    0.07730    0.04445 =
         0.06300   -0.00577   -0.01256   -0.00614
AFIX  43
H18   5    0.093614    0.066856    0.634465    11.00000   -1.20000
AFIX   0
C19   1    0.073770    0.172666    0.604326    11.00000    0.04719    0.06149 =
         0.04251   -0.00016   -0.00090    0.00643
C20   1    0.082694    0.243880    0.627315    11.00000    0.05124    0.05676 =
         0.03476    0.00974    0.01398    0.02260
AFIX  43
H20   5    0.064170    0.281403    0.590312    11.00000   -1.20000
AFIX   0
C21   1    0.118963    0.260122    0.704949    11.00000    0.04728    0.04067 =
         0.03271    0.00240    0.01790    0.01725
AFIX  43
H21   5    0.126342    0.309348    0.721932    11.00000   -1.20000
AFIX   0
C22   1    0.321194    0.282337    0.945529    11.00000    0.03290    0.02894 =
         0.03286   -0.00055    0.01411    0.00620
C23   1    0.362713    0.301243    0.919225    11.00000    0.03104    0.03303 =
         0.03246    0.00164    0.01067    0.00528
C24   1    0.398333    0.248590    0.925915    11.00000    0.03170    0.03588 =
         0.03275   -0.00061    0.00847    0.00438
AFIX  43
H24   5    0.395710    0.201399    0.946170    11.00000   -1.20000
AFIX   0
C25   1    0.437979    0.265267    0.902779    11.00000    0.03342    0.04674 =
         0.04199   -0.00464    0.01616    0.00295
AFIX  43
H25   5    0.463479    0.230778    0.909376    11.00000   -1.20000
AFIX   0
C26   1    0.438850    0.333672    0.869951    11.00000    0.03167    0.05934 =
         0.05012   -0.00308    0.01857   -0.00437
C27   1    0.403900    0.386204    0.861025    11.00000    0.05219    0.03533 =
         0.07870    0.01311    0.02945   -0.00026
AFIX  43
H27   5    0.405376    0.432379    0.837430    11.00000   -1.20000
AFIX   0
C28   1    0.365969    0.368937    0.888133    11.00000    0.03959    0.03326 =
         0.06300    0.00044    0.02334    0.00493
AFIX  43
H28   5    0.341886    0.404813    0.884995    11.00000   -1.20000
AFIX   0
C29   1    0.217016    0.486546    0.992880    11.00000    0.05116    0.02985 =
         0.04436    0.00510    0.01275    0.00459
C30   1    0.272259    0.505822    1.032985    11.00000    0.05894    0.04434 =
         0.09597    0.00167    0.01367   -0.00168
AFIX 137
H30A  5    0.292105    0.461125    1.048093    11.00000   -1.50000
H30B  5    0.278935    0.534922    1.083997    11.00000   -1.50000
H30C  5    0.281269    0.533818    0.992659    11.00000   -1.50000
AFIX   0
C31   1    0.179907    0.545676    0.977569    11.00000    0.06623    0.03711 =
         0.11197    0.00366    0.02158    0.02038
AFIX 137
H31A  5    0.186830    0.584405    0.944637    11.00000   -1.50000
H31B  5    0.182060    0.565287    1.031843    11.00000   -1.50000
H31C  5    0.146314    0.526403    0.946112    11.00000   -1.50000
AFIX   0
C32   1    0.546929    0.172277    0.366671    11.00000    0.02758    0.04007 =
         0.02932    0.00780    0.00829   -0.00400
C33   1    0.553143    0.251705    0.352397    11.00000    0.05544    0.04572 =
         0.05667    0.00967    0.02912   -0.00691
AFIX 137
H33A  5    0.549135    0.259274    0.293699    11.00000   -1.50000
H33B  5    0.586472    0.267695    0.390698    11.00000   -1.50000
H33C  5    0.527867    0.279872    0.363498    11.00000   -1.50000
AFIX   0
C34   1    0.577808    0.118090    0.342759    11.00000    0.05603    0.04972 =
         0.09545    0.01477    0.05138    0.00071
AFIX 137
H34A  5    0.563080    0.110532    0.281411    11.00000   -1.50000
H34B  5    0.578556    0.071850    0.371489    11.00000   -1.50000
H34C  5    0.611881    0.136630    0.359817    11.00000   -1.50000
AFIX   0
HKLF 4 1 1 0 0 0 1 0 0 0 1
 
REM  mo_StauDo3_0m_a.res in C2/c
REM R1 =  0.0773 for    7351 Fo > 4sig(Fo)  and  0.0843 for all    7767 data
REM    422 parameters refined using      0 restraints
 
END
 
WGHT      0.1582     57.6976
 
REM Highest difference peak  2.592,  deepest hole -2.341,  1-sigma level  0.430
Q1    1   0.3495  0.2187  0.7394  11.00000  0.05    2.18
Q2    1   0.3596  0.2844  0.7021  11.00000  0.05    1.97
Q3    1   0.4904  0.0408  0.2764  11.00000  0.05    1.58
Q4    1   0.5000 -0.0120  0.2500  10.50000  0.05    1.56
Q5    1   0.6371  0.2647  0.4262  11.00000  0.05    1.34
Q6    1   0.3341  0.1497  0.7556  11.00000  0.05    1.25
Q7    1   0.2301  0.3130  0.5731  11.00000  0.05    1.18
Q8    1   0.2514  0.3064  0.4164  11.00000  0.05    1.14
Q9    1   0.6363  0.0820  0.4068  11.00000  0.05    1.02
Q10   1   0.6321  0.0284  0.4521  11.00000  0.05    1.01
Q11   1   0.6583 -0.0191  0.4068  11.00000  0.05    1.00
Q12   1   0.3122  0.5788  1.0559  11.00000  0.05    1.00
Q13   1   0.1710  0.1271  0.9049  11.00000  0.05    0.99
Q14   1   0.5282  0.0865  0.2226  11.00000  0.05    0.97
Q15   1   0.6704  0.0312  0.6535  11.00000  0.05    0.97
Q16   1   0.2468  0.2308  0.8431  11.00000  0.05    0.95
Q17   1   0.0814  0.3583  0.1205  11.00000  0.05    0.95
Q18   1   0.7001  0.0680  0.6817  11.00000  0.05    0.88
Q19   1   0.3834  0.1726  0.7052  11.00000  0.05    0.87
Q20   1   0.1315  0.1096  0.6009  11.00000  0.05    0.86
;
_shelx_res_checksum              29155
_shelx_fab_file
;
    4    0    0     59.31      0.00
    6    0    0   -126.60      0.00
    8    0    0     76.52      0.00
   10    0    0    -50.38      0.00
   12    0    0     23.96      0.00
   14    0    0     -1.15      0.00
   16    0    0      8.94      0.00
   18    0    0    -23.06      0.00
   20    0    0     23.68      0.00
   22    0    0     -8.02      0.00
   24    0    0      2.88      0.00
   26    0    0      9.91      0.00
   28    0    0     -3.82      0.00
   30    0    0     -1.72      0.00
   32    0    0      4.13      0.00
    7    1    0    -12.15      0.00
    9    1    0     -4.18      0.00
   11    1    0      2.72      0.00
   13    1    0     20.32      0.00
   15    1    0     -9.41      0.00
   17    1    0    -12.68      0.00
   19    1    0     12.83      0.00
   21    1    0     -1.97      0.00
   23    1    0      1.79      0.00
   25    1    0      5.78      0.00
   27    1    0      1.68      0.00
   29    1    0     -2.98      0.00
   31    1    0      1.74      0.00
    0    2    0     -3.77      0.00
    4    2    0   -196.42      0.00
    6    2    0      9.84      0.00
    8    2    0    -59.89      0.00
   10    2    0     38.23      0.00
   12    2    0     -3.13      0.00
   14    2    0      8.15      0.00
   16    2    0    -26.66      0.00
   18    2    0     20.56      0.00
   20    2    0     -9.28      0.00
   22    2    0      3.24      0.00
   24    2    0      0.90      0.00
   26    2    0      2.27      0.00
   28    2    0      2.05      0.00
   30    2    0     -1.47      0.00
   32    2    0     -1.97      0.00
    1    3    0    117.58      0.00
    3    3    0     78.34      0.00
    5    3    0    -56.19      0.00
    7    3    0    -42.66      0.00
    9    3    0      1.16      0.00
   11    3    0      7.35      0.00
   13    3    0     -2.61      0.00
   15    3    0     -2.62      0.00
   17    3    0      2.40      0.00
   19    3    0    -10.07      0.00
   21    3    0      7.29      0.00
   23    3    0     -8.46      0.00
   25    3    0      5.94      0.00
   27    3    0     -1.05      0.00
   29    3    0      1.48      0.00
   31    3    0     -2.75      0.00
    2    4    0    -19.11      0.00
    4    4    0     99.43      0.00
    6    4    0    -91.33      0.00
    8    4    0     -1.01      0.00
   10    4    0    -21.25      0.00
   12    4    0     14.01      0.00
   14    4    0      2.81      0.00
   16    4    0      0.86      0.00
   18    4    0    -14.60      0.00
   20    4    0      3.08      0.00
   22    4    0     -6.68      0.00
   24    4    0      3.17      0.00
   26    4    0     -0.19      0.00
   28    4    0     -3.53      0.00
   30    4    0      1.88      0.00
    1    5    0    -19.82      0.00
    3    5    0     36.35      0.00
    5    5    0     -4.14      0.00
    7    5    0    -38.65      0.00
    9    5    0    -14.59      0.00
   11    5    0      2.52      0.00
   13    5    0     -4.57      0.00
   15    5    0      7.93      0.00
   17    5    0     -6.92      0.00
   19    5    0      0.72      0.00
   21    5    0    -15.48      0.00
   23    5    0      5.97      0.00
   25    5    0     -6.92      0.00
   27    5    0      4.66      0.00
   29    5    0     -1.95      0.00
   31    5    0     -1.54      0.00
    0    6    0     35.72      0.00
    2    6    0    -33.91      0.00
    4    6    0     37.10      0.00
    6    6    0    -37.75      0.00
    8    6    0    -27.86      0.00
   10    6    0     -1.78      0.00
   12    6    0     -2.50      0.00
   14    6    0     -7.09      0.00
   16    6    0     10.67      0.00
   18    6    0     -6.56      0.00
   20    6    0     -8.81      0.00
   22    6    0     -4.78      0.00
   24    6    0     -1.76      0.00
   26    6    0      1.50      0.00
   28    6    0      1.51      0.00
   30    6    0     -2.44      0.00
    1    7    0     17.05      0.00
    3    7    0     -3.06      0.00
    5    7    0    -11.26      0.00
    7    7    0    -32.00      0.00
    9    7    0     -9.23      0.00
   11    7    0    -18.49      0.00
   13    7    0      7.97      0.00
   15    7    0      0.25      0.00
   17    7    0     -0.21      0.00
   19    7    0    -11.35      0.00
   21    7    0      1.16      0.00
   23    7    0     -9.39      0.00
   25    7    0      7.40      0.00
   27    7    0     -1.39      0.00
   29    7    0     -1.91      0.00
    0    8    0    -23.17      0.00
    2    8    0     64.43      0.00
    4    8    0    -76.70      0.00
    6    8    0     23.76      0.00
    8    8    0    -39.35      0.00
   10    8    0      0.14      0.00
   12    8    0    -15.64      0.00
   14    8    0     15.10      0.00
   16    8    0     -9.55      0.00
   18    8    0      1.07      0.00
   20    8    0     -5.72      0.00
   22    8    0     -0.43      0.00
   24    8    0     -3.14      0.00
   26    8    0      4.26      0.00
   28    8    0      1.87      0.00
   30    8    0     -2.66      0.00
    1    9    0      8.61      0.00
    3    9    0     -5.60      0.00
    5    9    0    -12.85      0.00
    7    9    0     -6.12      0.00
    9    9    0    -20.37      0.00
   11    9    0      2.19      0.00
   13    9    0      0.05      0.00
   15    9    0      6.19      0.00
   17    9    0     -5.14      0.00
   19    9    0     -0.48      0.00
   21    9    0     -1.71      0.00
   23    9    0      0.66      0.00
   25    9    0      0.72      0.00
   27    9    0      3.62      0.00
   29    9    0     -0.46      0.00
    0   10    0     33.72      0.00
    2   10    0    -39.72      0.00
    4   10    0     32.21      0.00
    6   10    0    -25.04      0.00
    8   10    0     11.07      0.00
   10   10    0    -15.76      0.00
   12   10    0     12.28      0.00
   14   10    0     -0.67      0.00
   16   10    0     11.22      0.00
   18   10    0     -8.72      0.00
   20   10    0      4.26      0.00
   22   10    0     -1.52      0.00
   24   10    0      1.89      0.00
   26   10    0      4.62      0.00
   28   10    0     -3.22      0.00
    1   11    0     -5.20      0.00
    3   11    0     -0.37      0.00
    5   11    0     13.50      0.00
    7   11    0     -5.78      0.00
    9   11    0      3.69      0.00
   11   11    0      2.51      0.00
   13   11    0      8.05      0.00
   15   11    0      4.56      0.00
   17   11    0      5.20      0.00
   19   11    0     -0.31      0.00
   21   11    0     -0.45      0.00
   23   11    0      2.93      0.00
   25   11    0     -1.52      0.00
   27   11    0      5.03      0.00
    0   12    0    -11.53      0.00
    2   12    0     13.44      0.00
    4   12    0     -3.51      0.00
    6   12    0      9.31      0.00
    8   12    0     -2.07      0.00
   10   12    0      5.00      0.00
   12   12    0      2.10      0.00
   14   12    0     10.96      0.00
   16   12    0      1.79      0.00
   18   12    0      6.31      0.00
   20   12    0     -3.35      0.00
   22   12    0      1.94      0.00
   24   12    0      1.10      0.00
   26   12    0     -2.16      0.00
    1   13    0      6.44      0.00
    3   13    0      6.71      0.00
    5   13    0     -8.67      0.00
    7   13    0      4.92      0.00
    9   13    0     -2.18      0.00
   11   13    0      3.14      0.00
   13   13    0      3.12      0.00
   15   13    0      5.98      0.00
   17   13    0      3.57      0.00
   19   13    0     -1.11      0.00
   21   13    0      2.41      0.00
   23   13    0     -3.67      0.00
   25   13    0      2.65      0.00
    0   14    0      5.91      0.00
    2   14    0      5.73      0.00
    4   14    0     -4.30      0.00
    6   14    0     -3.49      0.00
    8   14    0     -6.05      0.00
   10   14    0      1.29      0.00
   12   14    0      1.48      0.00
   14   14    0      2.89      0.00
   16   14    0      0.64      0.00
   18   14    0     -0.23      0.00
   20   14    0      1.97      0.00
   22   14    0     -1.03      0.00
   24   14    0     -3.66      0.00
    1   15    0      4.32      0.00
    3   15    0     -4.83      0.00
    5   15    0     -4.13      0.00
    7   15    0     -1.06      0.00
    9   15    0     -4.74      0.00
   11   15    0      0.04      0.00
   13   15    0      2.58      0.00
   15   15    0     -1.56      0.00
   17   15    0     -0.86      0.00
   19   15    0      0.36      0.00
   21   15    0     -0.79      0.00
   23   15    0     -0.19      0.00
    0   16    0      3.12      0.00
    2   16    0     -6.86      0.00
    4   16    0      3.73      0.00
    6   16    0     -5.46      0.00
    8   16    0      4.55      0.00
   10   16    0     -5.09      0.00
   12   16    0      3.77      0.00
   14   16    0     -2.45      0.00
   16   16    0     -0.82      0.00
   18   16    0      0.55      0.00
   20   16    0     -2.10      0.00
   22   16    0      0.03      0.00
    1   17    0     -1.68      0.00
    3   17    0     -0.76      0.00
    5   17    0      2.12      0.00
    7   17    0      1.70      0.00
    9   17    0      0.41      0.00
   11   17    0      1.55      0.00
   13   17    0     -1.64      0.00
   15   17    0      1.66      0.00
   17   17    0     -2.64      0.00
   19   17    0      0.90      0.00
    0   18    0      1.98      0.00
    2   18    0      0.71      0.00
    4   18    0      0.30      0.00
    6   18    0      1.90      0.00
    8   18    0     -0.40      0.00
   10   18    0      2.14      0.00
   12   18    0     -0.54      0.00
   14   18    0      0.48      0.00
   16   18    0      0.85      0.00
   18   18    0     -1.47      0.00
    1   19    0      3.64      0.00
    3   19    0     -0.51      0.00
    5   19    0      2.06      0.00
    7   19    0     -7.75      0.00
    9   19    0      6.80      0.00
   11   19    0     -5.44      0.00
   13   19    0      3.46      0.00
   15   19    0     -1.13      0.00
    0   20    0      0.39      0.00
    2   20    0      3.73      0.00
    4   20    0     -2.73      0.00
    6   20    0     -1.83      0.00
    8   20    0     -3.68      0.00
   10   20    0      0.25      0.00
   12   20    0      0.13      0.00
    1   21    0     -2.34      0.00
    3   21    0      2.52      0.00
    5   21    0     -3.55      0.00
    7   21    0      1.56      0.00
    9   21    0     -5.58      0.00
    0   22    0     -4.34      0.00
    2   22    0     -2.23      0.00
  -31    1    1     -0.56      0.00
  -29    1    1     -1.06      0.00
  -27    1    1      3.29      0.00
  -25    1    1     -5.44      0.00
  -23    1    1      1.09      0.00
  -21    1    1      0.44      0.00
  -19    1    1     -6.75      0.00
  -17    1    1      1.62      0.00
  -15    1    1     -2.42      0.00
  -13    1    1      5.52      0.00
  -11    1    1     17.14      0.00
   -9    1    1    -40.45      0.00
   -7    1    1     53.67      0.00
   -5    1    1     20.06      0.00
   -3    1    1     66.24      0.00
    3    1    1    -64.10      0.00
    5    1    1    -68.89      0.00
    7    1    1     69.81      0.00
    9    1    1    -20.03      0.00
   11    1    1    -22.87      0.00
   13    1    1     24.94      0.00
   15    1    1    -26.90      0.00
   17    1    1     17.80      0.00
   19    1    1    -11.04      0.00
   21    1    1      1.45      0.00
   23    1    1      0.63      0.00
   25    1    1     -0.67      0.00
   27    1    1      1.47      0.00
   29    1    1     -1.86      0.00
   31    1    1      1.39      0.00
  -32    2    1      0.83      0.00
  -30    2    1     -1.25      0.00
  -28    2    1      1.35      0.00
  -26    2    1      1.10      0.00
  -24    2    1     -7.83      0.00
  -22    2    1      6.61      0.00
  -20    2    1     -9.20      0.00
  -18    2    1     -2.62      0.00
  -16    2    1      7.48      0.00
  -14    2    1     -0.33      0.00
  -12    2    1    -20.86      0.00
  -10    2    1     38.30      0.00
   -8    2    1     -3.62      0.00
   -6    2    1     30.76      0.00
   -4    2    1     29.58      0.00
   -2    2    1     49.09      0.00
    0    2    1    -22.79      0.00
    2    2    1    113.20      0.00
    4    2    1    -78.63      0.00
    6    2    1     39.99      0.00
    8    2    1    -29.47      0.00
   10    2    1     -9.24      0.00
   12    2    1    -15.55      0.00
   14    2    1     22.30      0.00
   16    2    1    -17.19      0.00
   18    2    1     -7.43      0.00
   20    2    1      5.47      0.00
   22    2    1     -5.49      0.00
   24    2    1      0.06      0.00
   26    2    1      5.24      0.00
   28    2    1     -5.00      0.00
   30    2    1      0.22      0.00
  -31    3    1     -0.42      0.00
  -29    3    1     -1.91      0.00
  -27    3    1      1.29      0.00
  -25    3    1      2.65      0.00
  -23    3    1     -3.16      0.00
  -21    3    1     -1.54      0.00
  -19    3    1     -8.39      0.00
  -17    3    1      0.65      0.00
  -15    3    1     20.81      0.00
  -13    3    1    -17.45      0.00
  -11    3    1    -26.98      0.00
   -9    3    1     49.73      0.00
   -7    3    1      1.34      0.00
   -5    3    1     40.46      0.00
   -3    3    1      3.15      0.00
   -1    3    1     51.31      0.00
    1    3    1    -10.95      0.00
    3    3    1     46.45      0.00
    5    3    1    -15.75      0.00
    7    3    1    -30.16      0.00
    9    3    1    -22.28      0.00
   11    3    1     -5.20      0.00
   13    3    1     -1.14      0.00
   15    3    1      4.66      0.00
   17    3    1    -27.64      0.00
   19    3    1     10.84      0.00
   21    3    1     -2.51      0.00
   23    3    1     -6.43      0.00
   25    3    1      4.16      0.00
   27    3    1     -2.42      0.00
   29    3    1     -1.20      0.00
   31    3    1      5.74      0.00
  -32    4    1      5.36      0.00
  -30    4    1     -7.25      0.00
  -28    4    1      5.27      0.00
  -26    4    1     -3.60      0.00
  -24    4    1      5.87      0.00
  -22    4    1     -6.90      0.00
  -20    4    1      4.50      0.00
  -18    4    1    -11.73      0.00
  -16    4    1     17.45      0.00
  -14    4    1    -11.59      0.00
  -12    4    1     -0.15      0.00
  -10    4    1    -24.66      0.00
   -8    4    1     33.81      0.00
   -6    4    1      7.75      0.00
   -4    4    1     43.18      0.00
   -2    4    1    -30.33      0.00
    0    4    1     43.48      0.00
    2    4    1    -35.53      0.00
    4    4    1     62.89      0.00
    6    4    1    -67.62      0.00
    8    4    1      1.76      0.00
   10    4    1    -49.05      0.00
   12    4    1     20.23      0.00
   14    4    1    -15.30      0.00
   16    4    1     -0.33      0.00
   18    4    1     -7.63      0.00
   20    4    1     -3.67      0.00
   22    4    1     -0.87      0.00
   24    4    1     -0.93      0.00
   26    4    1     -0.86      0.00
   28    4    1     -0.17      0.00
   30    4    1      1.65      0.00
  -31    5    1     -2.94      0.00
  -29    5    1     -1.43      0.00
  -27    5    1      3.55      0.00
  -25    5    1     -4.14      0.00
  -23    5    1      2.70      0.00
  -21    5    1      0.77      0.00
  -19    5    1     -4.42      0.00
  -17    5    1      8.17      0.00
  -15    5    1    -11.87      0.00
  -13    5    1     -0.16      0.00
  -11    5    1     -1.01      0.00
   -9    5    1    -21.81      0.00
   -7    5    1     15.95      0.00
   -5    5    1     42.38      0.00
   -3    5    1    -14.08      0.00
   -1    5    1     10.10      0.00
    1    5    1    -38.89      0.00
    3    5    1     37.06      0.00
    5    5    1      3.95      0.00
    7    5    1    -37.99      0.00
    9    5    1    -19.91      0.00
   11    5    1    -18.50      0.00
   13    5    1     -1.57      0.00
   15    5    1      4.62      0.00
   17    5    1     -2.42      0.00
   19    5    1     -9.59      0.00
   21    5    1     -0.84      0.00
   23    5    1      1.73      0.00
   25    5    1     -2.83      0.00
   27    5    1      0.92      0.00
   29    5    1      0.80      0.00
  -30    6    1      3.86      0.00
  -28    6    1     -6.62      0.00
  -26    6    1      6.60      0.00
  -24    6    1     -5.42      0.00
  -22    6    1      6.61      0.00
  -20    6    1    -13.44      0.00
  -18    6    1     14.27      0.00
  -16    6    1    -14.72      0.00
  -14    6    1     11.49      0.00
  -12    6    1    -22.46      0.00
  -10    6    1      1.00      0.00
   -8    6    1    -17.99      0.00
   -6    6    1     55.36      0.00
   -4    6    1      2.84      0.00
   -2    6    1      1.21      0.00
    0    6    1    -39.94      0.00
    2    6    1     40.56      0.00
    4    6    1      2.65      0.00
    6    6    1      6.75      0.00
    8    6    1    -46.62      0.00
   10    6    1      9.48      0.00
   12    6    1    -26.47      0.00
   14    6    1     15.71      0.00
   16    6    1     -6.03      0.00
   18    6    1     -0.63      0.00
   20    6    1      2.46      0.00
   22    6    1     -0.61      0.00
   24    6    1     -2.85      0.00
   26    6    1     -0.06      0.00
   28    6    1      0.12      0.00
   30    6    1      2.85      0.00
  -31    7    1     -1.16      0.00
  -29    7    1      1.02      0.00
  -27    7    1     -3.41      0.00
  -25    7    1      0.15      0.00
  -23    7    1      1.67      0.00
  -21    7    1     -5.27      0.00
  -19    7    1      0.87      0.00
  -17    7    1     -3.14      0.00
  -15    7    1      2.69      0.00
  -13    7    1    -14.89      0.00
  -11    7    1     -0.99      0.00
   -9    7    1     -6.19      0.00
   -7    7    1     26.19      0.00
   -5    7    1      6.64      0.00
   -3    7    1     48.88      0.00
   -1    7    1    -46.99      0.00
    1    7    1     30.23      0.00
    3    7    1      0.14      0.00
    5    7    1     40.01      0.00
    7    7    1    -29.71      0.00
    9    7    1     -4.88      0.00
   11    7    1    -15.56      0.00
   13    7    1      2.03      0.00
   15    7    1      2.35      0.00
   17    7    1      4.70      0.00
   19    7    1     -0.76      0.00
   21    7    1      6.21      0.00
   23    7    1     -4.03      0.00
   25    7    1     -1.75      0.00
   27    7    1      4.50      0.00
   29    7    1     -3.98      0.00
  -30    8    1     -2.15      0.00
  -28    8    1      5.33      0.00
  -26    8    1     -9.39      0.00
  -24    8    1      4.79      0.00
  -22    8    1     -5.06      0.00
  -20    8    1      3.45      0.00
  -18    8    1    -10.10      0.00
  -16    8    1     10.67      0.00
  -14    8    1    -19.65      0.00
  -12    8    1      9.65      0.00
  -10    8    1    -13.65      0.00
   -8    8    1     17.81      0.00
   -6    8    1     16.14      0.00
   -4    8    1     31.14      0.00
   -2    8    1     -1.40      0.00
    0    8    1      6.09      0.00
    2    8    1     12.14      0.00
    4    8    1     30.48      0.00
    6    8    1    -10.65      0.00
    8    8    1      2.11      0.00
   10    8    1    -16.23      0.00
   12    8    1     -3.54      0.00
   14    8    1     -2.43      0.00
   16    8    1     11.12      0.00
   18    8    1     -1.41      0.00
   20    8    1      5.45      0.00
   22    8    1      2.91      0.00
   24    8    1     -4.35      0.00
   26    8    1      1.50      0.00
   28    8    1      1.41      0.00
  -29    9    1      2.26      0.00
  -27    9    1     -2.29      0.00
  -25    9    1     -0.97      0.00
  -23    9    1     -2.02      0.00
  -21    9    1      0.26      0.00
  -19    9    1     -1.11      0.00
  -17    9    1      1.54      0.00
  -15    9    1     -5.94      0.00
  -13    9    1     -1.43      0.00
  -11    9    1     -3.43      0.00
   -9    9    1      9.47      0.00
   -7    9    1      4.84      0.00
   -5    9    1     34.28      0.00
   -3    9    1    -11.63      0.00
   -1    9    1     29.13      0.00
    1    9    1    -15.38      0.00
    3    9    1     43.75      0.00
    5    9    1    -23.17      0.00
    7    9    1     15.17      0.00
    9    9    1    -20.95      0.00
   11    9    1      1.56      0.00
   13    9    1     -9.19      0.00
   15    9    1      8.02      0.00
   17    9    1     -2.21      0.00
   19    9    1      7.33      0.00
   21    9    1      4.57      0.00
   23    9    1     -3.73      0.00
   25    9    1      0.37      0.00
   27    9    1     -2.79      0.00
  -28   10    1     -1.60      0.00
  -26   10    1     -0.55      0.00
  -24   10    1     -2.60      0.00
  -22   10    1      2.76      0.00
  -20   10    1     -0.77      0.00
  -18   10    1      5.52      0.00
  -16   10    1     -9.51      0.00
  -14   10    1      4.96      0.00
  -12   10    1     -6.24      0.00
  -10   10    1     12.00      0.00
   -8   10    1     -2.48      0.00
   -6   10    1     11.99      0.00
   -4   10    1      6.57      0.00
   -2   10    1      5.80      0.00
    0   10    1      4.55      0.00
    2   10    1      4.87      0.00
    4   10    1      0.53      0.00
    6   10    1      3.10      0.00
    8   10    1    -14.01      0.00
   10   10    1     -2.86      0.00
   12   10    1     -4.75      0.00
   14   10    1     -2.24      0.00
   16   10    1      3.25      0.00
   18   10    1      4.84      0.00
   20   10    1      0.35      0.00
   22   10    1      1.34      0.00
   24   10    1     -2.23      0.00
   26   10    1     -1.01      0.00
   28   10    1     -1.55      0.00
  -27   11    1     -2.73      0.00
  -25   11    1     -1.39      0.00
  -23   11    1      2.35      0.00
  -21   11    1      1.83      0.00
  -19   11    1      2.13      0.00
  -17   11    1      0.71      0.00
  -15   11    1     -5.53      0.00
  -13   11    1      5.30      0.00
  -11   11    1      0.31      0.00
   -9   11    1      3.13      0.00
   -7   11    1      3.14      0.00
   -5   11    1      0.70      0.00
   -3   11    1      7.66      0.00
   -1   11    1    -10.66      0.00
    1   11    1     15.98      0.00
    3   11    1    -14.63      0.00
    5   11    1     12.31      0.00
    7   11    1    -14.16      0.00
    9   11    1     -2.70      0.00
   11   11    1     -4.54      0.00
   13   11    1      1.68      0.00
   15   11    1     -5.25      0.00
   17   11    1      8.99      0.00
   19   11    1     -1.75      0.00
   21   11    1     -1.14      0.00
   23   11    1      3.24      0.00
   25   11    1     -5.48      0.00
   27   11    1      1.75      0.00
  -26   12    1      0.25      0.00
  -24   12    1      0.98      0.00
  -22   12    1     -0.57      0.00
  -20   12    1      3.46      0.00
  -18   12    1      2.73      0.00
  -16   12    1     -2.23      0.00
  -14   12    1     -4.73      0.00
  -12   12    1      7.30      0.00
  -10   12    1     -4.10      0.00
   -8   12    1     11.64      0.00
   -6   12    1    -12.96      0.00
   -4   12    1     11.50      0.00
   -2   12    1     -5.90      0.00
    0   12    1      3.58      0.00
    2   12    1     -3.67      0.00
    4   12    1      5.19      0.00
    6   12    1     -0.26      0.00
    8   12    1     -4.36      0.00
   10   12    1     -5.12      0.00
   12   12    1     -0.64      0.00
   14   12    1      2.32      0.00
   16   12    1      0.26      0.00
   18   12    1      0.35      0.00
   20   12    1      1.04      0.00
   22   12    1     -0.06      0.00
   24   12    1     -0.06      0.00
   26   12    1     -2.07      0.00
  -25   13    1      0.41      0.00
  -23   13    1     -0.38      0.00
  -21   13    1     -1.02      0.00
  -19   13    1      4.98      0.00
  -17   13    1     -3.29      0.00
  -15   13    1      0.76      0.00
  -13   13    1     -6.01      0.00
  -11   13    1      5.56      0.00
   -9   13    1     -3.01      0.00
   -7   13    1      4.80      0.00
   -5   13    1     -1.32      0.00
   -3   13    1      1.88      0.00
   -1   13    1     -1.50      0.00
    1   13    1      2.71      0.00
    3   13    1      6.61      0.00
    5   13    1     -0.04      0.00
    7   13    1      3.07      0.00
    9   13    1     -4.99      0.00
   11   13    1     -2.30      0.00
   13   13    1     -2.55      0.00
   15   13    1      4.08      0.00
   17   13    1     -0.93      0.00
   19   13    1     -0.02      0.00
   21   13    1      0.58      0.00
   23   13    1      0.28      0.00
   25   13    1      2.58      0.00
  -24   14    1     -2.21      0.00
  -22   14    1     -0.27      0.00
  -20   14    1     -0.57      0.00
  -18   14    1      1.19      0.00
  -16   14    1      0.32      0.00
  -14   14    1     -4.03      0.00
  -12   14    1     -5.66      0.00
  -10   14    1      4.15      0.00
   -8   14    1     -1.37      0.00
   -6   14    1      5.84      0.00
   -4   14    1     -6.89      0.00
   -2   14    1      9.15      0.00
    0   14    1     -4.71      0.00
    2   14    1      7.39      0.00
    4   14    1      4.92      0.00
    6   14    1      1.30      0.00
    8   14    1     -1.49      0.00
   10   14    1     -7.52      0.00
   12   14    1      0.41      0.00
   14   14    1     -3.67      0.00
   16   14    1      1.76      0.00
   18   14    1     -0.57      0.00
   20   14    1     -0.26      0.00
   22   14    1      1.85      0.00
   24   14    1      2.30      0.00
  -23   15    1     -3.45      0.00
  -21   15    1     -0.27      0.00
  -19   15    1      0.95      0.00
  -17   15    1      1.82      0.00
  -15   15    1     -3.24      0.00
  -13   15    1     -2.97      0.00
  -11   15    1     -4.74      0.00
   -9   15    1      5.14      0.00
   -7   15    1     -2.69      0.00
   -5   15    1      4.36      0.00
   -3   15    1     -4.53      0.00
   -1   15    1      5.68      0.00
    1   15    1     -3.03      0.00
    3   15    1      6.54      0.00
    5   15    1      0.69      0.00
    7   15    1     -1.92      0.00
    9   15    1     -7.28      0.00
   11   15    1     -1.00      0.00
   13   15    1     -5.18      0.00
   15   15    1     -1.95      0.00
   17   15    1     -0.62      0.00
   19   15    1      0.69      0.00
   21   15    1      1.83      0.00
   23   15    1      1.83      0.00
  -22   16    1     -1.70      0.00
  -20   16    1      2.52      0.00
  -18   16    1     -0.72      0.00
  -16   16    1      1.46      0.00
  -14   16    1     -1.58      0.00
  -12   16    1     -1.78      0.00
  -10   16    1     -1.58      0.00
   -8   16    1     -0.17      0.00
   -6   16    1      4.15      0.00
   -4   16    1      0.34      0.00
   -2   16    1     -5.52      0.00
    0   16    1      2.89      0.00
    2   16    1     -0.40      0.00
    4   16    1      2.21      0.00
    6   16    1     -4.80      0.00
    8   16    1     -5.55      0.00
   10   16    1      0.14      0.00
   12   16    1     -2.19      0.00
   14   16    1     -5.77      0.00
   16   16    1     -6.06      0.00
   18   16    1      7.01      0.00
   20   16    1      0.12      0.00
  -21   17    1      3.15      0.00
  -19   17    1     -1.02      0.00
  -17   17    1      2.05      0.00
  -15   17    1      0.04      0.00
  -13   17    1      2.28      0.00
  -11   17    1     -2.62      0.00
   -9   17    1      0.62      0.00
   -7   17    1      3.07      0.00
   -5   17    1      0.65      0.00
   -3   17    1     -0.44      0.00
   -1   17    1     -2.29      0.00
    1   17    1     -0.23      0.00
    3   17    1     -1.19      0.00
    5   17    1      1.67      0.00
    7   17    1    -10.07      0.00
    9   17    1      5.11      0.00
   11   17    1     -0.55      0.00
   13   17    1     -0.37      0.00
   15   17    1    -11.19      0.00
   17   17    1      2.58      0.00
   19   17    1      8.40      0.00
  -18   18    1      0.15      0.00
  -16   18    1      1.04      0.00
  -14   18    1      1.75      0.00
  -12   18    1     -0.13      0.00
  -10   18    1      1.78      0.00
   -8   18    1      0.94      0.00
   -6   18    1      4.08      0.00
   -4   18    1     -2.01      0.00
   -2   18    1      0.71      0.00
    0   18    1     -0.60      0.00
    2   18    1     -0.17      0.00
    4   18    1     -1.12      0.00
    6   18    1     -1.78      0.00
    8   18    1      1.95      0.00
   10   18    1      1.73      0.00
   12   18    1      3.65      0.00
   14   18    1     -7.53      0.00
   16   18    1     -0.58      0.00
   18   18    1      3.33      0.00
  -17   19    1     -1.29      0.00
  -15   19    1      3.05      0.00
  -13   19    1     -3.12      0.00
  -11   19    1      2.72      0.00
   -9   19    1      1.87      0.00
   -7   19    1      4.14      0.00
   -5   19    1     -4.35      0.00
   -3   19    1      3.19      0.00
   -1   19    1     -0.77      0.00
    1   19    1      2.06      0.00
    3   19    1     -3.11      0.00
    5   19    1      1.07      0.00
    7   19    1      3.43      0.00
    9   19    1     -0.31      0.00
   11   19    1      3.40      0.00
   13   19    1     -2.65      0.00
   15   19    1      0.28      0.00
  -14   20    1     -1.37      0.00
  -12   20    1     -1.81      0.00
  -10   20    1      0.77      0.00
   -8   20    1      5.31      0.00
   -6   20    1     -3.16      0.00
   -4   20    1     -1.51      0.00
   -2   20    1      0.29      0.00
    0   20    1     -0.33      0.00
    2   20    1      2.27      0.00
    4   20    1     -4.17      0.00
    6   20    1      6.68      0.00
    8   20    1     -5.05      0.00
   10   20    1      3.35      0.00
   12   20    1     -4.61      0.00
   -9   21    1      1.94      0.00
   -7   21    1      1.13      0.00
   -5   21    1     -2.98      0.00
   -3   21    1     -3.33      0.00
   -1   21    1     -0.21      0.00
    1   21    1     -1.43      0.00
    3   21    1      2.09      0.00
    5   21    1     -1.11      0.00
    7   21    1      0.29      0.00
    9   21    1     -5.34      0.00
   -4   22    1     -3.12      0.00
   -2   22    1     -3.22      0.00
    0   22    1     -2.51      0.00
    2   22    1      1.15      0.00
  -32    0    2     -3.07      0.00
  -30    0    2      1.04      0.00
  -28    0    2     -5.35      0.00
  -26    0    2      4.59      0.00
  -24    0    2      2.09      0.00
  -22    0    2      4.02      0.00
  -20    0    2     -3.52      0.00
  -18    0    2     20.47      0.00
  -16    0    2    -36.78      0.00
  -14    0    2     16.79      0.00
  -12    0    2    -58.27      0.00
  -10    0    2     26.45      0.00
   -8    0    2     65.43      0.00
   -6    0    2    109.99      0.00
   -4    0    2   -514.00      0.00
   -2    0    2    -89.16      0.00
    0    0    2    -99.79      0.00
    2    0    2    185.40      0.00
    4    0    2   -104.36      0.00
    6    0    2     94.97      0.00
    8    0    2     -5.28      0.00
   10    0    2    -27.22      0.00
   12    0    2     14.06      0.00
   14    0    2     10.07      0.00
   16    0    2     -2.18      0.00
   18    0    2      2.55      0.00
   20    0    2     -7.34      0.00
   22    0    2      1.31      0.00
   24    0    2     -3.81      0.00
   26    0    2     -1.34      0.00
   28    0    2      2.87      0.00
   30    0    2     -3.74      0.00
  -33    1    2     -4.57      0.00
  -31    1    2     -0.17      0.00
  -29    1    2     -1.83      0.00
  -27    1    2     -1.74      0.00
  -25    1    2      5.71      0.00
  -23    1    2      1.03      0.00
  -21    1    2     -0.78      0.00
  -19    1    2     13.65      0.00
  -17    1    2    -10.53      0.00
  -15    1    2    -18.61      0.00
  -13    1    2    -18.54      0.00
  -11    1    2     -0.34      0.00
   -9    1    2     30.45      0.00
   -7    1    2     60.99      0.00
   -5    1    2    -94.20      0.00
   -3    1    2   -328.32      0.00
   -1    1    2   -155.80      0.00
    1    1    2    115.65      0.00
    3    1    2     33.47      0.00
    5    1    2     14.70      0.00
    7    1    2     -6.02      0.00
    9    1    2     27.29      0.00
   11    1    2    -23.43      0.00
   13    1    2     19.53      0.00
   15    1    2      1.86      0.00
   17    1    2     -1.86      0.00
   19    1    2     -3.54      0.00
   21    1    2      7.03      0.00
   23    1    2    -10.79      0.00
   25    1    2      2.23      0.00
   27    1    2      0.09      0.00
   29    1    2     -2.75      0.00
  -32    2    2     -1.02      0.00
  -30    2    2      0.64      0.00
  -28    2    2     -0.71      0.00
  -26    2    2      0.00      0.00
  -24    2    2      7.85      0.00
  -22    2    2    -11.51      0.00
  -20    2    2     17.62      0.00
  -18    2    2     -3.89      0.00
  -16    2    2     -0.46      0.00
  -14    2    2    -53.00      0.00
  -12    2    2     19.32      0.00
  -10    2    2     -1.64      0.00
   -8    2    2     74.35      0.00
   -6    2    2   -101.13      0.00
   -4    2    2     31.18      0.00
   -2    2    2   -348.30      0.00
    0    2    2     61.47      0.00
    2    2    2      2.00      0.00
    4    2    2    100.93      0.00
    6    2    2    -48.79      0.00
    8    2    2     33.47      0.00
   10    2    2     11.38      0.00
   12    2    2    -19.65      0.00
   14    2    2     17.13      0.00
   16    2    2      3.18      0.00
   18    2    2     -7.08      0.00
   20    2    2     11.67      0.00
   22    2    2     -7.97      0.00
   24    2    2     -5.76      0.00
   26    2    2      7.22      0.00
   28    2    2     -5.56      0.00
   30    2    2      4.45      0.00
  -33    3    2     -2.63      0.00
  -31    3    2     -0.33      0.00
  -29    3    2      1.14      0.00
  -27    3    2     -0.27      0.00
  -25    3    2      3.06      0.00
  -23    3    2      0.04      0.00
  -21    3    2      4.45      0.00
  -19    3    2     -2.54      0.00
  -17    3    2     10.98      0.00
  -15    3    2    -33.47      0.00
  -13    3    2     -8.44      0.00
  -11    3    2    -11.40      0.00
   -9    3    2     37.07      0.00
   -7    3    2     19.47      0.00
   -5    3    2    -54.86      0.00
   -3    3    2    -24.21      0.00
    1    3    2    -62.26      0.00
    3    3    2     88.11      0.00
    5    3    2     -2.31      0.00
    7    3    2     56.52      0.00
    9    3    2    -42.95      0.00
   11    3    2     26.85      0.00
   13    3    2    -24.17      0.00
   15    3    2     26.91      0.00
   17    3    2    -13.23      0.00
   19    3    2     12.24      0.00
   21    3    2     -9.60      0.00
   23    3    2      4.04      0.00
   25    3    2     -7.19      0.00
   27    3    2      4.79      0.00
   29    3    2      0.13      0.00
  -32    4    2     -1.04      0.00
  -30    4    2     -2.46      0.00
  -28    4    2      4.09      0.00
  -26    4    2     -0.16      0.00
  -24    4    2     -1.99      0.00
  -22    4    2     18.57      0.00
  -20    4    2    -13.93      0.00
  -18    4    2      5.44      0.00
  -16    4    2    -13.59      0.00
  -14    4    2      0.46      0.00
  -12    4    2    -21.98      0.00
  -10    4    2     24.13      0.00
   -8    4    2    -32.89      0.00
   -6    4    2     74.92      0.00
   -4    4    2    -61.49      0.00
   -2    4    2     58.49      0.00
    0    4    2   -141.44      0.00
    2    4    2     15.36      0.00
    4    4    2     41.90      0.00
    6    4    2     40.55      0.00
    8    4    2    -11.57      0.00
   10    4    2    -22.31      0.00
   12    4    2     10.96      0.00
   14    4    2     -4.70      0.00
   16    4    2      2.25      0.00
   18    4    2     -1.88      0.00
   20    4    2     -0.33      0.00
   22    4    2      0.08      0.00
   24    4    2     -3.17      0.00
   26    4    2     -3.70      0.00
   28    4    2      3.49      0.00
   30    4    2     -0.49      0.00
  -31    5    2      1.80      0.00
  -29    5    2     -0.21      0.00
  -27    5    2      3.07      0.00
  -25    5    2     -1.03      0.00
  -23    5    2      8.58      0.00
  -21    5    2      0.11      0.00
  -19    5    2      3.80      0.00
  -17    5    2    -16.35      0.00
  -15    5    2     14.06      0.00
  -13    5    2    -26.49      0.00
  -11    5    2     15.74      0.00
   -9    5    2     -2.33      0.00
   -7    5    2      2.37      0.00
   -5    5    2     22.53      0.00
   -3    5    2     11.95      0.00
   -1    5    2    -24.71      0.00
    1    5    2    -55.85      0.00
    3    5    2     -9.22      0.00
    5    5    2     75.36      0.00
    7    5    2    -27.41      0.00
    9    5    2     20.63      0.00
   11    5    2    -50.54      0.00
   13    5    2     26.36      0.00
   15    5    2    -27.35      0.00
   17    5    2     17.99      0.00
   19    5    2    -10.32      0.00
   21    5    2      1.71      0.00
   23    5    2    -11.86      0.00
   25    5    2      5.75      0.00
   27    5    2     -5.16      0.00
   29    5    2      2.67      0.00
  -32    6    2      0.61      0.00
  -30    6    2      2.40      0.00
  -28    6    2     -2.59      0.00
  -26    6    2      4.41      0.00
  -24    6    2      4.27      0.00
  -22    6    2     -1.20      0.00
  -20    6    2     10.04      0.00
  -18    6    2    -13.49      0.00
  -16    6    2      3.33      0.00
  -14    6    2     -6.62      0.00
  -12    6    2      8.36      0.00
  -10    6    2     -3.19      0.00
   -8    6    2     14.57      0.00
   -6    6    2    -20.30      0.00
   -4    6    2     40.28      0.00
   -2    6    2    -29.97      0.00
    0    6    2    -30.07      0.00
    2    6    2    -11.27      0.00
    4    6    2     23.11      0.00
    6    6    2     19.07      0.00
    8    6    2     -6.00      0.00
   10    6    2    -11.32      0.00
   12    6    2    -19.18      0.00
   14    6    2      0.49      0.00
   16    6    2     -6.87      0.00
   18    6    2      8.31      0.00
   20    6    2    -11.03      0.00
   22    6    2     -4.86      0.00
   24    6    2     -0.43      0.00
   26    6    2     -3.59      0.00
   28    6    2      1.64      0.00
  -31    7    2     -3.64      0.00
  -29    7    2      0.98      0.00
  -27    7    2      0.11      0.00
  -25    7    2      3.37      0.00
  -23    7    2      0.80      0.00
  -21    7    2      8.71      0.00
  -19    7    2    -12.14      0.00
  -17    7    2      3.23      0.00
  -15    7    2     -8.71      0.00
  -13    7    2     16.20      0.00
  -11    7    2     -6.81      0.00
   -9    7    2      8.60      0.00
   -7    7    2     -5.13      0.00
   -5    7    2     13.48      0.00
   -3    7    2    -25.19      0.00
   -1    7    2    -15.27      0.00
    1    7    2     -9.34      0.00
    3    7    2     25.83      0.00
    5    7    2      2.31      0.00
    7    7    2     22.64      0.00
    9    7    2    -25.33      0.00
   11    7    2      7.31      0.00
   13    7    2    -23.97      0.00
   15    7    2     14.27      0.00
   17    7    2     -9.04      0.00
   19    7    2      0.48      0.00
   21    7    2     -6.50      0.00
   23    7    2      3.56      0.00
   25    7    2     -9.89      0.00
   27    7    2      3.72      0.00
   29    7    2     -0.55      0.00
  -30    8    2     -1.30      0.00
  -28    8    2     -0.79      0.00
  -26    8    2      0.96      0.00
  -24    8    2      1.70      0.00
  -22    8    2      1.45      0.00
  -20    8    2      1.60      0.00
  -18    8    2     -5.65      0.00
  -16    8    2     -5.85      0.00
  -14    8    2      5.23      0.00
  -12    8    2      4.66      0.00
  -10    8    2     -5.73      0.00
   -8    8    2     16.41      0.00
   -6    8    2    -10.94      0.00
   -4    8    2     -5.48      0.00
   -2    8    2    -21.44      0.00
    0    8    2     14.47      0.00
    2    8    2     -2.53      0.00
    4    8    2     20.59      0.00
    6    8    2     13.74      0.00
    8    8    2      1.05      0.00
   10    8    2     -2.50      0.00
   12    8    2     -6.77      0.00
   14    8    2     -4.41      0.00
   16    8    2     11.86      0.00
   18    8    2     -8.39      0.00
   20    8    2      3.45      0.00
   22    8    2     -2.16      0.00
   24    8    2     -4.39      0.00
   26    8    2      2.78      0.00
   28    8    2     -0.42      0.00
  -29    9    2     -3.22      0.00
  -27    9    2      1.17      0.00
  -25    9    2      0.61      0.00
  -23    9    2      1.68      0.00
  -21    9    2     -2.19      0.00
  -19    9    2      4.55      0.00
  -17    9    2    -13.83      0.00
  -15    9    2      3.05      0.00
  -13    9    2      1.31      0.00
  -11    9    2      3.50      0.00
   -9    9    2     -6.42      0.00
   -7    9    2      4.29      0.00
   -5    9    2     -2.76      0.00
   -3    9    2      3.67      0.00
   -1    9    2    -10.74      0.00
    1    9    2      7.00      0.00
    3    9    2      4.77      0.00
    5    9    2     23.40      0.00
    7    9    2      1.39      0.00
    9    9    2      0.04      0.00
   11    9    2     -1.41      0.00
   13    9    2     -3.44      0.00
   15    9    2      7.53      0.00
   17    9    2      3.35      0.00
   19    9    2     -3.64      0.00
   21    9    2      4.47      0.00
   23    9    2     -2.13      0.00
   25    9    2      0.79      0.00
   27    9    2      2.36      0.00
  -28   10    2      0.54      0.00
  -26   10    2      0.73      0.00
  -24   10    2      0.95      0.00
  -22   10    2      2.75      0.00
  -20   10    2     -7.25      0.00
  -18   10    2      4.80      0.00
  -16   10    2     -9.55      0.00
  -14   10    2      3.90      0.00
  -12   10    2     -6.70      0.00
  -10   10    2      8.15      0.00
   -8   10    2    -15.96      0.00
   -6   10    2     17.61      0.00
   -4   10    2     -9.54      0.00
   -2   10    2     16.64      0.00
    0   10    2    -13.75      0.00
    2   10    2     -5.43      0.00
    4   10    2      9.81      0.00
    6   10    2     13.09      0.00
    8   10    2     -4.74      0.00
   10   10    2     -2.94      0.00
   12   10    2     -3.32      0.00
   14   10    2      5.08      0.00
   16   10    2      2.98      0.00
   18   10    2      1.88      0.00
   20   10    2      0.15      0.00
   22   10    2      3.05      0.00
   24   10    2      0.30      0.00
   26   10    2     -1.05      0.00
  -29   11    2      3.11      0.00
  -27   11    2     -0.35      0.00
  -25   11    2      3.18      0.00
  -23   11    2      0.02      0.00
  -21   11    2     -0.17      0.00
  -19   11    2     -2.69      0.00
  -17   11    2      0.30      0.00
  -15   11    2     -4.75      0.00
  -13   11    2      1.29      0.00
  -11   11    2     -2.12      0.00
   -9   11    2      2.71      0.00
   -7   11    2     -6.19      0.00
   -5   11    2      9.21      0.00
   -3   11    2      2.30      0.00
   -1   11    2     -1.33      0.00
    1   11    2    -18.40      0.00
    3   11    2     -0.47      0.00
    5   11    2      5.19      0.00
    7   11    2     -0.26      0.00
    9   11    2     -4.40      0.00
   11   11    2     -8.97      0.00
   13   11    2      4.25      0.00
   15   11    2     -3.11      0.00
   17   11    2      4.48      0.00
   19   11    2      3.38      0.00
   21   11    2      0.96      0.00
   23   11    2     -4.89      0.00
   25   11    2      5.49      0.00
  -28   12    2      2.28      0.00
  -26   12    2      1.82      0.00
  -24   12    2      2.35      0.00
  -22   12    2     -2.96      0.00
  -20   12    2      5.04      0.00
  -18   12    2     -9.52      0.00
  -16   12    2      7.87      0.00
  -14   12    2     -7.14      0.00
  -12   12    2      6.52      0.00
  -10   12    2     -3.87      0.00
   -8   12    2     10.74      0.00
   -6   12    2     -8.88      0.00
   -4   12    2     10.49      0.00
   -2   12    2    -14.83      0.00
    0   12    2     -2.80      0.00
    2   12    2     -8.83      0.00
    4   12    2     -0.17      0.00
    6   12    2      0.67      0.00
    8   12    2     -2.42      0.00
   10   12    2    -10.02      0.00
   12   12    2     -1.12      0.00
   14   12    2     -1.22      0.00
   16   12    2      0.02      0.00
   18   12    2      4.03      0.00
   20   12    2     -0.08      0.00
   22   12    2     -0.64      0.00
   24   12    2     -2.69      0.00
  -27   13    2      4.81      0.00
  -25   13    2      0.06      0.00
  -23   13    2      1.98      0.00
  -21   13    2     -1.94      0.00
  -19   13    2     -0.44      0.00
  -17   13    2      1.73      0.00
  -15   13    2     -0.24      0.00
  -13   13    2     -0.80      0.00
  -11   13    2      6.67      0.00
   -9   13    2      2.91      0.00
   -7   13    2      9.60      0.00
   -5   13    2    -11.18      0.00
   -3   13    2      0.48      0.00
   -1   13    2    -13.84      0.00
    1   13    2      7.71      0.00
    3   13    2     -1.47      0.00
    5   13    2      0.55      0.00
    7   13    2      0.62      0.00
    9   13    2     -6.01      0.00
   11   13    2      0.69      0.00
   13   13    2     -5.69      0.00
   15   13    2      3.17      0.00
   17   13    2     -0.52      0.00
   19   13    2      3.12      0.00
   21   13    2     -4.12      0.00
   23   13    2      5.62      0.00
  -26   14    2      2.75      0.00
  -24   14    2     -1.74      0.00
  -22   14    2      3.28      0.00
  -20   14    2     -3.98      0.00
  -18   14    2      5.68      0.00
  -16   14    2     -4.96      0.00
  -14   14    2      4.85      0.00
  -12   14    2      0.36      0.00
  -10   14    2      8.28      0.00
   -8   14    2      0.15      0.00
   -6   14    2      7.45      0.00
   -4   14    2    -12.76      0.00
   -2   14    2      5.06      0.00
    0   14    2     -7.92      0.00
    2   14    2     15.04      0.00
    4   14    2      5.01      0.00
    6   14    2     -3.11      0.00
    8   14    2      3.22      0.00
   10   14    2     -1.88      0.00
   12   14    2      2.23      0.00
   14   14    2     -2.56      0.00
   16   14    2      3.48      0.00
   18   14    2     -1.49      0.00
   20   14    2      2.92      0.00
   22   14    2     -0.73      0.00
  -23   15    2     -1.12      0.00
  -21   15    2      1.33      0.00
  -19   15    2      0.82      0.00
  -17   15    2      0.39      0.00
  -15   15    2      0.57      0.00
  -13   15    2      2.37      0.00
  -11   15    2     -1.91      0.00
   -9   15    2      5.99      0.00
   -7   15    2      2.48      0.00
   -5   15    2      0.01      0.00
   -3   15    2     -6.01      0.00
   -1   15    2     13.61      0.00
    1   15    2     -3.55      0.00
    3   15    2     11.18      0.00
    5   15    2      1.93      0.00
    7   15    2      1.05      0.00
    9   15    2      2.88      0.00
   11   15    2     -0.55      0.00
   13   15    2      2.48      0.00
   15   15    2     -1.13      0.00
   17   15    2      5.04      0.00
   19   15    2     -4.58      0.00
   21   15    2      6.59      0.00
  -22   16    2     -3.12      0.00
  -20   16    2      3.57      0.00
  -18   16    2     -1.98      0.00
  -16   16    2      4.40      0.00
  -14   16    2     -2.94      0.00
  -12   16    2     -0.01      0.00
  -10   16    2     -1.81      0.00
   -8   16    2      3.73      0.00
   -6   16    2     -0.72      0.00
   -4   16    2      3.19      0.00
   -2   16    2      2.25      0.00
    0   16    2      5.09      0.00
    2   16    2      0.00      0.00
    4   16    2     -0.74      0.00
    6   16    2      5.31      0.00
    8   16    2     -3.54      0.00
   10   16    2      4.87      0.00
   12   16    2     -3.28      0.00
   14   16    2      3.02      0.00
   16   16    2     -1.10      0.00
   18   16    2      5.10      0.00
   20   16    2     -3.61      0.00
  -21   17    2      2.98      0.00
  -19   17    2     -2.07      0.00
  -17   17    2      1.03      0.00
  -15   17    2      0.86      0.00
  -13   17    2     -3.33      0.00
  -11   17    2     -0.35      0.00
   -9   17    2     -1.33      0.00
   -7   17    2      3.52      0.00
   -5   17    2     -2.53      0.00
   -3   17    2      6.13      0.00
   -1   17    2     -4.80      0.00
    1   17    2      4.43      0.00
    3   17    2    -11.35      0.00
    5   17    2      6.27      0.00
    7   17    2     -5.49      0.00
    9   17    2      2.22      0.00
   11   17    2     -3.22      0.00
   13   17    2      1.28      0.00
   15   17    2      0.21      0.00
   17   17    2     -2.31      0.00
   19   17    2      7.17      0.00
  -18   18    2     -1.27      0.00
  -16   18    2     -3.11      0.00
  -14   18    2      2.15      0.00
  -12   18    2     -4.66      0.00
  -10   18    2      3.23      0.00
   -8   18    2      0.97      0.00
   -6   18    2     -0.58      0.00
   -4   18    2      0.81      0.00
   -2   18    2     -6.49      0.00
    0   18    2      0.39      0.00
    2   18    2     -6.71      0.00
    4   18    2     -0.29      0.00
    6   18    2     -2.43      0.00
    8   18    2     -0.33      0.00
   10   18    2     -4.75      0.00
   12   18    2      2.73      0.00
   14   18    2     -2.02      0.00
   16   18    2     -1.27      0.00
  -17   19    2     -4.66      0.00
  -15   19    2     -0.49      0.00
  -13   19    2     -2.74      0.00
  -11   19    2      2.25      0.00
   -9   19    2      3.49      0.00
   -7   19    2     -1.47      0.00
   -5   19    2      2.14      0.00
   -3   19    2     -8.40      0.00
   -1   19    2     -3.54      0.00
    1   19    2     -2.51      0.00
    3   19    2      2.41      0.00
    5   19    2     -4.81      0.00
    7   19    2      4.71      0.00
    9   19    2     -5.78      0.00
   11   19    2      0.69      0.00
   13   19    2      1.27      0.00
   15   19    2     -4.23      0.00
  -14   20    2     -1.93      0.00
  -12   20    2      0.81      0.00
  -10   20    2      1.01      0.00
   -8   20    2      1.87      0.00
   -6   20    2     -0.28      0.00
   -4   20    2     -3.23      0.00
   -2   20    2     -2.79      0.00
    0   20    2     -3.91      0.00
    2   20    2      3.72      0.00
    4   20    2      0.53      0.00
    6   20    2      3.00      0.00
    8   20    2     -2.06      0.00
   10   20    2      1.41      0.00
   12   20    2     -0.27      0.00
  -11   21    2     -1.13      0.00
   -9   21    2     -1.12      0.00
   -7   21    2     -0.86      0.00
   -5   21    2      1.37      0.00
   -3   21    2      1.15      0.00
   -1   21    2     -1.48      0.00
    1   21    2     -0.61      0.00
    3   21    2      3.37      0.00
    5   21    2      1.76      0.00
    7   21    2      1.87      0.00
   -2   22    2      2.65      0.00
    0   22    2      1.59      0.00
  -33    1    3      1.18      0.00
  -31    1    3     -0.37      0.00
  -29    1    3      4.91      0.00
  -27    1    3     -5.70      0.00
  -25    1    3      7.76      0.00
  -23    1    3     -5.41      0.00
  -21    1    3      7.68      0.00
  -19    1    3     -6.69      0.00
  -17    1    3     -3.63      0.00
  -15    1    3    -16.59      0.00
  -13    1    3     40.26      0.00
  -11    1    3    -62.47      0.00
   -9    1    3     -3.06      0.00
   -7    1    3     64.26      0.00
   -5    1    3     65.14      0.00
   -3    1    3   -153.08      0.00
   -1    1    3    101.47      0.00
    1    1    3     28.17      0.00
    3    1    3    -31.04      0.00
    5    1    3      0.21      0.00
    7    1    3     -0.44      0.00
    9    1    3     35.08      0.00
   11    1    3    -17.67      0.00
   13    1    3     -2.83      0.00
   15    1    3     27.19      0.00
   17    1    3    -16.30      0.00
   19    1    3     12.98      0.00
   21    1    3      1.17      0.00
   23    1    3     -7.82      0.00
   25    1    3      9.17      0.00
   27    1    3     -3.68      0.00
   29    1    3      1.93      0.00
  -32    2    3      6.34      0.00
  -30    2    3     -3.17      0.00
  -28    2    3      1.53      0.00
  -26    2    3      2.85      0.00
  -24    2    3      0.00      0.00
  -22    2    3      0.58      0.00
  -20    2    3     -0.68      0.00
  -18    2    3     -1.53      0.00
  -16    2    3    -21.82      0.00
  -14    2    3     11.18      0.00
  -12    2    3    -22.38      0.00
  -10    2    3    -22.92      0.00
   -8    2    3     42.52      0.00
   -6    2    3     29.35      0.00
   -4    2    3     37.57      0.00
   -2    2    3    -54.92      0.00
    0    2    3     47.28      0.00
    2    2    3     49.56      0.00
    4    2    3    -36.68      0.00
    6    2    3     35.28      0.00
    8    2    3     -4.80      0.00
   10    2    3     21.95      0.00
   12    2    3     -6.52      0.00
   14    2    3     29.33      0.00
   16    2    3     -4.46      0.00
   18    2    3     13.59      0.00
   20    2    3     -2.61      0.00
   22    2    3      9.51      0.00
   24    2    3     -5.28      0.00
   26    2    3      6.31      0.00
   28    2    3     -1.95      0.00
  -33    3    3      3.72      0.00
  -31    3    3     -0.72      0.00
  -29    3    3     -5.15      0.00
  -27    3    3     10.52      0.00
  -25    3    3     -6.89      0.00
  -23    3    3      8.31      0.00
  -21    3    3     -9.11      0.00
  -19    3    3     -4.99      0.00
  -17    3    3     -7.17      0.00
  -15    3    3      8.81      0.00
  -13    3    3    -39.68      0.00
  -11    3    3     -4.07      0.00
   -9    3    3     -8.90      0.00
   -7    3    3     79.58      0.00
   -5    3    3    -26.73      0.00
   -3    3    3     50.70      0.00
   -1    3    3     -4.58      0.00
    1    3    3     40.82      0.00
    3    3    3     36.33      0.00
    5    3    3    -10.00      0.00
    7    3    3     38.45      0.00
    9    3    3     -2.97      0.00
   11    3    3     26.09      0.00
   13    3    3     12.46      0.00
   15    3    3     10.10      0.00
   17    3    3     14.32      0.00
   19    3    3      9.64      0.00
   21    3    3      5.88      0.00
   23    3    3      3.30      0.00
   25    3    3     -3.81      0.00
   27    3    3      6.70      0.00
   29    3    3     -5.74      0.00
  -32    4    3     -2.54      0.00
  -30    4    3      2.51      0.00
  -28    4    3     -4.63      0.00
  -26    4    3      4.84      0.00
  -24    4    3     -1.81      0.00
  -22    4    3      1.09      0.00
  -20    4    3     -4.43      0.00
  -18    4    3    -15.80      0.00
  -16    4    3     10.27      0.00
  -14    4    3    -23.68      0.00
  -12    4    3     -4.11      0.00
  -10    4    3    -19.18      0.00
   -8    4    3     13.57      0.00
   -6    4    3     40.84      0.00
   -4    4    3    -15.79      0.00
   -2    4    3     72.90      0.00
    0    4    3      7.30      0.00
    2    4    3     15.42      0.00
    4    4    3     44.54      0.00
    6    4    3      5.77      0.00
    8    4    3     44.50      0.00
   10    4    3    -17.90      0.00
   12    4    3     41.97      0.00
   14    4    3     -7.01      0.00
   16    4    3     35.23      0.00
   18    4    3     -0.67      0.00
   20    4    3     18.90      0.00
   22    4    3     -4.77      0.00
   24    4    3     10.75      0.00
   26    4    3     -7.34      0.00
   28    4    3      3.87      0.00
  -33    5    3     -2.10      0.00
  -31    5    3      2.61      0.00
  -29    5    3     -1.00      0.00
  -27    5    3     -5.46      0.00
  -25    5    3      7.72      0.00
  -23    5    3     -6.19      0.00
  -21    5    3      5.61      0.00
  -19    5    3    -10.71      0.00
  -17    5    3     -7.31      0.00
  -15    5    3     -6.21      0.00
  -13    5    3      2.97      0.00
  -11    5    3    -22.09      0.00
   -9    5    3      9.70      0.00
   -7    5    3    -44.92      0.00
   -5    5    3     53.24      0.00
   -3    5    3     28.78      0.00
   -1    5    3     21.10      0.00
    1    5    3     12.47      0.00
    3    5    3      4.60      0.00
    5    5    3     48.07      0.00
    7    5    3     14.52      0.00
    9    5    3     14.47      0.00
   11    5    3     -3.66      0.00
   13    5    3     23.75      0.00
   15    5    3      1.83      0.00
   17    5    3     27.87      0.00
   19    5    3     -4.21      0.00
   21    5    3     10.32      0.00
   23    5    3      6.89      0.00
   25    5    3     -5.11      0.00
   27    5    3      0.65      0.00
   29    5    3     -0.24      0.00
  -32    6    3      1.27      0.00
  -30    6    3     -3.47      0.00
  -28    6    3      4.36      0.00
  -26    6    3     -6.10      0.00
  -24    6    3      7.68      0.00
  -22    6    3     -0.28      0.00
  -20    6    3     -8.13      0.00
  -18    6    3     -2.47      0.00
  -16    6    3     -1.44      0.00
  -14    6    3      0.57      0.00
  -12    6    3    -18.82      0.00
  -10    6    3      2.52      0.00
   -8    6    3    -31.74      0.00
   -6    6    3    -16.90      0.00
   -4    6    3     41.88      0.00
   -2    6    3     11.69      0.00
    0    6    3     13.57      0.00
    2    6    3    -22.49      0.00
    4    6    3     31.24      0.00
    6    6    3     17.77      0.00
    8    6    3     -5.33      0.00
   10    6    3     30.12      0.00
   12    6    3    -27.04      0.00
   14    6    3     20.39      0.00
   16    6    3     -4.37      0.00
   18    6    3     16.35      0.00
   20    6    3     -4.38      0.00
   22    6    3     15.34      0.00
   24    6    3    -13.37      0.00
   26    6    3      4.52      0.00
   28    6    3     -0.54      0.00
  -31    7    3     -1.89      0.00
  -29    7    3     -0.68      0.00
  -27    7    3      2.66      0.00
  -25    7    3     -1.63      0.00
  -23    7    3      7.96      0.00
  -21    7    3     -6.80      0.00
  -19    7    3     -4.25      0.00
  -17    7    3      2.39      0.00
  -15    7    3     -0.52      0.00
  -13    7    3    -13.56      0.00
  -11    7    3     -3.60      0.00
   -9    7    3    -13.02      0.00
   -7    7    3    -41.03      0.00
   -5    7    3      5.02      0.00
   -3    7    3     27.38      0.00
   -1    7    3      7.83      0.00
    1    7    3    -51.59      0.00
    3    7    3     26.04      0.00
    5    7    3      0.52      0.00
    7    7    3     -1.63      0.00
    9    7    3      7.44      0.00
   11    7    3      0.12      0.00
   13    7    3    -27.75      0.00
   15    7    3     18.81      0.00
   17    7    3    -17.13      0.00
   19    7    3     10.83      0.00
   21    7    3      0.06      0.00
   23    7    3     -3.32      0.00
   25    7    3      2.67      0.00
   27    7    3     -6.90      0.00
  -30    8    3      1.81      0.00
  -28    8    3     -2.07      0.00
  -26    8    3      5.55      0.00
  -24    8    3     -0.44      0.00
  -22    8    3      0.44      0.00
  -20    8    3     -3.42      0.00
  -18    8    3     -2.74      0.00
  -16    8    3      1.47      0.00
  -14    8    3     -2.05      0.00
  -12    8    3    -17.31      0.00
  -10    8    3    -10.15      0.00
   -8    8    3    -14.77      0.00
   -6    8    3    -16.32      0.00
   -4    8    3      6.81      0.00
   -2    8    3     11.97      0.00
    0    8    3    -37.48      0.00
    2    8    3      5.50      0.00
    4    8    3    -13.69      0.00
    6    8    3      4.24      0.00
    8    8    3     -5.17      0.00
   10    8    3     -0.76      0.00
   12    8    3    -12.69      0.00
   14    8    3    -17.00      0.00
   16    8    3      0.32      0.00
   18    8    3    -12.49      0.00
   20    8    3      7.21      0.00
   22    8    3     -4.96      0.00
   24    8    3      3.46      0.00
   26    8    3     -5.91      0.00
  -31    9    3     -0.52      0.00
  -29    9    3      4.16      0.00
  -27    9    3      0.28      0.00
  -25    9    3      1.59      0.00
  -23    9    3     -1.28      0.00
  -21    9    3     -4.09      0.00
  -19    9    3      2.21      0.00
  -17    9    3     -0.92      0.00
  -15    9    3     -3.29      0.00
  -13    9    3    -14.50      0.00
  -11    9    3     -3.51      0.00
   -9    9    3    -21.71      0.00
   -7    9    3     16.66      0.00
   -5    9    3    -26.71      0.00
   -3    9    3     25.03      0.00
   -1    9    3    -26.50      0.00
    1    9    3      5.79      0.00
    3    9    3    -18.75      0.00
    5    9    3      7.39      0.00
    7    9    3     -9.58      0.00
    9    9    3     -3.14      0.00
   11    9    3     -6.70      0.00
   13    9    3     -9.36      0.00
   15    9    3    -22.01      0.00
   17    9    3      0.43      0.00
   19    9    3     -5.40      0.00
   21    9    3      1.35      0.00
   23    9    3      0.96      0.00
   25    9    3     -7.71      0.00
   27    9    3      5.94      0.00
  -30   10    3      0.83      0.00
  -28   10    3      2.75      0.00
  -26   10    3      1.96      0.00
  -24   10    3     -2.26      0.00
  -22   10    3     -3.70      0.00
  -20   10    3      0.42      0.00
  -18   10    3      4.86      0.00
  -16   10    3     -4.94      0.00
  -14   10    3    -12.28      0.00
  -12   10    3     -1.31      0.00
  -10   10    3     -9.73      0.00
   -8   10    3      3.54      0.00
   -6   10    3     -3.55      0.00
   -4   10    3      9.71      0.00
   -2   10    3     -3.52      0.00
    0   10    3      5.22      0.00
    2   10    3    -16.58      0.00
    4   10    3     13.10      0.00
    6   10    3    -11.25      0.00
    8   10    3      5.25      0.00
   10   10    3    -17.26      0.00
   12   10    3      0.54      0.00
   14   10    3    -16.15      0.00
   16   10    3     -8.25      0.00
   18   10    3      0.74      0.00
   20   10    3     -3.39      0.00
   22   10    3     -3.35      0.00
   24   10    3      2.99      0.00
   26   10    3     -2.79      0.00
  -29   11    3      0.20      0.00
  -27   11    3      0.08      0.00
  -25   11    3      3.41      0.00
  -23   11    3     -5.27      0.00
  -21   11    3      1.51      0.00
  -19   11    3      0.38      0.00
  -17   11    3      5.99      0.00
  -15   11    3     -9.57      0.00
  -13   11    3     -1.87      0.00
  -11   11    3     -8.40      0.00
   -9   11    3     12.49      0.00
   -7   11    3    -11.47      0.00
   -5   11    3     22.07      0.00
   -3   11    3    -11.01      0.00
   -1   11    3     17.21      0.00
    1   11    3     -7.98      0.00
    3   11    3      0.81      0.00
    5   11    3      0.93      0.00
    7   11    3      0.93      0.00
    9   11    3    -10.02      0.00
   11   11    3     -5.62      0.00
   13   11    3     -6.19      0.00
   15   11    3     -8.02      0.00
   17   11    3      0.48      0.00
   19   11    3     -3.49      0.00
   21   11    3     -2.87      0.00
   23   11    3     -3.37      0.00
   25   11    3      3.96      0.00
  -28   12    3      0.54      0.00
  -26   12    3     -1.16      0.00
  -24   12    3      3.85      0.00
  -22   12    3     -3.02      0.00
  -20   12    3      2.98      0.00
  -18   12    3      4.75      0.00
  -16   12    3     -0.01      0.00
  -14   12    3     -3.68      0.00
  -12   12    3     -1.70      0.00
  -10   12    3      9.81      0.00
   -8   12    3     -4.00      0.00
   -6   12    3      6.39      0.00
   -4   12    3      6.45      0.00
   -2   12    3      7.94      0.00
    0   12    3     -3.68      0.00
    2   12    3      1.08      0.00
    4   12    3     -7.21      0.00
    6   12    3      8.86      0.00
    8   12    3     -9.47      0.00
   10   12    3     -2.19      0.00
   12   12    3     -8.88      0.00
   14   12    3     -1.13      0.00
   16   12    3     -1.49      0.00
   18   12    3      2.16      0.00
   20   12    3    -11.40      0.00
   22   12    3      3.80      0.00
   24   12    3    -10.73      0.00
  -27   13    3      2.64      0.00
  -25   13    3     -0.95      0.00
  -23   13    3      5.37      0.00
  -21   13    3     -2.49      0.00
  -19   13    3      3.70      0.00
  -17   13    3      2.66      0.00
  -15   13    3      3.20      0.00
  -13   13    3     -2.14      0.00
  -11   13    3      6.22      0.00
   -9   13    3     -1.41      0.00
   -7   13    3     13.74      0.00
   -5   13    3     -6.48      0.00
   -3   13    3     17.37      0.00
   -1   13    3    -12.57      0.00
    1   13    3      5.36      0.00
    3   13    3     -7.16      0.00
    5   13    3     -3.11      0.00
    7   13    3      5.75      0.00
    9   13    3     -2.99      0.00
   11   13    3     -2.06      0.00
   13   13    3     -7.14      0.00
   15   13    3      7.72      0.00
   17   13    3     -2.59      0.00
   19   13    3     -4.44      0.00
   21   13    3     -8.47      0.00
   23   13    3     -2.70      0.00
  -26   14    3      1.00      0.00
  -24   14    3      3.43      0.00
  -22   14    3      2.49      0.00
  -20   14    3     -3.58      0.00
  -18   14    3      1.75      0.00
  -16   14    3      6.30      0.00
  -14   14    3     -1.29      0.00
  -12   14    3      0.81      0.00
  -10   14    3      3.51      0.00
   -8   14    3      7.55      0.00
   -6   14    3      4.45      0.00
   -4   14    3      3.12      0.00
   -2   14    3      7.21      0.00
    0   14    3    -13.34      0.00
    2   14    3      3.23      0.00
    4   14    3     -3.93      0.00
    6   14    3      6.03      0.00
    8   14    3      2.93      0.00
   10   14    3      1.97      0.00
   12   14    3      1.65      0.00
   14   14    3      1.98      0.00
   16   14    3      3.88      0.00
   18   14    3    -10.02      0.00
   20   14    3     -0.21      0.00
   22   14    3    -13.29      0.00
  -25   15    3      5.35      0.00
  -23   15    3     -2.45      0.00
  -21   15    3      1.40      0.00
  -19   15    3     -3.84      0.00
  -17   15    3      3.08      0.00
  -15   15    3     -1.19      0.00
  -13   15    3     -0.22      0.00
  -11   15    3      0.50      0.00
   -9   15    3      5.25      0.00
   -7   15    3      2.51      0.00
   -5   15    3     11.79      0.00
   -3   15    3     -2.17      0.00
   -1   15    3      7.10      0.00
    1   15    3    -10.68      0.00
    3   15    3      1.67      0.00
    5   15    3     13.52      0.00
    7   15    3     -1.32      0.00
    9   15    3     11.94      0.00
   11   15    3     -1.40      0.00
   13   15    3     17.87      0.00
   15   15    3     -8.44      0.00
   17   15    3     -1.18      0.00
   19   15    3     -6.04      0.00
   21   15    3     -5.09      0.00
  -22   16    3      0.78      0.00
  -20   16    3     -3.21      0.00
  -18   16    3      0.15      0.00
  -16   16    3     -3.41      0.00
  -14   16    3     -1.59      0.00
  -12   16    3     -0.08      0.00
  -10   16    3     -2.71      0.00
   -8   16    3      3.17      0.00
   -6   16    3      6.74      0.00
   -4   16    3      9.92      0.00
   -2   16    3     -4.69      0.00
    0   16    3     12.85      0.00
    2   16    3    -14.38      0.00
    4   16    3     20.85      0.00
    6   16    3      1.40      0.00
    8   16    3      6.49      0.00
   10   16    3      3.61      0.00
   12   16    3     18.63      0.00
   14   16    3      2.13      0.00
   16   16    3    -12.76      0.00
   18   16    3      1.76      0.00
  -21   17    3     -3.22      0.00
  -19   17    3      2.47      0.00
  -17   17    3     -7.04      0.00
  -15   17    3      2.11      0.00
  -13   17    3     -7.71      0.00
  -11   17    3      2.30      0.00
   -9   17    3     -5.79      0.00
   -7   17    3      2.59      0.00
   -5   17    3      9.66      0.00
   -3   17    3      2.17      0.00
   -1   17    3      6.67      0.00
    1   17    3     -1.05      0.00
    3   17    3      7.52      0.00
    5   17    3      3.68      0.00
    7   17    3      8.97      0.00
    9   17    3     -8.67      0.00
   11   17    3     23.17      0.00
   13   17    3      4.70      0.00
   15   17    3     -6.49      0.00
   17   17    3     -9.74      0.00
  -20   18    3      3.48      0.00
  -18   18    3     -1.70      0.00
  -16   18    3     -2.23      0.00
  -14   18    3     -2.59      0.00
  -12   18    3     -3.35      0.00
  -10   18    3     -2.81      0.00
   -8   18    3     -2.74      0.00
   -6   18    3      7.76      0.00
   -4   18    3     -1.55      0.00
   -2   18    3      9.06      0.00
    0   18    3     -0.48      0.00
    2   18    3      9.16      0.00
    4   18    3     -7.60      0.00
    6   18    3     12.52      0.00
    8   18    3    -11.02      0.00
   10   18    3      9.80      0.00
   12   18    3     10.11      0.00
   14   18    3     -0.75      0.00
   16   18    3     -8.96      0.00
  -17   19    3      2.10      0.00
  -15   19    3     -6.54      0.00
  -13   19    3      3.19      0.00
  -11   19    3     -9.36      0.00
   -9   19    3      3.99      0.00
   -7   19    3      1.77      0.00
   -5   19    3      0.45      0.00
   -3   19    3      3.21      0.00
   -1   19    3      1.04      0.00
    1   19    3      6.21      0.00
    3   19    3     -3.65      0.00
    5   19    3      1.85      0.00
    7   19    3     -3.80      0.00
    9   19    3      3.03      0.00
   11   19    3      0.99      0.00
   13   19    3      6.62      0.00
  -14   20    3      0.54      0.00
  -12   20    3     -4.85      0.00
  -10   20    3     -1.14      0.00
   -8   20    3      6.98      0.00
   -6   20    3      1.97      0.00
   -4   20    3      0.90      0.00
   -2   20    3     -2.20      0.00
    0   20    3      3.31      0.00
    2   20    3      0.12      0.00
    4   20    3      2.24      0.00
    6   20    3     -5.85      0.00
    8   20    3      5.56      0.00
   10   20    3     -1.79      0.00
  -11   21    3     -2.78      0.00
   -9   21    3      4.43      0.00
   -7   21    3      7.16      0.00
   -5   21    3      0.22      0.00
   -3   21    3      0.28      0.00
   -1   21    3     -2.14      0.00
    1   21    3     -1.21      0.00
    3   21    3      4.12      0.00
    5   21    3      1.53      0.00
    7   21    3      1.60      0.00
  -34    0    4     -1.01      0.00
  -32    0    4     -1.86      0.00
  -30    0    4      8.15      0.00
  -28    0    4     -6.48      0.00
  -26    0    4     -1.53      0.00
  -24    0    4     14.24      0.00
  -22    0    4    -13.66      0.00
  -20    0    4      5.15      0.00
  -18    0    4      6.41      0.00
  -16    0    4     23.15      0.00
  -14    0    4     -6.14      0.00
  -12    0    4    -52.79      0.00
  -10    0    4    -20.06      0.00
   -6    0    4    -52.61      0.00
   -2    0    4     -2.56      0.00
    0    0    4     14.49      0.00
    2    0    4     26.10      0.00
    4    0    4     43.71      0.00
    6    0    4     -6.12      0.00
    8    0    4     16.30      0.00
   10    0    4     13.67      0.00
   12    0    4    -24.82      0.00
   14    0    4     18.15      0.00
   16    0    4     -1.66      0.00
   18    0    4     -7.94      0.00
   20    0    4      6.18      0.00
   22    0    4     -5.59      0.00
   24    0    4      0.96      0.00
   26    0    4      2.28      0.00
   28    0    4     -1.70      0.00
  -33    1    4     -1.83      0.00
  -31    1    4      2.47      0.00
  -29    1    4      1.20      0.00
  -27    1    4     -4.00      0.00
  -25    1    4      6.30      0.00
  -23    1    4      1.02      0.00
  -21    1    4     -3.47      0.00
  -19    1    4      7.03      0.00
  -17    1    4     13.37      0.00
  -15    1    4      7.75      0.00
  -13    1    4    -12.05      0.00
  -11    1    4    -32.25      0.00
   -9    1    4     -5.20      0.00
   -7    1    4     55.82      0.00
   -5    1    4     14.62      0.00
   -3    1    4    -18.75      0.00
   -1    1    4    -16.96      0.00
    1    1    4     55.85      0.00
    3    1    4     25.67      0.00
    5    1    4      0.68      0.00
    7    1    4      3.02      0.00
    9    1    4     21.41      0.00
   11    1    4     -1.47      0.00
   13    1    4     -8.44      0.00
   15    1    4      2.19      0.00
   17    1    4      0.58      0.00
   19    1    4     -6.52      0.00
   21    1    4      4.11      0.00
   23    1    4     -3.70      0.00
   25    1    4     -2.43      0.00
   27    1    4      2.11      0.00
  -34    2    4      1.10      0.00
  -32    2    4     -1.80      0.00
  -30    2    4     -0.14      0.00
  -28    2    4      3.59      0.00
  -26    2    4     -1.46      0.00
  -24    2    4     -0.42      0.00
  -22    2    4      7.08      0.00
  -20    2    4     -7.39      0.00
  -18    2    4     26.49      0.00
  -16    2    4      5.34      0.00
  -14    2    4    -10.39      0.00
  -12    2    4      7.28      0.00
  -10    2    4     -7.32      0.00
   -8    2    4    -45.42      0.00
   -6    2    4     79.13      0.00
   -4    2    4    -23.42      0.00
   -2    2    4    -11.10      0.00
    0    2    4     -1.08      0.00
    4    2    4    -14.94      0.00
    6    2    4      2.54      0.00
    8    2    4     16.60      0.00
   10    2    4     11.47      0.00
   12    2    4     -6.47      0.00
   14    2    4    -12.24      0.00
   16    2    4      5.83      0.00
   18    2    4     -3.19      0.00
   20    2    4     -7.82      0.00
   22    2    4      2.93      0.00
   24    2    4     -7.92      0.00
   26    2    4     -0.46      0.00
   28    2    4      0.26      0.00
  -33    3    4     -3.61      0.00
  -31    3    4      0.32      0.00
  -29    3    4     -0.42      0.00
  -27    3    4      2.67      0.00
  -25    3    4     -3.47      0.00
  -23    3    4      8.43      0.00
  -21    3    4     -4.88      0.00
  -19    3    4      8.26      0.00
  -17    3    4     22.35      0.00
  -15    3    4      1.27      0.00
  -13    3    4     -5.35      0.00
  -11    3    4     -1.14      0.00
   -9    3    4      8.26      0.00
   -7    3    4    -43.67      0.00
   -5    3    4     23.51      0.00
   -3    3    4      2.80      0.00
   -1    3    4     18.80      0.00
    1    3    4    -36.44      0.00
    3    3    4     11.69      0.00
    5    3    4     -3.05      0.00
    7    3    4     15.12      0.00
    9    3    4     11.11      0.00
   11    3    4      2.04      0.00
   13    3    4    -10.32      0.00
   15    3    4      5.36      0.00
   17    3    4     -8.22      0.00
   19    3    4     -0.27      0.00
   21    3    4     -7.42      0.00
   23    3    4     -0.48      0.00
   25    3    4     -7.01      0.00
   27    3    4      1.06      0.00
  -32    4    4      1.58      0.00
  -30    4    4      0.40      0.00
  -28    4    4     -4.44      0.00
  -26    4    4      4.75      0.00
  -24    4    4      2.27      0.00
  -22    4    4     -2.11      0.00
  -20    4    4      9.61      0.00
  -18    4    4     -4.64      0.00
  -16    4    4     19.27      0.00
  -14    4    4     10.15      0.00
  -12    4    4    -16.21      0.00
  -10    4    4     -4.64      0.00
   -8    4    4      2.06      0.00
   -6    4    4    -33.51      0.00
   -4    4    4     20.11      0.00
   -2    4    4      4.61      0.00
    0    4    4     10.29      0.00
    2    4    4    -44.22      0.00
    4    4    4      6.67      0.00
    6    4    4     15.25      0.00
    8    4    4     13.21      0.00
   10    4    4      2.80      0.00
   12    4    4     13.72      0.00
   14    4    4     -9.13      0.00
   16    4    4      2.14      0.00
   18    4    4     -4.24      0.00
   20    4    4      0.58      0.00
   22    4    4     -2.59      0.00
   24    4    4     -4.96      0.00
   26    4    4     -4.73      0.00
   28    4    4      2.55      0.00
  -33    5    4      5.35      0.00
  -31    5    4     -1.29      0.00
  -29    5    4      0.87      0.00
  -27    5    4     -1.41      0.00
  -25    5    4      4.58      0.00
  -23    5    4     -6.02      0.00
  -21    5    4      9.79      0.00
  -19    5    4     -1.35      0.00
  -17    5    4      3.64      0.00
  -15    5    4      2.90      0.00
  -13    5    4    -10.01      0.00
  -11    5    4      9.11      0.00
   -9    5    4    -13.41      0.00
   -7    5    4     -6.02      0.00
   -5    5    4    -20.71      0.00
   -3    5    4     23.31      0.00
   -1    5    4     13.55      0.00
    1    5    4    -26.25      0.00
    3    5    4    -17.06      0.00
    5    5    4      7.99      0.00
    7    5    4     23.60      0.00
    9    5    4     15.60      0.00
   11    5    4      2.88      0.00
   13    5    4      9.63      0.00
   15    5    4     -7.27      0.00
   17    5    4     12.96      0.00
   19    5    4     -3.06      0.00
   21    5    4      1.08      0.00
   23    5    4     -6.23      0.00
   25    5    4      1.77      0.00
   27    5    4     -4.37      0.00
  -32    6    4      3.88      0.00
  -30    6    4     -3.79      0.00
  -28    6    4      6.26      0.00
  -26    6    4     -3.17      0.00
  -24    6    4     -1.30      0.00
  -22    6    4      3.98      0.00
  -20    6    4      2.45      0.00
  -18    6    4      1.33      0.00
  -16    6    4    -10.75      0.00
  -14    6    4     -6.38      0.00
  -12    6    4      3.55      0.00
  -10    6    4      5.98      0.00
   -8    6    4    -22.48      0.00
   -6    6    4      3.72      0.00
   -4    6    4     -1.17      0.00
   -2    6    4     17.57      0.00
    0    6    4    -24.62      0.00
    2    6    4      3.39      0.00
    4    6    4     -9.61      0.00
    6    6    4     11.09      0.00
    8    6    4     19.53      0.00
   10    6    4     16.87      0.00
   12    6    4     -5.08      0.00
   14    6    4     13.90      0.00
   16    6    4     -4.34      0.00
   18    6    4     13.48      0.00
   20    6    4     -1.56      0.00
   22    6    4     -3.70      0.00
   24    6    4      4.06      0.00
   26    6    4     -4.18      0.00
  -31    7    4      3.52      0.00
  -29    7    4     -1.52      0.00
  -27    7    4      3.50      0.00
  -25    7    4     -3.92      0.00
  -23    7    4      2.96      0.00
  -21    7    4      1.36      0.00
  -19    7    4      4.73      0.00
  -17    7    4    -14.53      0.00
  -15    7    4     -1.64      0.00
  -13    7    4     -6.47      0.00
  -11    7    4      5.82      0.00
   -9    7    4     -0.72      0.00
   -7    7    4     -3.30      0.00
   -5    7    4    -11.89      0.00
   -3    7    4     23.97      0.00
   -1    7    4    -35.29      0.00
    1    7    4     20.74      0.00
    3    7    4    -25.29      0.00
    5    7    4     15.27      0.00
    7    7    4      0.82      0.00
    9    7    4     12.24      0.00
   11    7    4     12.38      0.00
   13    7    4     -4.92      0.00
   15    7    4      7.03      0.00
   17    7    4      0.39      0.00
   19    7    4      7.97      0.00
   21    7    4     -4.32      0.00
   23    7    4      4.82      0.00
   25    7    4     -5.25      0.00
   27    7    4      2.55      0.00
  -32    8    4     -2.95      0.00
  -30    8    4      5.18      0.00
  -28    8    4     -5.67      0.00
  -26    8    4      2.58      0.00
  -24    8    4     -0.90      0.00
  -22    8    4      4.19      0.00
  -20    8    4     -0.18      0.00
  -18    8    4     -1.86      0.00
  -16    8    4     -8.26      0.00
  -14    8    4     -3.68      0.00
  -12    8    4      7.10      0.00
  -10    8    4      1.41      0.00
   -8    8    4      9.51      0.00
   -6    8    4    -28.00      0.00
   -4    8    4     17.36      0.00
   -2    8    4    -13.05      0.00
    0    8    4      5.60      0.00
    2    8    4    -23.33      0.00
    4    8    4      6.63      0.00
    6    8    4     -1.65      0.00
    8    8    4      4.86      0.00
   10    8    4      7.43      0.00
   12    8    4      1.34      0.00
   14    8    4    -11.01      0.00
   16    8    4     11.70      0.00
   18    8    4     -1.11      0.00
   20    8    4     -3.83      0.00
   22    8    4      2.93      0.00
   24    8    4     -2.85      0.00
   26    8    4      3.64      0.00
  -31    9    4     -3.69      0.00
  -29    9    4      2.81      0.00
  -27    9    4     -4.05      0.00
  -25    9    4      0.36      0.00
  -23    9    4      2.48      0.00
  -21    9    4      4.63      0.00
  -19    9    4     -7.29      0.00
  -17    9    4      2.05      0.00
  -15    9    4     -9.16      0.00
  -13    9    4     16.87      0.00
  -11    9    4     -4.24      0.00
   -9    9    4      8.30      0.00
   -7    9    4    -18.12      0.00
   -5    9    4     14.76      0.00
   -3    9    4    -19.51      0.00
   -1    9    4     22.34      0.00
    1    9    4    -30.62      0.00
    3    9    4      8.85      0.00
    5    9    4    -10.93      0.00
    7    9    4      9.81      0.00
    9    9    4     -0.87      0.00
   11    9    4     -0.24      0.00
   13    9    4     -2.45      0.00
   15    9    4     -3.33      0.00
   17    9    4      3.25      0.00
   19    9    4     -6.75      0.00
   21    9    4     -0.39      0.00
   23    9    4      0.50      0.00
   25    9    4      3.55      0.00
  -30   10    4     -4.38      0.00
  -28   10    4      2.91      0.00
  -26   10    4     -2.39      0.00
  -24   10    4      0.38      0.00
  -22   10    4      1.51      0.00
  -20   10    4      0.77      0.00
  -18   10    4     -4.29      0.00
  -16   10    4      2.03      0.00
  -14   10    4      1.76      0.00
  -12   10    4      0.83      0.00
  -10   10    4      8.79      0.00
   -8   10    4     -9.31      0.00
   -6   10    4      3.87      0.00
   -4   10    4     -6.68      0.00
   -2   10    4     20.02      0.00
    0   10    4     -8.78      0.00
    2   10    4     -6.02      0.00
    4   10    4     -5.94      0.00
    6   10    4      9.59      0.00
    8   10    4      5.43      0.00
   10   10    4     -4.98      0.00
   12   10    4      1.72      0.00
   14   10    4     -1.41      0.00
   16   10    4     -3.14      0.00
   18   10    4     -2.71      0.00
   20   10    4     -0.01      0.00
   22   10    4     -1.10      0.00
   24   10    4      3.63      0.00
  -29   11    4     -0.90      0.00
  -27   11    4     -0.06      0.00
  -25   11    4      0.92      0.00
  -23   11    4     -0.21      0.00
  -21   11    4     -0.59      0.00
  -19   11    4      0.35      0.00
  -17   11    4     -3.83      0.00
  -15   11    4      4.35      0.00
  -13   11    4     -8.22      0.00
  -11   11    4      8.73      0.00
   -9   11    4    -12.52      0.00
   -7   11    4     15.26      0.00
   -5   11    4     -7.80      0.00
   -3   11    4     22.37      0.00
   -1   11    4     -4.61      0.00
    1   11    4      6.62      0.00
    3   11    4    -13.28      0.00
    5   11    4     13.82      0.00
    7   11    4      3.72      0.00
    9   11    4      4.23      0.00
   11   11    4      0.38      0.00
   13   11    4      0.12      0.00
   15   11    4     -1.87      0.00
   17   11    4      1.00      0.00
   19   11    4     -1.34      0.00
   21   11    4      2.70      0.00
   23   11    4      0.33      0.00
  -28   12    4      2.24      0.00
  -26   12    4     -2.67      0.00
  -24   12    4      1.03      0.00
  -22   12    4      1.13      0.00
  -20   12    4     -2.86      0.00
  -18   12    4      1.19      0.00
  -16   12    4     -3.36      0.00
  -14   12    4     -5.11      0.00
  -12   12    4     -3.34      0.00
  -10   12    4     -8.23      0.00
   -8   12    4      9.43      0.00
   -6   12    4      4.69      0.00
   -4   12    4     12.67      0.00
   -2   12    4      4.54      0.00
    0   12    4     -0.78      0.00
    2   12    4     -0.37      0.00
    4   12    4      1.90      0.00
    6   12    4     10.13      0.00
    8   12    4     -0.53      0.00
   10   12    4      5.90      0.00
   12   12    4     -2.03      0.00
   14   12    4      3.68      0.00
   16   12    4     -0.90      0.00
   18   12    4      1.63      0.00
   20   12    4      2.76      0.00
   22   12    4      2.99      0.00
  -27   13    4      1.33      0.00
  -25   13    4     -1.58      0.00
  -23   13    4      0.75      0.00
  -21   13    4     -3.16      0.00
  -19   13    4      3.15      0.00
  -17   13    4     -1.02      0.00
  -15   13    4     -9.76      0.00
  -13   13    4     -3.29      0.00
  -11   13    4     -9.03      0.00
   -9   13    4      6.58      0.00
   -7   13    4     -0.33      0.00
   -5   13    4     14.88      0.00
   -3   13    4      1.66      0.00
   -1   13    4     -0.63      0.00
    1   13    4     -6.64      0.00
    3   13    4      5.83      0.00
    5   13    4      1.83      0.00
    7   13    4     -2.63      0.00
    9   13    4      5.21      0.00
   11   13    4     -0.20      0.00
   13   13    4      0.14      0.00
   15   13    4      1.98      0.00
   17   13    4      0.20      0.00
   19   13    4      4.21      0.00
   21   13    4      1.69      0.00
  -26   14    4      2.72      0.00
  -24   14    4     -0.51      0.00
  -22   14    4     -4.05      0.00
  -20   14    4      2.90      0.00
  -18   14    4     -1.80      0.00
  -16   14    4     -3.47      0.00
  -14   14    4     -4.75      0.00
  -12   14    4     -2.33      0.00
  -10   14    4     -1.97      0.00
   -8   14    4     -2.36      0.00
   -6   14    4      9.94      0.00
   -4   14    4      0.45      0.00
   -2   14    4     -0.41      0.00
    0   14    4    -10.02      0.00
    2   14    4     -1.56      0.00
    4   14    4      6.08      0.00
    6   14    4     -9.29      0.00
    8   14    4      1.97      0.00
   10   14    4     -3.26      0.00
   12   14    4      6.02      0.00
   14   14    4     -7.17      0.00
   16   14    4      4.76      0.00
   18   14    4      2.68      0.00
   20   14    4     -2.99      0.00
  -25   15    4     -1.05      0.00
  -23   15    4     -0.74      0.00
  -21   15    4     -0.80      0.00
  -19   15    4     -1.81      0.00
  -17   15    4     -2.70      0.00
  -15   15    4      2.76      0.00
  -13   15    4     -3.55      0.00
  -11   15    4      0.89      0.00
   -9   15    4     -2.13      0.00
   -7   15    4     -0.22      0.00
   -5   15    4     -0.97      0.00
   -3   15    4     -3.78      0.00
   -1   15    4      3.83      0.00
    1   15    4    -14.91      0.00
    3   15    4      7.37      0.00
    5   15    4     -8.47      0.00
    7   15    4      2.71      0.00
    9   15    4     -4.96      0.00
   11   15    4      2.13      0.00
   13   15    4     -2.69      0.00
   15   15    4      0.00      0.00
   17   15    4      2.01      0.00
   19   15    4     -1.99      0.00
  -24   16    4     -1.51      0.00
  -22   16    4      0.42      0.00
  -20   16    4     -3.80      0.00
  -18   16    4     -1.95      0.00
  -16   16    4      2.44      0.00
  -14   16    4      1.67      0.00
  -12   16    4      0.05      0.00
  -10   16    4     -0.58      0.00
   -8   16    4     -3.71      0.00
   -6   16    4     -0.67      0.00
   -4   16    4     -4.92      0.00
   -2   16    4      0.10      0.00
    0   16    4      2.41      0.00
    2   16    4     -3.85      0.00
    4   16    4     -2.94      0.00
    6   16    4      4.88      0.00
    8   16    4     -4.22      0.00
   10   16    4      5.12      0.00
   12   16    4     -6.39      0.00
   14   16    4      2.41      0.00
   16   16    4     -0.54      0.00
   18   16    4     -2.95      0.00
  -21   17    4      0.82      0.00
  -19   17    4     -3.99      0.00
  -17   17    4      0.77      0.00
  -15   17    4      1.80      0.00
  -13   17    4      2.66      0.00
  -11   17    4     -4.65      0.00
   -9   17    4      0.57      0.00
   -7   17    4     -2.39      0.00
   -5   17    4     -2.45      0.00
   -3   17    4      2.47      0.00
   -1   17    4     -1.67      0.00
    1   17    4      9.08      0.00
    3   17    4     -9.30      0.00
    5   17    4     10.84      0.00
    7   17    4     -1.35      0.00
    9   17    4      3.09      0.00
   11   17    4     -1.58      0.00
   13   17    4      0.96      0.00
   15   17    4     -3.43      0.00
   17   17    4     -0.49      0.00
  -20   18    4      1.28      0.00
  -18   18    4     -1.38      0.00
  -16   18    4     -1.13      0.00
  -14   18    4      4.55      0.00
  -12   18    4     -6.37      0.00
  -10   18    4     -0.86      0.00
   -8   18    4      2.21      0.00
   -6   18    4     -2.47      0.00
   -4   18    4      6.09      0.00
   -2   18    4     -2.20      0.00
    0   18    4      3.22      0.00
    2   18    4      2.92      0.00
    4   18    4      2.29      0.00
    6   18    4      4.15      0.00
    8   18    4      1.41      0.00
   10   18    4      0.45      0.00
   12   18    4     -0.43      0.00
   14   18    4     -0.29      0.00
  -17   19    4     -0.60      0.00
  -15   19    4      1.31      0.00
  -13   19    4     -2.80      0.00
  -11   19    4     -3.16      0.00
   -9   19    4      1.46      0.00
   -7   19    4      2.89      0.00
   -5   19    4      3.85      0.00
   -3   19    4      0.46      0.00
   -1   19    4     -0.18      0.00
    1   19    4      0.09      0.00
    3   19    4      4.79      0.00
    5   19    4     -1.36      0.00
    7   19    4      4.87      0.00
    9   19    4     -2.93      0.00
   11   19    4      1.08      0.00
  -14   20    4     -2.52      0.00
  -12   20    4      0.47      0.00
  -10   20    4     -0.56      0.00
   -8   20    4      2.52      0.00
   -6   20    4      2.13      0.00
   -4   20    4      3.10      0.00
   -2   20    4     -0.96      0.00
    0   20    4     -2.80      0.00
    2   20    4      0.53      0.00
    4   20    4      1.77      0.00
    6   20    4     -3.77      0.00
    8   20    4      2.94      0.00
   -9   21    4     -1.45      0.00
   -7   21    4     -0.29      0.00
   -5   21    4      2.51      0.00
   -3   21    4      1.25      0.00
   -1   21    4     -3.86      0.00
    1   21    4     -1.29      0.00
    3   21    4     -0.85      0.00
    5   21    4     -1.11      0.00
  -33    1    5      1.64      0.00
  -31    1    5      4.59      0.00
  -29    1    5     -7.52      0.00
  -27    1    5      7.96      0.00
  -25    1    5    -10.98      0.00
  -23    1    5     13.25      0.00
  -21    1    5     -7.15      0.00
  -19    1    5      8.03      0.00
  -17    1    5    -18.23      0.00
  -15    1    5     31.32      0.00
  -13    1    5     -4.73      0.00
  -11    1    5    -49.10      0.00
   -9    1    5    -16.75      0.00
   -7    1    5     30.85      0.00
   -5    1    5     10.45      0.00
   -3    1    5    -73.81      0.00
   -1    1    5     84.88      0.00
    1    1    5    -51.14      0.00
    3    1    5     46.65      0.00
    5    1    5    -36.77      0.00
    7    1    5     22.12      0.00
    9    1    5     -4.61      0.00
   11    1    5      6.78      0.00
   13    1    5    -11.62      0.00
   15    1    5     14.59      0.00
   17    1    5     -3.59      0.00
   19    1    5      1.84      0.00
   21    1    5      2.74      0.00
   23    1    5     -1.29      0.00
   25    1    5     -0.40      0.00
   27    1    5      4.83      0.00
  -34    2    5     -3.65      0.00
  -32    2    5     -0.30      0.00
  -30    2    5      3.60      0.00
  -28    2    5     -3.90      0.00
  -26    2    5      0.00      0.00
  -24    2    5      4.62      0.00
  -22    2    5     -2.27      0.00
  -20    2    5      5.18      0.00
  -18    2    5      3.89      0.00
  -16    2    5     -7.38      0.00
  -14    2    5     17.53      0.00
  -12    2    5     -7.85      0.00
  -10    2    5    -55.54      0.00
   -8    2    5    -45.39      0.00
   -6    2    5     78.77      0.00
   -4    2    5    -44.40      0.00
   -2    2    5     -9.03      0.00
    0    2    5      0.93      0.00
    2    2    5     17.11      0.00
    4    2    5     17.40      0.00
    6    2    5    -27.69      0.00
    8    2    5     14.29      0.00
   10    2    5     -6.28      0.00
   12    2    5      4.51      0.00
   14    2    5      0.95      0.00
   16    2    5      2.41      0.00
   18    2    5     -4.54      0.00
   20    2    5      6.98      0.00
   22    2    5     -1.64      0.00
   24    2    5      1.82      0.00
   26    2    5     -0.60      0.00
  -33    3    5     -2.32      0.00
  -31    3    5     -0.97      0.00
  -29    3    5      3.13      0.00
  -27    3    5     -6.35      0.00
  -25    3    5     12.86      0.00
  -23    3    5    -10.16      0.00
  -21    3    5      7.58      0.00
  -19    3    5     -0.27      0.00
  -17    3    5     11.61      0.00
  -15    3    5     -0.03      0.00
  -13    3    5      1.92      0.00
  -11    3    5    -25.86      0.00
   -9    3    5    -30.30      0.00
   -7    3    5     -8.76      0.00
   -5    3    5      0.23      0.00
   -3    3    5      8.80      0.00
   -1    3    5    -56.93      0.00
    1    3    5     47.80      0.00
    3    3    5    -19.08      0.00
    5    3    5     15.48      0.00
    7    3    5    -17.11      0.00
    9    3    5     -1.26      0.00
   11    3    5      1.95      0.00
   13    3    5      1.23      0.00
   15    3    5    -12.48      0.00
   17    3    5      5.91      0.00
   19    3    5     -1.98      0.00
   21    3    5      0.12      0.00
   23    3    5      0.36      0.00
   25    3    5     -1.17      0.00
   27    3    5     -0.60      0.00
  -34    4    5     -0.41      0.00
  -32    4    5      1.98      0.00
  -30    4    5     -4.36      0.00
  -28    4    5      2.36      0.00
  -26    4    5     -0.05      0.00
  -24    4    5      1.46      0.00
  -22    4    5      3.54      0.00
  -20    4    5      0.92      0.00
  -18    4    5     -1.60      0.00
  -16    4    5     11.85      0.00
  -14    4    5      1.80      0.00
  -12    4    5      0.75      0.00
  -10    4    5    -25.40      0.00
   -8    4    5      7.51      0.00
   -6    4    5    -49.98      0.00
   -4    4    5     25.94      0.00
   -2    4    5    -35.75      0.00
    0    4    5      1.52      0.00
    2    4    5     -4.36      0.00
    4    4    5     -7.40      0.00
    6    4    5     23.12      0.00
    8    4    5    -31.41      0.00
   10    4    5      7.99      0.00
   12    4    5     -8.19      0.00
   14    4    5     -3.36      0.00
   16    4    5     -6.49      0.00
   18    4    5      0.96      0.00
   20    4    5     -7.02      0.00
   22    4    5      3.52      0.00
   24    4    5     -2.87      0.00
   26    4    5     -0.30      0.00
  -33    5    5      1.51      0.00
  -31    5    5     -2.08      0.00
  -29    5    5      0.93      0.00
  -27    5    5      0.07      0.00
  -25    5    5     -5.63      0.00
  -23    5    5     12.27      0.00
  -21    5    5     -3.71      0.00
  -19    5    5     -3.79      0.00
  -17    5    5      1.53      0.00
  -15    5    5      5.98      0.00
  -13    5    5      8.50      0.00
  -11    5    5      7.87      0.00
   -9    5    5    -24.87      0.00
   -7    5    5      4.78      0.00
   -5    5    5    -29.00      0.00
   -3    5    5     -9.33      0.00
   -1    5    5      0.92      0.00
    1    5    5    -17.57      0.00
    3    5    5     -0.52      0.00
    5    5    5      8.61      0.00
    7    5    5     -1.98      0.00
    9    5    5     -9.59      0.00
   11    5    5     -2.27      0.00
   13    5    5     -3.92      0.00
   15    5    5     -1.98      0.00
   17    5    5     -7.98      0.00
   19    5    5     -1.10      0.00
   21    5    5     -2.50      0.00
   23    5    5      0.74      0.00
   25    5    5      0.49      0.00
   27    5    5     -2.88      0.00
  -32    6    5     -2.91      0.00
  -30    6    5      4.71      0.00
  -28    6    5     -4.23      0.00
  -26    6    5     -0.17      0.00
  -24    6    5      0.50      0.00
  -22    6    5      5.15      0.00
  -20    6    5     -8.33      0.00
  -18    6    5     -2.41      0.00
  -16    6    5      4.25      0.00
  -14    6    5      5.95      0.00
  -12    6    5     -2.12      0.00
  -10    6    5     15.15      0.00
   -8    6    5    -13.23      0.00
   -6    6    5    -13.64      0.00
   -4    6    5    -14.42      0.00
   -2    6    5      2.01      0.00
    0    6    5     -1.43      0.00
    2    6    5     -9.12      0.00
    4    6    5     11.58      0.00
    6    6    5     -8.28      0.00
    8    6    5     11.21      0.00
   10    6    5     -9.69      0.00
   12    6    5     12.22      0.00
   14    6    5    -13.37      0.00
   16    6    5      0.60      0.00
   18    6    5      1.15      0.00
   20    6    5     -4.20      0.00
   22    6    5      0.25      0.00
   24    6    5      2.12      0.00
   26    6    5     -1.68      0.00
  -31    7    5      0.40      0.00
  -29    7    5     -0.48      0.00
  -27    7    5      0.12      0.00
  -25    7    5      0.35      0.00
  -23    7    5     -0.64      0.00
  -21    7    5     -0.37      0.00
  -19    7    5     -4.87      0.00
  -17    7    5     -4.07      0.00
  -15    7    5      7.26      0.00
  -13    7    5     -1.26      0.00
  -11    7    5      0.60      0.00
   -9    7    5      9.66      0.00
   -7    7    5    -30.42      0.00
   -5    7    5     14.27      0.00
   -3    7    5     -8.40      0.00
   -1    7    5      6.20      0.00
    1    7    5     -8.80      0.00
    3    7    5     13.31      0.00
    5    7    5      0.75      0.00
    7    7    5      0.05      0.00
    9    7    5      5.67      0.00
   11    7    5      6.61      0.00
   13    7    5      3.56      0.00
   15    7    5     -3.72      0.00
   17    7    5      6.03      0.00
   19    7    5     -9.16      0.00
   21    7    5      3.92      0.00
   23    7    5      4.03      0.00
   25    7    5     -3.71      0.00
  -32    8    5     -0.11      0.00
  -30    8    5     -2.44      0.00
  -28    8    5      2.89      0.00
  -26    8    5      1.46      0.00
  -24    8    5     -1.03      0.00
  -22    8    5      0.77      0.00
  -20    8    5     -6.85      0.00
  -18    8    5      1.11      0.00
  -16    8    5      1.05      0.00
  -14    8    5      7.74      0.00
  -12    8    5    -12.91      0.00
  -10    8    5     -4.67      0.00
   -8    8    5     -0.80      0.00
   -6    8    5      2.31      0.00
   -4    8    5    -11.66      0.00
   -2    8    5     14.58      0.00
    0    8    5     -4.80      0.00
    2    8    5      6.27      0.00
    4    8    5      4.43      0.00
    6    8    5      1.20      0.00
    8    8    5     -1.99      0.00
   10    8    5     16.24      0.00
   12    8    5      1.56      0.00
   14    8    5      7.30      0.00
   16    8    5     -1.88      0.00
   18    8    5     -5.84      0.00
   20    8    5      2.32      0.00
   22    8    5      2.46      0.00
   24    8    5      0.90      0.00
  -31    9    5     -1.03      0.00
  -29    9    5      1.63      0.00
  -27    9    5      1.74      0.00
  -25    9    5      2.47      0.00
  -23    9    5     -2.62      0.00
  -21    9    5      0.87      0.00
  -19    9    5     -4.64      0.00
  -17    9    5      6.53      0.00
  -15    9    5      1.83      0.00
  -13    9    5      0.01      0.00
  -11    9    5    -15.70      0.00
   -9    9    5     -1.22      0.00
   -7    9    5      0.40      0.00
   -5    9    5     -9.08      0.00
   -3    9    5      8.91      0.00
   -1    9    5     -5.89      0.00
    1    9    5      7.95      0.00
    3    9    5     -3.74      0.00
    5    9    5      5.38      0.00
    7    9    5     -0.71      0.00
    9    9    5      2.66      0.00
   11    9    5     12.37      0.00
   13    9    5      4.18      0.00
   15    9    5     -0.38      0.00
   17    9    5     -9.03      0.00
   19    9    5      5.49      0.00
   21    9    5     -4.47      0.00
   23    9    5     -0.79      0.00
   25    9    5      4.99      0.00
  -30   10    5      0.93      0.00
  -28   10    5      4.83      0.00
  -26   10    5     -0.32      0.00
  -24   10    5      4.88      0.00
  -22   10    5    -10.45      0.00
  -20   10    5      9.92      0.00
  -18   10    5     -7.88      0.00
  -16   10    5     13.06      0.00
  -14   10    5     -8.42      0.00
  -12   10    5      4.30      0.00
  -10   10    5    -14.68      0.00
   -8   10    5      4.59      0.00
   -6   10    5    -15.83      0.00
   -4   10    5      4.42      0.00
   -2   10    5     -2.94      0.00
    0   10    5     -0.53      0.00
    2   10    5     -0.46      0.00
    4   10    5     -1.43      0.00
    6   10    5      5.86      0.00
    8   10    5      1.76      0.00
   10   10    5      2.20      0.00
   12   10    5      7.43      0.00
   14   10    5      0.76      0.00
   16   10    5     -6.25      0.00
   18   10    5     -0.78      0.00
   20   10    5     -3.70      0.00
   22   10    5     -0.55      0.00
   24   10    5     -0.47      0.00
  -29   11    5      0.73      0.00
  -27   11    5      2.52      0.00
  -25   11    5      1.83      0.00
  -23   11    5      0.91      0.00
  -21   11    5     -8.81      0.00
  -19   11    5      5.90      0.00
  -17   11    5     -0.58      0.00
  -15   11    5      4.87      0.00
  -13   11    5     -6.98      0.00
  -11   11    5      1.57      0.00
   -9   11    5     -4.53      0.00
   -7   11    5     -2.11      0.00
   -5   11    5    -18.36      0.00
   -3   11    5      2.50      0.00
   -1   11    5      2.15      0.00
    1   11    5     -3.72      0.00
    3   11    5      3.06      0.00
    5   11    5      0.23      0.00
    7   11    5      4.98      0.00
    9   11    5      4.99      0.00
   11   11    5      1.36      0.00
   13   11    5      3.29      0.00
   15   11    5     -4.15      0.00
   17   11    5     -2.21      0.00
   19   11    5     -0.57      0.00
   21   11    5     -1.24      0.00
   23   11    5      0.78      0.00
  -28   12    5     -0.92      0.00
  -26   12    5      2.56      0.00
  -24   12    5     -2.91      0.00
  -22   12    5      4.34      0.00
  -20   12    5    -11.55      0.00
  -18   12    5      8.15      0.00
  -16   12    5     -8.85      0.00
  -14   12    5      6.89      0.00
  -12   12    5     -8.03      0.00
  -10   12    5      8.36      0.00
   -8   12    5    -16.86      0.00
   -6   12    5      0.99      0.00
   -4   12    5    -13.98      0.00
   -2   12    5      8.92      0.00
    0   12    5     -3.70      0.00
    2   12    5      7.22      0.00
    4   12    5     -0.95      0.00
    6   12    5      2.32      0.00
    8   12    5      9.21      0.00
   10   12    5      0.59      0.00
   12   12    5      3.39      0.00
   14   12    5     -3.75      0.00
   16   12    5      2.00      0.00
   18   12    5     -0.62      0.00
   20   12    5      6.15      0.00
   22   12    5     -5.83      0.00
  -27   13    5     -0.24      0.00
  -25   13    5     -0.56      0.00
  -23   13    5     -1.77      0.00
  -21   13    5      1.65      0.00
  -19   13    5     -7.57      0.00
  -17   13    5      0.82      0.00
  -15   13    5     -1.60      0.00
  -13   13    5     -0.78      0.00
  -11   13    5     -4.63      0.00
   -9   13    5     -1.61      0.00
   -7   13    5     -9.12      0.00
   -5   13    5      1.97      0.00
   -3   13    5     -8.01      0.00
   -1   13    5     11.39      0.00
    1   13    5      1.03      0.00
    3   13    5      4.70      0.00
    5   13    5     -4.25      0.00
    7   13    5      4.54      0.00
    9   13    5      7.55      0.00
   11   13    5      0.97      0.00
   13   13    5     -2.87      0.00
   15   13    5      1.44      0.00
   17   13    5      6.65      0.00
   19   13    5      0.35      0.00
   21   13    5      4.25      0.00
  -26   14    5     -0.80      0.00
  -24   14    5      1.25      0.00
  -22   14    5     -2.03      0.00
  -20   14    5     -0.26      0.00
  -18   14    5     -5.76      0.00
  -16   14    5      6.87      0.00
  -14   14    5     -8.43      0.00
  -12   14    5      1.35      0.00
  -10   14    5     -7.35      0.00
   -8   14    5     -2.55      0.00
   -6   14    5     -5.22      0.00
   -4   14    5      8.33      0.00
   -2   14    5     -3.56      0.00
    0   14    5     10.77      0.00
    2   14    5     -3.74      0.00
    4   14    5     -1.07      0.00
    6   14    5     -0.46      0.00
    8   14    5     -1.68      0.00
   10   14    5      7.48      0.00
   12   14    5     -4.74      0.00
   14   14    5      5.34      0.00
   16   14    5     -1.20      0.00
   18   14    5      8.99      0.00
   20   14    5     -3.42      0.00
  -25   15    5     -2.19      0.00
  -23   15    5      2.45      0.00
  -21   15    5     -1.80      0.00
  -19   15    5     -0.88      0.00
  -17   15    5      3.50      0.00
  -15   15    5     -1.48      0.00
  -13   15    5     -0.35      0.00
  -11   15    5     -1.21      0.00
   -9   15    5     -6.86      0.00
   -7   15    5     -1.07      0.00
   -5   15    5      0.85      0.00
   -3   15    5      6.53      0.00
   -1   15    5      3.09      0.00
    1   15    5     -0.81      0.00
    3   15    5     -9.20      0.00
    5   15    5     -0.49      0.00
    7   15    5     -0.04      0.00
    9   15    5     -3.93      0.00
   11   15    5      1.01      0.00
   13   15    5      2.54      0.00
   15   15    5      4.58      0.00
   17   15    5     -3.41      0.00
   19   15    5      5.43      0.00
  -24   16    5      0.19      0.00
  -22   16    5     -0.30      0.00
  -20   16    5     -0.41      0.00
  -18   16    5      3.70      0.00
  -16   16    5     -0.06      0.00
  -14   16    5      5.24      0.00
  -12   16    5     -1.72      0.00
  -10   16    5      1.21      0.00
   -8   16    5     -4.77      0.00
   -6   16    5      0.88      0.00
   -4   16    5      0.00      0.00
   -2   16    5      5.93      0.00
    0   16    5      0.06      0.00
    2   16    5     -9.23      0.00
    4   16    5     -3.65      0.00
    6   16    5     -0.79      0.00
    8   16    5     -1.87      0.00
   10   16    5     -4.21      0.00
   12   16    5      5.61      0.00
   14   16    5      1.60      0.00
   16   16    5      2.82      0.00
  -21   17    5     -1.58      0.00
  -19   17    5      1.09      0.00
  -17   17    5      2.34      0.00
  -15   17    5      3.99      0.00
  -13   17    5      3.53      0.00
  -11   17    5      2.72      0.00
   -9   17    5     -0.16      0.00
   -7   17    5     -4.27      0.00
   -5   17    5      0.01      0.00
   -3   17    5      0.33      0.00
   -1   17    5     -0.44      0.00
    1   17    5      2.12      0.00
    3   17    5    -10.59      0.00
    5   17    5      3.99      0.00
    7   17    5     -2.48      0.00
    9   17    5     -0.51      0.00
   11   17    5     -1.62      0.00
   13   17    5      9.03      0.00
   15   17    5     -2.20      0.00
  -20   18    5     -2.28      0.00
  -18   18    5      2.65      0.00
  -16   18    5      1.56      0.00
  -14   18    5      3.89      0.00
  -12   18    5      4.25      0.00
  -10   18    5     -1.02      0.00
   -8   18    5      0.70      0.00
   -6   18    5     -5.74      0.00
   -4   18    5     -1.70      0.00
   -2   18    5     -1.14      0.00
    0   18    5      2.85      0.00
    2   18    5     -1.09      0.00
    4   18    5     -1.36      0.00
    6   18    5      1.91      0.00
    8   18    5      0.04      0.00
   10   18    5     -0.57      0.00
   12   18    5      2.95      0.00
  -17   19    5      0.07      0.00
  -15   19    5      1.82      0.00
  -13   19    5      3.22      0.00
  -11   19    5     -0.94      0.00
   -9   19    5     -3.41      0.00
   -7   19    5     -1.84      0.00
   -5   19    5     -2.14      0.00
   -3   19    5     -3.88      0.00
   -1   19    5      3.23      0.00
    1   19    5     -2.05      0.00
    3   19    5      5.82      0.00
    5   19    5     -5.40      0.00
    7   19    5      6.58      0.00
    9   19    5     -6.16      0.00
   11   19    5      4.89      0.00
  -14   20    5      1.23      0.00
  -12   20    5      0.01      0.00
  -10   20    5     -9.09      0.00
   -8   20    5     -0.94      0.00
   -6   20    5     -0.02      0.00
   -4   20    5     -0.71      0.00
   -2   20    5     -2.33      0.00
    0   20    5      0.85      0.00
    2   20    5      1.47      0.00
    4   20    5     -2.96      0.00
    6   20    5     -0.46      0.00
    8   20    5      0.94      0.00
   -9   21    5     -7.56      0.00
   -7   21    5      1.22      0.00
   -5   21    5     -0.05      0.00
   -3   21    5      5.38      0.00
   -1   21    5     -6.97      0.00
    1   21    5      1.26      0.00
    3   21    5     -6.29      0.00
  -34    0    6     -2.61      0.00
  -32    0    6     -3.22      0.00
  -30    0    6     -8.82      0.00
  -28    0    6      4.97      0.00
  -26    0    6     -8.23      0.00
  -24    0    6      6.86      0.00
  -22    0    6      3.79      0.00
  -20    0    6    -10.07      0.00
  -18    0    6     10.92      0.00
  -16    0    6     35.86      0.00
  -14    0    6    -37.57      0.00
  -12    0    6      3.01      0.00
  -10    0    6     35.04      0.00
   -8    0    6    -22.82      0.00
   -6    0    6     11.61      0.00
   -4    0    6    -44.51      0.00
   -2    0    6     13.39      0.00
    0    0    6   -102.29      0.00
    2    0    6     20.59      0.00
    4    0    6     -5.01      0.00
    6    0    6    -11.95      0.00
    8    0    6    -13.60      0.00
   10    0    6     15.64      0.00
   12    0    6    -28.03      0.00
   14    0    6     27.09      0.00
   16    0    6    -10.26      0.00
   18    0    6     11.47      0.00
   20    0    6     -0.53      0.00
   22    0    6      4.59      0.00
   24    0    6      2.68      0.00
   26    0    6     -0.90      0.00
  -33    1    6     -7.35      0.00
  -31    1    6     -2.84      0.00
  -29    1    6     -1.05      0.00
  -27    1    6     -4.49      0.00
  -25    1    6     -2.43      0.00
  -23    1    6      8.03      0.00
  -21    1    6     -4.77      0.00
  -19    1    6      1.98      0.00
  -17    1    6      5.89      0.00
  -15    1    6     20.34      0.00
  -13    1    6    -14.15      0.00
  -11    1    6     -2.31      0.00
   -9    1    6      4.72      0.00
   -7    1    6     22.87      0.00
   -5    1    6    -23.04      0.00
   -3    1    6    -24.19      0.00
   -1    1    6    -38.30      0.00
    1    1    6    -35.11      0.00
    3    1    6     18.24      0.00
    5    1    6    -20.62      0.00
    7    1    6    -11.62      0.00
    9    1    6      4.10      0.00
   11    1    6      3.72      0.00
   13    1    6     -9.15      0.00
   15    1    6     13.34      0.00
   17    1    6      0.22      0.00
   19    1    6     10.50      0.00
   21    1    6      0.81      0.00
   23    1    6      6.28      0.00
   25    1    6     -2.18      0.00
  -34    2    6     -3.99      0.00
  -32    2    6     -9.38      0.00
  -30    2    6      6.92      0.00
  -28    2    6    -10.15      0.00
  -26    2    6     -2.18      0.00
  -24    2    6     -1.23      0.00
  -22    2    6      0.80      0.00
  -20    2    6      2.77      0.00
  -18    2    6     -1.02      0.00
  -16    2    6     -5.54      0.00
  -14    2    6     30.64      0.00
  -12    2    6    -12.23      0.00
  -10    2    6    -14.66      0.00
   -8    2    6     24.84      0.00
   -6    2    6     -4.53      0.00
   -4    2    6     19.74      0.00
   -2    2    6    -75.14      0.00
    0    2    6     16.96      0.00
    2    2    6    -27.19      0.00
    4    2    6      4.72      0.00
    6    2    6    -16.37      0.00
    8    2    6      1.44      0.00
   10    2    6      0.10      0.00
   12    2    6     16.12      0.00
   14    2    6    -19.87      0.00
   16    2    6     30.49      0.00
   18    2    6      1.60      0.00
   20    2    6      6.27      0.00
   22    2    6      8.89      0.00
   24    2    6      1.24      0.00
   26    2    6     -5.26      0.00
  -33    3    6     -1.14      0.00
  -31    3    6     -7.46      0.00
  -29    3    6      1.50      0.00
  -27    3    6     -9.27      0.00
  -25    3    6      1.25      0.00
  -23    3    6     -6.64      0.00
  -21    3    6      6.34      0.00
  -19    3    6    -12.43      0.00
  -17    3    6     16.64      0.00
  -15    3    6     -7.98      0.00
  -13    3    6     24.51      0.00
  -11    3    6    -15.81      0.00
   -9    3    6     10.03      0.00
   -7    3    6     -8.61      0.00
   -5    3    6     38.69      0.00
   -3    3    6    -21.88      0.00
   -1    3    6    -21.62      0.00
    1    3    6      8.46      0.00
    3    3    6    -25.81      0.00
    5    3    6     13.83      0.00
    7    3    6    -18.06      0.00
    9    3    6      7.22      0.00
   11    3    6      0.36      0.00
   13    3    6     12.45      0.00
   15    3    6     -6.36      0.00
   17    3    6     31.42      0.00
   19    3    6     -6.15      0.00
   21    3    6     16.99      0.00
   23    3    6      1.87      0.00
   25    3    6      2.08      0.00
  -34    4    6     -0.88      0.00
  -32    4    6     -0.53      0.00
  -30    4    6     -8.84      0.00
  -28    4    6     -0.37      0.00
  -26    4    6     -5.60      0.00
  -24    4    6     -1.21      0.00
  -22    4    6     -1.42      0.00
  -20    4    6     -7.53      0.00
  -18    4    6      5.79      0.00
  -16    4    6     13.03      0.00
  -14    4    6      6.67      0.00
  -12    4    6      4.48      0.00
  -10    4    6    -18.54      0.00
   -8    4    6     24.83      0.00
   -6    4    6     17.66      0.00
   -4    4    6    -11.95      0.00
   -2    4    6     16.80      0.00
    0    4    6    -11.29      0.00
    2    4    6     -5.09      0.00
    4    4    6     -2.33      0.00
    6    4    6     -6.30      0.00
    8    4    6     -6.38      0.00
   10    4    6      4.27      0.00
   12    4    6      0.33      0.00
   14    4    6     11.79      0.00
   16    4    6     -1.51      0.00
   18    4    6     17.38      0.00
   20    4    6      8.54      0.00
   22    4    6      4.07      0.00
   24    4    6      5.68      0.00
   26    4    6     -2.96      0.00
  -33    5    6     -4.97      0.00
  -31    5    6      3.09      0.00
  -29    5    6    -11.54      0.00
  -27    5    6      4.47      0.00
  -25    5    6     -9.80      0.00
  -23    5    6      2.14      0.00
  -21    5    6    -10.88      0.00
  -19    5    6     19.52      0.00
  -17    5    6     -7.81      0.00
  -15    5    6     23.23      0.00
  -13    5    6     -8.91      0.00
  -11    5    6      9.92      0.00
   -9    5    6    -12.76      0.00
   -7    5    6     34.10      0.00
   -5    5    6     -9.03      0.00
   -3    5    6     14.21      0.00
   -1    5    6      6.55      0.00
    1    5    6     -0.45      0.00
    3    5    6     -6.28      0.00
    5    5    6    -10.90      0.00
    7    5    6     11.99      0.00
    9    5    6    -23.79      0.00
   11    5    6     15.73      0.00
   13    5    6    -12.09      0.00
   15    5    6     11.89      0.00
   17    5    6      1.25      0.00
   19    5    6     14.20      0.00
   21    5    6     -2.31      0.00
   23    5    6     11.69      0.00
   25    5    6     -4.30      0.00
  -32    6    6     -2.86      0.00
  -30    6    6      1.24      0.00
  -28    6    6     -5.07      0.00
  -26    6    6     -0.38      0.00
  -24    6    6     -7.15      0.00
  -22    6    6     -3.17      0.00
  -20    6    6     11.07      0.00
  -18    6    6      2.28      0.00
  -16    6    6      6.68      0.00
  -14    6    6      3.27      0.00
  -12    6    6     -3.56      0.00
  -10    6    6      6.64      0.00
   -8    6    6     -7.77      0.00
   -6    6    6     29.76      0.00
   -4    6    6     -8.07      0.00
   -2    6    6      8.74      0.00
    0    6    6      5.00      0.00
    2    6    6      9.64      0.00
    4    6    6    -13.31      0.00
    6    6    6      5.46      0.00
    8    6    6    -12.47      0.00
   10    6    6     -3.10      0.00
   12    6    6      5.15      0.00
   14    6    6     -7.48      0.00
   16    6    6      4.90      0.00
   18    6    6      4.90      0.00
   20    6    6      1.85      0.00
   22    6    6      7.80      0.00
   24    6    6      0.65      0.00
  -33    7    6     -1.52      0.00
  -31    7    6     -3.42      0.00
  -29    7    6      5.49      0.00
  -27    7    6     -6.61      0.00
  -25    7    6     -1.43      0.00
  -23    7    6     -7.93      0.00
  -21    7    6     10.96      0.00
  -19    7    6     -1.05      0.00
  -17    7    6     11.35      0.00
  -15    7    6    -12.17      0.00
  -13    7    6     -1.07      0.00
  -11    7    6     -4.66      0.00
   -9    7    6     17.37      0.00
   -7    7    6    -13.61      0.00
   -5    7    6     13.72      0.00
   -3    7    6     -1.19      0.00
   -1    7    6     11.79      0.00
    1    7    6     -1.67      0.00
    3    7    6      9.92      0.00
    5    7    6      2.14      0.00
    7    7    6    -19.69      0.00
    9    7    6     12.63      0.00
   11    7    6    -12.64      0.00
   13    7    6     10.97      0.00
   15    7    6     -8.37      0.00
   17    7    6      1.13      0.00
   19    7    6      8.22      0.00
   21    7    6      0.61      0.00
   23    7    6      2.15      0.00
   25    7    6     -1.03      0.00
  -32    8    6      2.38      0.00
  -30    8    6     -4.54      0.00
  -28    8    6      4.32      0.00
  -26    8    6     -4.39      0.00
  -24    8    6     -3.30      0.00
  -22    8    6      3.53      0.00
  -20    8    6      3.47      0.00
  -18    8    6      2.43      0.00
  -16    8    6     -6.56      0.00
  -14    8    6    -11.97      0.00
  -12    8    6     -7.39      0.00
  -10    8    6     13.37      0.00
   -8    8    6     -1.07      0.00
   -6    8    6    -19.65      0.00
   -4    8    6     18.32      0.00
   -2    8    6     -1.13      0.00
    0    8    6      6.06      0.00
    2    8    6      1.07      0.00
    4    8    6      7.36      0.00
    6    8    6     -9.85      0.00
    8    8    6      1.73      0.00
   10    8    6     -0.18      0.00
   12    8    6     -0.57      0.00
   14    8    6      1.73      0.00
   16    8    6     -2.19      0.00
   18    8    6      7.69      0.00
   20    8    6     -2.42      0.00
   22    8    6      0.16      0.00
   24    8    6      4.47      0.00
  -31    9    6      1.32      0.00
  -29    9    6      0.72      0.00
  -27    9    6     -1.40      0.00
  -25    9    6      0.55      0.00
  -23    9    6     -0.39      0.00
  -21    9    6      9.86      0.00
  -19    9    6     -6.35      0.00
  -17    9    6     -1.27      0.00
  -15    9    6     -8.92      0.00
  -13    9    6     -6.37      0.00
  -11    9    6     -3.07      0.00
   -9    9    6      1.27      0.00
   -7    9    6     -6.05      0.00
   -5    9    6     -7.78      0.00
   -3    9    6      8.67      0.00
   -1    9    6     -2.62      0.00
    1    9    6      3.39      0.00
    3    9    6      0.24      0.00
    5    9    6     -6.57      0.00
    7    9    6      2.94      0.00
    9    9    6    -10.52      0.00
   11    9    6      6.96      0.00
   13    9    6     -1.54      0.00
   15    9    6     -1.04      0.00
   17    9    6      4.96      0.00
   19    9    6     -5.21      0.00
   21    9    6      2.29      0.00
   23    9    6     -1.43      0.00
  -30   10    6      2.85      0.00
  -28   10    6      1.82      0.00
  -26   10    6      0.21      0.00
  -24   10    6      2.83      0.00
  -22   10    6      3.16      0.00
  -20   10    6      6.86      0.00
  -18   10    6     -3.43      0.00
  -16   10    6      0.07      0.00
  -14   10    6     -9.92      0.00
  -12   10    6      4.75      0.00
  -10   10    6     -6.98      0.00
   -8   10    6     -2.88      0.00
   -6   10    6    -11.86      0.00
   -4   10    6      0.49      0.00
   -2   10    6      9.66      0.00
    0   10    6    -10.03      0.00
    2   10    6     -1.54      0.00
    4   10    6     -9.75      0.00
    6   10    6      0.04      0.00
    8   10    6     -7.60      0.00
   10   10    6     -5.10      0.00
   12   10    6     -1.31      0.00
   14   10    6     -1.62      0.00
   16   10    6     -0.52      0.00
   18   10    6     -5.68      0.00
   20   10    6      2.31      0.00
   22   10    6     -6.86      0.00
  -29   11    6     -2.05      0.00
  -27   11    6     12.83      0.00
  -25   11    6     -4.53      0.00
  -23   11    6     12.77      0.00
  -21   11    6     -7.63      0.00
  -19   11    6     18.93      0.00
  -17   11    6     -6.00      0.00
  -15   11    6     11.69      0.00
  -13   11    6     -7.69      0.00
  -11   11    6      3.81      0.00
   -9   11    6    -13.44      0.00
   -7   11    6      1.35      0.00
   -5   11    6    -10.95      0.00
   -3   11    6     11.38      0.00
   -1   11    6     -5.49      0.00
    1   11    6     -4.86      0.00
    3   11    6    -12.13      0.00
    5   11    6     -1.53      0.00
    7   11    6     -9.70      0.00
    9   11    6     -8.24      0.00
   11   11    6     -4.67      0.00
   13   11    6     -9.07      0.00
   15   11    6      0.50      0.00
   17   11    6    -11.89      0.00
   19   11    6      3.15      0.00
   21   11    6    -12.54      0.00
  -28   12    6      3.47      0.00
  -26   12    6      8.38      0.00
  -24   12    6      3.66      0.00
  -22   12    6      4.58      0.00
  -20   12    6      1.93      0.00
  -18   12    6     17.69      0.00
  -16   12    6      4.11      0.00
  -14   12    6      9.47      0.00
  -12   12    6     -7.82      0.00
  -10   12    6      1.56      0.00
   -8   12    6    -12.94      0.00
   -6   12    6      4.47      0.00
   -4   12    6     -2.27      0.00
   -2   12    6      8.15      0.00
    0   12    6     -6.40      0.00
    2   12    6     -9.70      0.00
    4   12    6      0.79      0.00
    6   12    6     -8.95      0.00
    8   12    6     -9.47      0.00
   10   12    6     -8.06      0.00
   12   12    6     -7.47      0.00
   14   12    6     -6.60      0.00
   16   12    6     -8.68      0.00
   18   12    6     -5.18      0.00
   20   12    6     -9.13      0.00
  -27   13    6      1.17      0.00
  -25   13    6     14.91      0.00
  -23   13    6     -7.14      0.00
  -21   13    6     13.47      0.00
  -19   13    6      1.53      0.00
  -17   13    6     24.68      0.00
  -15   13    6     -7.48      0.00
  -13   13    6     10.48      0.00
  -11   13    6     -5.72      0.00
   -9   13    6     -0.80      0.00
   -7   13    6    -12.10      0.00
   -5   13    6     14.95      0.00
   -3   13    6     -6.00      0.00
   -1   13    6     14.27      0.00
    1   13    6    -16.46      0.00
    3   13    6     10.67      0.00
    5   13    6     -7.63      0.00
    7   13    6    -10.31      0.00
    9   13    6      0.58      0.00
   11   13    6    -12.18      0.00
   13   13    6     -2.02      0.00
   15   13    6    -15.40      0.00
   17   13    6      2.53      0.00
   19   13    6    -15.42      0.00
  -26   14    6      5.78      0.00
  -24   14    6      5.68      0.00
  -22   14    6      1.79      0.00
  -20   14    6      5.29      0.00
  -18   14    6     11.65      0.00
  -16   14    6      6.04      0.00
  -14   14    6     -0.55      0.00
  -12   14    6      3.67      0.00
  -10   14    6     -4.36      0.00
   -8   14    6      0.04      0.00
   -6   14    6     -3.60      0.00
   -4   14    6     12.08      0.00
   -2   14    6     -1.02      0.00
    0   14    6      3.92      0.00
    2   14    6     -0.64      0.00
    4   14    6      6.29      0.00
    6   14    6     -8.18      0.00
    8   14    6     -6.92      0.00
   10   14    6      4.87      0.00
   12   14    6     -8.65      0.00
   14   14    6     -6.42      0.00
   16   14    6     -3.69      0.00
   18   14    6     -5.13      0.00
  -25   15    6      3.82      0.00
  -23   15    6      8.48      0.00
  -21   15    6     -2.46      0.00
  -19   15    6      8.74      0.00
  -17   15    6     -0.14      0.00
  -15   15    6      6.85      0.00
  -13   15    6     -5.18      0.00
  -11   15    6      5.39      0.00
   -9   15    6     -0.27      0.00
   -7   15    6      0.73      0.00
   -5   15    6     -3.55      0.00
   -3   15    6     13.85      0.00
   -1   15    6     -7.64      0.00
    1   15    6     11.55      0.00
    3   15    6     -6.00      0.00
    5   15    6      1.80      0.00
    7   15    6     -2.11      0.00
    9   15    6     -2.32      0.00
   11   15    6      4.54      0.00
   13   15    6    -10.35      0.00
   15   15    6      4.44      0.00
   17   15    6     -6.80      0.00
  -24   16    6      5.08      0.00
  -22   16    6      0.49      0.00
  -20   16    6      4.62      0.00
  -18   16    6     -2.73      0.00
  -16   16    6      4.04      0.00
  -14   16    6     -0.98      0.00
  -12   16    6      3.31      0.00
  -10   16    6      0.72      0.00
   -8   16    6      5.79      0.00
   -6   16    6     -4.02      0.00
   -4   16    6      3.07      0.00
   -2   16    6     -0.47      0.00
    0   16    6      4.48      0.00
    2   16    6     -2.45      0.00
    4   16    6     -2.84      0.00
    6   16    6     -0.97      0.00
    8   16    6      3.92      0.00
   10   16    6     -1.08      0.00
   12   16    6      2.19      0.00
   14   16    6     -2.82      0.00
   16   16    6      2.46      0.00
  -21   17    6      1.16      0.00
  -19   17    6      2.00      0.00
  -17   17    6     -4.34      0.00
  -15   17    6      4.76      0.00
  -13   17    6      0.80      0.00
  -11   17    6      1.77      0.00
   -9   17    6      4.24      0.00
   -7   17    6     -1.31      0.00
   -5   17    6      1.64      0.00
   -3   17    6     -2.43      0.00
   -1   17    6      2.01      0.00
    1   17    6     -4.89      0.00
    3   17    6     -0.76      0.00
    5   17    6     -1.42      0.00
    7   17    6      3.51      0.00
    9   17    6      1.00      0.00
   11   17    6      3.60      0.00
   13   17    6      2.64      0.00
  -20   18    6      0.62      0.00
  -18   18    6     -1.66      0.00
  -16   18    6     -1.06      0.00
  -14   18    6      4.81      0.00
  -12   18    6     -1.64      0.00
  -10   18    6      3.20      0.00
   -8   18    6     -4.35      0.00
   -6   18    6      6.29      0.00
   -4   18    6     -5.72      0.00
   -2   18    6      3.12      0.00
    0   18    6     -8.31      0.00
    2   18    6      3.38      0.00
    4   18    6     -2.41      0.00
    6   18    6      4.07      0.00
    8   18    6      2.87      0.00
   10   18    6      4.33      0.00
   12   18    6      6.10      0.00
  -17   19    6      2.30      0.00
  -15   19    6     -4.05      0.00
  -13   19    6      3.99      0.00
  -11   19    6     -4.89      0.00
   -9   19    6     -1.26      0.00
   -7   19    6      0.13      0.00
   -5   19    6     -0.75      0.00
   -3   19    6     -0.68      0.00
   -1   19    6     -2.36      0.00
    1   19    6     -0.74      0.00
    3   19    6      0.07      0.00
    5   19    6      6.99      0.00
    7   19    6      1.34      0.00
    9   19    6      5.82      0.00
  -14   20    6     -3.58      0.00
  -12   20    6      1.39      0.00
  -10   20    6     -7.21      0.00
   -8   20    6      0.19      0.00
   -6   20    6     -5.12      0.00
   -4   20    6      4.74      0.00
   -2   20    6     -6.41      0.00
    0   20    6      4.95      0.00
    2   20    6     -2.72      0.00
    4   20    6      4.73      0.00
    6   20    6      5.28      0.00
   -7   21    6     -0.01      0.00
   -5   21    6     -1.64      0.00
   -3   21    6      0.11      0.00
   -1   21    6     -0.10      0.00
  -35    1    7      2.33      0.00
  -33    1    7     -3.25      0.00
  -31    1    7      3.22      0.00
  -29    1    7     -0.19      0.00
  -27    1    7    -10.22      0.00
  -25    1    7      8.10      0.00
  -23    1    7     -2.46      0.00
  -21    1    7      1.10      0.00
  -19    1    7    -10.10      0.00
  -17    1    7     12.57      0.00
  -15    1    7     12.23      0.00
  -13    1    7    -15.23      0.00
  -11    1    7      8.47      0.00
   -9    1    7      3.27      0.00
   -7    1    7      3.90      0.00
   -5    1    7    -16.63      0.00
   -3    1    7     22.73      0.00
   -1    1    7     -6.24      0.00
    1    1    7      2.28      0.00
    3    1    7     -5.32      0.00
    5    1    7     -9.62      0.00
    7    1    7     13.71      0.00
    9    1    7    -15.51      0.00
   11    1    7     13.96      0.00
   13    1    7    -14.78      0.00
   15    1    7      5.49      0.00
   17    1    7     -4.23      0.00
   19    1    7     -5.21      0.00
   21    1    7     -0.76      0.00
   23    1    7     -0.12      0.00
   25    1    7     -1.45      0.00
  -34    2    7     -1.43      0.00
  -32    2    7     -0.61      0.00
  -30    2    7      0.96      0.00
  -28    2    7     -4.83      0.00
  -26    2    7     -2.06      0.00
  -24    2    7     -0.74      0.00
  -22    2    7      3.80      0.00
  -20    2    7     -2.59      0.00
  -18    2    7      1.06      0.00
  -16    2    7      0.53      0.00
  -14    2    7     16.28      0.00
  -12    2    7     -4.21      0.00
  -10    2    7     -0.24      0.00
   -8    2    7     -7.36      0.00
   -6    2    7     11.08      0.00
   -4    2    7      3.77      0.00
   -2    2    7      1.09      0.00
    0    2    7      4.41      0.00
    2    2    7    -11.29      0.00
    4    2    7      1.91      0.00
    6    2    7      1.57      0.00
    8    2    7     -4.28      0.00
   10    2    7     -3.56      0.00
   12    2    7     14.52      0.00
   14    2    7    -15.97      0.00
   16    2    7      8.26      0.00
   18    2    7    -16.00      0.00
   20    2    7      4.54      0.00
   22    2    7     -2.76      0.00
   24    2    7     -0.21      0.00
  -33    3    7     -0.97      0.00
  -31    3    7     -2.45      0.00
  -29    3    7     -0.89      0.00
  -27    3    7     -1.37      0.00
  -25    3    7     -5.72      0.00
  -23    3    7      7.13      0.00
  -21    3    7     -3.00      0.00
  -19    3    7      5.56      0.00
  -17    3    7      1.77      0.00
  -15    3    7     -8.46      0.00
  -13    3    7     14.47      0.00
  -11    3    7     -6.42      0.00
   -9    3    7      7.98      0.00
   -7    3    7    -17.95      0.00
   -5    3    7     15.70      0.00
   -3    3    7      1.23      0.00
   -1    3    7     11.42      0.00
    1    3    7    -17.34      0.00
    3    3    7     -0.15      0.00
    5    3    7     10.13      0.00
    7    3    7     -7.18      0.00
    9    3    7     10.74      0.00
   11    3    7     -2.54      0.00
   13    3    7     10.01      0.00
   15    3    7     -7.16      0.00
   17    3    7     -3.77      0.00
   19    3    7      2.77      0.00
   21    3    7     -1.98      0.00
   23    3    7     -0.77      0.00
   25    3    7      3.68      0.00
  -34    4    7      0.51      0.00
  -32    4    7      0.74      0.00
  -30    4    7     -5.15      0.00
  -28    4    7     -0.10      0.00
  -26    4    7     -6.81      0.00
  -24    4    7      8.48      0.00
  -22    4    7      2.63      0.00
  -20    4    7      3.28      0.00
  -18    4    7     -4.76      0.00
  -16    4    7      2.74      0.00
  -14    4    7     -5.89      0.00
  -12    4    7      7.39      0.00
  -10    4    7     -2.98      0.00
   -8    4    7      0.83      0.00
   -6    4    7    -12.14      0.00
   -4    4    7      9.72      0.00
   -2    4    7     12.47      0.00
    0    4    7    -14.35      0.00
    2    4    7     -7.97      0.00
    4    4    7      6.34      0.00
    6    4    7     16.65      0.00
    8    4    7     -6.01      0.00
   10    4    7     11.75      0.00
   12    4    7     -3.28      0.00
   14    4    7     17.98      0.00
   16    4    7    -18.08      0.00
   18    4    7     15.07      0.00
   20    4    7     -7.00      0.00
   22    4    7      5.08      0.00
   24    4    7      0.04      0.00
  -33    5    7      2.22      0.00
  -31    5    7      0.18      0.00
  -29    5    7     -5.74      0.00
  -27    5    7     -3.41      0.00
  -25    5    7      3.46      0.00
  -23    5    7      5.88      0.00
  -21    5    7      9.12      0.00
  -19    5    7     -8.54      0.00
  -17    5    7     -4.72      0.00
  -15    5    7     13.02      0.00
  -13    5    7    -10.72      0.00
  -11    5    7      9.14      0.00
   -9    5    7    -12.01      0.00
   -7    5    7     13.03      0.00
   -5    5    7    -21.65      0.00
   -3    5    7     17.05      0.00
   -1    5    7    -13.14      0.00
    1    5    7      0.72      0.00
    3    5    7    -13.40      0.00
    5    5    7     23.20      0.00
    7    5    7      5.00      0.00
    9    5    7     -1.59      0.00
   11    5    7      8.32      0.00
   13    5    7      5.81      0.00
   15    5    7     -3.50      0.00
   17    5    7      6.23      0.00
   19    5    7      0.75      0.00
   21    5    7      1.79      0.00
   23    5    7      3.43      0.00
  -32    6    7      3.01      0.00
  -30    6    7     -1.73      0.00
  -28    6    7     -7.48      0.00
  -26    6    7      3.61      0.00
  -24    6    7      2.08      0.00
  -22    6    7      9.26      0.00
  -20    6    7     -3.72      0.00
  -18    6    7     -4.28      0.00
  -16    6    7      5.03      0.00
  -14    6    7      5.64      0.00
  -12    6    7      3.43      0.00
  -10    6    7      0.06      0.00
   -8    6    7     -8.49      0.00
   -6    6    7      5.90      0.00
   -4    6    7    -11.13      0.00
   -2    6    7     -1.98      0.00
    0    6    7     -9.88      0.00
    2    6    7     -0.47      0.00
    4    6    7      8.08      0.00
    6    6    7     -0.43      0.00
    8    6    7     11.76      0.00
   10    6    7     -4.22      0.00
   12    6    7     10.62      0.00
   14    6    7    -11.47      0.00
   16    6    7      8.60      0.00
   18    6    7      0.26      0.00
   20    6    7      3.47      0.00
   22    6    7     -1.99      0.00
   24    6    7      1.58      0.00
  -33    7    7      5.27      0.00
  -31    7    7     -3.32      0.00
  -29    7    7     -0.82      0.00
  -27    7    7     -1.28      0.00
  -25    7    7      0.35      0.00
  -23    7    7      3.62      0.00
  -21    7    7      0.84      0.00
  -19    7    7     -5.88      0.00
  -17    7    7      2.93      0.00
  -15    7    7      3.36      0.00
  -13    7    7     21.06      0.00
  -11    7    7     -5.65      0.00
   -9    7    7     -1.92      0.00
   -7    7    7    -15.38      0.00
   -5    7    7     20.87      0.00
   -3    7    7    -22.96      0.00
   -1    7    7     -3.36      0.00
    1    7    7    -13.35      0.00
    3    7    7     19.94      0.00
    5    7    7     -8.15      0.00
    7    7    7      8.96      0.00
    9    7    7     -6.48      0.00
   11    7    7      6.32      0.00
   13    7    7     -5.34      0.00
   15    7    7      2.13      0.00
   17    7    7     -2.00      0.00
   19    7    7      1.78      0.00
   21    7    7     -1.42      0.00
   23    7    7      2.38      0.00
  -32    8    7      0.62      0.00
  -30    8    7     -2.63      0.00
  -28    8    7      0.80      0.00
  -26    8    7     -0.69      0.00
  -24    8    7      0.67      0.00
  -22    8    7     -3.17      0.00
  -20    8    7     -5.91      0.00
  -18    8    7      2.09      0.00
  -16    8    7      4.32      0.00
  -14    8    7     13.98      0.00
  -12    8    7     -1.00      0.00
  -10    8    7      3.65      0.00
   -8    8    7     -4.06      0.00
   -6    8    7     -7.00      0.00
   -4    8    7      3.54      0.00
   -2    8    7    -12.94      0.00
    0    8    7     -6.23      0.00
    2    8    7      6.94      0.00
    4    8    7      0.17      0.00
    6    8    7      2.64      0.00
    8    8    7     -5.73      0.00
   10    8    7      5.34      0.00
   12    8    7     -3.53      0.00
   14    8    7     -0.24      0.00
   16    8    7     -1.57      0.00
   18    8    7     -1.29      0.00
   20    8    7      0.12      0.00
   22    8    7      2.75      0.00
  -31    9    7      4.53      0.00
  -29    9    7     -5.58      0.00
  -27    9    7     -0.15      0.00
  -25    9    7      1.59      0.00
  -23    9    7     -1.14      0.00
  -21    9    7     -8.92      0.00
  -19    9    7      0.56      0.00
  -17    9    7     -0.66      0.00
  -15    9    7      8.70      0.00
  -13    9    7      3.33      0.00
  -11    9    7      0.54      0.00
   -9    9    7     -3.81      0.00
   -7    9    7      5.20      0.00
   -5    9    7    -11.55      0.00
   -3    9    7      3.63      0.00
   -1    9    7    -12.32      0.00
    1    9    7      5.72      0.00
    3    9    7     -1.15      0.00
    5    9    7      6.38      0.00
    7    9    7    -11.47      0.00
    9    9    7      9.66      0.00
   11    9    7     -5.02      0.00
   13    9    7      2.87      0.00
   15    9    7     -1.69      0.00
   17    9    7     -0.59      0.00
   19    9    7      0.46      0.00
   21    9    7      1.38      0.00
  -30   10    7      0.10      0.00
  -28   10    7      1.15      0.00
  -26   10    7     -2.94      0.00
  -24   10    7      1.29      0.00
  -22   10    7     -2.88      0.00
  -20   10    7     -0.64      0.00
  -18   10    7     -3.48      0.00
  -16   10    7      3.55      0.00
  -14   10    7     -1.51      0.00
  -12   10    7      3.51      0.00
  -10   10    7     -3.56      0.00
   -8   10    7      5.22      0.00
   -6   10    7     -4.53      0.00
   -4   10    7     -1.03      0.00
   -2   10    7     -7.95      0.00
    0   10    7      3.53      0.00
    2   10    7     -3.34      0.00
    4   10    7      2.54      0.00
    6   10    7     -2.39      0.00
    8   10    7      1.28      0.00
   10   10    7     -0.71      0.00
   12   10    7     -1.55      0.00
   14   10    7      6.34      0.00
   16   10    7     -2.05      0.00
   18   10    7      0.08      0.00
   20   10    7      1.87      0.00
  -29   11    7      3.14      0.00
  -27   11    7     -0.48      0.00
  -25   11    7      0.76      0.00
  -23   11    7      0.21      0.00
  -21   11    7      1.27      0.00
  -19   11    7      0.88      0.00
  -17   11    7     -0.67      0.00
  -15   11    7      1.78      0.00
  -13   11    7     -7.54      0.00
  -11   11    7      5.49      0.00
   -9   11    7      3.39      0.00
   -7   11    7      1.94      0.00
   -5   11    7     -3.78      0.00
   -3   11    7     -6.91      0.00
   -1   11    7     -0.43      0.00
    1   11    7     -0.58      0.00
    3   11    7      1.91      0.00
    5   11    7     -7.31      0.00
    7   11    7      3.71      0.00
    9   11    7     -2.87      0.00
   11   11    7      0.23      0.00
   13   11    7      3.26      0.00
   15   11    7      0.01      0.00
   17   11    7      0.34      0.00
   19   11    7      0.55      0.00
   21   11    7     -1.81      0.00
  -28   12    7     -3.77      0.00
  -26   12    7      5.73      0.00
  -24   12    7     -1.09      0.00
  -22   12    7      6.57      0.00
  -20   12    7      0.43      0.00
  -18   12    7      2.33      0.00
  -16   12    7     -2.86      0.00
  -14   12    7      7.06      0.00
  -12   12    7     -1.87      0.00
  -10   12    7      0.43      0.00
   -8   12    7      3.79      0.00
   -6   12    7      5.41      0.00
   -4   12    7    -10.85      0.00
   -2   12    7      0.29      0.00
    0   12    7     -7.85      0.00
    2   12    7      6.39      0.00
    4   12    7     -2.57      0.00
    6   12    7     -3.29      0.00
    8   12    7     -0.77      0.00
   10   12    7     -3.26      0.00
   12   12    7      5.12      0.00
   14   12    7     -2.25      0.00
   16   12    7      2.58      0.00
   18   12    7     -1.19      0.00
   20   12    7     -1.81      0.00
  -27   13    7      1.06      0.00
  -25   13    7      0.50      0.00
  -23   13    7      3.71      0.00
  -21   13    7      5.63      0.00
  -19   13    7     -0.69      0.00
  -17   13    7      3.81      0.00
  -15   13    7      1.94      0.00
  -13   13    7      8.95      0.00
  -11   13    7     -4.33      0.00
   -9   13    7      4.18      0.00
   -7   13    7     -3.18      0.00
   -5   13    7      5.51      0.00
   -3   13    7     -9.32      0.00
   -1   13    7     -2.60      0.00
    1   13    7     -0.47      0.00
    3   13    7      6.71      0.00
    5   13    7     -4.77      0.00
    7   13    7     -3.26      0.00
    9   13    7      0.86      0.00
   11   13    7      2.17      0.00
   13   13    7     -1.66      0.00
   15   13    7      3.25      0.00
   17   13    7     -0.63      0.00
   19   13    7     -0.79      0.00
  -26   14    7      0.85      0.00
  -24   14    7      2.52      0.00
  -22   14    7     -0.06      0.00
  -20   14    7      4.46      0.00
  -18   14    7      0.08      0.00
  -16   14    7      7.15      0.00
  -14   14    7     -0.21      0.00
  -12   14    7      7.19      0.00
  -10   14    7     -1.97      0.00
   -8   14    7     -6.47      0.00
   -6   14    7     -2.34      0.00
   -4   14    7      8.10      0.00
   -2   14    7    -12.33      0.00
    0   14    7      4.39      0.00
    2   14    7     -2.04      0.00
    4   14    7     10.67      0.00
    6   14    7     -7.18      0.00
    8   14    7     -3.07      0.00
   10   14    7      8.44      0.00
   12   14    7     -0.46      0.00
   14   14    7      2.57      0.00
   16   14    7      1.17      0.00
  -25   15    7      1.18      0.00
  -23   15    7     -0.74      0.00
  -21   15    7      2.01      0.00
  -19   15    7      2.03      0.00
  -17   15    7      1.12      0.00
  -15   15    7      2.44      0.00
  -13   15    7     -0.82      0.00
  -11   15    7      2.29      0.00
   -9   15    7     -6.73      0.00
   -7   15    7     -8.63      0.00
   -5   15    7     -0.44      0.00
   -3   15    7      6.20      0.00
   -1   15    7     -6.71      0.00
    1   15    7      1.78      0.00
    3   15    7     -0.47      0.00
    5   15    7      7.96      0.00
    7   15    7     -4.80      0.00
    9   15    7      2.56      0.00
   11   15    7      5.62      0.00
   13   15    7      3.02      0.00
   15   15    7      2.74      0.00
  -24   16    7      2.09      0.00
  -22   16    7      1.66      0.00
  -20   16    7      2.28      0.00
  -18   16    7     -0.60      0.00
  -16   16    7      0.61      0.00
  -14   16    7     -6.00      0.00
  -12   16    7     -1.16      0.00
  -10   16    7     -1.48      0.00
   -8   16    7    -10.66      0.00
   -6   16    7     -2.82      0.00
   -4   16    7     -0.63      0.00
   -2   16    7      2.38      0.00
    0   16    7     -7.28      0.00
    2   16    7      5.45      0.00
    4   16    7     -4.73      0.00
    6   16    7      4.22      0.00
    8   16    7      1.34      0.00
   10   16    7      2.56      0.00
   12   16    7      4.24      0.00
   14   16    7      4.70      0.00
  -21   17    7      1.33      0.00
  -19   17    7      1.51      0.00
  -17   17    7     -0.21      0.00
  -15   17    7     -6.83      0.00
  -13   17    7     -5.91      0.00
  -11   17    7      0.71      0.00
   -9   17    7     -8.47      0.00
   -7   17    7     -0.23      0.00
   -5   17    7     -4.62      0.00
   -3   17    7     -1.67      0.00
   -1   17    7     -2.48      0.00
    1   17    7     -2.97      0.00
    3   17    7     -0.22      0.00
    5   17    7     -3.42      0.00
    7   17    7      6.29      0.00
    9   17    7     -3.66      0.00
   11   17    7      4.95      0.00
  -20   18    7      0.21      0.00
  -18   18    7      5.52      0.00
  -16   18    7     -9.53      0.00
  -14   18    7     -1.36      0.00
  -12   18    7     -4.28      0.00
  -10   18    7     -0.79      0.00
   -8   18    7     -0.28      0.00
   -6   18    7     -3.19      0.00
   -4   18    7     -3.04      0.00
   -2   18    7     -3.64      0.00
    0   18    7     -1.64      0.00
    2   18    7     -3.61      0.00
    4   18    7      1.89      0.00
    6   18    7     -1.66      0.00
    8   18    7      1.82      0.00
   10   18    7     -3.45      0.00
  -17   19    7     -1.56      0.00
  -15   19    7     -4.78      0.00
  -13   19    7      3.10      0.00
  -11   19    7     -2.95      0.00
   -9   19    7      2.74      0.00
   -7   19    7     -3.00      0.00
   -5   19    7      0.13      0.00
   -3   19    7     -3.98      0.00
   -1   19    7     -1.93      0.00
    1   19    7     -0.02      0.00
    3   19    7      0.24      0.00
    5   19    7      6.94      0.00
    7   19    7     -8.12      0.00
  -12   20    7      4.30      0.00
  -10   20    7     -0.95      0.00
   -8   20    7      0.23      0.00
   -6   20    7     -1.14      0.00
   -4   20    7     -3.76      0.00
   -2   20    7      2.84      0.00
    0   20    7      0.07      0.00
    2   20    7      4.97      0.00
  -34    0    8      3.60      0.00
  -32    0    8     -4.50      0.00
  -30    0    8     -0.43      0.00
  -28    0    8     -2.26      0.00
  -26    0    8      7.07      0.00
  -24    0    8     -1.38      0.00
  -22    0    8     -5.69      0.00
  -20    0    8     -1.21      0.00
  -18    0    8     13.37      0.00
  -16    0    8    -14.73      0.00
  -14    0    8      4.14      0.00
  -12    0    8     -4.08      0.00
  -10    0    8     15.86      0.00
   -8    0    8      1.81      0.00
   -6    0    8      4.98      0.00
   -4    0    8     15.85      0.00
   -2    0    8     -8.17      0.00
    0    0    8     -3.20      0.00
    2    0    8     10.35      0.00
    4    0    8     -9.60      0.00
    6    0    8      3.29      0.00
    8    0    8     -3.77      0.00
   10    0    8     -6.07      0.00
   12    0    8      8.17      0.00
   14    0    8     -6.98      0.00
   16    0    8     10.61      0.00
   18    0    8     -1.55      0.00
   20    0    8     -1.81      0.00
   22    0    8      7.59      0.00
   24    0    8     -0.77      0.00
  -35    1    8      1.86      0.00
  -33    1    8      3.16      0.00
  -31    1    8     -5.02      0.00
  -29    1    8      1.95      0.00
  -27    1    8     -1.22      0.00
  -25    1    8      1.40      0.00
  -23    1    8      0.12      0.00
  -21    1    8      2.66      0.00
  -19    1    8    -11.92      0.00
  -17    1    8     13.60      0.00
  -15    1    8     -4.79      0.00
  -13    1    8     -0.09      0.00
  -11    1    8     -4.30      0.00
   -9    1    8     19.30      0.00
   -7    1    8      3.06      0.00
   -5    1    8     11.55      0.00
   -3    1    8     -1.23      0.00
   -1    1    8     -4.27      0.00
    1    1    8      3.40      0.00
    3    1    8      5.10      0.00
    5    1    8    -10.14      0.00
    7    1    8     -3.86      0.00
    9    1    8     -1.77      0.00
   11    1    8      3.92      0.00
   13    1    8     -4.64      0.00
   15    1    8     -1.80      0.00
   17    1    8      5.11      0.00
   19    1    8     -1.48      0.00
   21    1    8      1.94      0.00
   23    1    8      2.02      0.00
  -34    2    8     -0.10      0.00
  -32    2    8      4.28      0.00
  -30    2    8     -2.94      0.00
  -28    2    8      2.01      0.00
  -26    2    8     -6.59      0.00
  -24    2    8      2.24      0.00
  -22    2    8      7.88      0.00
  -20    2    8     -4.71      0.00
  -18    2    8    -11.99      0.00
  -16    2    8     15.80      0.00
  -14    2    8     -2.76      0.00
  -12    2    8      2.77      0.00
  -10    2    8      0.11      0.00
   -8    2    8      9.01      0.00
   -6    2    8     17.11      0.00
   -4    2    8     -2.00      0.00
   -2    2    8      2.99      0.00
    0    2    8     -4.70      0.00
    2    2    8     -1.07      0.00
    4    2    8      4.50      0.00
    6    2    8    -18.77      0.00
    8    2    8      0.86      0.00
   10    2    8      5.36      0.00
   12    2    8    -12.69      0.00
   14    2    8      1.14      0.00
   16    2    8     -8.74      0.00
   18    2    8      4.53      0.00
   20    2    8     -0.93      0.00
   22    2    8     -3.60      0.00
   24    2    8      2.42      0.00
  -33    3    8     -2.15      0.00
  -31    3    8      4.50      0.00
  -29    3    8     -3.91      0.00
  -27    3    8      1.33      0.00
  -25    3    8     -4.67      0.00
  -23    3    8      7.90      0.00
  -21    3    8     -8.66      0.00
  -19    3    8     10.65      0.00
  -17    3    8    -21.16      0.00
  -15    3    8     23.14      0.00
  -13    3    8     -9.13      0.00
  -11    3    8     14.69      0.00
   -9    3    8    -17.72      0.00
   -7    3    8     25.78      0.00
   -5    3    8      0.58      0.00
   -3    3    8     10.02      0.00
   -1    3    8    -13.05      0.00
    1    3    8      3.87      0.00
    3    3    8    -10.26      0.00
    5    3    8      3.69      0.00
    7    3    8    -15.35      0.00
    9    3    8      7.29      0.00
   11    3    8     -7.25      0.00
   13    3    8     -5.94      0.00
   15    3    8     -7.54      0.00
   17    3    8     -4.68      0.00
   19    3    8      1.12      0.00
   21    3    8     -5.30      0.00
   23    3    8      1.70      0.00
  -34    4    8      3.36      0.00
  -32    4    8     -2.54      0.00
  -30    4    8      1.68      0.00
  -28    4    8     -0.94      0.00
  -26    4    8      0.09      0.00
  -24    4    8      2.89      0.00
  -22    4    8     -4.01      0.00
  -20    4    8     -2.36      0.00
  -18    4    8      0.24      0.00
  -16    4    8      1.15      0.00
  -14    4    8      1.59      0.00
  -12    4    8      2.27      0.00
  -10    4    8     -7.03      0.00
   -8    4    8      8.17      0.00
   -6    4    8      2.41      0.00
   -4    4    8     13.17      0.00
   -2    4    8    -11.90      0.00
    0    4    8     -0.09      0.00
    2    4    8     -6.16      0.00
    4    4    8     -5.37      0.00
    6    4    8      4.08      0.00
    8    4    8     -7.19      0.00
   10    4    8      0.17      0.00
   12    4    8      3.30      0.00
   14    4    8    -16.40      0.00
   16    4    8     -0.89      0.00
   18    4    8     -3.48      0.00
   20    4    8     -3.61      0.00
   22    4    8      1.22      0.00
  -33    5    8      1.93      0.00
  -31    5    8     -2.00      0.00
  -29    5    8      3.24      0.00
  -27    5    8     -3.33      0.00
  -25    5    8      8.41      0.00
  -23    5    8     -9.28      0.00
  -21    5    8      5.37      0.00
  -19    5    8    -12.81      0.00
  -17    5    8     19.09      0.00
  -15    5    8    -20.21      0.00
  -13    5    8     18.35      0.00
  -11    5    8    -20.56      0.00
   -9    5    8      9.70      0.00
   -7    5    8     -5.65      0.00
   -5    5    8     11.86      0.00
   -3    5    8    -10.28      0.00
   -1    5    8      6.11      0.00
    1    5    8    -18.15      0.00
    3    5    8      4.39      0.00
    5    5    8     -5.86      0.00
    7    5    8     13.91      0.00
    9    5    8     -7.60      0.00
   11    5    8      2.54      0.00
   13    5    8     -3.84      0.00
   15    5    8     -1.90      0.00
   17    5    8     -4.47      0.00
   19    5    8      0.37      0.00
   21    5    8     -2.56      0.00
   23    5    8      2.02      0.00
  -32    6    8      0.06      0.00
  -30    6    8      2.08      0.00
  -28    6    8     -0.35      0.00
  -26    6    8      3.57      0.00
  -24    6    8     -0.73      0.00
  -22    6    8     -1.87      0.00
  -20    6    8     -5.88      0.00
  -18    6    8      9.80      0.00
  -16    6    8     -4.36      0.00
  -14    6    8      8.77      0.00
  -12    6    8    -15.89      0.00
  -10    6    8     -0.30      0.00
   -8    6    8     -1.45      0.00
   -6    6    8     13.15      0.00
   -4    6    8    -15.09      0.00
   -2    6    8      2.14      0.00
    0    6    8    -12.07      0.00
    2    6    8      4.49      0.00
    4    6    8     -4.21      0.00
    6    6    8      6.57      0.00
    8    6    8      1.30      0.00
   10    6    8      3.20      0.00
   12    6    8     -0.30      0.00
   14    6    8      3.17      0.00
   16    6    8     -5.89      0.00
   18    6    8      2.18      0.00
   20    6    8      0.47      0.00
   22    6    8     -1.08      0.00
  -33    7    8     -4.06      0.00
  -31    7    8      3.05      0.00
  -29    7    8     -0.42      0.00
  -27    7    8      3.75      0.00
  -25    7    8     -5.10      0.00
  -23    7    8      5.38      0.00
  -21    7    8    -11.23      0.00
  -19    7    8     15.60      0.00
  -17    7    8     -6.02      0.00
  -15    7    8     11.54      0.00
  -13    7    8    -12.77      0.00
  -11    7    8      7.88      0.00
   -9    7    8     -7.66      0.00
   -7    7    8      2.49      0.00
   -5    7    8      6.48      0.00
   -3    7    8     -8.53      0.00
   -1    7    8     -8.03      0.00
    1    7    8      1.04      0.00
    3    7    8      0.39      0.00
    5    7    8      3.70      0.00
    7    7    8     -0.27      0.00
    9    7    8      2.12      0.00
   11    7    8      2.64      0.00
   13    7    8      5.77      0.00
   15    7    8     -6.66      0.00
   17    7    8      6.95      0.00
   19    7    8     -3.42      0.00
   21    7    8      1.51      0.00
  -32    8    8     -2.23      0.00
  -30    8    8     -1.45      0.00
  -28    8    8      2.29      0.00
  -26    8    8     -0.19      0.00
  -24    8    8     -2.15      0.00
  -22    8    8     -6.11      0.00
  -20    8    8      9.77      0.00
  -18    8    8     -0.68      0.00
  -16    8    8     10.43      0.00
  -14    8    8     -7.85      0.00
  -12    8    8     10.12      0.00
  -10    8    8     -2.44      0.00
   -8    8    8      4.57      0.00
   -6    8    8     -5.55      0.00
   -4    8    8      9.13      0.00
   -2    8    8     -9.81      0.00
    0    8    8      5.44      0.00
    2    8    8     -6.69      0.00
    4    8    8      8.66      0.00
    6    8    8     -8.19      0.00
    8    8    8     10.46      0.00
   10    8    8     -3.74      0.00
   12    8    8      1.73      0.00
   14    8    8      0.90      0.00
   16    8    8      4.09      0.00
   18    8    8     -1.71      0.00
   20    8    8      1.05      0.00
   22    8    8     -2.11      0.00
  -31    9    8     -2.34      0.00
  -29    9    8     -0.66      0.00
  -27    9    8     -1.39      0.00
  -25    9    8     -1.36      0.00
  -23    9    8     -3.36      0.00
  -21    9    8      1.13      0.00
  -19    9    8     -0.71      0.00
  -17    9    8      5.37      0.00
  -15    9    8      4.96      0.00
  -13    9    8      2.70      0.00
  -11    9    8      1.91      0.00
   -9    9    8      1.67      0.00
   -7    9    8      8.01      0.00
   -5    9    8     -8.27      0.00
   -3    9    8      8.15      0.00
   -1    9    8     -1.95      0.00
    1    9    8      6.90      0.00
    3    9    8     -5.59      0.00
    5    9    8      3.96      0.00
    7    9    8     -1.97      0.00
    9    9    8      3.54      0.00
   11    9    8      1.77      0.00
   13    9    8     -4.03      0.00
   15    9    8      8.56      0.00
   17    9    8     -6.68      0.00
   19    9    8      5.29      0.00
   21    9    8     -1.96      0.00
  -30   10    8      0.91      0.00
  -28   10    8     -3.68      0.00
  -26   10    8     -2.01      0.00
  -24   10    8     -3.73      0.00
  -22   10    8      1.70      0.00
  -20   10    8     -5.36      0.00
  -18   10    8      0.95      0.00
  -16   10    8     -1.16      0.00
  -14   10    8      7.36      0.00
  -12   10    8      4.33      0.00
  -10   10    8      1.35      0.00
   -8   10    8     -2.63      0.00
   -6   10    8      1.90      0.00
   -4   10    8     -1.48      0.00
   -2   10    8      8.73      0.00
    0   10    8      3.72      0.00
    2   10    8     -1.06      0.00
    4   10    8     -7.68      0.00
    6   10    8     13.62      0.00
    8   10    8     -3.86      0.00
   10   10    8      3.08      0.00
   12   10    8      0.00      0.00
   14   10    8      0.38      0.00
   16   10    8      1.31      0.00
   18   10    8      1.73      0.00
   20   10    8      0.40      0.00
  -29   11    8     -1.46      0.00
  -27   11    8     -1.68      0.00
  -25   11    8      3.22      0.00
  -23   11    8    -10.62      0.00
  -21   11    8      3.73      0.00
  -19   11    8    -12.68      0.00
  -17   11    8      5.32      0.00
  -15   11    8     -1.15      0.00
  -13   11    8      6.07      0.00
  -11   11    8     -4.49      0.00
   -9   11    8      8.08      0.00
   -7   11    8    -14.22      0.00
   -5   11    8      5.77      0.00
   -3   11    8     -3.61      0.00
   -1   11    8     13.97      0.00
    1   11    8     -8.56      0.00
    3   11    8      3.34      0.00
    5   11    8     -3.08      0.00
    7   11    8      7.75      0.00
    9   11    8      4.75      0.00
   11   11    8     -4.79      0.00
   13   11    8      6.35      0.00
   15   11    8     -4.96      0.00
   17   11    8      7.16      0.00
   19   11    8     -2.01      0.00
  -28   12    8     -2.07      0.00
  -26   12    8      2.15      0.00
  -24   12    8      0.06      0.00
  -22   12    8     -5.57      0.00
  -20   12    8     -8.08      0.00
  -18   12    8     -2.05      0.00
  -16   12    8      2.83      0.00
  -14   12    8      1.96      0.00
  -12   12    8     -2.29      0.00
  -10   12    8      3.44      0.00
   -8   12    8     -7.04      0.00
   -6   12    8     -5.05      0.00
   -4   12    8     -1.42      0.00
   -2   12    8      4.73      0.00
    0   12    8     -2.53      0.00
    2   12    8     -2.38      0.00
    4   12    8      2.38      0.00
    6   12    8      0.80      0.00
    8   12    8      4.21      0.00
   10   12    8      0.70      0.00
   12   12    8      0.32      0.00
   14   12    8      4.06      0.00
   16   12    8     -1.05      0.00
   18   12    8      2.31      0.00
  -27   13    8      3.37      0.00
  -25   13    8     -5.42      0.00
  -23   13    8      8.30      0.00
  -21   13    8    -15.57      0.00
  -19   13    8      4.61      0.00
  -17   13    8     -5.00      0.00
  -15   13    8      4.93      0.00
  -13   13    8      1.36      0.00
  -11   13    8      5.15      0.00
   -9   13    8     -9.23      0.00
   -7   13    8      0.12      0.00
   -5   13    8     -8.38      0.00
   -3   13    8      6.05      0.00
   -1   13    8     -8.01      0.00
    1   13    8      3.26      0.00
    3   13    8     -2.24      0.00
    5   13    8     -0.67      0.00
    7   13    8      4.44      0.00
    9   13    8     -4.69      0.00
   11   13    8      8.34      0.00
   13   13    8     -5.57      0.00
   15   13    8      7.60      0.00
   17   13    8     -1.17      0.00
  -26   14    8     -2.71      0.00
  -24   14    8      2.21      0.00
  -22   14    8     -2.17      0.00
  -20   14    8     -1.97      0.00
  -18   14    8     -2.29      0.00
  -16   14    8      6.65      0.00
  -14   14    8     -2.25      0.00
  -12   14    8     10.52      0.00
  -10   14    8     -4.34      0.00
   -8   14    8      0.70      0.00
   -6   14    8     -8.54      0.00
   -4   14    8      8.18      0.00
   -2   14    8     -8.75      0.00
    0   14    8      0.73      0.00
    2   14    8      1.21      0.00
    4   14    8      4.34      0.00
    6   14    8     -7.51      0.00
    8   14    8      0.90      0.00
   10   14    8      1.84      0.00
   12   14    8      3.88      0.00
   14   14    8     -1.93      0.00
   16   14    8      5.99      0.00
  -25   15    8      5.78      0.00
  -23   15    8     -3.44      0.00
  -21   15    8      3.42      0.00
  -19   15    8     -4.84      0.00
  -17   15    8      4.90      0.00
  -15   15    8      1.25      0.00
  -13   15    8      4.07      0.00
  -11   15    8      4.89      0.00
   -9   15    8     -0.15      0.00
   -7   15    8     -2.12      0.00
   -5   15    8     -0.32      0.00
   -3   15    8      1.27      0.00
   -1   15    8      1.42      0.00
    1   15    8      2.22      0.00
    3   15    8     -2.97      0.00
    5   15    8      6.19      0.00
    7   15    8     -7.72      0.00
    9   15    8      4.16      0.00
   11   15    8     -2.02      0.00
   13   15    8      5.88      0.00
  -22   16    8     -0.38      0.00
  -20   16    8      0.10      0.00
  -18   16    8      2.98      0.00
  -16   16    8     -5.71      0.00
  -14   16    8     11.80      0.00
  -12   16    8     -7.32      0.00
  -10   16    8      9.88      0.00
   -8   16    8     -5.43      0.00
   -6   16    8      6.70      0.00
   -4   16    8    -10.92      0.00
   -2   16    8     15.05      0.00
    0   16    8     -2.62      0.00
    2   16    8      3.41      0.00
    4   16    8     -3.87      0.00
    6   16    8      4.28      0.00
    8   16    8     -2.05      0.00
   10   16    8      2.05      0.00
   12   16    8     -1.17      0.00
  -21   17    8      2.17      0.00
  -19   17    8      0.83      0.00
  -17   17    8     -3.00      0.00
  -15   17    8      2.11      0.00
  -13   17    8      0.33      0.00
  -11   17    8     -1.53      0.00
   -9   17    8      2.33      0.00
   -7   17    8     -1.19      0.00
   -5   17    8     -1.15      0.00
   -3   17    8      2.48      0.00
   -1   17    8      5.50      0.00
    1   17    8     -3.11      0.00
    3   17    8      4.17      0.00
    5   17    8     -3.33      0.00
    7   17    8      3.27      0.00
    9   17    8     -1.03      0.00
   11   17    8      0.09      0.00
  -18   18    8     -3.57      0.00
  -16   18    8      2.98      0.00
  -14   18    8     -3.91      0.00
  -12   18    8      2.99      0.00
  -10   18    8     -8.76      0.00
   -8   18    8      8.10      0.00
   -6   18    8     -8.83      0.00
   -4   18    8      7.25      0.00
   -2   18    8     -6.33      0.00
    0   18    8      5.25      0.00
    2   18    8     -2.16      0.00
    4   18    8      0.41      0.00
    6   18    8     -1.47      0.00
    8   18    8      1.60      0.00
  -15   19    8     -1.77      0.00
  -13   19    8      0.01      0.00
  -11   19    8     -2.90      0.00
   -9   19    8     -1.20      0.00
   -7   19    8      0.46      0.00
   -5   19    8     -2.00      0.00
   -3   19    8      0.21      0.00
   -1   19    8     -5.28      0.00
    1   19    8      3.05      0.00
    3   19    8     -0.93      0.00
    5   19    8     -0.04      0.00
  -10   20    8      0.66      0.00
   -8   20    8     -4.49      0.00
   -6   20    8      4.84      0.00
   -4   20    8     -5.73      0.00
   -2   20    8     -0.26      0.00
    0   20    8     -2.06      0.00
  -35    1    9      2.35      0.00
  -33    1    9      4.08      0.00
  -31    1    9      3.11      0.00
  -29    1    9     -0.83      0.00
  -27    1    9      3.91      0.00
  -25    1    9      5.43      0.00
  -23    1    9      0.58      0.00
  -21    1    9     -9.75      0.00
  -19    1    9      0.51      0.00
  -17    1    9     11.67      0.00
  -15    1    9    -10.26      0.00
  -13    1    9     -7.96      0.00
  -11    1    9      1.93      0.00
   -9    1    9      2.08      0.00
   -7    1    9     -6.94      0.00
   -5    1    9    -14.53      0.00
   -3    1    9     18.90      0.00
   -1    1    9    -10.21      0.00
    1    1    9     21.89      0.00
    3    1    9    -23.31      0.00
    5    1    9     15.66      0.00
    7    1    9    -13.65      0.00
    9    1    9     12.23      0.00
   11    1    9     -6.10      0.00
   13    1    9     12.06      0.00
   15    1    9      8.63      0.00
   17    1    9      4.19      0.00
   19    1    9      2.94      0.00
   21    1    9     -1.33      0.00
   23    1    9     -3.48      0.00
  -34    2    9     -0.13      0.00
  -32    2    9      8.00      0.00
  -30    2    9      2.95      0.00
  -28    2    9      7.13      0.00
  -26    2    9     -3.38      0.00
  -24    2    9      8.27      0.00
  -22    2    9     -5.85      0.00
  -20    2    9      1.60      0.00
  -18    2    9     -7.04      0.00
  -16    2    9     16.06      0.00
  -14    2    9    -18.16      0.00
  -12    2    9      3.04      0.00
  -10    2    9     -9.72      0.00
   -8    2    9     11.10      0.00
   -6    2    9    -26.92      0.00
   -4    2    9      8.33      0.00
   -2    2    9     10.68      0.00
    0    2    9      4.10      0.00
    2    2    9     -9.46      0.00
    4    2    9      9.53      0.00
    6    2    9     -9.75      0.00
    8    2    9     -1.91      0.00
   10    2    9      3.50      0.00
   12    2    9      2.71      0.00
   14    2    9     27.98      0.00
   16    2    9     -3.19      0.00
   18    2    9     10.11      0.00
   20    2    9      1.28      0.00
   22    2    9     -3.47      0.00
  -33    3    9     -1.61      0.00
  -31    3    9     10.48      0.00
  -29    3    9      8.99      0.00
  -27    3    9     -3.56      0.00
  -25    3    9     -0.97      0.00
  -23    3    9      2.91      0.00
  -21    3    9      2.20      0.00
  -19    3    9      2.79      0.00
  -17    3    9     -3.02      0.00
  -15    3    9      7.33      0.00
  -13    3    9    -10.77      0.00
  -11    3    9      1.52      0.00
   -9    3    9      5.41      0.00
   -7    3    9    -13.05      0.00
   -5    3    9     -5.37      0.00
   -3    3    9      2.31      0.00
   -1    3    9     24.20      0.00
    1    3    9    -20.82      0.00
    3    3    9      5.28      0.00
    5    3    9     -8.30      0.00
    7    3    9      2.27      0.00
    9    3    9    -12.41      0.00
   11    3    9     12.47      0.00
   13    3    9      8.61      0.00
   15    3    9     14.38      0.00
   17    3    9      2.39      0.00
   19    3    9      4.66      0.00
   21    3    9      1.04      0.00
  -34    4    9      6.83      0.00
  -32    4    9      2.77      0.00
  -30    4    9     13.33      0.00
  -28    4    9     -6.12      0.00
  -26    4    9      4.25      0.00
  -24    4    9     -9.15      0.00
  -22    4    9     15.00      0.00
  -20    4    9     -1.90      0.00
  -18    4    9      8.46      0.00
  -16    4    9    -11.73      0.00
  -14    4    9     16.27      0.00
  -12    4    9    -13.93      0.00
  -10    4    9     13.57      0.00
   -8    4    9    -12.46      0.00
   -6    4    9      4.79      0.00
   -4    4    9     -7.86      0.00
   -2    4    9     18.41      0.00
    0    4    9    -11.57      0.00
    2    4    9     -2.96      0.00
    4    4    9    -10.98      0.00
    6    4    9      6.71      0.00
    8    4    9    -13.21      0.00
   10    4    9     -6.40      0.00
   12    4    9     19.98      0.00
   14    4    9     -3.13      0.00
   16    4    9     13.64      0.00
   18    4    9     -3.70      0.00
   20    4    9      4.71      0.00
   22    4    9     -0.70      0.00
  -33    5    9     10.95      0.00
  -31    5    9      8.04      0.00
  -29    5    9      0.07      0.00
  -27    5    9      0.68      0.00
  -25    5    9     -5.63      0.00
  -23    5    9      6.55      0.00
  -21    5    9      9.13      0.00
  -19    5    9      3.85      0.00
  -17    5    9     -6.98      0.00
  -15    5    9      2.10      0.00
  -13    5    9      3.21      0.00
  -11    5    9     -3.76      0.00
   -9    5    9      3.48      0.00
   -7    5    9     -2.53      0.00
   -5    5    9      1.22      0.00
   -3    5    9      4.77      0.00
   -1    5    9     -1.35      0.00
    1    5    9    -11.26      0.00
    3    5    9     -8.74      0.00
    5    5    9     -0.89      0.00
    7    5    9     -5.68      0.00
    9    5    9     -6.14      0.00
   11    5    9     -0.19      0.00
   13    5    9      9.86      0.00
   15    5    9     -1.25      0.00
   17    5    9      4.07      0.00
   19    5    9      0.67      0.00
   21    5    9     -0.20      0.00
  -32    6    9     11.47      0.00
  -30    6    9      1.04      0.00
  -28    6    9      6.10      0.00
  -26    6    9     -9.23      0.00
  -24    6    9     10.68      0.00
  -22    6    9      1.79      0.00
  -20    6    9     12.99      0.00
  -18    6    9    -13.34      0.00
  -16    6    9     -1.39      0.00
  -14    6    9      0.64      0.00
  -12    6    9     -2.83      0.00
  -10    6    9     -8.27      0.00
   -8    6    9      4.36      0.00
   -6    6    9      6.13      0.00
   -4    6    9     -1.71      0.00
   -2    6    9     -4.01      0.00
    0    6    9     -3.51      0.00
    2    6    9    -12.76      0.00
    4    6    9     -3.18      0.00
    6    6    9     -7.47      0.00
    8    6    9     -5.06      0.00
   10    6    9      3.93      0.00
   12    6    9     -1.54      0.00
   14    6    9      2.62      0.00
   16    6    9      0.48      0.00
   18    6    9      2.65      0.00
   20    6    9     -1.55      0.00
  -33    7    9     -1.63      0.00
  -31    7    9      7.10      0.00
  -29    7    9      6.49      0.00
  -27    7    9     -0.85      0.00
  -25    7    9      3.11      0.00
  -23    7    9      3.72      0.00
  -21    7    9     13.73      0.00
  -19    7    9    -12.78      0.00
  -17    7    9     -4.03      0.00
  -15    7    9     -8.03      0.00
  -13    7    9      5.01      0.00
  -11    7    9    -16.00      0.00
   -9    7    9     -9.52      0.00
   -7    7    9     14.73      0.00
   -5    7    9      2.31      0.00
   -3    7    9     -2.78      0.00
   -1    7    9    -10.37      0.00
    1    7    9     -8.36      0.00
    3    7    9     -2.55      0.00
    5    7    9     -3.22      0.00
    7    7    9    -11.53      0.00
    9    7    9     -0.14      0.00
   11    7    9      3.97      0.00
   13    7    9      2.42      0.00
   15    7    9      1.17      0.00
   17    7    9     -0.98      0.00
   19    7    9     -0.18      0.00
   21    7    9      4.17      0.00
  -32    8    9     -0.50      0.00
  -30    8    9      8.05      0.00
  -28    8    9      1.41      0.00
  -26    8    9      6.87      0.00
  -24    8    9     -0.90      0.00
  -22    8    9      6.80      0.00
  -20    8    9     -0.81      0.00
  -18    8    9     -8.62      0.00
  -16    8    9     -0.41      0.00
  -14    8    9    -14.35      0.00
  -12    8    9      0.05      0.00
  -10    8    9    -17.77      0.00
   -8    8    9     12.14      0.00
   -6    8    9     -5.97      0.00
   -4    8    9     12.68      0.00
   -2    8    9    -15.19      0.00
    0    8    9     -0.03      0.00
    2    8    9    -10.02      0.00
    4    8    9      2.05      0.00
    6    8    9    -12.14      0.00
    8    8    9     -2.35      0.00
   10    8    9      3.75      0.00
   12    8    9      1.94      0.00
   14    8    9      3.17      0.00
   16    8    9     -1.05      0.00
   18    8    9      0.35      0.00
   20    8    9      2.77      0.00
  -31    9    9     -1.22      0.00
  -29    9    9      2.33      0.00
  -27    9    9      3.89      0.00
  -25    9    9      3.26      0.00
  -23    9    9      2.75      0.00
  -21    9    9     -5.40      0.00
  -19    9    9      0.56      0.00
  -17    9    9     -7.19      0.00
  -15    9    9      5.29      0.00
  -13    9    9    -16.80      0.00
  -11    9    9     -6.83      0.00
   -9    9    9      0.36      0.00
   -7    9    9      4.46      0.00
   -5    9    9      3.38      0.00
   -3    9    9     -2.13      0.00
   -1    9    9     -6.48      0.00
    1    9    9     -0.51      0.00
    3    9    9     -2.11      0.00
    5    9    9     -5.14      0.00
    7    9    9     -7.77      0.00
    9    9    9      0.64      0.00
   11    9    9      8.08      0.00
   13    9    9     -2.17      0.00
   15    9    9      1.57      0.00
   17    9    9      2.33      0.00
   19    9    9     -0.92      0.00
  -30   10    9      0.35      0.00
  -28   10    9      1.63      0.00
  -26   10    9      0.07      0.00
  -24   10    9     -4.09      0.00
  -22   10    9      6.13      0.00
  -20   10    9    -11.96      0.00
  -18   10    9      6.35      0.00
  -16   10    9     -7.10      0.00
  -14   10    9      5.76      0.00
  -12   10    9    -16.45      0.00
  -10   10    9      6.30      0.00
   -8   10    9     -9.83      0.00
   -6   10    9     20.19      0.00
   -4   10    9    -13.20      0.00
   -2   10    9      8.89      0.00
    0   10    9    -12.69      0.00
    2   10    9      9.29      0.00
    4   10    9     -9.07      0.00
    6   10    9      0.13      0.00
    8   10    9     -1.72      0.00
   10   10    9     -2.36      0.00
   12   10    9      6.79      0.00
   14   10    9     -1.21      0.00
   16   10    9      2.61      0.00
   18   10    9      0.16      0.00
  -29   11    9     -0.91      0.00
  -27   11    9      1.37      0.00
  -25   11    9     -6.98      0.00
  -23   11    9     -0.80      0.00
  -21   11    9     -2.39      0.00
  -19   11    9     -2.49      0.00
  -17   11    9      1.25      0.00
  -15   11    9     -4.95      0.00
  -13   11    9      2.97      0.00
  -11   11    9     -3.45      0.00
   -9   11    9     -0.71      0.00
   -7   11    9      1.98      0.00
   -5   11    9      5.06      0.00
   -3   11    9     -1.55      0.00
   -1   11    9     -2.95      0.00
    1   11    9      2.01      0.00
    3   11    9     -1.29      0.00
    5   11    9     -3.77      0.00
    7   11    9      2.25      0.00
    9   11    9     -2.45      0.00
   11   11    9     -1.32      0.00
   13   11    9      4.06      0.00
   15   11    9     -1.32      0.00
   17   11    9     -0.16      0.00
  -28   12    9      3.11      0.00
  -26   12    9     -7.39      0.00
  -24   12    9      5.00      0.00
  -22   12    9    -13.07      0.00
  -20   12    9      6.87      0.00
  -18   12    9    -13.38      0.00
  -16   12    9      5.56      0.00
  -14   12    9     -0.87      0.00
  -12   12    9      3.94      0.00
  -10   12    9     -4.83      0.00
   -8   12    9      5.83      0.00
   -6   12    9     -7.21      0.00
   -4   12    9     15.62      0.00
   -2   12    9    -12.88      0.00
    0   12    9      5.43      0.00
    2   12    9     -8.50      0.00
    4   12    9      5.32      0.00
    6   12    9      1.23      0.00
    8   12    9    -11.74      0.00
   10   12    9      5.00      0.00
   12   12    9     -5.90      0.00
   14   12    9      5.01      0.00
   16   12    9     -6.02      0.00
  -27   13    9     -3.81      0.00
  -25   13    9      2.64      0.00
  -23   13    9     -4.84      0.00
  -21   13    9     -2.21      0.00
  -19   13    9     -7.12      0.00
  -17   13    9     -2.62      0.00
  -15   13    9     -0.72      0.00
  -13   13    9      9.04      0.00
  -11   13    9      1.22      0.00
   -9   13    9      2.64      0.00
   -7   13    9     -4.43      0.00
   -5   13    9      6.14      0.00
   -3   13    9      2.64      0.00
   -1   13    9     -1.30      0.00
    1   13    9     -5.91      0.00
    3   13    9     -3.01      0.00
    5   13    9      2.01      0.00
    7   13    9     -6.30      0.00
    9   13    9     -7.03      0.00
   11   13    9     -1.67      0.00
   13   13    9     -3.78      0.00
   15   13    9     -1.98      0.00
  -26   14    9      7.89      0.00
  -24   14    9     -7.51      0.00
  -22   14    9      1.20      0.00
  -20   14    9     -9.79      0.00
  -18   14    9      0.73      0.00
  -16   14    9     -2.72      0.00
  -14   14    9      6.19      0.00
  -12   14    9     10.83      0.00
  -10   14    9      7.63      0.00
   -8   14    9     -1.84      0.00
   -6   14    9      1.18      0.00
   -4   14    9      5.06      0.00
   -2   14    9     12.16      0.00
    0   14    9    -14.53      0.00
    2   14    9     -1.51      0.00
    4   14    9      1.32      0.00
    6   14    9    -13.97      0.00
    8   14    9      0.04      0.00
   10   14    9    -12.57      0.00
   12   14    9      4.59      0.00
   14   14    9    -13.00      0.00
  -25   15    9      0.60      0.00
  -23   15    9     -5.38      0.00
  -21   15    9     -3.68      0.00
  -19   15    9     -1.78      0.00
  -17   15    9     -1.45      0.00
  -15   15    9     16.65      0.00
  -13   15    9     -5.34      0.00
  -11   15    9     29.19      0.00
   -9   15    9     -1.41      0.00
   -7   15    9      6.53      0.00
   -5   15    9     -4.46      0.00
   -3   15    9     25.12      0.00
   -1   15    9     -3.54      0.00
    1   15    9    -10.74      0.00
    3   15    9     -0.13      0.00
    5   15    9     -6.43      0.00
    7   15    9     -8.45      0.00
    9   15    9     -4.38      0.00
   11   15    9     -5.19      0.00
   13   15    9     -3.44      0.00
  -22   16    9     -3.28      0.00
  -20   16    9     -4.99      0.00
  -18   16    9      5.91      0.00
  -16   16    9      9.86      0.00
  -14   16    9      9.86      0.00
  -12   16    9     11.39      0.00
  -10   16    9     17.40      0.00
   -8   16    9      6.47      0.00
   -6   16    9      3.28      0.00
   -4   16    9     11.17      0.00
   -2   16    9     12.00      0.00
    0   16    9     -1.07      0.00
    2   16    9     -4.88      0.00
    4   16    9    -11.37      0.00
    6   16    9      0.11      0.00
    8   16    9     -4.99      0.00
   10   16    9      0.73      0.00
  -21   17    9     -6.10      0.00
  -19   17    9      1.77      0.00
  -17   17    9     17.18      0.00
  -15   17    9      0.31      0.00
  -13   17    9     24.27      0.00
  -11   17    9     -2.74      0.00
   -9   17    9     27.38      0.00
   -7   17    9     -6.47      0.00
   -5   17    9     19.65      0.00
   -3   17    9      1.45      0.00
   -1   17    9     11.36      0.00
    1   17    9     -2.66      0.00
    3   17    9    -11.81      0.00
    5   17    9      1.39      0.00
    7   17    9     -2.63      0.00
    9   17    9      3.47      0.00
  -18   18    9      6.04      0.00
  -16   18    9     10.35      0.00
  -14   18    9      8.35      0.00
  -12   18    9      8.75      0.00
  -10   18    9     10.25      0.00
   -8   18    9      7.72      0.00
   -6   18    9      6.45      0.00
   -4   18    9      8.90      0.00
   -2   18    9      2.51      0.00
    0   18    9      5.14      0.00
    2   18    9    -10.65      0.00
    4   18    9     -2.27      0.00
    6   18    9      3.91      0.00
  -13   19    9      0.25      0.00
  -11   19    9     13.22      0.00
   -9   19    9     -4.19      0.00
   -7   19    9     15.64      0.00
   -5   19    9     -2.80      0.00
   -3   19    9      5.61      0.00
   -1   19    9     -0.18      0.00
    1   19    9     -8.00      0.00
  -34    0   10     -1.39      0.00
  -32    0   10      0.50      0.00
  -30    0   10     -6.17      0.00
  -28    0   10      5.48      0.00
  -26    0   10      2.55      0.00
  -24    0   10    -10.73      0.00
  -22    0   10      6.27      0.00
  -20    0   10      3.98      0.00
  -18    0   10     -8.41      0.00
  -16    0   10     -5.63      0.00
  -14    0   10      7.01      0.00
  -12    0   10     11.73      0.00
  -10    0   10    -15.35      0.00
   -8    0   10     -0.02      0.00
   -6    0   10     -6.19      0.00
   -4    0   10     30.32      0.00
   -2    0   10    -25.84      0.00
    0    0   10     20.11      0.00
    2    0   10    -15.80      0.00
    4    0   10     18.73      0.00
    6    0   10     -6.38      0.00
    8    0   10     -6.16      0.00
   10    0   10     -1.94      0.00
   12    0   10     -8.47      0.00
   14    0   10     -1.66      0.00
   16    0   10      1.72      0.00
   18    0   10     -6.95      0.00
   20    0   10      0.05      0.00
  -33    1   10      0.93      0.00
  -31    1   10      0.01      0.00
  -29    1   10     -2.95      0.00
  -27    1   10      2.23      0.00
  -25    1   10     -0.17      0.00
  -23    1   10     -1.53      0.00
  -21    1   10      0.23      0.00
  -19    1   10     -1.87      0.00
  -17    1   10     -8.16      0.00
  -15    1   10      5.06      0.00
  -13    1   10      5.29      0.00
  -11    1   10     -2.31      0.00
   -9    1   10     -9.13      0.00
   -7    1   10     -0.35      0.00
   -5    1   10     11.17      0.00
   -3    1   10      3.08      0.00
   -1    1   10     -7.89      0.00
    1    1   10      5.05      0.00
    3    1   10     10.02      0.00
    5    1   10     -3.20      0.00
    7    1   10     -7.30      0.00
    9    1   10      3.36      0.00
   11    1   10     -7.31      0.00
   13    1   10     -1.08      0.00
   15    1   10     -4.22      0.00
   17    1   10     -0.83      0.00
   19    1   10     -0.47      0.00
   21    1   10      1.30      0.00
  -34    2   10     -0.10      0.00
  -32    2   10      3.03      0.00
  -30    2   10      1.92      0.00
  -28    2   10     -5.06      0.00
  -26    2   10     -0.07      0.00
  -24    2   10      7.22      0.00
  -22    2   10     -6.84      0.00
  -20    2   10     -3.24      0.00
  -18    2   10     -7.29      0.00
  -16    2   10      1.68      0.00
  -14    2   10      4.38      0.00
  -12    2   10     -1.42      0.00
  -10    2   10     -1.75      0.00
   -8    2   10    -13.06      0.00
   -6    2   10     14.76      0.00
   -4    2   10     -6.49      0.00
   -2    2   10     18.12      0.00
    0    2   10    -21.61      0.00
    2    2   10     23.99      0.00
    4    2   10     -6.03      0.00
    6    2   10     -1.07      0.00
    8    2   10     -0.50      0.00
   10    2   10      0.30      0.00
   12    2   10     -1.83      0.00
   14    2   10     -0.56      0.00
   16    2   10     -2.84      0.00
   18    2   10      2.33      0.00
   20    2   10      0.33      0.00
  -33    3   10     -1.47      0.00
  -31    3   10      1.61      0.00
  -29    3   10      1.95      0.00
  -27    3   10     -0.53      0.00
  -25    3   10     -1.20      0.00
  -23    3   10      2.02      0.00
  -21    3   10     -3.94      0.00
  -19    3   10    -11.74      0.00
  -17    3   10      2.05      0.00
  -15    3   10      1.57      0.00
  -13    3   10      4.32      0.00
  -11    3   10     -4.93      0.00
   -9    3   10     -2.39      0.00
   -7    3   10     -1.94      0.00
   -5    3   10      4.70      0.00
   -3    3   10      2.80      0.00
   -1    3   10      8.89      0.00
    1    3   10     -2.49      0.00
    3    3   10      4.07      0.00
    5    3   10     -1.14      0.00
    7    3   10      5.87      0.00
    9    3   10     -6.40      0.00
   11    3   10      8.84      0.00
   13    3   10     -7.17      0.00
   15    3   10      6.69      0.00
   17    3   10     -2.80      0.00
   19    3   10     -0.07      0.00
   21    3   10      1.96      0.00
  -34    4   10      2.27      0.00
  -32    4   10     -4.95      0.00
  -30    4   10      1.45      0.00
  -28    4   10      3.74      0.00
  -26    4   10     -0.50      0.00
  -24    4   10     -3.16      0.00
  -22    4   10      3.63      0.00
  -20    4   10    -11.44      0.00
  -18    4   10     -4.38      0.00
  -16    4   10      4.85      0.00
  -14    4   10      7.46      0.00
  -12    4   10     -3.36      0.00
  -10    4   10     -0.65      0.00
   -8    4   10      0.87      0.00
   -6    4   10      1.84      0.00
   -4    4   10      4.35      0.00
   -2    4   10      2.76      0.00
    0    4   10     11.60      0.00
    2    4   10     -3.44      0.00
    4    4   10      0.24      0.00
    6    4   10      1.67      0.00
    8    4   10      3.71      0.00
   10    4   10     -2.35      0.00
   12    4   10      4.61      0.00
   14    4   10     -0.63      0.00
   16    4   10      1.08      0.00
   18    4   10     -2.56      0.00
   20    4   10      1.67      0.00
  -33    5   10     -1.33      0.00
  -31    5   10     -3.42      0.00
  -29    5   10      2.90      0.00
  -27    5   10     -0.83      0.00
  -25    5   10      1.66      0.00
  -23    5   10      0.85      0.00
  -21    5   10     -5.48      0.00
  -19    5   10     -4.67      0.00
  -17    5   10     -1.04      0.00
  -15    5   10     10.14      0.00
  -13    5   10     -0.96      0.00
  -11    5   10      8.12      0.00
   -9    5   10     -2.71      0.00
   -7    5   10      1.65      0.00
   -5    5   10      0.00      0.00
   -3    5   10     12.67      0.00
   -1    5   10      1.90      0.00
    1    5   10      7.24      0.00
    3    5   10    -10.93      0.00
    5    5   10      8.88      0.00
    7    5   10     -0.59      0.00
    9    5   10      4.38      0.00
   11    5   10     -9.78      0.00
   13    5   10      9.07      0.00
   15    5   10     -4.04      0.00
   17    5   10      1.86      0.00
   19    5   10     -1.41      0.00
  -32    6   10     -0.20      0.00
  -30    6   10     -0.13      0.00
  -28    6   10     -0.14      0.00
  -26    6   10     -0.66      0.00
  -24    6   10      5.14      0.00
  -22    6   10     -1.58      0.00
  -20    6   10     -7.90      0.00
  -18    6   10      1.34      0.00
  -16    6   10      2.88      0.00
  -14    6   10      3.83      0.00
  -12    6   10      3.95      0.00
  -10    6   10      1.75      0.00
   -8    6   10      7.50      0.00
   -6    6   10     -8.76      0.00
   -4    6   10     10.82      0.00
   -2    6   10     -0.57      0.00
    0    6   10      9.01      0.00
    2    6   10     -3.79      0.00
    4    6   10      1.55      0.00
    6    6   10     -3.67      0.00
    8    6   10      3.37      0.00
   10    6   10     -0.48      0.00
   12    6   10     -4.49      0.00
   14    6   10      0.89      0.00
   16    6   10     -0.93      0.00
   18    6   10      1.47      0.00
   20    6   10      0.84      0.00
  -33    7   10      2.22      0.00
  -31    7   10     -0.91      0.00
  -29    7   10     -0.20      0.00
  -27    7   10     -0.67      0.00
  -25    7   10      2.97      0.00
  -23    7   10      0.17      0.00
  -21    7   10      3.97      0.00
  -19    7   10     -9.46      0.00
  -17    7   10      1.30      0.00
  -15    7   10     -5.50      0.00
  -13    7   10     14.61      0.00
  -11    7   10     -4.97      0.00
   -9    7   10      5.31      0.00
   -7    7   10     -6.35      0.00
   -5    7   10      5.96      0.00
   -3    7   10     -4.02      0.00
   -1    7   10      5.30      0.00
    1    7   10     -5.92      0.00
    3    7   10     11.03      0.00
    5    7   10    -11.22      0.00
    7    7   10      2.69      0.00
    9    7   10     -5.15      0.00
   11    7   10      3.79      0.00
   13    7   10     -7.95      0.00
   15    7   10      4.42      0.00
   17    7   10     -2.39      0.00
   19    7   10      2.61      0.00
  -32    8   10     -1.53      0.00
  -30    8   10     -1.49      0.00
  -28    8   10      3.25      0.00
  -26    8   10      1.39      0.00
  -24    8   10     -0.91      0.00
  -22    8   10      1.58      0.00
  -20    8   10      4.23      0.00
  -18    8   10     -9.05      0.00
  -16    8   10     -4.54      0.00
  -14    8   10     -5.03      0.00
  -12    8   10     12.32      0.00
  -10    8   10      1.05      0.00
   -8    8   10     -9.76      0.00
   -6    8   10      0.67      0.00
   -4    8   10     -3.84      0.00
   -2    8   10     -0.43      0.00
    0    8   10     -2.68      0.00
    2    8   10      4.21      0.00
    4    8   10     -8.07      0.00
    6    8   10      2.40      0.00
    8    8   10     -6.13      0.00
   10    8   10      0.92      0.00
   12    8   10     -4.31      0.00
   14    8   10     -0.90      0.00
   16    8   10      3.94      0.00
   18    8   10     -1.96      0.00
  -31    9   10      0.86      0.00
  -29    9   10     -1.48      0.00
  -27    9   10      3.16      0.00
  -25    9   10     -0.85      0.00
  -23    9   10      5.74      0.00
  -21    9   10     -6.68      0.00
  -19    9   10      8.44      0.00
  -17    9   10    -13.99      0.00
  -15    9   10     -0.38      0.00
  -13    9   10     -5.52      0.00
  -11    9   10     12.79      0.00
   -9    9   10     -7.50      0.00
   -7    9   10      2.42      0.00
   -5    9   10    -13.57      0.00
   -3    9   10      1.89      0.00
   -1    9   10     -8.95      0.00
    1    9   10     11.22      0.00
    3    9   10    -11.56      0.00
    5    9   10      1.46      0.00
    7    9   10    -10.00      0.00
    9    9   10      5.68      0.00
   11    9   10     -5.79      0.00
   13    9   10      3.90      0.00
   15    9   10     -5.20      0.00
   17    9   10      2.22      0.00
  -30   10   10      0.28      0.00
  -28   10   10     -2.49      0.00
  -26   10   10      0.49      0.00
  -24   10   10      4.14      0.00
  -22   10   10      0.91      0.00
  -20   10   10     -0.44      0.00
  -18   10   10      0.56      0.00
  -16   10   10    -10.80      0.00
  -14   10   10      5.98      0.00
  -12   10   10     -1.87      0.00
  -10   10   10      6.72      0.00
   -8   10   10     -1.80      0.00
   -6   10   10     -4.06      0.00
   -4   10   10     -7.12      0.00
   -2   10   10     -0.72      0.00
    0   10   10      2.86      0.00
    2   10   10     -5.69      0.00
    4   10   10     -0.81      0.00
    6   10   10     -5.54      0.00
    8   10   10      0.52      0.00
   10   10   10     -1.54      0.00
   12   10   10      0.34      0.00
   14   10   10      2.97      0.00
   16   10   10     -7.90      0.00
  -29   11   10      2.55      0.00
  -27   11   10     -2.35      0.00
  -25   11   10      3.21      0.00
  -23   11   10     -2.70      0.00
  -21   11   10      6.60      0.00
  -19   11   10     -4.36      0.00
  -17   11   10      5.96      0.00
  -15   11   10     -7.57      0.00
  -13   11   10      3.94      0.00
  -11   11   10      5.35      0.00
   -9   11   10      6.01      0.00
   -7   11   10     -5.87      0.00
   -5   11   10      4.82      0.00
   -3   11   10    -12.18      0.00
   -1   11   10     10.19      0.00
    1   11   10     -3.72      0.00
    3   11   10      1.55      0.00
    5   11   10     -9.79      0.00
    7   11   10      6.18      0.00
    9   11   10     -2.39      0.00
   11   11   10      2.86      0.00
   13   11   10     -2.31      0.00
   15   11   10      0.15      0.00
  -28   12   10     -0.44      0.00
  -26   12   10      2.33      0.00
  -24   12   10     -0.83      0.00
  -22   12   10      1.32      0.00
  -20   12   10      1.22      0.00
  -18   12   10      2.32      0.00
  -16   12   10      3.10      0.00
  -14   12   10     -5.60      0.00
  -12   12   10      7.84      0.00
  -10   12   10      3.17      0.00
   -8   12   10      4.11      0.00
   -6   12   10     -1.02      0.00
   -4   12   10      0.32      0.00
   -2   12   10     -0.45      0.00
    0   12   10      1.74      0.00
    2   12   10      2.40      0.00
    4   12   10     -0.72      0.00
    6   12   10     -1.93      0.00
    8   12   10      3.50      0.00
   10   12   10     -2.02      0.00
   12   12   10      3.90      0.00
   14   12   10     -3.65      0.00
  -27   13   10      1.81      0.00
  -25   13   10     -1.18      0.00
  -23   13   10      1.73      0.00
  -21   13   10      1.10      0.00
  -19   13   10      2.02      0.00
  -17   13   10     -1.37      0.00
  -15   13   10      0.86      0.00
  -13   13   10     -0.39      0.00
  -11   13   10      3.31      0.00
   -9   13   10      2.46      0.00
   -7   13   10      2.89      0.00
   -5   13   10     -3.91      0.00
   -3   13   10      7.01      0.00
   -1   13   10     -7.36      0.00
    1   13   10      8.54      0.00
    3   13   10     -2.26      0.00
    5   13   10      2.54      0.00
    7   13   10      2.09      0.00
    9   13   10     -1.67      0.00
   11   13   10     -0.67      0.00
   13   13   10     -0.66      0.00
  -26   14   10     -1.27      0.00
  -24   14   10     -1.07      0.00
  -22   14   10      2.79      0.00
  -20   14   10      0.34      0.00
  -18   14   10     -0.55      0.00
  -16   14   10     -2.31      0.00
  -14   14   10     -5.17      0.00
  -12   14   10      4.72      0.00
  -10   14   10     -0.47      0.00
   -8   14   10     -1.87      0.00
   -6   14   10      3.14      0.00
   -4   14   10     -0.96      0.00
   -2   14   10     -3.96      0.00
    0   14   10     -1.50      0.00
    2   14   10     10.55      0.00
    4   14   10     -5.17      0.00
    6   14   10      1.57      0.00
    8   14   10     -0.17      0.00
   10   14   10     -1.64      0.00
   12   14   10     -2.27      0.00
  -23   15   10      1.03      0.00
  -21   15   10     -1.49      0.00
  -19   15   10      2.09      0.00
  -17   15   10     -4.93      0.00
  -15   15   10     -3.89      0.00
  -13   15   10     -1.82      0.00
  -11   15   10      0.67      0.00
   -9   15   10      0.99      0.00
   -7   15   10     -2.35      0.00
   -5   15   10     -1.69      0.00
   -3   15   10     -4.25      0.00
   -1   15   10      2.92      0.00
    1   15   10     -3.53      0.00
    3   15   10      2.55      0.00
    5   15   10      1.12      0.00
    7   15   10     -4.02      0.00
    9   15   10      1.56      0.00
   11   15   10     -6.47      0.00
  -22   16   10     -4.49      0.00
  -20   16   10      3.25      0.00
  -18   16   10     -1.79      0.00
  -16   16   10     -7.26      0.00
  -14   16   10      5.60      0.00
  -12   16   10     -9.43      0.00
  -10   16   10      6.66      0.00
   -8   16   10      0.35      0.00
   -6   16   10     -3.86      0.00
   -4   16   10     -5.53      0.00
   -2   16   10      0.67      0.00
    0   16   10      4.37      0.00
    2   16   10     -7.97      0.00
    4   16   10      3.06      0.00
    6   16   10     -3.08      0.00
    8   16   10      2.25      0.00
  -19   17   10      0.27      0.00
  -17   17   10     -2.39      0.00
  -15   17   10      0.45      0.00
  -13   17   10      2.28      0.00
  -11   17   10     -1.24      0.00
   -9   17   10      0.88      0.00
   -7   17   10      1.10      0.00
   -5   17   10     -0.42      0.00
   -3   17   10     -5.27      0.00
   -1   17   10      3.05      0.00
    1   17   10     -1.97      0.00
    3   17   10     -0.15      0.00
    5   17   10     -2.39      0.00
  -16   18   10      4.31      0.00
  -14   18   10     -0.77      0.00
  -12   18   10      7.12      0.00
  -10   18   10     -6.09      0.00
   -8   18   10      3.96      0.00
   -6   18   10      0.81      0.00
   -4   18   10      0.37      0.00
   -2   18   10     -1.18      0.00
    0   18   10     -3.43      0.00
    2   18   10      3.90      0.00
  -11   19   10     -0.18      0.00
   -9   19   10     -3.13      0.00
   -7   19   10      2.15      0.00
   -5   19   10      2.45      0.00
   -3   19   10      2.93      0.00
   -1   19   10     -9.96      0.00
  -33    1   11      2.30      0.00
  -31    1   11     -8.86      0.00
  -29    1   11      0.11      0.00
  -27    1   11      0.57      0.00
  -25    1   11      4.32      0.00
  -23    1   11     -8.81      0.00
  -21    1   11      5.32      0.00
  -19    1   11     -2.67      0.00
  -17    1   11     10.59      0.00
  -15    1   11    -12.98      0.00
  -13    1   11     12.82      0.00
  -11    1   11    -10.97      0.00
   -9    1   11     14.86      0.00
   -7    1   11     -8.75      0.00
   -5    1   11     -1.00      0.00
   -3    1   11     -7.05      0.00
   -1    1   11     13.64      0.00
    1    1   11     -3.42      0.00
    3    1   11      4.69      0.00
    5    1   11    -10.33      0.00
    7    1   11      9.05      0.00
    9    1   11     -1.51      0.00
   11    1   11    -14.08      0.00
   13    1   11      3.33      0.00
   15    1   11     -1.02      0.00
   17    1   11     -1.70      0.00
   19    1   11      7.68      0.00
  -34    2   11      0.53      0.00
  -32    2   11     -4.23      0.00
  -30    2   11      1.35      0.00
  -28    2   11     -7.89      0.00
  -26    2   11      5.69      0.00
  -24    2   11     -4.19      0.00
  -22    2   11      0.75      0.00
  -20    2   11     -2.02      0.00
  -18    2   11      2.88      0.00
  -16    2   11      1.55      0.00
  -14    2   11     -1.10      0.00
  -12    2   11      2.05      0.00
  -10    2   11      0.87      0.00
   -8    2   11      3.81      0.00
   -6    2   11     -8.59      0.00
   -4    2   11     -0.87      0.00
   -2    2   11     -1.84      0.00
    0    2   11      8.09      0.00
    2    2   11     -0.26      0.00
    4    2   11     -1.91      0.00
    6    2   11      5.73      0.00
    8    2   11     -7.02      0.00
   10    2   11     -7.40      0.00
   12    2   11     -5.03      0.00
   14    2   11     -0.33      0.00
   16    2   11      0.44      0.00
   18    2   11     -2.06      0.00
  -33    3   11     -3.07      0.00
  -31    3   11      4.68      0.00
  -29    3   11     -2.88      0.00
  -27    3   11     -1.98      0.00
  -25    3   11     -4.40      0.00
  -23    3   11      3.76      0.00
  -21    3   11     -6.54      0.00
  -19    3   11      1.94      0.00
  -17    3   11     -0.38      0.00
  -15    3   11      5.42      0.00
  -13    3   11    -12.90      0.00
  -11    3   11     15.57      0.00
   -9    3   11     -6.17      0.00
   -7    3   11      5.02      0.00
   -5    3   11    -19.50      0.00
   -3    3   11      7.72      0.00
   -1    3   11     -1.28      0.00
    1    3   11      9.04      0.00
    3    3   11    -13.32      0.00
    5    3   11     10.65      0.00
    7    3   11     -1.66      0.00
    9    3   11     -7.34      0.00
   11    3   11     -5.89      0.00
   13    3   11     -3.55      0.00
   15    3   11      0.59      0.00
   17    3   11     -0.52      0.00
   19    3   11      1.35      0.00
  -34    4   11     -7.13      0.00
  -32    4   11      1.84      0.00
  -30    4   11     -0.99      0.00
  -28    4   11      6.49      0.00
  -26    4   11    -10.58      0.00
  -24    4   11      2.71      0.00
  -22    4   11     -7.52      0.00
  -20    4   11      1.66      0.00
  -18    4   11     -0.61      0.00
  -16    4   11     -2.66      0.00
  -14    4   11      4.91      0.00
  -12    4   11     -3.95      0.00
  -10    4   11      6.51      0.00
   -8    4   11     -5.30      0.00
   -6    4   11      0.97      0.00
   -4    4   11    -10.27      0.00
   -2    4   11      1.38      0.00
    0    4   11      2.05      0.00
    2    4   11     -3.31      0.00
    4    4   11      3.39      0.00
    6    4   11     -0.79      0.00
    8    4   11      0.60      0.00
   10    4   11     -7.58      0.00
   12    4   11     -1.95      0.00
   14    4   11      0.06      0.00
   16    4   11     -1.80      0.00
   18    4   11      1.27      0.00
  -33    5   11     -2.08      0.00
  -31    5   11     -0.09      0.00
  -29    5   11      4.76      0.00
  -27    5   11     -3.02      0.00
  -25    5   11     -0.80      0.00
  -23    5   11     -9.69      0.00
  -21    5   11      2.88      0.00
  -19    5   11     -0.02      0.00
  -17    5   11     -2.02      0.00
  -15    5   11     -2.30      0.00
  -13    5   11     14.49      0.00
  -11    5   11     -8.00      0.00
   -9    5   11      7.05      0.00
   -7    5   11    -11.94      0.00
   -5    5   11     11.54      0.00
   -3    5   11    -14.16      0.00
   -1    5   11      8.23      0.00
    1    5   11    -10.31      0.00
    3    5   11      9.66      0.00
    5    5   11     -3.17      0.00
    7    5   11      4.43      0.00
    9    5   11     -4.82      0.00
   11    5   11     -2.13      0.00
   13    5   11     -0.75      0.00
   15    5   11      1.19      0.00
   17    5   11     -0.37      0.00
   19    5   11     -1.79      0.00
  -32    6   11     -3.35      0.00
  -30    6   11      4.12      0.00
  -28    6   11     -3.86      0.00
  -26    6   11      5.56      0.00
  -24    6   11    -11.03      0.00
  -22    6   11      3.22      0.00
  -20    6   11     -2.84      0.00
  -18    6   11     -0.23      0.00
  -16    6   11      6.75      0.00
  -14    6   11      2.70      0.00
  -12    6   11      9.56      0.00
  -10    6   11     -6.78      0.00
   -8    6   11      7.64      0.00
   -6    6   11     -6.80      0.00
   -4    6   11      5.31      0.00
   -2    6   11     -3.33      0.00
    0    6   11     -0.20      0.00
    2    6   11      4.79      0.00
    4    6   11     -0.85      0.00
    6    6   11      4.17      0.00
    8    6   11     -2.13      0.00
   10    6   11      2.42      0.00
   12    6   11     -3.75      0.00
   14    6   11      0.79      0.00
   16    6   11      0.22      0.00
   18    6   11      0.97      0.00
  -31    7   11     -1.61      0.00
  -29    7   11      1.91      0.00
  -27    7   11     -0.10      0.00
  -25    7   11     -3.78      0.00
  -23    7   11      3.05      0.00
  -21    7   11     -2.54      0.00
  -19    7   11      1.18      0.00
  -17    7   11     -2.92      0.00
  -15    7   11     17.59      0.00
  -13    7   11      5.15      0.00
  -11    7   11      1.09      0.00
   -9    7   11     -8.69      0.00
   -7    7   11     13.46      0.00
   -5    7   11     -5.17      0.00
   -3    7   11      8.88      0.00
   -1    7   11    -11.13      0.00
    1    7   11     11.95      0.00
    3    7   11     -0.83      0.00
    5    7   11     11.19      0.00
    7    7   11     -9.59      0.00
    9    7   11      1.70      0.00
   11    7   11      3.24      0.00
   13    7   11      0.54      0.00
   15    7   11     -1.25      0.00
   17    7   11      2.08      0.00
  -32    8   11     -3.36      0.00
  -30    8   11     -4.18      0.00
  -28    8   11      4.85      0.00
  -26    8   11     -4.34      0.00
  -24    8   11      3.19      0.00
  -22    8   11     -1.82      0.00
  -20    8   11      4.22      0.00
  -18    8   11     -2.19      0.00
  -16    8   11      1.92      0.00
  -14    8   11     16.15      0.00
  -12    8   11      2.77      0.00
  -10    8   11     -4.52      0.00
   -8    8   11     -1.83      0.00
   -6    8   11      7.80      0.00
   -4    8   11     -0.33      0.00
   -2    8   11      1.19      0.00
    0    8   11      4.35      0.00
    2    8   11     -1.42      0.00
    4    8   11     11.00      0.00
    6    8   11     -4.80      0.00
    8    8   11      1.28      0.00
   10    8   11     -2.33      0.00
   12    8   11      5.14      0.00
   14    8   11     -1.03      0.00
   16    8   11      2.64      0.00
  -31    9   11     -3.80      0.00
  -29    9   11     -5.34      0.00
  -27    9   11      6.45      0.00
  -25    9   11     -0.20      0.00
  -23    9   11     -0.97      0.00
  -21    9   11      1.57      0.00
  -19    9   11     -2.20      0.00
  -17    9   11      4.25      0.00
  -15    9   11      2.57      0.00
  -13    9   11      7.69      0.00
  -11    9   11     -1.92      0.00
   -9    9   11     -2.00      0.00
   -7    9   11      0.61      0.00
   -5    9   11      5.82      0.00
   -3    9   11     -4.12      0.00
   -1    9   11      3.93      0.00
    1    9   11     -1.96      0.00
    3    9   11     10.61      0.00
    5    9   11     -8.16      0.00
    7    9   11      1.41      0.00
    9    9   11      0.51      0.00
   11    9   11      0.23      0.00
   13    9   11      3.17      0.00
   15    9   11     -0.65      0.00
  -30   10   11      0.24      0.00
  -28   10   11     -3.68      0.00
  -26   10   11      2.30      0.00
  -24   10   11      1.01      0.00
  -22   10   11      0.14      0.00
  -20   10   11     -0.65      0.00
  -18   10   11     -1.22      0.00
  -16   10   11     -0.44      0.00
  -14   10   11      5.33      0.00
  -12   10   11      0.91      0.00
  -10   10   11     -1.63      0.00
   -8   10   11     -3.03      0.00
   -6   10   11      7.98      0.00
   -4   10   11     -5.70      0.00
   -2   10   11      3.96      0.00
    0   10   11     -7.12      0.00
    2   10   11      7.92      0.00
    4   10   11     -7.66      0.00
    6   10   11      5.68      0.00
    8   10   11     -7.78      0.00
   10   10   11      3.15      0.00
   12   10   11     -0.28      0.00
   14   10   11      3.29      0.00
  -29   11   11      1.87      0.00
  -27   11   11     -4.71      0.00
  -25   11   11      1.99      0.00
  -23   11   11     -1.14      0.00
  -21   11   11      2.82      0.00
  -19   11   11     -1.90      0.00
  -17   11   11     -2.31      0.00
  -15   11   11     -2.62      0.00
  -13   11   11      6.45      0.00
  -11   11   11     -1.37      0.00
   -9   11   11      1.11      0.00
   -7   11   11      0.32      0.00
   -5   11   11      1.67      0.00
   -3   11   11     -3.38      0.00
   -1   11   11      1.20      0.00
    1   11   11     -1.94      0.00
    3   11   11     -3.58      0.00
    5   11   11      0.09      0.00
    7   11   11      1.67      0.00
    9   11   11     -4.35      0.00
   11   11   11      1.92      0.00
   13   11   11     -1.86      0.00
  -28   12   11     -0.07      0.00
  -26   12   11      0.31      0.00
  -24   12   11     -1.68      0.00
  -22   12   11      3.17      0.00
  -20   12   11     -2.45      0.00
  -18   12   11      0.82      0.00
  -16   12   11     -1.58      0.00
  -14   12   11     -2.55      0.00
  -12   12   11      5.71      0.00
  -10   12   11      0.12      0.00
   -8   12   11      3.40      0.00
   -6   12   11     -4.15      0.00
   -4   12   11      7.24      0.00
   -2   12   11     -8.24      0.00
    0   12   11      4.27      0.00
    2   12   11     -6.79      0.00
    4   12   11      9.17      0.00
    6   12   11     -7.24      0.00
    8   12   11      4.99      0.00
   10   12   11     -6.00      0.00
   12   12   11      5.52      0.00
  -27   13   11      1.18      0.00
  -25   13   11      0.39      0.00
  -23   13   11      3.69      0.00
  -21   13   11     -2.19      0.00
  -19   13   11      3.30      0.00
  -17   13   11     -6.30      0.00
  -15   13   11      5.67      0.00
  -13   13   11     -6.46      0.00
  -11   13   11      8.73      0.00
   -9   13   11     -2.98      0.00
   -7   13   11      5.82      0.00
   -5   13   11     -8.37      0.00
   -3   13   11      5.80      0.00
   -1   13   11     -1.18      0.00
    1   13   11      3.55      0.00
    3   13   11     -4.82      0.00
    5   13   11      9.92      0.00
    7   13   11     -1.72      0.00
    9   13   11     -0.43      0.00
   11   13   11     -0.19      0.00
  -24   14   11      4.58      0.00
  -22   14   11     -0.97      0.00
  -20   14   11      3.57      0.00
  -18   14   11     -5.05      0.00
  -16   14   11      0.85      0.00
  -14   14   11     -0.93      0.00
  -12   14   11     -2.41      0.00
  -10   14   11      4.76      0.00
   -8   14   11     -2.75      0.00
   -6   14   11     -0.36      0.00
   -4   14   11     -5.69      0.00
   -2   14   11      7.43      0.00
    0   14   11     -2.08      0.00
    2   14   11      7.63      0.00
    4   14   11     -3.08      0.00
    6   14   11      7.85      0.00
    8   14   11     -5.20      0.00
   10   14   11      6.69      0.00
  -23   15   11      1.83      0.00
  -21   15   11      2.85      0.00
  -19   15   11     -6.67      0.00
  -17   15   11      4.03      0.00
  -15   15   11     -8.86      0.00
  -13   15   11      3.40      0.00
  -11   15   11     -7.05      0.00
   -9   15   11      9.42      0.00
   -7   15   11    -15.47      0.00
   -5   15   11      4.77      0.00
   -3   15   11     -3.19      0.00
   -1   15   11      5.50      0.00
    1   15   11     -2.18      0.00
    3   15   11      6.99      0.00
    5   15   11     -2.06      0.00
    7   15   11     -0.48      0.00
    9   15   11      1.31      0.00
  -20   16   11     -2.37      0.00
  -18   16   11     -4.90      0.00
  -16   16   11     -1.28      0.00
  -14   16   11     -2.10      0.00
  -12   16   11     -5.87      0.00
  -10   16   11      1.30      0.00
   -8   16   11     -0.16      0.00
   -6   16   11     -7.04      0.00
   -4   16   11     -3.10      0.00
   -2   16   11      2.27      0.00
    0   16   11      6.18      0.00
    2   16   11     -4.15      0.00
    4   16   11     -1.53      0.00
    6   16   11     -2.38      0.00
  -19   17   11     -2.13      0.00
  -17   17   11     -6.94      0.00
  -15   17   11      2.92      0.00
  -13   17   11     -7.39      0.00
  -11   17   11      3.09      0.00
   -9   17   11     -5.56      0.00
   -7   17   11      4.99      0.00
   -5   17   11     -7.89      0.00
   -3   17   11      0.42      0.00
   -1   17   11      3.52      0.00
    1   17   11      0.85      0.00
    3   17   11     -4.36      0.00
  -14   18   11     -0.52      0.00
  -12   18   11      1.90      0.00
  -10   18   11     -2.74      0.00
   -8   18   11      2.58      0.00
   -6   18   11     -1.65      0.00
   -4   18   11      1.36      0.00
   -2   18   11      0.10      0.00
    0   18   11      3.84      0.00
  -34    0   12     -1.92      0.00
  -32    0   12     -9.61      0.00
  -30    0   12     10.60      0.00
  -28    0   12     -3.84      0.00
  -26    0   12      1.35      0.00
  -24    0   12     -4.20      0.00
  -22    0   12      6.13      0.00
  -20    0   12      0.46      0.00
  -18    0   12      1.63      0.00
  -16    0   12    -14.07      0.00
  -14    0   12      1.36      0.00
  -12    0   12    -10.22      0.00
  -10    0   12     -2.45      0.00
   -8    0   12      0.54      0.00
   -6    0   12     -1.08      0.00
   -4    0   12     -4.66      0.00
   -2    0   12     -4.99      0.00
    0    0   12     -0.80      0.00
    2    0   12     -2.05      0.00
    4    0   12      6.47      0.00
    6    0   12    -10.16      0.00
    8    0   12      3.55      0.00
   10    0   12    -14.57      0.00
   12    0   12     -0.43      0.00
   14    0   12      2.57      0.00
   16    0   12    -12.38      0.00
   18    0   12      7.73      0.00
  -33    1   12     -2.17      0.00
  -31    1   12     -0.50      0.00
  -29    1   12     -0.94      0.00
  -27    1   12      2.53      0.00
  -25    1   12     -2.08      0.00
  -23    1   12      1.10      0.00
  -21    1   12      1.15      0.00
  -19    1   12      0.43      0.00
  -17    1   12     -0.76      0.00
  -15    1   12     -7.76      0.00
  -13    1   12     -4.84      0.00
  -11    1   12     -9.73      0.00
   -9    1   12      4.40      0.00
   -7    1   12      2.22      0.00
   -5    1   12      1.34      0.00
   -3    1   12    -14.38      0.00
   -1    1   12      2.79      0.00
    1    1   12      2.77      0.00
    3    1   12      1.84      0.00
    5    1   12     -3.54      0.00
    7    1   12     -5.10      0.00
    9    1   12     -2.74      0.00
   11    1   12     -0.92      0.00
   13    1   12     -6.37      0.00
   15    1   12     -1.47      0.00
   17    1   12     -3.44      0.00
  -34    2   12      1.30      0.00
  -32    2   12      4.84      0.00
  -30    2   12    -10.81      0.00
  -28    2   12      3.20      0.00
  -26    2   12      0.21      0.00
  -24    2   12      1.70      0.00
  -22    2   12     -4.09      0.00
  -20    2   12      2.85      0.00
  -18    2   12      0.40      0.00
  -16    2   12      1.09      0.00
  -14    2   12    -11.66      0.00
  -12    2   12      0.49      0.00
  -10    2   12     -7.11      0.00
   -8    2   12      9.66      0.00
   -6    2   12      3.17      0.00
   -4    2   12     -1.61      0.00
   -2    2   12     -6.38      0.00
    0    2   12      4.13      0.00
    2    2   12      4.27      0.00
    4    2   12     -2.06      0.00
    6    2   12      1.08      0.00
    8    2   12     -6.77      0.00
   10    2   12      3.62      0.00
   12    2   12     -2.40      0.00
   14    2   12     -5.95      0.00
   16    2   12      4.29      0.00
   18    2   12     -4.93      0.00
  -33    3   12      1.22      0.00
  -31    3   12     -1.73      0.00
  -29    3   12     -1.12      0.00
  -27    3   12     -5.58      0.00
  -25    3   12      6.20      0.00
  -23    3   12     -6.70      0.00
  -21    3   12      2.89      0.00
  -19    3   12      1.80      0.00
  -17    3   12     -0.78      0.00
  -15    3   12      2.77      0.00
  -13    3   12    -14.22      0.00
  -11    3   12      5.88      0.00
   -9    3   12     -2.84      0.00
   -7    3   12     15.75      0.00
   -5    3   12     -8.60      0.00
   -3    3   12      9.67      0.00
   -1    3   12     -6.08      0.00
    1    3   12      8.75      0.00
    3    3   12     -5.26      0.00
    5    3   12      4.67      0.00
    7    3   12      1.01      0.00
    9    3   12      1.38      0.00
   11    3   12     -4.69      0.00
   13    3   12      6.55      0.00
   15    3   12     -3.82      0.00
   17    3   12      2.80      0.00
  -32    4   12     -1.85      0.00
  -30    4   12      2.77      0.00
  -28    4   12     -5.57      0.00
  -26    4   12     -0.80      0.00
  -24    4   12     -0.46      0.00
  -22    4   12     -0.24      0.00
  -20    4   12     -0.02      0.00
  -18    4   12      1.73      0.00
  -16    4   12      2.96      0.00
  -14    4   12      0.23      0.00
  -12    4   12    -18.20      0.00
  -10    4   12     12.85      0.00
   -8    4   12      1.78      0.00
   -6    4   12     10.64      0.00
   -4    4   12     -8.24      0.00
   -2    4   12      6.37      0.00
    0    4   12      1.09      0.00
    2    4   12      4.54      0.00
    4    4   12     -5.42      0.00
    6    4   12      6.76      0.00
    8    4   12     -0.25      0.00
   10    4   12      4.76      0.00
   12    4   12      0.54      0.00
   14    4   12      3.72      0.00
   16    4   12     -2.18      0.00
  -33    5   12      1.66      0.00
  -31    5   12     -1.60      0.00
  -29    5   12     -2.40      0.00
  -27    5   12      1.92      0.00
  -25    5   12     -7.48      0.00
  -23    5   12      5.97      0.00
  -21    5   12     -6.21      0.00
  -19    5   12      7.04      0.00
  -17    5   12      3.85      0.00
  -15    5   12     -9.02      0.00
  -13    5   12      3.86      0.00
  -11    5   12    -11.63      0.00
   -9    5   12     14.73      0.00
   -7    5   12     -9.28      0.00
   -5    5   12     14.44      0.00
   -3    5   12     -8.65      0.00
   -1    5   12     11.01      0.00
    1    5   12    -12.00      0.00
    3    5   12     11.34      0.00
    5    5   12     -5.41      0.00
    7    5   12      7.19      0.00
    9    5   12     -0.60      0.00
   11    5   12      6.10      0.00
   13    5   12     -0.55      0.00
   15    5   12      2.73      0.00
   17    5   12     -1.08      0.00
  -32    6   12      1.99      0.00
  -30    6   12     -0.89      0.00
  -28    6   12     -1.54      0.00
  -26    6   12     -0.59      0.00
  -24    6   12     -2.04      0.00
  -22    6   12     -1.19      0.00
  -20    6   12      3.06      0.00
  -18    6   12      4.94      0.00
  -16    6   12      3.26      0.00
  -14    6   12    -14.37      0.00
  -12    6   12      5.96      0.00
  -10    6   12     -5.72      0.00
   -8    6   12     12.28      0.00
   -6    6   12    -10.83      0.00
   -4    6   12     12.66      0.00
   -2    6   12     -8.25      0.00
    0    6   12      7.91      0.00
    2    6   12     -6.74      0.00
    4    6   12      8.49      0.00
    6    6   12     -8.78      0.00
    8    6   12      9.59      0.00
   10    6   12      1.77      0.00
   12    6   12      2.25      0.00
   14    6   12     -3.75      0.00
   16    6   12      2.23      0.00
  -31    7   12      3.71      0.00
  -29    7   12     -0.98      0.00
  -27    7   12     -2.20      0.00
  -25    7   12     -0.06      0.00
  -23    7   12     -1.53      0.00
  -21    7   12      2.77      0.00
  -19    7   12      1.51      0.00
  -17    7   12      3.06      0.00
  -15    7   12      3.09      0.00
  -13    7   12    -12.67      0.00
  -11    7   12      5.87      0.00
   -9    7   12     -3.69      0.00
   -7    7   12     13.00      0.00
   -5    7   12    -10.43      0.00
   -3    7   12     14.45      0.00
   -1    7   12    -13.64      0.00
    1    7   12     12.58      0.00
    3    7   12     -4.82      0.00
    5    7   12      4.64      0.00
    7    7   12     -6.26      0.00
    9    7   12      6.17      0.00
   11    7   12      2.86      0.00
   13    7   12     -1.87      0.00
   15    7   12     -2.02      0.00
  -30    8   12      1.43      0.00
  -28    8   12      4.99      0.00
  -26    8   12     -5.53      0.00
  -24    8   12     -1.02      0.00
  -22    8   12      1.70      0.00
  -20    8   12      1.72      0.00
  -18    8   12      6.03      0.00
  -16    8   12     -6.03      0.00
  -14    8   12      5.60      0.00
  -12    8   12     -8.91      0.00
  -10    8   12      5.45      0.00
   -8    8   12     -1.28      0.00
   -6    8   12     12.52      0.00
   -4    8   12     -9.06      0.00
   -2    8   12     13.85      0.00
    0    8   12     -9.77      0.00
    2    8   12     12.11      0.00
    4    8   12     -7.94      0.00
    6    8   12      5.19      0.00
    8    8   12     -0.54      0.00
   10    8   12     -0.09      0.00
   12    8   12     -0.65      0.00
   14    8   12      3.38      0.00
  -29    9   12      2.92      0.00
  -27    9   12      1.03      0.00
  -25    9   12      0.66      0.00
  -23    9   12     -6.00      0.00
  -21    9   12      5.25      0.00
  -19    9   12     -1.28      0.00
  -17    9   12      4.67      0.00
  -15    9   12     -1.56      0.00
  -13    9   12     -2.67      0.00
  -11    9   12     -5.34      0.00
   -9    9   12      7.13      0.00
   -7    9   12      2.80      0.00
   -5    9   12      7.03      0.00
   -3    9   12     -8.30      0.00
   -1    9   12     11.39      0.00
    1    9   12      0.56      0.00
    3    9   12      1.72      0.00
    5    9   12     -4.92      0.00
    7    9   12      2.90      0.00
    9    9   12      1.58      0.00
   11    9   12     -0.68      0.00
   13    9   12      1.07      0.00
  -28   10   12     -0.60      0.00
  -26   10   12      4.11      0.00
  -24   10   12     -1.43      0.00
  -22   10   12     -1.14      0.00
  -20   10   12     -2.04      0.00
  -18   10   12     -1.46      0.00
  -16   10   12      7.77      0.00
  -14   10   12     -5.23      0.00
  -12   10   12     -5.40      0.00
  -10   10   12     -1.54      0.00
   -8   10   12      4.18      0.00
   -6   10   12      2.81      0.00
   -4   10   12      1.73      0.00
   -2   10   12     -2.57      0.00
    0   10   12      6.71      0.00
    2   10   12     -3.41      0.00
    4   10   12      2.18      0.00
    6   10   12     -3.39      0.00
    8   10   12      1.18      0.00
   10   10   12     -0.11      0.00
   12   10   12      3.24      0.00
  -27   11   12      1.83      0.00
  -25   11   12     -2.73      0.00
  -23   11   12      3.75      0.00
  -21   11   12     -7.53      0.00
  -19   11   12      2.77      0.00
  -17   11   12     -2.39      0.00
  -15   11   12      2.83      0.00
  -13   11   12     -4.06      0.00
  -11   11   12     -6.48      0.00
   -9   11   12     -1.93      0.00
   -7   11   12      4.49      0.00
   -5   11   12     -1.49      0.00
   -3   11   12     -2.99      0.00
   -1   11   12      2.39      0.00
    1   11   12     -0.51      0.00
    3   11   12     -2.46      0.00
    5   11   12     -5.51      0.00
    7   11   12      4.56      0.00
    9   11   12     -1.48      0.00
   11   11   12     -0.10      0.00
  -26   12   12     -0.43      0.00
  -24   12   12      0.43      0.00
  -22   12   12     -3.57      0.00
  -20   12   12     -0.02      0.00
  -18   12   12     -2.66      0.00
  -16   12   12      3.50      0.00
  -14   12   12     -5.05      0.00
  -12   12   12     -0.50      0.00
  -10   12   12     -8.45      0.00
   -8   12   12      2.69      0.00
   -6   12   12     -4.56      0.00
   -4   12   12      4.25      0.00
   -2   12   12     -7.90      0.00
    0   12   12      2.05      0.00
    2   12   12     -5.94      0.00
    4   12   12     -1.20      0.00
    6   12   12     -0.49      0.00
    8   12   12     -1.96      0.00
   10   12   12      1.58      0.00
  -25   13   12      1.60      0.00
  -23   13   12     -3.73      0.00
  -21   13   12      2.43      0.00
  -19   13   12     -5.96      0.00
  -17   13   12      5.84      0.00
  -15   13   12     -3.95      0.00
  -13   13   12     -1.88      0.00
  -11   13   12     -1.29      0.00
   -9   13   12     -4.55      0.00
   -7   13   12     -1.37      0.00
   -5   13   12      0.28      0.00
   -3   13   12      1.91      0.00
   -1   13   12     -6.52      0.00
    1   13   12     -1.78      0.00
    3   13   12     -7.69      0.00
    5   13   12      8.82      0.00
    7   13   12     -6.70      0.00
    9   13   12      2.16      0.00
  -24   14   12     -1.31      0.00
  -22   14   12      1.60      0.00
  -20   14   12     -2.53      0.00
  -18   14   12      4.35      0.00
  -16   14   12     -6.65      0.00
  -14   14   12      6.79      0.00
  -12   14   12     -8.40      0.00
  -10   14   12      3.25      0.00
   -8   14   12     -6.99      0.00
   -6   14   12      9.96      0.00
   -4   14   12     -6.61      0.00
   -2   14   12      2.55      0.00
    0   14   12     -5.55      0.00
    2   14   12      2.88      0.00
    4   14   12     -5.77      0.00
    6   14   12      4.72      0.00
    8   14   12     -0.64      0.00
  -21   15   12     -0.89      0.00
  -19   15   12      3.10      0.00
  -17   15   12     -2.46      0.00
  -15   15   12      1.50      0.00
  -13   15   12     -2.67      0.00
  -11   15   12     -0.12      0.00
   -9   15   12      1.07      0.00
   -7   15   12     -1.36      0.00
   -5   15   12      5.94      0.00
   -3   15   12     -1.55      0.00
   -1   15   12      2.13      0.00
    1   15   12     -5.09      0.00
    3   15   12      6.13      0.00
    5   15   12     -5.03      0.00
  -20   16   12      2.17      0.00
  -18   16   12     -2.98      0.00
  -16   16   12      5.84      0.00
  -14   16   12     -7.32      0.00
  -12   16   12      3.98      0.00
  -10   16   12     -2.48      0.00
   -8   16   12      6.41      0.00
   -6   16   12     -3.56      0.00
   -4   16   12      4.91      0.00
   -2   16   12      0.75      0.00
    0   16   12      3.69      0.00
    2   16   12     -3.26      0.00
    4   16   12      1.55      0.00
  -17   17   12     -0.22      0.00
  -15   17   12     -0.24      0.00
  -13   17   12      3.21      0.00
  -11   17   12     -3.31      0.00
   -9   17   12      4.14      0.00
   -7   17   12      2.08      0.00
   -5   17   12     -0.28      0.00
   -3   17   12      3.86      0.00
   -1   17   12     -0.45      0.00
  -10   18   12      2.99      0.00
   -8   18   12     -0.13      0.00
   -6   18   12      0.09      0.00
  -33    1   13     -1.51      0.00
  -31    1   13     -1.75      0.00
  -29    1   13      4.74      0.00
  -27    1   13      0.84      0.00
  -25    1   13     -3.08      0.00
  -23    1   13      1.74      0.00
  -21    1   13     -1.78      0.00
  -19    1   13      9.15      0.00
  -17    1   13    -11.37      0.00
  -15    1   13      7.82      0.00
  -13    1   13    -13.20      0.00
  -11    1   13     16.49      0.00
   -9    1   13    -17.05      0.00
   -7    1   13     10.77      0.00
   -5    1   13    -15.19      0.00
   -3    1   13      9.29      0.00
   -1    1   13    -11.89      0.00
    1    1   13      8.06      0.00
    3    1   13    -10.73      0.00
    5    1   13      5.95      0.00
    7    1   13     -1.83      0.00
    9    1   13      1.63      0.00
   11    1   13      1.60      0.00
   13    1   13     -3.62      0.00
   15    1   13      6.22      0.00
  -32    2   13      2.47      0.00
  -30    2   13     -1.71      0.00
  -28    2   13      4.53      0.00
  -26    2   13     -3.41      0.00
  -24    2   13      1.36      0.00
  -22    2   13      2.21      0.00
  -20    2   13      1.02      0.00
  -18    2   13      0.80      0.00
  -16    2   13     -3.78      0.00
  -14    2   13      2.05      0.00
  -12    2   13     -1.42      0.00
  -10    2   13     -0.66      0.00
   -8    2   13     -5.99      0.00
   -6    2   13      0.90      0.00
   -4    2   13      0.17      0.00
   -2    2   13     -5.88      0.00
    0    2   13     -7.89      0.00
    2    2   13      2.93      0.00
    4    2   13      4.64      0.00
    6    2   13     -4.62      0.00
    8    2   13      1.82      0.00
   10    2   13     -2.35      0.00
   12    2   13      7.65      0.00
   14    2   13     -0.86      0.00
   16    2   13      5.29      0.00
  -33    3   13      3.75      0.00
  -31    3   13      4.53      0.00
  -29    3   13     -3.90      0.00
  -27    3   13     -0.30      0.00
  -25    3   13      2.95      0.00
  -23    3   13     -1.74      0.00
  -21    3   13      4.51      0.00
  -19    3   13     -1.86      0.00
  -17    3   13      7.77      0.00
  -15    3   13    -10.60      0.00
  -13    3   13      7.59      0.00
  -11    3   13     -3.62      0.00
   -9    3   13      5.73      0.00
   -7    3   13    -15.08      0.00
   -5    3   13     12.32      0.00
   -3    3   13     -4.80      0.00
   -1    3   13      0.59      0.00
    1    3   13    -10.83      0.00
    3    3   13      8.66      0.00
    5    3   13      3.19      0.00
    7    3   13     -0.85      0.00
    9    3   13      0.98      0.00
   11    3   13     -0.26      0.00
   13    3   13      3.58      0.00
   15    3   13      5.90      0.00
  -32    4   13     -0.64      0.00
  -30    4   13      5.36      0.00
  -28    4   13     -5.96      0.00
  -26    4   13      3.32      0.00
  -24    4   13     -0.36      0.00
  -22    4   13      0.87      0.00
  -20    4   13      3.71      0.00
  -18    4   13      0.18      0.00
  -16    4   13      3.15      0.00
  -14    4   13     -0.85      0.00
  -12    4   13      2.01      0.00
  -10    4   13     -0.81      0.00
   -8    4   13     -1.82      0.00
   -6    4   13      3.69      0.00
   -4    4   13      5.04      0.00
   -2    4   13     -0.47      0.00
    0    4   13     -8.66      0.00
    2    4   13      9.01      0.00
    4    4   13     -0.13      0.00
    6    4   13      8.92      0.00
    8    4   13     -4.45      0.00
   10    4   13      4.80      0.00
   12    4   13     -5.26      0.00
   14    4   13      9.65      0.00
  -31    5   13     -0.19      0.00
  -29    5   13      2.34      0.00
  -27    5   13     -1.60      0.00
  -25    5   13     -1.88      0.00
  -23    5   13      6.56      0.00
  -21    5   13     -2.54      0.00
  -19    5   13      4.55      0.00
  -17    5   13     -2.33      0.00
  -15    5   13      4.64      0.00
  -13    5   13      1.20      0.00
  -11    5   13      0.12      0.00
   -9    5   13     -5.07      0.00
   -7    5   13      5.88      0.00
   -5    5   13      5.05      0.00
   -3    5   13      6.03      0.00
   -1    5   13     -9.64      0.00
    1    5   13      0.07      0.00
    3    5   13      8.92      0.00
    5    5   13      2.03      0.00
    7    5   13      6.65      0.00
    9    5   13     -4.51      0.00
   11    5   13     -0.75      0.00
   13    5   13      2.08      0.00
   15    5   13      2.42      0.00
  -32    6   13      0.63      0.00
  -30    6   13     -3.86      0.00
  -28    6   13      4.46      0.00
  -26    6   13     -4.07      0.00
  -24    6   13      5.71      0.00
  -22    6   13     -0.72      0.00
  -20    6   13     -0.97      0.00
  -18    6   13      4.49      0.00
  -16    6   13     -0.86      0.00
  -14    6   13     -3.39      0.00
  -12    6   13      4.67      0.00
  -10    6   13     -2.85      0.00
   -8    6   13      1.36      0.00
   -6    6   13     -0.52      0.00
   -4    6   13     10.94      0.00
   -2    6   13    -11.37      0.00
    0    6   13      5.41      0.00
    2    6   13     -8.67      0.00
    4    6   13     12.73      0.00
    6    6   13     -3.42      0.00
    8    6   13      5.59      0.00
   10    6   13     -3.95      0.00
   12    6   13     -1.50      0.00
   14    6   13     -4.23      0.00
  -31    7   13      0.76      0.00
  -29    7   13     -0.43      0.00
  -27    7   13     -1.18      0.00
  -25    7   13      2.78      0.00
  -23    7   13      0.23      0.00
  -21    7   13      2.94      0.00
  -19    7   13     -4.83      0.00
  -17    7   13      2.15      0.00
  -15    7   13      0.29      0.00
  -13    7   13     -4.40      0.00
  -11    7   13      0.53      0.00
   -9    7   13     -2.44      0.00
   -7    7   13      4.60      0.00
   -5    7   13      0.08      0.00
   -3    7   13     -0.68      0.00
   -1    7   13    -11.68      0.00
    1    7   13      4.14      0.00
    3    7   13     -0.86      0.00
    5    7   13      1.90      0.00
    7    7   13     -4.97      0.00
    9    7   13      3.26      0.00
   11    7   13     -3.07      0.00
   13    7   13     -4.18      0.00
  -30    8   13      3.58      0.00
  -28    8   13     -3.11      0.00
  -26    8   13      1.99      0.00
  -24    8   13     -3.22      0.00
  -22    8   13      6.28      0.00
  -20    8   13     -1.87      0.00
  -18    8   13     -3.28      0.00
  -16    8   13     -1.89      0.00
  -14    8   13      0.95      0.00
  -12    8   13     -6.52      0.00
  -10    8   13      5.43      0.00
   -8    8   13     -7.48      0.00
   -6    8   13     10.20      0.00
   -4    8   13    -13.07      0.00
   -2    8   13      6.50      0.00
    0    8   13    -15.60      0.00
    2    8   13      8.57      0.00
    4    8   13     -8.08      0.00
    6    8   13     -0.84      0.00
    8    8   13      0.38      0.00
   10    8   13     -3.30      0.00
   12    8   13     -4.50      0.00
  -29    9   13      3.18      0.00
  -27    9   13     -0.01      0.00
  -25    9   13     -0.67      0.00
  -23    9   13     -2.26      0.00
  -21    9   13      2.51      0.00
  -19    9   13      1.04      0.00
  -17    9   13     -2.48      0.00
  -15    9   13     -5.17      0.00
  -13    9   13     -0.08      0.00
  -11    9   13     -1.01      0.00
   -9    9   13     -0.41      0.00
   -7    9   13      0.28      0.00
   -5    9   13      2.95      0.00
   -3    9   13    -11.11      0.00
   -1    9   13      3.28      0.00
    1    9   13     -3.90      0.00
    3    9   13      1.17      0.00
    5    9   13     -9.63      0.00
    7    9   13      0.50      0.00
    9    9   13      2.11      0.00
   11    9   13     -4.05      0.00
  -28   10   13      1.34      0.00
  -26   10   13     -1.51      0.00
  -24   10   13      1.81      0.00
  -22   10   13     -2.19      0.00
  -20   10   13      2.78      0.00
  -18   10   13     -2.23      0.00
  -16   10   13      0.49      0.00
  -14   10   13     -6.03      0.00
  -12   10   13      2.86      0.00
  -10   10   13     -6.40      0.00
   -8   10   13      8.72      0.00
   -6   10   13     -8.45      0.00
   -4   10   13      8.07      0.00
   -2   10   13     -9.20      0.00
    0   10   13      4.77      0.00
    2   10   13     -3.74      0.00
    4   10   13     -0.23      0.00
    6   10   13     -2.28      0.00
    8   10   13     -1.60      0.00
   10   10   13      1.29      0.00
  -27   11   13      1.34      0.00
  -25   11   13     -0.37      0.00
  -23   11   13      3.77      0.00
  -21   11   13     -1.89      0.00
  -19   11   13      0.05      0.00
  -17   11   13     -1.10      0.00
  -15   11   13     -0.82      0.00
  -13   11   13     -2.17      0.00
  -11   11   13     -1.53      0.00
   -9   11   13      3.25      0.00
   -7   11   13     -3.83      0.00
   -5   11   13      1.61      0.00
   -3   11   13      3.42      0.00
   -1   11   13     -1.09      0.00
    1   11   13     -0.05      0.00
    3   11   13     -3.71      0.00
    5   11   13      5.84      0.00
    7   11   13     -1.61      0.00
    9   11   13     -0.40      0.00
  -26   12   13      4.19      0.00
  -24   12   13      1.23      0.00
  -22   12   13      1.52      0.00
  -20   12   13     -3.26      0.00
  -18   12   13      2.02      0.00
  -16   12   13     -5.00      0.00
  -14   12   13      3.11      0.00
  -12   12   13     -2.44      0.00
  -10   12   13      1.83      0.00
   -8   12   13     -4.95      0.00
   -6   12   13      6.01      0.00
   -4   12   13     -0.19      0.00
   -2   12   13      0.83      0.00
    0   12   13     -1.33      0.00
    2   12   13      0.20      0.00
    4   12   13      3.79      0.00
    6   12   13      0.66      0.00
    8   12   13     -0.85      0.00
  -25   13   13      4.87      0.00
  -23   13   13      2.51      0.00
  -21   13   13     -2.65      0.00
  -19   13   13     -3.51      0.00
  -17   13   13     -0.01      0.00
  -15   13   13     -0.84      0.00
  -13   13   13      0.71      0.00
  -11   13   13      1.98      0.00
   -9   13   13     -1.31      0.00
   -7   13   13      1.56      0.00
   -5   13   13     -1.18      0.00
   -3   13   13      5.24      0.00
   -1   13   13     -1.09      0.00
    1   13   13     -2.58      0.00
    3   13   13      1.29      0.00
    5   13   13      4.29      0.00
    7   13   13      0.49      0.00
  -22   14   13     -2.75      0.00
  -20   14   13     -2.83      0.00
  -18   14   13     -4.54      0.00
  -16   14   13      0.66      0.00
  -14   14   13      0.56      0.00
  -12   14   13      2.58      0.00
  -10   14   13      1.38      0.00
   -8   14   13     -0.19      0.00
   -6   14   13      3.18      0.00
   -4   14   13      0.29      0.00
   -2   14   13      1.93      0.00
    0   14   13     -0.07      0.00
    2   14   13      1.65      0.00
    4   14   13     -2.82      0.00
    6   14   13      3.81      0.00
  -21   15   13     -3.52      0.00
  -19   15   13     -2.86      0.00
  -17   15   13     -4.03      0.00
  -15   15   13     -0.37      0.00
  -13   15   13      3.91      0.00
  -11   15   13      2.44      0.00
   -9   15   13     -0.97      0.00
   -7   15   13      1.62      0.00
   -5   15   13      7.54      0.00
   -3   15   13     -2.94      0.00
   -1   15   13      4.43      0.00
    1   15   13     -0.60      0.00
    3   15   13      3.61      0.00
  -18   16   13     -2.16      0.00
  -16   16   13     -2.02      0.00
  -14   16   13     -0.32      0.00
  -12   16   13      1.28      0.00
  -10   16   13      1.21      0.00
   -8   16   13      3.45      0.00
   -6   16   13     -0.88      0.00
   -4   16   13      6.55      0.00
   -2   16   13      0.59      0.00
    0   16   13      7.31      0.00
  -13   17   13     -1.35      0.00
  -11   17   13     -2.56      0.00
   -9   17   13      2.42      0.00
   -7   17   13      3.02      0.00
   -5   17   13     -0.19      0.00
  -32    0   14      5.27      0.00
  -30    0   14     -4.56      0.00
  -28    0   14      1.37      0.00
  -26    0   14     -8.38      0.00
  -24    0   14     12.57      0.00
  -22    0   14     -1.61      0.00
  -20    0   14      5.26      0.00
  -18    0   14    -10.13      0.00
  -16    0   14      9.87      0.00
  -14    0   14      6.38      0.00
  -12    0   14      3.61      0.00
  -10    0   14     -8.12      0.00
   -8    0   14     -6.10      0.00
   -6    0   14     13.18      0.00
   -4    0   14      2.34      0.00
   -2    0   14      6.95      0.00
    0    0   14     -8.26      0.00
    2    0   14      6.56      0.00
    4    0   14      3.71      0.00
    6    0   14      5.99      0.00
    8    0   14     -7.50      0.00
   10    0   14      0.97      0.00
   12    0   14      1.29      0.00
   14    0   14     -5.71      0.00
  -33    1   14     -2.25      0.00
  -31    1   14     -0.24      0.00
  -29    1   14      0.06      0.00
  -27    1   14     -4.25      0.00
  -25    1   14      4.99      0.00
  -23    1   14      3.42      0.00
  -21    1   14      0.38      0.00
  -19    1   14     -2.47      0.00
  -17    1   14      0.75      0.00
  -15    1   14      7.75      0.00
  -13    1   14      2.38      0.00
  -11    1   14     -3.66      0.00
   -9    1   14     -5.81      0.00
   -7    1   14      3.39      0.00
   -5    1   14      4.74      0.00
   -3    1   14      3.44      0.00
   -1    1   14     -2.74      0.00
    1    1   14      4.65      0.00
    3    1   14      0.84      0.00
    5    1   14      1.22      0.00
    7    1   14     -0.04      0.00
    9    1   14     -0.37      0.00
   11    1   14     -0.10      0.00
   13    1   14     -1.47      0.00
  -32    2   14     -5.94      0.00
  -30    2   14      1.17      0.00
  -28    2   14     -2.27      0.00
  -26    2   14      7.51      0.00
  -24    2   14     -3.81      0.00
  -22    2   14      6.50      0.00
  -20    2   14     -6.71      0.00
  -18    2   14      2.15      0.00
  -16    2   14     -2.29      0.00
  -14    2   14      8.33      0.00
  -12    2   14     -3.43      0.00
  -10    2   14     -7.23      0.00
   -8    2   14     -3.07      0.00
   -6    2   14      0.73      0.00
   -4    2   14      7.21      0.00
   -2    2   14     -8.58      0.00
    0    2   14      5.84      0.00
    2    2   14     -2.85      0.00
    4    2   14      0.23      0.00
    6    2   14      0.09      0.00
    8    2   14     -1.22      0.00
   10    2   14      0.06      0.00
   12    2   14     -2.57      0.00
   14    2   14      0.88      0.00
  -31    3   14     -3.32      0.00
  -29    3   14     -1.63      0.00
  -27    3   14      7.20      0.00
  -25    3   14     -3.81      0.00
  -23    3   14      5.80      0.00
  -21    3   14     -4.75      0.00
  -19    3   14     -1.24      0.00
  -17    3   14     -2.09      0.00
  -15    3   14     -0.57      0.00
  -13    3   14      4.78      0.00
  -11    3   14     -7.17      0.00
   -9    3   14     -5.87      0.00
   -7    3   14     -3.97      0.00
   -5    3   14      2.00      0.00
   -3    3   14     -3.79      0.00
   -1    3   14      5.87      0.00
    1    3   14     -7.50      0.00
    3    3   14     -1.42      0.00
    5    3   14      0.75      0.00
    7    3   14      2.73      0.00
    9    3   14     -5.56      0.00
   11    3   14     -1.10      0.00
   13    3   14      1.02      0.00
  -32    4   14      3.81      0.00
  -30    4   14     -1.77      0.00
  -28    4   14      0.70      0.00
  -26    4   14      0.52      0.00
  -24    4   14      5.05      0.00
  -22    4   14     -5.46      0.00
  -20    4   14     -1.85      0.00
  -18    4   14     -0.48      0.00
  -16    4   14      0.18      0.00
  -14    4   14     -3.41      0.00
  -12    4   14      1.20      0.00
  -10    4   14     -6.34      0.00
   -8    4   14      0.01      0.00
   -6    4   14     -4.89      0.00
   -4    4   14     -5.89      0.00
   -2    4   14      6.79      0.00
    0    4   14     -0.35      0.00
    2    4   14     -2.07      0.00
    4    4   14     -1.26      0.00
    6    4   14     -1.22      0.00
    8    4   14      5.63      0.00
   10    4   14     -7.97      0.00
   12    4   14      4.93      0.00
  -31    5   14      2.60      0.00
  -29    5   14     -1.90      0.00
  -27    5   14     -2.30      0.00
  -25    5   14      7.59      0.00
  -23    5   14     -8.08      0.00
  -21    5   14      4.94      0.00
  -19    5   14     -4.80      0.00
  -17    5   14      0.09      0.00
  -15    5   14     -0.71      0.00
  -13    5   14     -0.61      0.00
  -11    5   14      3.37      0.00
   -9    5   14     -7.85      0.00
   -7    5   14     -0.54      0.00
   -5    5   14     -2.90      0.00
   -3    5   14      4.26      0.00
   -1    5   14     -0.80      0.00
    1    5   14      3.68      0.00
    3    5   14      0.16      0.00
    5    5   14      4.40      0.00
    7    5   14     -0.93      0.00
    9    5   14      0.46      0.00
   11    5   14     -0.57      0.00
   13    5   14      3.35      0.00
  -30    6   14     -1.66      0.00
  -28    6   14     -0.86      0.00
  -26    6   14     -0.42      0.00
  -24    6   14      1.51      0.00
  -22    6   14     -0.66      0.00
  -20    6   14      0.72      0.00
  -18    6   14     -1.62      0.00
  -16    6   14      1.88      0.00
  -14    6   14     -3.02      0.00
  -12    6   14      2.36      0.00
  -10    6   14      4.27      0.00
   -8    6   14     -7.51      0.00
   -6    6   14      0.28      0.00
   -4    6   14     -0.83      0.00
   -2    6   14      6.15      0.00
    0    6   14      2.52      0.00
    2    6   14      4.36      0.00
    4    6   14      2.25      0.00
    6    6   14      4.78      0.00
    8    6   14     -1.29      0.00
   10    6   14      2.18      0.00
   12    6   14      0.79      0.00
  -29    7   14     -2.19      0.00
  -27    7   14     -0.70      0.00
  -25    7   14      0.33      0.00
  -23    7   14      5.27      0.00
  -21    7   14     -4.28      0.00
  -19    7   14      1.27      0.00
  -17    7   14      0.84      0.00
  -15    7   14      1.09      0.00
  -13    7   14     -0.38      0.00
  -11    7   14      0.73      0.00
   -9    7   14      2.16      0.00
   -7    7   14     -4.91      0.00
   -5    7   14      0.36      0.00
   -3    7   14      2.95      0.00
   -1    7   14      1.55      0.00
    1    7   14      6.25      0.00
    3    7   14      4.74      0.00
    5    7   14      2.43      0.00
    7    7   14     -0.60      0.00
    9    7   14      0.14      0.00
   11    7   14      2.04      0.00
  -30    8   14      0.46      0.00
  -28    8   14     -3.51      0.00
  -26    8   14      2.50      0.00
  -24    8   14     -1.88      0.00
  -22    8   14      6.99      0.00
  -20    8   14     -3.81      0.00
  -18    8   14     -0.83      0.00
  -16    8   14     -2.12      0.00
  -14    8   14      8.28      0.00
  -12    8   14     -3.58      0.00
  -10    8   14     -1.01      0.00
   -8    8   14      1.18      0.00
   -6    8   14     -5.46      0.00
   -4    8   14      3.84      0.00
   -2    8   14     -1.17      0.00
    0    8   14      4.82      0.00
    2    8   14      0.36      0.00
    4    8   14      3.66      0.00
    6    8   14      1.65      0.00
    8    8   14     -5.15      0.00
   10    8   14      1.07      0.00
  -29    9   14      0.19      0.00
  -27    9   14      1.17      0.00
  -25    9   14     -2.09      0.00
  -23    9   14      2.84      0.00
  -21    9   14      0.70      0.00
  -19    9   14     -1.58      0.00
  -17    9   14     -3.66      0.00
  -15    9   14      2.44      0.00
  -13    9   14      4.67      0.00
  -11    9   14     -3.82      0.00
   -9    9   14      0.64      0.00
   -7    9   14     -1.92      0.00
   -5    9   14     -1.60      0.00
   -3    9   14     -4.38      0.00
   -1    9   14      6.32      0.00
    1    9   14     -2.16      0.00
    3    9   14      2.24      0.00
    5    9   14     -5.27      0.00
    7    9   14      0.54      0.00
    9    9   14     -3.14      0.00
  -28   10   14      2.95      0.00
  -26   10   14     -1.07      0.00
  -24   10   14      1.68      0.00
  -22   10   14     -4.06      0.00
  -20   10   14      3.23      0.00
  -18   10   14     -5.86      0.00
  -16   10   14      1.21      0.00
  -14   10   14      1.10      0.00
  -12   10   14      4.78      0.00
  -10   10   14     -2.80      0.00
   -8   10   14     -3.63      0.00
   -6   10   14      2.04      0.00
   -4   10   14     -2.80      0.00
   -2   10   14     -2.15      0.00
    0   10   14     -0.27      0.00
    2   10   14      0.78      0.00
    4   10   14     -1.50      0.00
    6   10   14     -5.82      0.00
    8   10   14     -1.23      0.00
  -27   11   14      0.84      0.00
  -25   11   14     -1.80      0.00
  -23   11   14     -2.58      0.00
  -21   11   14      2.60      0.00
  -19   11   14     -4.36      0.00
  -17   11   14     -1.90      0.00
  -15   11   14      2.72      0.00
  -13   11   14      1.00      0.00
  -11   11   14      1.83      0.00
   -9   11   14     -0.28      0.00
   -7   11   14     -1.58      0.00
   -5   11   14     -2.89      0.00
   -3   11   14      0.41      0.00
   -1   11   14     -1.11      0.00
    1   11   14      2.74      0.00
    3   11   14     -8.61      0.00
    5   11   14      3.98      0.00
    7   11   14     -4.25      0.00
  -24   12   14     -2.68      0.00
  -22   12   14      0.78      0.00
  -20   12   14     -1.80      0.00
  -18   12   14      0.30      0.00
  -16   12   14     -2.76      0.00
  -14   12   14      3.15      0.00
  -12   12   14      0.54      0.00
  -10   12   14      1.57      0.00
   -8   12   14     -0.89      0.00
   -6   12   14     -3.03      0.00
   -4   12   14     -0.10      0.00
   -2   12   14      3.32      0.00
    0   12   14     -3.04      0.00
    2   12   14      0.13      0.00
    4   12   14     -2.31      0.00
    6   12   14      2.64      0.00
  -23   13   14     -1.34      0.00
  -21   13   14     -1.74      0.00
  -19   13   14      2.83      0.00
  -17   13   14     -2.40      0.00
  -15   13   14     -0.04      0.00
  -13   13   14      1.33      0.00
  -11   13   14      1.30      0.00
   -9   13   14     -1.78      0.00
   -7   13   14     -1.81      0.00
   -5   13   14     -0.78      0.00
   -3   13   14      3.98      0.00
   -1   13   14      1.60      0.00
    1   13   14     -6.59      0.00
    3   13   14      4.39      0.00
    5   13   14      0.46      0.00
  -20   14   14      0.67      0.00
  -18   14   14     -1.76      0.00
  -16   14   14      2.21      0.00
  -14   14   14      0.05      0.00
  -12   14   14     -1.26      0.00
  -10   14   14     -2.29      0.00
   -8   14   14      2.12      0.00
   -6   14   14     -2.12      0.00
   -4   14   14     -0.52      0.00
   -2   14   14      2.52      0.00
    0   14   14      4.06      0.00
    2   14   14     -6.15      0.00
  -17   15   14      0.79      0.00
  -15   15   14      0.07      0.00
  -13   15   14      2.33      0.00
  -11   15   14     -3.80      0.00
   -9   15   14     -1.39      0.00
   -7   15   14      0.69      0.00
   -5   15   14      1.08      0.00
   -3   15   14     -0.75      0.00
   -1   15   14      1.78      0.00
  -14   16   14      0.02      0.00
  -12   16   14      0.45      0.00
  -10   16   14     -1.83      0.00
   -8   16   14      0.37      0.00
   -6   16   14     -0.87      0.00
  -31    1   15      5.74      0.00
  -29    1   15      1.24      0.00
  -27    1   15     -0.53      0.00
  -25    1   15     -6.97      0.00
  -23    1   15      1.78      0.00
  -21    1   15      0.90      0.00
  -19    1   15     -0.46      0.00
  -17    1   15      2.28      0.00
  -15    1   15     -5.04      0.00
  -13    1   15      7.65      0.00
  -11    1   15     -3.88      0.00
   -9    1   15     10.05      0.00
   -7    1   15     -7.58      0.00
   -5    1   15      9.56      0.00
   -3    1   15     -0.03      0.00
   -1    1   15      6.39      0.00
    1    1   15     -8.58      0.00
    3    1   15     -2.64      0.00
    5    1   15     -2.05      0.00
    7    1   15     -1.83      0.00
    9    1   15     -6.43      0.00
   11    1   15     -3.90      0.00
  -32    2   15     -1.79      0.00
  -30    2   15      8.22      0.00
  -28    2   15     -0.31      0.00
  -26    2   15     -5.56      0.00
  -24    2   15     -2.86      0.00
  -22    2   15      1.08      0.00
  -20    2   15     -1.51      0.00
  -18    2   15     -0.53      0.00
  -16    2   15      2.08      0.00
  -14    2   15      1.76      0.00
  -12    2   15      0.27      0.00
  -10    2   15      4.51      0.00
   -8    2   15      3.87      0.00
   -6    2   15      1.87      0.00
   -4    2   15      4.89      0.00
   -2    2   15      9.15      0.00
    0    2   15    -14.49      0.00
    2    2   15      0.51      0.00
    4    2   15     -9.85      0.00
    6    2   15     -0.28      0.00
    8    2   15    -14.32      0.00
   10    2   15     -2.00      0.00
   12    2   15    -11.57      0.00
  -31    3   15      0.37      0.00
  -29    3   15      6.38      0.00
  -27    3   15     -2.40      0.00
  -25    3   15     -3.46      0.00
  -23    3   15     -2.69      0.00
  -21    3   15     -0.49      0.00
  -19    3   15      0.37      0.00
  -17    3   15     -5.08      0.00
  -15    3   15      5.58      0.00
  -13    3   15     -1.30      0.00
  -11    3   15      8.56      0.00
   -9    3   15     -0.31      0.00
   -7    3   15      3.19      0.00
   -5    3   15     -5.00      0.00
   -3    3   15     20.64      0.00
   -1    3   15    -11.15      0.00
    1    3   15    -14.62      0.00
    3    3   15     -5.78      0.00
    5    3   15    -10.49      0.00
    7    3   15      2.93      0.00
    9    3   15    -15.96      0.00
   11    3   15    -10.24      0.00
  -30    4   15     -1.92      0.00
  -28    4   15      8.52      0.00
  -26    4   15     -4.23      0.00
  -24    4   15     -3.29      0.00
  -22    4   15      1.52      0.00
  -20    4   15     -4.46      0.00
  -18    4   15     -3.80      0.00
  -16    4   15      4.15      0.00
  -14    4   15     -2.66      0.00
  -12    4   15      7.42      0.00
  -10    4   15      0.98      0.00
   -8    4   15      2.30      0.00
   -6    4   15     -3.94      0.00
   -4    4   15      9.04      0.00
   -2    4   15     -2.17      0.00
    0    4   15     -2.98      0.00
    2    4   15    -29.16      0.00
    4    4   15      3.64      0.00
    6    4   15    -11.70      0.00
    8    4   15      4.13      0.00
   10    4   15    -18.44      0.00
  -31    5   15      3.41      0.00
  -29    5   15      1.37      0.00
  -27    5   15      3.24      0.00
  -25    5   15     -0.52      0.00
  -23    5   15     -1.16      0.00
  -21    5   15      0.21      0.00
  -19    5   15     -9.22      0.00
  -17    5   15      6.33      0.00
  -15    5   15     -3.81      0.00
  -13    5   15      3.88      0.00
  -11    5   15      4.46      0.00
   -9    5   15      0.61      0.00
   -7    5   15     -4.90      0.00
   -5    5   15      8.64      0.00
   -3    5   15      2.54      0.00
   -1    5   15     -3.75      0.00
    1    5   15    -14.44      0.00
    3    5   15    -17.09      0.00
    5    5   15      9.99      0.00
    7    5   15    -15.17      0.00
    9    5   15      2.64      0.00
   11    5   15     -8.70      0.00
  -30    6   15      5.17      0.00
  -28    6   15     -2.33      0.00
  -26    6   15      6.89      0.00
  -24    6   15     -1.93      0.00
  -22    6   15     -1.04      0.00
  -20    6   15     -1.30      0.00
  -18    6   15      2.21      0.00
  -16    6   15     -4.92      0.00
  -14    6   15      5.67      0.00
  -12    6   15     -3.98      0.00
  -10    6   15     13.56      0.00
   -8    6   15    -10.79      0.00
   -6    6   15      4.82      0.00
   -4    6   15      9.50      0.00
   -2    6   15      7.78      0.00
    0    6   15    -16.90      0.00
    2    6   15     -1.04      0.00
    4    6   15     -8.08      0.00
    6    6   15      3.13      0.00
    8    6   15     -8.14      0.00
   10    6   15      4.72      0.00
  -29    7   15      1.24      0.00
  -27    7   15      1.85      0.00
  -25    7   15      1.77      0.00
  -23    7   15      2.14      0.00
  -21    7   15     -4.31      0.00
  -19    7   15      6.49      0.00
  -17    7   15     -2.77      0.00
  -15    7   15      5.01      0.00
  -13    7   15     -5.66      0.00
  -11    7   15      4.31      0.00
   -9    7   15      6.29      0.00
   -7    7   15     -5.63      0.00
   -5    7   15     16.33      0.00
   -3    7   15      4.61      0.00
   -1    7   15      3.67      0.00
    1    7   15     -7.72      0.00
    3    7   15     10.69      0.00
    5    7   15     -9.83      0.00
    7    7   15     -4.18      0.00
    9    7   15      2.98      0.00
  -28    8   15      1.81      0.00
  -26    8   15     -2.52      0.00
  -24    8   15      5.85      0.00
  -22    8   15     -3.40      0.00
  -20    8   15      4.66      0.00
  -18    8   15      0.87      0.00
  -16    8   15      5.40      0.00
  -14    8   15     -6.28      0.00
  -12    8   15      6.26      0.00
  -10    8   15     -2.61      0.00
   -8    8   15      6.72      0.00
   -6    8   15      2.52      0.00
   -4    8   15     15.41      0.00
   -2    8   15      6.52      0.00
    0    8   15     -2.07      0.00
    2    8   15     10.57      0.00
    4    8   15     -0.53      0.00
    6    8   15     -5.74      0.00
    8    8   15     -5.41      0.00
  -27    9   15      0.21      0.00
  -25    9   15     -2.85      0.00
  -23    9   15      0.19      0.00
  -21    9   15      4.16      0.00
  -19    9   15      0.40      0.00
  -17    9   15      5.66      0.00
  -15    9   15     -1.85      0.00
  -13    9   15      1.83      0.00
  -11    9   15      0.40      0.00
   -9    9   15     -0.80      0.00
   -7    9   15     11.99      0.00
   -5    9   15     -0.70      0.00
   -3    9   15     15.48      0.00
   -1    9   15     -1.76      0.00
    1    9   15     13.07      0.00
    3    9   15      1.43      0.00
    5    9   15     -7.51      0.00
    7    9   15     -1.42      0.00
  -26   10   15     -1.97      0.00
  -24   10   15     -4.19      0.00
  -22   10   15      3.61      0.00
  -20   10   15     -0.78      0.00
  -18   10   15      4.65      0.00
  -16   10   15      1.22      0.00
  -14   10   15      1.44      0.00
  -12   10   15     -1.21      0.00
  -10   10   15      4.14      0.00
   -8   10   15     -0.94      0.00
   -6   10   15      5.23      0.00
   -4   10   15      7.09      0.00
   -2   10   15     -1.37      0.00
    0   10   15     13.17      0.00
    2   10   15     -6.00      0.00
    4   10   15      7.81      0.00
    6   10   15    -14.01      0.00
  -25   11   15     -1.35      0.00
  -23   11   15     -1.95      0.00
  -21   11   15      1.18      0.00
  -19   11   15      1.35      0.00
  -17   11   15      1.42      0.00
  -15   11   15      1.35      0.00
  -13   11   15      1.15      0.00
  -11   11   15      1.29      0.00
   -9   11   15      1.92      0.00
   -7   11   15     -4.95      0.00
   -5   11   15      5.06      0.00
   -3   11   15      1.20      0.00
   -1   11   15      3.87      0.00
    1   11   15     -2.06      0.00
    3   11   15     -1.97      0.00
    5   11   15      1.00      0.00
  -22   12   15      0.63      0.00
  -20   12   15      2.85      0.00
  -18   12   15     -2.42      0.00
  -16   12   15      1.39      0.00
  -14   12   15      2.71      0.00
  -12   12   15     -0.94      0.00
  -10   12   15     -1.74      0.00
   -8   12   15      0.45      0.00
   -6   12   15     -2.88      0.00
   -4   12   15     -3.45      0.00
   -2   12   15      5.31      0.00
    0   12   15     -8.00      0.00
    2   12   15      6.32      0.00
  -21   13   15      2.09      0.00
  -19   13   15      2.05      0.00
  -17   13   15     -2.34      0.00
  -15   13   15     -0.26      0.00
  -13   13   15     -0.07      0.00
  -11   13   15     -1.58      0.00
   -9   13   15     -1.50      0.00
   -7   13   15     -5.67      0.00
   -5   13   15     -2.98      0.00
   -3   13   15     -1.16      0.00
   -1   13   15      0.94      0.00
    1   13   15     -7.30      0.00
  -18   14   15      0.81      0.00
  -16   14   15     -1.62      0.00
  -14   14   15     -3.64      0.00
  -12   14   15      0.28      0.00
  -10   14   15     -5.45      0.00
   -8   14   15     -1.96      0.00
   -6   14   15     -4.85      0.00
   -4   14   15     -3.67      0.00
   -2   14   15     -2.18      0.00
  -13   15   15     -2.05      0.00
  -11   15   15     -1.92      0.00
   -9   15   15     -8.48      0.00
   -7   15   15      2.53      0.00
  -30    0   16      1.33      0.00
  -28    0   16     -6.96      0.00
  -26    0   16      5.37      0.00
  -24    0   16      0.24      0.00
  -22    0   16      4.19      0.00
  -20    0   16     -4.43      0.00
  -18    0   16     -1.49      0.00
  -16    0   16      1.26      0.00
  -14    0   16     -0.38      0.00
  -12    0   16     -2.10      0.00
  -10    0   16     -2.99      0.00
   -8    0   16      3.27      0.00
   -6    0   16     -8.17      0.00
   -4    0   16      1.46      0.00
   -2    0   16     -4.81      0.00
    0    0   16      0.69      0.00
    2    0   16      3.24      0.00
    4    0   16     -0.10      0.00
    6    0   16      6.77      0.00
    8    0   16     -3.50      0.00
  -31    1   16      0.53      0.00
  -29    1   16     -1.97      0.00
  -27    1   16     -0.51      0.00
  -25    1   16      2.11      0.00
  -23    1   16      2.35      0.00
  -21    1   16     -2.35      0.00
  -19    1   16      0.18      0.00
  -17    1   16     -0.54      0.00
  -15    1   16      0.55      0.00
  -13    1   16     -4.67      0.00
  -11    1   16      2.66      0.00
   -9    1   16     -0.39      0.00
   -7    1   16      0.15      0.00
   -5    1   16     -6.91      0.00
   -3    1   16      0.62      0.00
   -1    1   16     -2.08      0.00
    1    1   16      6.76      0.00
    3    1   16     -3.15      0.00
    5    1   16      4.06      0.00
    7    1   16      1.42      0.00
    9    1   16      2.16      0.00
  -30    2   16     -1.70      0.00
  -28    2   16      3.23      0.00
  -26    2   16     -2.93      0.00
  -24    2   16      3.91      0.00
  -22    2   16     -3.28      0.00
  -20    2   16      0.31      0.00
  -18    2   16      0.73      0.00
  -16    2   16      0.11      0.00
  -14    2   16     -0.76      0.00
  -12    2   16     -1.87      0.00
  -10    2   16      4.71      0.00
   -8    2   16     -1.01      0.00
   -6    2   16      2.22      0.00
   -4    2   16     -4.34      0.00
   -2    2   16      0.51      0.00
    0    2   16      1.85      0.00
    2    2   16      3.49      0.00
    4    2   16      0.71      0.00
    6    2   16      1.47      0.00
    8    2   16      2.40      0.00
  -29    3   16      1.14      0.00
  -27    3   16     -0.06      0.00
  -25    3   16      1.21      0.00
  -23    3   16     -3.01      0.00
  -21    3   16      0.64      0.00
  -19    3   16     -1.55      0.00
  -17    3   16      5.22      0.00
  -15    3   16     -5.96      0.00
  -13    3   16      5.98      0.00
  -11    3   16     -4.26      0.00
   -9    3   16      9.19      0.00
   -7    3   16     -3.21      0.00
   -5    3   16      4.80      0.00
   -3    3   16     -5.43      0.00
   -1    3   16      7.05      0.00
    1    3   16     -8.48      0.00
    3    3   16     10.40      0.00
    5    3   16     -2.75      0.00
    7    3   16      3.09      0.00
    9    3   16     -1.21      0.00
  -30    4   16      0.18      0.00
  -28    4   16      1.19      0.00
  -26    4   16      2.08      0.00
  -24    4   16     -3.47      0.00
  -22    4   16     -2.42      0.00
  -20    4   16      1.74      0.00
  -18    4   16      3.00      0.00
  -16    4   16     -0.73      0.00
  -14    4   16     -3.49      0.00
  -12    4   16      4.39      0.00
  -10    4   16      1.08      0.00
   -8    4   16      4.70      0.00
   -6    4   16      0.55      0.00
   -4    4   16     -1.91      0.00
   -2    4   16     -1.43      0.00
    0    4   16      2.14      0.00
    2    4   16     -6.67      0.00
    4    4   16      8.20      0.00
    6    4   16     -6.43      0.00
    8    4   16      2.80      0.00
  -29    5   16      2.06      0.00
  -27    5   16      2.48      0.00
  -25    5   16     -2.73      0.00
  -23    5   16     -0.57      0.00
  -21    5   16     -2.39      0.00
  -19    5   16      5.35      0.00
  -17    5   16     -4.36      0.00
  -15    5   16      4.63      0.00
  -13    5   16     -7.11      0.00
  -11    5   16      9.24      0.00
   -9    5   16     -6.66      0.00
   -7    5   16      7.10      0.00
   -5    5   16     -1.44      0.00
   -3    5   16     -0.55      0.00
   -1    5   16    -10.64      0.00
    1    5   16      4.40      0.00
    3    5   16     -6.38      0.00
    5    5   16      5.18      0.00
    7    5   16     -5.70      0.00
  -28    6   16     -0.62      0.00
  -26    6   16      2.25      0.00
  -24    6   16     -2.57      0.00
  -22    6   16      1.32      0.00
  -20    6   16     -1.57      0.00
  -18    6   16      3.11      0.00
  -16    6   16     -2.73      0.00
  -14    6   16     -0.81      0.00
  -12    6   16     -2.16      0.00
  -10    6   16      5.87      0.00
   -8    6   16     -5.82      0.00
   -6    6   16      3.26      0.00
   -4    6   16     -3.87      0.00
   -2    6   16      0.60      0.00
    0    6   16    -11.61      0.00
    2    6   16      4.70      0.00
    4    6   16     -7.91      0.00
    6    6   16      6.78      0.00
  -27    7   16      2.02      0.00
  -25    7   16      2.89      0.00
  -23    7   16     -2.54      0.00
  -21    7   16      2.00      0.00
  -19    7   16     -1.83      0.00
  -17    7   16      2.03      0.00
  -15    7   16     -4.82      0.00
  -13    7   16      2.28      0.00
  -11    7   16     -4.34      0.00
   -9    7   16      4.04      0.00
   -7    7   16     -2.98      0.00
   -5    7   16      0.02      0.00
   -3    7   16     -2.70      0.00
   -1    7   16     -1.03      0.00
    1    7   16     -5.35      0.00
    3    7   16      2.87      0.00
    5    7   16     -1.58      0.00
    7    7   16     -0.55      0.00
  -26    8   16      0.45      0.00
  -24    8   16      7.02      0.00
  -22    8   16     -5.01      0.00
  -20    8   16      3.07      0.00
  -18    8   16     -3.56      0.00
  -16    8   16      1.78      0.00
  -14    8   16     -4.11      0.00
  -12    8   16      2.92      0.00
  -10    8   16     -5.84      0.00
   -8    8   16      7.77      0.00
   -6    8   16     -7.74      0.00
   -4    8   16      6.64      0.00
   -2    8   16     -5.98      0.00
    0    8   16      4.67      0.00
    2    8   16     -4.05      0.00
    4    8   16      5.80      0.00
    6    8   16     -1.95      0.00
  -25    9   16      4.55      0.00
  -23    9   16      1.93      0.00
  -21    9   16     -1.79      0.00
  -19    9   16      0.43      0.00
  -17    9   16     -0.58      0.00
  -15    9   16     -2.22      0.00
  -13    9   16     -0.04      0.00
  -11    9   16      0.01      0.00
   -9    9   16      1.95      0.00
   -7    9   16      0.12      0.00
   -5    9   16      1.38      0.00
   -3    9   16     -1.96      0.00
   -1    9   16      4.93      0.00
    1    9   16      1.33      0.00
    3    9   16      1.75      0.00
    5    9   16     -0.56      0.00
  -24   10   16     -1.31      0.00
  -22   10   16      3.64      0.00
  -20   10   16     -2.57      0.00
  -18   10   16      1.31      0.00
  -16   10   16     -2.48      0.00
  -14   10   16      2.78      0.00
  -12   10   16     -2.88      0.00
  -10   10   16      3.44      0.00
   -8   10   16     -0.96      0.00
   -6   10   16      6.66      0.00
   -4   10   16     -4.14      0.00
   -2   10   16      1.41      0.00
    0   10   16      1.84      0.00
    2   10   16      4.83      0.00
  -23   11   16      1.96      0.00
  -21   11   16     -0.92      0.00
  -19   11   16      0.01      0.00
  -17   11   16      1.18      0.00
  -15   11   16      1.50      0.00
  -13   11   16     -3.39      0.00
  -11   11   16      4.07      0.00
   -9   11   16      2.22      0.00
   -7   11   16      2.70      0.00
   -5   11   16     -5.06      0.00
   -3   11   16      5.45      0.00
   -1   11   16     -3.57      0.00
    1   11   16      2.93      0.00
  -20   12   16     -0.45      0.00
  -18   12   16     -0.29      0.00
  -16   12   16      3.09      0.00
  -14   12   16      0.08      0.00
  -12   12   16     -0.25      0.00
  -10   12   16      3.98      0.00
   -8   12   16      1.25      0.00
   -6   12   16     -2.68      0.00
   -4   12   16      0.00      0.00
   -2   12   16      1.02      0.00
    0   12   16     -3.61      0.00
  -17   13   16      0.81      0.00
  -15   13   16      1.24      0.00
  -13   13   16      3.97      0.00
  -11   13   16     -1.82      0.00
   -9   13   16      1.88      0.00
   -7   13   16     -2.04      0.00
   -5   13   16     -0.56      0.00
   -3   13   16     -0.03      0.00
  -12   14   16      4.36      0.00
  -10   14   16     -4.69      0.00
  -29    1   17      3.95      0.00
  -27    1   17     -1.37      0.00
  -25    1   17      0.05      0.00
  -23    1   17      2.07      0.00
  -21    1   17     -0.97      0.00
  -19    1   17      1.11      0.00
  -17    1   17     -4.02      0.00
  -15    1   17      2.10      0.00
  -13    1   17     -0.13      0.00
  -11    1   17      0.21      0.00
   -9    1   17     -3.25      0.00
   -7    1   17     -2.51      0.00
   -5    1   17     -1.21      0.00
   -3    1   17      1.16      0.00
   -1    1   17      4.83      0.00
    1    1   17     -5.79      0.00
    3    1   17      6.10      0.00
    5    1   17     -0.77      0.00
    7    1   17      1.70      0.00
  -28    2   17      4.43      0.00
  -26    2   17     -2.83      0.00
  -24    2   17      1.76      0.00
  -22    2   17      1.33      0.00
  -20    2   17     -1.05      0.00
  -18    2   17     -2.29      0.00
  -16    2   17      0.47      0.00
  -14    2   17      0.12      0.00
  -12    2   17     -1.68      0.00
  -10    2   17     -0.36      0.00
   -8    2   17     -2.92      0.00
   -6    2   17     -4.73      0.00
   -4    2   17      2.37      0.00
   -2    2   17      3.35      0.00
    0    2   17      2.26      0.00
    2    2   17      1.12      0.00
    4    2   17      4.00      0.00
    6    2   17     -0.84      0.00
  -29    3   17      3.20      0.00
  -27    3   17      1.54      0.00
  -25    3   17     -2.44      0.00
  -23    3   17      2.09      0.00
  -21    3   17      3.00      0.00
  -19    3   17     -6.01      0.00
  -17    3   17      1.56      0.00
  -15    3   17     -1.75      0.00
  -13    3   17      1.72      0.00
  -11    3   17     -2.11      0.00
   -9    3   17     -0.06      0.00
   -7    3   17     -5.20      0.00
   -5    3   17     -1.36      0.00
   -3    3   17      7.18      0.00
   -1    3   17      7.00      0.00
    1    3   17      0.71      0.00
    3    3   17     -2.50      0.00
    5    3   17      8.01      0.00
  -28    4   17     -2.92      0.00
  -26    4   17      2.34      0.00
  -24    4   17     -2.89      0.00
  -22    4   17      3.70      0.00
  -20    4   17     -1.81      0.00
  -18    4   17     -0.20      0.00
  -16    4   17     -1.23      0.00
  -14    4   17      0.72      0.00
  -12    4   17     -1.79      0.00
  -10    4   17      0.23      0.00
   -8    4   17      1.16      0.00
   -6    4   17     -5.54      0.00
   -4    4   17     -0.21      0.00
   -2    4   17     15.62      0.00
    0    4   17      2.28      0.00
    2    4   17     -0.39      0.00
    4    4   17     -3.03      0.00
    6    4   17      9.87      0.00
  -27    5   17      0.37      0.00
  -25    5   17     -0.96      0.00
  -23    5   17     -0.18      0.00
  -21    5   17     -0.24      0.00
  -19    5   17      2.93      0.00
  -17    5   17     -2.19      0.00
  -15    5   17      1.44      0.00
  -13    5   17     -2.63      0.00
  -11    5   17      0.85      0.00
   -9    5   17      0.59      0.00
   -7    5   17     -4.06      0.00
   -5    5   17     -3.16      0.00
   -3    5   17      8.97      0.00
   -1    5   17      6.54      0.00
    1    5   17     -0.52      0.00
    3    5   17      0.97      0.00
    5    5   17      0.28      0.00
  -26    6   17     -5.23      0.00
  -24    6   17      1.94      0.00
  -22    6   17     -2.32      0.00
  -20    6   17      3.53      0.00
  -18    6   17     -1.54      0.00
  -16    6   17      5.21      0.00
  -14    6   17     -6.02      0.00
  -12    6   17      1.28      0.00
  -10    6   17      1.58      0.00
   -8    6   17     -5.56      0.00
   -6    6   17     -5.92      0.00
   -4    6   17      2.83      0.00
   -2    6   17      5.99      0.00
    0    6   17     -0.24      0.00
    2    6   17     -2.22      0.00
    4    6   17      7.37      0.00
  -25    7   17     -1.73      0.00
  -23    7   17     -1.62      0.00
  -21    7   17      1.03      0.00
  -19    7   17      0.28      0.00
  -17    7   17      3.52      0.00
  -15    7   17      0.53      0.00
  -13    7   17     -4.86      0.00
  -11    7   17      0.83      0.00
   -9    7   17     -1.41      0.00
   -7    7   17     -6.32      0.00
   -5    7   17     -5.80      0.00
   -3    7   17      3.36      0.00
   -1    7   17     -1.71      0.00
    1    7   17     -0.23      0.00
    3    7   17      5.33      0.00
  -24    8   17     -5.06      0.00
  -22    8   17      1.47      0.00
  -20    8   17     -1.96      0.00
  -18    8   17      3.27      0.00
  -16    8   17     -1.93      0.00
  -14    8   17      3.02      0.00
  -12    8   17     -4.97      0.00
  -10    8   17     -0.59      0.00
   -8    8   17     -3.48      0.00
   -6    8   17     -7.26      0.00
   -4    8   17      2.30      0.00
   -2    8   17     -7.23      0.00
    0    8   17      2.55      0.00
    2    8   17      0.27      0.00
  -23    9   17     -2.03      0.00
  -21    9   17     -1.34      0.00
  -19    9   17     -2.12      0.00
  -17    9   17      2.78      0.00
  -15    9   17     -2.28      0.00
  -13    9   17      0.47      0.00
  -11    9   17     -4.44      0.00
   -9    9   17      2.82      0.00
   -7    9   17     -5.86      0.00
   -5    9   17     -0.42      0.00
   -3    9   17     -5.43      0.00
   -1    9   17      1.35      0.00
    1    9   17      1.59      0.00
  -22   10   17     -4.13      0.00
  -20   10   17     -0.52      0.00
  -18   10   17     -1.21      0.00
  -16   10   17     -1.56      0.00
  -14   10   17     -1.57      0.00
  -12   10   17      1.46      0.00
  -10   10   17     -0.50      0.00
   -8   10   17     -0.02      0.00
   -6   10   17      0.32      0.00
   -4   10   17     -4.05      0.00
   -2   10   17      4.44      0.00
    0   10   17     -5.90      0.00
  -19   11   17      2.17      0.00
  -17   11   17     -5.86      0.00
  -15   11   17      0.96      0.00
  -13   11   17     -1.42      0.00
  -11   11   17      6.01      0.00
   -9   11   17     -3.05      0.00
   -7   11   17      3.79      0.00
   -5   11   17     -1.42      0.00
   -3   11   17      3.52      0.00
  -16   12   17      0.12      0.00
  -14   12   17     -1.22      0.00
  -12   12   17      2.09      0.00
  -10   12   17      3.85      0.00
   -8   12   17      2.39      0.00
   -6   12   17      0.21      0.00
  -28    0   18     -4.60      0.00
  -26    0   18     -7.58      0.00
  -24    0   18      3.98      0.00
  -22    0   18     -5.84      0.00
  -20    0   18      4.07      0.00
  -18    0   18     -5.03      0.00
  -16    0   18      2.60      0.00
  -14    0   18     -5.19      0.00
  -12    0   18     -0.85      0.00
  -10    0   18     -6.03      0.00
   -8    0   18      2.28      0.00
   -6    0   18     -1.41      0.00
   -4    0   18      0.65      0.00
   -2    0   18      0.55      0.00
    0    0   18      4.89      0.00
    2    0   18     -3.49      0.00
  -27    1   18     -5.26      0.00
  -25    1   18     -1.64      0.00
  -23    1   18      0.61      0.00
  -21    1   18     -2.00      0.00
  -19    1   18      0.62      0.00
  -17    1   18     -0.85      0.00
  -15    1   18     -4.37      0.00
  -13    1   18     -0.13      0.00
  -11    1   18     -4.74      0.00
   -9    1   18     -0.07      0.00
   -7    1   18     -1.83      0.00
   -5    1   18      0.93      0.00
   -3    1   18     -1.28      0.00
   -1    1   18      3.98      0.00
    1    1   18     -0.27      0.00
    3    1   18     -2.96      0.00
  -26    2   18      0.85      0.00
  -24    2   18     -2.40      0.00
  -22    2   18      2.35      0.00
  -20    2   18     -4.22      0.00
  -18    2   18      4.04      0.00
  -16    2   18     -5.99      0.00
  -14    2   18     -0.36      0.00
  -12    2   18     -3.39      0.00
  -10    2   18     -1.17      0.00
   -8    2   18     -1.76      0.00
   -6    2   18      1.19      0.00
   -4    2   18     -1.64      0.00
   -2    2   18      1.37      0.00
    0    2   18     -3.25      0.00
    2    2   18     -0.88      0.00
  -27    3   18     -3.60      0.00
  -25    3   18      1.49      0.00
  -23    3   18     -2.03      0.00
  -21    3   18      2.20      0.00
  -19    3   18     -1.34      0.00
  -17    3   18     -1.71      0.00
  -15    3   18      0.35      0.00
  -13    3   18     -5.36      0.00
  -11    3   18      1.85      0.00
   -9    3   18     -4.10      0.00
   -7    3   18      1.89      0.00
   -5    3   18     -1.65      0.00
   -3    3   18      3.53      0.00
   -1    3   18     -7.53      0.00
    1    3   18     -1.20      0.00
    3    3   18     -2.74      0.00
  -26    4   18     -4.02      0.00
  -24    4   18     -0.35      0.00
  -22    4   18      2.05      0.00
  -20    4   18      0.62      0.00
  -18    4   18     -1.35      0.00
  -16    4   18      0.41      0.00
  -14    4   18     -0.84      0.00
  -12    4   18     -2.36      0.00
  -10    4   18      0.02      0.00
   -8    4   18     -2.14      0.00
   -6    4   18      2.31      0.00
   -4    4   18     -0.06      0.00
   -2    4   18     -2.40      0.00
    0    4   18     -3.27      0.00
    2    4   18     -0.03      0.00
  -25    5   18     -5.12      0.00
  -23    5   18      2.83      0.00
  -21    5   18     -0.78      0.00
  -19    5   18      2.79      0.00
  -17    5   18      1.27      0.00
  -15    5   18     -0.42      0.00
  -13    5   18      1.35      0.00
  -11    5   18     -3.93      0.00
   -9    5   18     -1.49      0.00
   -7    5   18      1.94      0.00
   -5    5   18      1.89      0.00
   -3    5   18     -4.66      0.00
   -1    5   18      2.87      0.00
    1    5   18     -5.50      0.00
  -24    6   18      0.64      0.00
  -22    6   18     -3.37      0.00
  -20    6   18      7.25      0.00
  -18    6   18     -0.97      0.00
  -16    6   18      5.58      0.00
  -14    6   18     -3.73      0.00
  -12    6   18      2.81      0.00
  -10    6   18     -5.91      0.00
   -8    6   18      3.23      0.00
   -6    6   18     -5.70      0.00
   -4    6   18      4.11      0.00
   -2    6   18     -2.41      0.00
    0    6   18      2.78      0.00
  -23    7   18     -1.44      0.00
  -21    7   18      2.86      0.00
  -19    7   18      1.32      0.00
  -17    7   18      5.11      0.00
  -15    7   18      1.98      0.00
  -13    7   18     -2.95      0.00
  -11    7   18     -2.42      0.00
   -9    7   18      1.50      0.00
   -7    7   18     -4.42      0.00
   -5    7   18     -1.82      0.00
   -3    7   18      0.91      0.00
   -1    7   18     -0.15      0.00
  -22    8   18      4.29      0.00
  -20    8   18     -3.21      0.00
  -18    8   18      9.50      0.00
  -16    8   18     -3.52      0.00
  -14    8   18      4.70      0.00
  -12    8   18     -8.43      0.00
  -10    8   18      6.72      0.00
   -8    8   18     -8.56      0.00
   -6    8   18      2.54      0.00
   -4    8   18     -5.38      0.00
   -2    8   18      4.32      0.00
  -21    9   18     -1.00      0.00
  -19    9   18      3.59      0.00
  -17    9   18      0.46      0.00
  -15    9   18      0.53      0.00
  -13    9   18     -2.47      0.00
  -11    9   18      1.78      0.00
   -9    9   18     -1.39      0.00
   -7    9   18     -1.76      0.00
   -5    9   18     -0.97      0.00
   -3    9   18      2.74      0.00
  -18   10   18     -2.01      0.00
  -16   10   18      5.59      0.00
  -14   10   18     -6.70      0.00
  -12   10   18      4.78      0.00
  -10   10   18     -3.52      0.00
   -8   10   18      5.16      0.00
   -6   10   18     -2.18      0.00
  -25    1   19     -0.22      0.00
  -23    1   19     -0.29      0.00
  -21    1   19     -0.39      0.00
  -19    1   19      1.42      0.00
  -17    1   19     -4.03      0.00
  -15    1   19      3.36      0.00
  -13    1   19     -4.86      0.00
  -11    1   19      2.56      0.00
   -9    1   19     -3.43      0.00
   -7    1   19      3.83      0.00
   -5    1   19     -2.38      0.00
   -3    1   19      6.26      0.00
   -1    1   19     -5.70      0.00
  -24    2   19     -1.89      0.00
  -22    2   19      2.71      0.00
  -20    2   19     -3.95      0.00
  -18    2   19      2.08      0.00
  -16    2   19     -1.62      0.00
  -14    2   19     -1.93      0.00
  -12    2   19     -2.80      0.00
  -10    2   19      1.47      0.00
   -8    2   19     -2.55      0.00
   -6    2   19      3.80      0.00
   -4    2   19     -0.21      0.00
   -2    2   19      1.90      0.00
  -23    3   19      0.64      0.00
  -21    3   19     -2.09      0.00
  -19    3   19     -2.16      0.00
  -17    3   19      3.58      0.00
  -15    3   19     -3.45      0.00
  -13    3   19     -1.64      0.00
  -11    3   19     -2.69      0.00
   -9    3   19      1.58      0.00
   -7    3   19     -2.30      0.00
   -5    3   19      2.44      0.00
   -3    3   19     -0.96      0.00
   -1    3   19      3.15      0.00
  -24    4   19      3.53      0.00
  -22    4   19     -5.70      0.00
  -20    4   19      3.91      0.00
  -18    4   19     -4.32      0.00
  -16    4   19      4.55      0.00
  -14    4   19     -4.35      0.00
  -12    4   19     -0.84      0.00
  -10    4   19     -1.01      0.00
   -8    4   19      1.92      0.00
   -6    4   19     -5.36      0.00
   -4    4   19      2.93      0.00
   -2    4   19     -0.39      0.00
  -23    5   19     -1.58      0.00
  -21    5   19      1.48      0.00
  -19    5   19     -0.40      0.00
  -17    5   19     -2.41      0.00
  -15    5   19      4.25      0.00
  -13    5   19     -3.55      0.00
  -11    5   19      2.27      0.00
   -9    5   19     -2.28      0.00
   -7    5   19     -1.73      0.00
   -5    5   19      0.41      0.00
   -3    5   19      1.42      0.00
  -22    6   19      4.31      0.00
  -20    6   19     -3.13      0.00
  -18    6   19      3.87      0.00
  -16    6   19     -4.48      0.00
  -14    6   19      4.15      0.00
  -12    6   19      0.49      0.00
  -10    6   19      0.36      0.00
   -8    6   19     -3.37      0.00
   -6    6   19     -0.08      0.00
   -4    6   19      3.81      0.00
  -19    7   19     -0.95      0.00
  -17    7   19      1.07      0.00
  -15    7   19     -4.38      0.00
  -13    7   19      7.71      0.00
  -11    7   19     -2.36      0.00
   -9    7   19     -0.94      0.00
   -7    7   19     -1.44      0.00
   -5    7   19      2.97      0.00
  -18    8   19     -3.78      0.00
  -16    8   19     -0.50      0.00
  -14    8   19      2.03      0.00
  -12    8   19      1.94      0.00
  -10    8   19     -2.78      0.00
   -8    8   19     -4.30      0.00
  -20    0   20     -6.77      0.00
  -18    0   20      6.31      0.00
  -16    0   20     -0.70      0.00
  -14    0   20      6.28      0.00
  -12    0   20     -6.28      0.00
  -10    0   20      6.84      0.00
   -8    0   20     -3.19      0.00
   -6    0   20      4.30      0.00
  -21    1   20     -0.99      0.00
  -19    1   20     -0.91      0.00
  -17    1   20      2.85      0.00
  -15    1   20      2.09      0.00
  -13    1   20      0.09      0.00
  -11    1   20      0.28      0.00
   -9    1   20      0.30      0.00
   -7    1   20      2.51      0.00
   -5    1   20     -1.13      0.00
  -20    2   20      2.93      0.00
  -18    2   20     -2.56      0.00
  -16    2   20      4.75      0.00
  -14    2   20     -4.24      0.00
  -12    2   20      5.23      0.00
  -10    2   20     -5.38      0.00
   -8    2   20      4.62      0.00
   -6    2   20     -0.11      0.00
  -19    3   20      1.37      0.00
  -17    3   20     -1.02      0.00
  -15    3   20      1.33      0.00
  -13    3   20     -0.65      0.00
  -11    3   20      0.24      0.00
   -9    3   20     -2.31      0.00
   -7    3   20      2.43      0.00
  -18    4   20     -0.56      0.00
  -16    4   20      1.43      0.00
  -14    4   20      2.29      0.00
  -12    4   20     -1.72      0.00
  -10    4   20     -1.96      0.00
   -8    4   20     -0.41      0.00
  -17    5   20      3.66      0.00
  -15    5   20      1.05      0.00
  -13    5   20      5.14      0.00
  -11    5   20     -6.18      0.00
   -9    5   20      1.07      0.00
    2    0    0   -143.02      0.00
   34    0    0     -4.71      0.00
    1    1    0    456.42      0.00
    3    1    0     10.32      0.00
    5    1    0    -96.21      0.00
   33    1    0     -0.90      0.00
   35    1    0     -4.25      0.00
    2    2    0    455.44      0.00
   34    2    0     -2.50      0.00
   33    3    0     -2.83      0.00
    0    4    0     50.57      0.00
   32    4    0     -2.75      0.00
   34    4    0     -3.00      0.00
   33    5    0     -1.51      0.00
   32    6    0     -0.21      0.00
   31    7    0      2.94      0.00
   33    7    0     -0.99      0.00
   32    8    0      1.52      0.00
   31    9    0     -3.47      0.00
   30   10    0     -0.21      0.00
   29   11    0     -4.00      0.00
   31   11    0      0.89      0.00
   28   12    0      3.89      0.00
   30   12    0     -0.95      0.00
   27   13    0     -3.99      0.00
   29   13    0      6.40      0.00
   26   14    0     -1.07      0.00
   28   14    0      3.95      0.00
   25   15    0     -6.42      0.00
   27   15    0      4.33      0.00
   24   16    0     -2.91      0.00
   26   16    0      0.52      0.00
   21   17    0     -0.38      0.00
   23   17    0     -1.15      0.00
   20   18    0      0.99      0.00
   22   18    0      1.65      0.00
   17   19    0      1.26      0.00
   19   19    0      0.90      0.00
   21   19    0      0.59      0.00
   14   20    0     -0.65      0.00
   16   20    0      1.14      0.00
   18   20    0      0.23      0.00
   11   21    0      3.95      0.00
   13   21    0     -3.55      0.00
   15   21    0      1.39      0.00
   17   21    0      0.45      0.00
    4   22    0      0.36      0.00
    6   22    0      2.11      0.00
    8   22    0      0.52      0.00
   10   22    0     -0.09      0.00
   12   22    0     -1.91      0.00
   14   22    0      0.75      0.00
    1   23    0     -3.42      0.00
    3   23    0     -1.14      0.00
    5   23    0      2.22      0.00
    7   23    0      4.50      0.00
    9   23    0     -0.66      0.00
  -35    1    1     -1.71      0.00
  -33    1    1      3.53      0.00
   -1    1    1   -155.55      0.00
    1    1    1    237.01      0.00
   33    1    1     -0.36      0.00
  -34    2    1      5.34      0.00
   32    2    1      3.11      0.00
   34    2    1     -1.27      0.00
  -35    3    1      3.78      0.00
  -33    3    1      2.03      0.00
   33    3    1     -1.31      0.00
  -34    4    1     -0.53      0.00
   32    4    1      3.07      0.00
  -33    5    1      3.52      0.00
   31    5    1     -0.31      0.00
   33    5    1      3.86      0.00
  -34    6    1      2.93      0.00
  -32    6    1     -6.33      0.00
   32    6    1     -1.58      0.00
  -33    7    1     -3.68      0.00
   31    7    1      1.02      0.00
  -32    8    1     -1.89      0.00
   30    8    1     -6.91      0.00
   32    8    1      5.67      0.00
  -33    9    1     -2.58      0.00
  -31    9    1     -1.48      0.00
   29    9    1      0.76      0.00
   31    9    1     -2.20      0.00
  -32   10    1     -1.02      0.00
  -30   10    1      1.14      0.00
   30   10    1     -1.35      0.00
  -31   11    1      0.77      0.00
  -29   11    1      0.06      0.00
   29   11    1     -2.27      0.00
  -30   12    1      3.21      0.00
  -28   12    1     -4.96      0.00
   28   12    1      1.22      0.00
  -29   13    1      1.61      0.00
  -27   13    1     -3.45      0.00
   27   13    1     -1.14      0.00
  -28   14    1      3.40      0.00
  -26   14    1     -3.99      0.00
   26   14    1      1.91      0.00
  -27   15    1      5.10      0.00
  -25   15    1     -7.04      0.00
   25   15    1      2.40      0.00
  -26   16    1      0.84      0.00
  -24   16    1     -7.32      0.00
   22   16    1     -0.04      0.00
   24   16    1      2.70      0.00
  -25   17    1     -0.77      0.00
  -23   17    1     -4.87      0.00
   21   17    1     -2.50      0.00
   23   17    1     -0.07      0.00
  -22   18    1     -2.27      0.00
  -20   18    1      3.76      0.00
   20   18    1      5.03      0.00
   22   18    1     -2.24      0.00
  -21   19    1      0.21      0.00
  -19   19    1      4.22      0.00
   17   19    1     -0.21      0.00
   19   19    1      3.74      0.00
  -20   20    1     -0.02      0.00
  -18   20    1      3.30      0.00
  -16   20    1      0.49      0.00
   14   20    1      4.27      0.00
   16   20    1     -2.13      0.00
   18   20    1      1.22      0.00
  -17   21    1      3.60      0.00
  -15   21    1     -1.71      0.00
  -13   21    1     -1.75      0.00
  -11   21    1     -2.07      0.00
   11   21    1     -3.80      0.00
   13   21    1      3.93      0.00
   15   21    1     -1.57      0.00
  -14   22    1      1.05      0.00
  -12   22    1     -3.31      0.00
  -10   22    1     -0.88      0.00
   -8   22    1      0.72      0.00
   -6   22    1      0.27      0.00
    4   22    1      3.34      0.00
    6   22    1     -5.13      0.00
    8   22    1     -2.63      0.00
   10   22    1     -5.94      0.00
   12   22    1      1.81      0.00
   -9   23    1     -1.02      0.00
   -7   23    1     -0.40      0.00
   -5   23    1      2.58      0.00
   -3   23    1     -3.12      0.00
   -1   23    1     -4.66      0.00
    1   23    1      1.84      0.00
    3   23    1      1.84      0.00
    5   23    1      0.44      0.00
    7   23    1     -4.96      0.00
    9   23    1     -3.09      0.00
  -36    0    2     -9.00      0.00
  -34    0    2     -4.00      0.00
   32    0    2      6.00      0.00
  -35    1    2     -5.68      0.00
   31    1    2      4.54      0.00
   33    1    2      4.37      0.00
  -36    2    2      5.41      0.00
  -34    2    2     -9.12      0.00
   32    2    2      3.06      0.00
  -35    3    2      0.07      0.00
   -1    3    2    -90.91      0.00
   31    3    2      1.46      0.00
   33    3    2      2.50      0.00
  -34    4    2      5.75      0.00
   32    4    2      3.80      0.00
  -35    5    2      3.55      0.00
  -33    5    2     -0.21      0.00
   31    5    2      1.21      0.00
  -34    6    2      1.04      0.00
   30    6    2     -0.90      0.00
   32    6    2      0.03      0.00
  -33    7    2      6.45      0.00
   31    7    2     -1.86      0.00
  -34    8    2     -1.67      0.00
  -32    8    2      3.30      0.00
   30    8    2     -1.24      0.00
  -33    9    2     -3.42      0.00
  -31    9    2      4.71      0.00
   29    9    2     -2.55      0.00
   31    9    2     -1.16      0.00
  -32   10    2     -0.63      0.00
  -30   10    2      1.32      0.00
   28   10    2      1.77      0.00
   30   10    2     -2.82      0.00
  -31   11    2      0.22      0.00
   27   11    2     -4.38      0.00
   29   11    2      0.13      0.00
  -30   12    2      3.43      0.00
   26   12    2     -1.83      0.00
   28   12    2     -2.47      0.00
  -29   13    2      2.70      0.00
   25   13    2    -13.26      0.00
   27   13    2      1.16      0.00
  -28   14    2      6.99      0.00
   24   14    2     -4.59      0.00
   26   14    2     -4.54      0.00
  -27   15    2      5.88      0.00
  -25   15    2      0.75      0.00
   23   15    2     -5.81      0.00
   25   15    2      0.16      0.00
  -26   16    2      4.55      0.00
  -24   16    2      0.61      0.00
   22   16    2      1.96      0.00
   24   16    2      0.86      0.00
  -25   17    2      3.72      0.00
  -23   17    2     -4.39      0.00
   21   17    2     -5.31      0.00
   23   17    2      3.09      0.00
  -24   18    2     -0.65      0.00
  -22   18    2     -1.72      0.00
  -20   18    2      0.53      0.00
   18   18    2      0.53      0.00
   20   18    2      4.18      0.00
  -21   19    2     -2.63      0.00
  -19   19    2      0.53      0.00
   17   19    2      2.56      0.00
   19   19    2     -0.32      0.00
  -20   20    2     -3.57      0.00
  -18   20    2      0.68      0.00
  -16   20    2     -5.29      0.00
   14   20    2     -0.72      0.00
   16   20    2     -0.75      0.00
  -17   21    2     -2.33      0.00
  -15   21    2     -3.61      0.00
  -13   21    2     -0.26      0.00
    9   21    2     -0.19      0.00
   11   21    2      1.33      0.00
   13   21    2     -1.02      0.00
   15   21    2      1.18      0.00
  -14   22    2     -3.51      0.00
  -12   22    2      0.92      0.00
  -10   22    2     -6.02      0.00
   -8   22    2     -1.98      0.00
   -6   22    2      2.58      0.00
   -4   22    2      2.88      0.00
    2   22    2     -1.87      0.00
    4   22    2      0.68      0.00
    6   22    2      1.52      0.00
    8   22    2      1.96      0.00
   10   22    2      0.39      0.00
   12   22    2     -0.72      0.00
  -11   23    2     -4.41      0.00
   -9   23    2     -4.14      0.00
   -7   23    2      1.18      0.00
   -5   23    2      3.46      0.00
   -3   23    2      3.18      0.00
   -1   23    2      3.39      0.00
    1   23    2     -1.51      0.00
    3   23    2     -1.61      0.00
    5   23    2      0.81      0.00
    7   23    2     -0.70      0.00
  -35    1    3     -3.35      0.00
   31    1    3     -3.88      0.00
  -36    2    3     -3.94      0.00
  -34    2    3     -4.01      0.00
   30    2    3     -3.42      0.00
   32    2    3      2.11      0.00
  -35    3    3     -4.72      0.00
   31    3    3      2.61      0.00
  -36    4    3     -4.47      0.00
  -34    4    3      3.13      0.00
   30    4    3     -1.54      0.00
   32    4    3     -0.70      0.00
  -35    5    3      1.09      0.00
   31    5    3     -1.44      0.00
  -34    6    3     -0.85      0.00
   30    6    3     -3.44      0.00
  -35    7    3      0.85      0.00
  -33    7    3      1.73      0.00
   29    7    3      3.40      0.00
   31    7    3     -4.84      0.00
  -34    8    3      0.54      0.00
  -32    8    3     -1.13      0.00
   28    8    3     -1.57      0.00
   30    8    3      0.52      0.00
  -33    9    3     -1.68      0.00
   29    9    3     -5.36      0.00
  -32   10    3     -0.21      0.00
   28   10    3      0.03      0.00
  -31   11    3      3.30      0.00
   27   11    3     -5.40      0.00
  -32   12    3      0.91      0.00
  -30   12    3      2.54      0.00
   26   12    3      4.67      0.00
  -31   13    3     -1.68      0.00
  -29   13    3      1.89      0.00
   25   13    3     -3.19      0.00
   27   13    3      0.23      0.00
  -30   14    3     -1.74      0.00
  -28   14    3      3.80      0.00
   24   14    3      3.53      0.00
   26   14    3     -4.44      0.00
  -27   15    3      2.14      0.00
   23   15    3     -2.53      0.00
  -26   16    3      7.51      0.00
  -24   16    3     -3.77      0.00
   20   16    3     -7.18      0.00
   22   16    3      0.07      0.00
  -25   17    3      1.11      0.00
  -23   17    3     -1.43      0.00
   19   17    3      2.40      0.00
   21   17    3     -2.43      0.00
  -24   18    3      2.41      0.00
  -22   18    3     -5.77      0.00
   18   18    3     -6.53      0.00
   20   18    3      4.64      0.00
  -21   19    3     -2.39      0.00
  -19   19    3      2.34      0.00
   15   19    3     -3.79      0.00
   17   19    3     -8.46      0.00
  -20   20    3      0.42      0.00
  -18   20    3      2.41      0.00
  -16   20    3     -1.78      0.00
   12   20    3      1.64      0.00
   14   20    3      2.55      0.00
   16   20    3     -5.28      0.00
  -17   21    3      0.77      0.00
  -15   21    3     -0.72      0.00
  -13   21    3     -1.51      0.00
    9   21    3     -0.95      0.00
   11   21    3      2.38      0.00
   13   21    3     -0.74      0.00
  -14   22    3     -3.25      0.00
  -12   22    3      1.11      0.00
  -10   22    3     -0.47      0.00
   -8   22    3      6.02      0.00
   -6   22    3      1.73      0.00
   -4   22    3      3.35      0.00
   -2   22    3     -2.01      0.00
    0   22    3     -5.20      0.00
    2   22    3      2.97      0.00
    4   22    3      5.14      0.00
    6   22    3      1.88      0.00
    8   22    3      0.73      0.00
   10   22    3      0.91      0.00
  -11   23    3      4.12      0.00
   -9   23    3     -1.70      0.00
   -7   23    3      1.48      0.00
   -5   23    3      4.75      0.00
   -3   23    3     -0.50      0.00
   -1   23    3     -3.56      0.00
    1   23    3     -2.30      0.00
    3   23    3      5.35      0.00
    5   23    3      1.66      0.00
    7   23    3      0.43      0.00
  -36    0    4      8.30      0.00
   -8    0    4    105.69      0.00
   -4    0    4     34.11      0.00
   30    0    4     -7.30      0.00
  -35    1    4      1.56      0.00
   29    1    4     -3.62      0.00
   31    1    4     -2.93      0.00
  -36    2    4     -0.79      0.00
    2    2    4     45.22      0.00
   30    2    4     -1.05      0.00
  -35    3    4      3.98      0.00
   29    3    4     -1.26      0.00
   31    3    4     -0.18      0.00
  -36    4    4      2.79      0.00
  -34    4    4     -3.15      0.00
   30    4    4     -0.57      0.00
  -35    5    4     -7.08      0.00
   29    5    4      5.52      0.00
   31    5    4      0.12      0.00
  -36    6    4     -5.96      0.00
  -34    6    4     -0.30      0.00
   28    6    4      2.15      0.00
   30    6    4      6.72      0.00
  -35    7    4     -0.14      0.00
  -33    7    4     -2.57      0.00
   29    7    4      8.08      0.00
  -34    8    4     -0.43      0.00
   28    8    4      5.38      0.00
  -33    9    4     -1.39      0.00
   27    9    4      4.22      0.00
   29    9    4      0.97      0.00
  -32   10    4     -2.82      0.00
   26   10    4      5.86      0.00
   28   10    4      2.60      0.00
  -33   11    4     -0.53      0.00
  -31   11    4     -4.00      0.00
   25   11    4      9.78      0.00
   27   11    4      5.34      0.00
  -32   12    4     -1.11      0.00
  -30   12    4     -1.37      0.00
   24   12    4      8.62      0.00
   26   12    4      6.53      0.00
  -31   13    4      0.64      0.00
  -29   13    4     -0.49      0.00
   23   13    4      9.76      0.00
   25   13    4      5.22      0.00
  -30   14    4      1.93      0.00
  -28   14    4     -4.27      0.00
   22   14    4      9.05      0.00
   24   14    4      5.78      0.00
  -29   15    4     -3.56      0.00
  -27   15    4     -0.37      0.00
   21   15    4      0.84      0.00
   23   15    4      6.41      0.00
  -28   16    4     -2.00      0.00
  -26   16    4     -0.44      0.00
   20   16    4      1.60      0.00
   22   16    4     -2.02      0.00
  -25   17    4      1.54      0.00
  -23   17    4     -2.52      0.00
   19   17    4      0.21      0.00
   21   17    4     -1.45      0.00
  -24   18    4      0.82      0.00
  -22   18    4     -1.07      0.00
   16   18    4     -6.17      0.00
   18   18    4      3.36      0.00
  -23   19    4      1.50      0.00
  -21   19    4     -0.43      0.00
  -19   19    4      2.22      0.00
   13   19    4     -3.74      0.00
   15   19    4     -0.18      0.00
   17   19    4     -1.70      0.00
  -20   20    4      0.82      0.00
  -18   20    4      2.15      0.00
  -16   20    4      2.14      0.00
   10   20    4     -2.64      0.00
   12   20    4     -2.56      0.00
   14   20    4     -2.37      0.00
  -17   21    4      4.74      0.00
  -15   21    4     -2.52      0.00
  -13   21    4      4.57      0.00
  -11   21    4      1.21      0.00
    7   21    4     -2.52      0.00
    9   21    4      0.90      0.00
   11   21    4     -3.33      0.00
   13   21    4     -1.16      0.00
  -14   22    4      1.83      0.00
  -12   22    4      6.14      0.00
  -10   22    4     -2.32      0.00
   -8   22    4     -3.88      0.00
   -6   22    4      1.00      0.00
   -4   22    4     -2.10      0.00
   -2   22    4      2.09      0.00
    0   22    4     -2.55      0.00
    2   22    4     -1.62      0.00
    4   22    4     -2.99      0.00
    6   22    4      0.32      0.00
    8   22    4     -0.19      0.00
   10   22    4     -2.39      0.00
   -9   23    4     -7.81      0.00
   -7   23    4     -0.87      0.00
   -5   23    4     -1.10      0.00
   -3   23    4      0.03      0.00
   -1   23    4      0.10      0.00
    1   23    4     -2.27      0.00
    3   23    4     -0.50      0.00
    5   23    4     -1.65      0.00
  -35    1    5     -5.71      0.00
   29    1    5     -2.54      0.00
  -36    2    5      1.71      0.00
   28    2    5      1.68      0.00
   30    2    5     -1.25      0.00
  -35    3    5     -0.81      0.00
   29    3    5      3.06      0.00
  -36    4    5     -1.98      0.00
   28    4    5      1.99      0.00
   30    4    5      0.22      0.00
  -35    5    5     -0.55      0.00
   29    5    5      5.61      0.00
  -36    6    5      0.98      0.00
  -34    6    5      1.09      0.00
   28    6    5      3.06      0.00
  -35    7    5      3.91      0.00
  -33    7    5     -1.79      0.00
   27    7    5      6.18      0.00
   29    7    5     -2.74      0.00
  -34    8    5      0.34      0.00
   26    8    5     -0.93      0.00
   28    8    5      1.57      0.00
  -33    9    5     -0.35      0.00
   27    9    5     -5.19      0.00
  -34   10    5     -0.58      0.00
  -32   10    5     -4.49      0.00
   26   10    5      1.91      0.00
  -33   11    5     -2.06      0.00
  -31   11    5     -0.48      0.00
   25   11    5     -1.32      0.00
  -32   12    5      2.82      0.00
  -30   12    5     -0.89      0.00
   24   12    5      5.98      0.00
   26   12    5     -1.45      0.00
  -31   13    5      2.46      0.00
  -29   13    5     -1.43      0.00
   23   13    5      2.96      0.00
   25   13    5     -0.04      0.00
  -30   14    5      0.86      0.00
  -28   14    5     -2.61      0.00
   22   14    5     11.43      0.00
   24   14    5     -2.45      0.00
  -29   15    5     -0.48      0.00
  -27   15    5      0.03      0.00
   21   15    5      2.68      0.00
  -28   16    5      0.58      0.00
  -26   16    5     -0.69      0.00
   18   16    5     -7.27      0.00
   20   16    5      7.59      0.00
  -25   17    5      2.33      0.00
  -23   17    5     -1.23      0.00
   17   17    5     -1.13      0.00
   19   17    5     -2.11      0.00
  -24   18    5      1.20      0.00
  -22   18    5     -2.71      0.00
   14   18    5      6.74      0.00
   16   18    5     -6.38      0.00
   18   18    5      0.57      0.00
  -23   19    5     -2.25      0.00
  -21   19    5     -3.32      0.00
  -19   19    5      1.56      0.00
   13   19    5      1.49      0.00
   15   19    5      1.70      0.00
  -20   20    5     -0.26      0.00
  -18   20    5      1.28      0.00
  -16   20    5      0.25      0.00
   10   20    5     -3.42      0.00
   12   20    5      3.08      0.00
   14   20    5     -2.02      0.00
  -17   21    5      2.12      0.00
  -15   21    5     -0.54      0.00
  -13   21    5     -0.61      0.00
  -11   21    5     -4.75      0.00
    5   21    5      2.40      0.00
    7   21    5     -5.53      0.00
    9   21    5      0.77      0.00
   11   21    5     -2.41      0.00
  -14   22    5     -1.55      0.00
  -12   22    5     -1.40      0.00
  -10   22    5     -3.34      0.00
   -8   22    5     -6.56      0.00
   -6   22    5      3.78      0.00
   -4   22    5      2.78      0.00
   -2   22    5      1.10      0.00
    0   22    5     -5.57      0.00
    2   22    5     -4.64      0.00
    4   22    5     -2.20      0.00
    6   22    5      0.18      0.00
    8   22    5     -2.90      0.00
   -9   23    5     -3.90      0.00
   -7   23    5     -1.99      0.00
   -5   23    5      4.23      0.00
   -3   23    5     -1.25      0.00
   -1   23    5      0.14      0.00
    1   23    5     -6.07      0.00
    3   23    5     -0.63      0.00
  -36    0    6     -2.25      0.00
   28    0    6     -4.91      0.00
  -35    1    6     -0.12      0.00
   27    1    6     -1.93      0.00
   29    1    6      0.16      0.00
  -36    2    6      3.59      0.00
   28    2    6      4.29      0.00
  -35    3    6     -1.17      0.00
   27    3    6     -5.38      0.00
   29    3    6     -2.49      0.00
  -36    4    6     -3.15      0.00
   28    4    6    -11.10      0.00
  -35    5    6     -1.95      0.00
   27    5    6     -7.30      0.00
  -36    6    6      1.26      0.00
  -34    6    6     -5.52      0.00
   26    6    6     -6.99      0.00
   28    6    6     -4.25      0.00
  -35    7    6     -3.16      0.00
   27    7    6     -6.93      0.00
  -34    8    6      0.48      0.00
   26    8    6     -7.84      0.00
  -35    9    6      4.20      0.00
  -33    9    6     -0.43      0.00
   25    9    6     -3.12      0.00
   27    9    6     -2.69      0.00
  -34   10    6      4.64      0.00
  -32   10    6     -3.15      0.00
   24   10    6     -8.12      0.00
   26   10    6      2.06      0.00
  -33   11    6      4.62      0.00
  -31   11    6     -3.87      0.00
   23   11    6     -7.21      0.00
   25   11    6     -4.81      0.00
  -32   12    6      2.19      0.00
  -30   12    6     -1.68      0.00
   22   12    6     -8.96      0.00
   24   12    6     -9.10      0.00
  -31   13    6      1.60      0.00
  -29   13    6      3.67      0.00
   21   13    6     -2.97      0.00
   23   13    6    -14.06      0.00
  -30   14    6      2.22      0.00
  -28   14    6      3.54      0.00
   20   14    6     -7.48      0.00
   22   14    6    -11.09      0.00
  -29   15    6      1.99      0.00
  -27   15    6      0.97      0.00
   19   15    6     -0.64      0.00
   21   15    6    -11.81      0.00
  -28   16    6     -2.46      0.00
  -26   16    6      1.91      0.00
   18   16    6     -1.39      0.00
   20   16    6     -6.76      0.00
  -25   17    6     -0.53      0.00
  -23   17    6      2.03      0.00
   15   17    6     -1.26      0.00
   17   17    6      2.85      0.00
  -24   18    6     -3.83      0.00
  -22   18    6      2.65      0.00
   14   18    6     -0.10      0.00
   16   18    6     -0.50      0.00
  -23   19    6     -3.36      0.00
  -21   19    6      2.70      0.00
  -19   19    6     -3.53      0.00
   11   19    6      6.23      0.00
   13   19    6      3.59      0.00
   15   19    6     -1.68      0.00
  -20   20    6     -2.35      0.00
  -18   20    6      0.78      0.00
  -16   20    6     -3.28      0.00
    8   20    6      3.60      0.00
   10   20    6      5.95      0.00
   12   20    6      3.43      0.00
  -17   21    6     -2.78      0.00
  -15   21    6     -3.28      0.00
  -13   21    6     -3.72      0.00
  -11   21    6      2.54      0.00
   -9   21    6     -9.20      0.00
    1   21    6     -0.03      0.00
    3   21    6      2.85      0.00
    5   21    6      1.49      0.00
    7   21    6      4.07      0.00
    9   21    6      3.85      0.00
  -14   22    6     -2.90      0.00
  -12   22    6     -0.67      0.00
  -10   22    6      2.46      0.00
   -8   22    6     -7.19      0.00
   -6   22    6     -0.03      0.00
   -4   22    6     -3.42      0.00
   -2   22    6      6.63      0.00
    0   22    6     -4.91      0.00
    2   22    6      0.97      0.00
    4   22    6      0.03      0.00
    6   22    6      2.38      0.00
   -7   23    6     -6.23      0.00
   -5   23    6      0.97      0.00
   -3   23    6      2.00      0.00
   -1   23    6     -0.36      0.00
   27    1    7      5.79      0.00
  -36    2    7      0.84      0.00
   26    2    7      2.51      0.00
   28    2    7     -3.86      0.00
  -35    3    7      0.22      0.00
   27    3    7     -7.36      0.00
  -36    4    7      3.09      0.00
   26    4    7     -2.91      0.00
   28    4    7     -1.38      0.00
  -35    5    7      1.71      0.00
   25    5    7     -6.08      0.00
   27    5    7      0.51      0.00
  -36    6    7     -3.04      0.00
  -34    6    7      2.93      0.00
   26    6    7     -7.03      0.00
  -35    7    7     -0.26      0.00
   25    7    7     -4.68      0.00
   27    7    7     -5.55      0.00
  -34    8    7      2.74      0.00
   24    8    7     -6.23      0.00
   26    8    7     -1.72      0.00
  -35    9    7      2.67      0.00
  -33    9    7     -1.44      0.00
   23    9    7     -5.77      0.00
   25    9    7      1.73      0.00
  -34   10    7      1.00      0.00
  -32   10    7     -2.21      0.00
   22   10    7     -6.16      0.00
   24   10    7      2.03      0.00
  -33   11    7      3.58      0.00
  -31   11    7     -6.38      0.00
   23   11    7     -4.62      0.00
  -32   12    7      0.85      0.00
  -30   12    7     -0.27      0.00
   22   12    7     -5.24      0.00
  -31   13    7      2.60      0.00
  -29   13    7     -0.39      0.00
   21   13    7     -7.66      0.00
  -30   14    7      0.63      0.00
  -28   14    7      1.24      0.00
   18   14    7      0.50      0.00
   20   14    7     -6.30      0.00
  -29   15    7     -0.69      0.00
  -27   15    7      2.18      0.00
   17   15    7      4.38      0.00
   19   15    7     -7.15      0.00
  -28   16    7      1.69      0.00
  -26   16    7     -2.26      0.00
   16   16    7      3.55      0.00
   18   16    7     -0.98      0.00
  -25   17    7     -0.62      0.00
  -23   17    7      5.81      0.00
   13   17    7      3.58      0.00
   15   17    7      4.43      0.00
   17   17    7     -0.45      0.00
  -24   18    7      2.14      0.00
  -22   18    7      5.70      0.00
   12   18    7      7.27      0.00
   14   18    7      0.33      0.00
  -23   19    7      2.70      0.00
  -21   19    7      2.44      0.00
  -19   19    7      4.25      0.00
    9   19    7      2.61      0.00
   11   19    7      0.62      0.00
   13   19    7      4.37      0.00
  -20   20    7      3.07      0.00
  -18   20    7     -0.28      0.00
  -16   20    7      2.08      0.00
  -14   20    7     -1.40      0.00
    4   20    7      1.45      0.00
    6   20    7      3.84      0.00
    8   20    7     -5.28      0.00
   10   20    7      4.39      0.00
  -17   21    7      2.60      0.00
  -15   21    7      0.99      0.00
  -13   21    7      0.06      0.00
  -11   21    7      6.02      0.00
   -9   21    7     -4.29      0.00
   -7   21    7     -1.32      0.00
   -5   21    7     -3.15      0.00
   -3   21    7      3.63      0.00
   -1   21    7      2.27      0.00
    1   21    7      2.88      0.00
    3   21    7      7.92      0.00
    5   21    7     -3.41      0.00
    7   21    7      3.91      0.00
  -12   22    7      1.05      0.00
  -10   22    7      2.55      0.00
   -8   22    7     -4.83      0.00
   -6   22    7     -3.30      0.00
   -4   22    7      2.95      0.00
   -2   22    7      1.89      0.00
    0   22    7      3.20      0.00
    2   22    7      3.01      0.00
    4   22    7      1.67      0.00
  -36    0    8      5.11      0.00
   26    0    8     -2.56      0.00
   25    1    8     -1.37      0.00
   27    1    8     -1.95      0.00
  -36    2    8     -1.52      0.00
   26    2    8      0.54      0.00
  -35    3    8      2.74      0.00
   25    3    8      2.47      0.00
   27    3    8      0.72      0.00
  -36    4    8      2.38      0.00
   24    4    8      3.11      0.00
   26    4    8      2.07      0.00
  -35    5    8      0.11      0.00
   25    5    8      6.88      0.00
  -36    6    8      0.56      0.00
  -34    6    8     -2.40      0.00
   24    6    8      5.69      0.00
   26    6    8      3.15      0.00
  -35    7    8      1.00      0.00
   23    7    8      1.53      0.00
   25    7    8      4.94      0.00
  -34    8    8      2.96      0.00
   24    8    8      6.29      0.00
  -35    9    8      0.08      0.00
  -33    9    8      3.95      0.00
   23    9    8      3.91      0.00
  -34   10    8      2.79      0.00
  -32   10    8      0.81      0.00
   22   10    8      3.27      0.00
  -33   11    8      2.78      0.00
  -31   11    8     -1.83      0.00
   21   11    8      5.03      0.00
   23   11    8     -2.07      0.00
  -32   12    8      4.68      0.00
  -30   12    8     -4.25      0.00
   20   12    8      1.59      0.00
   22   12    8      1.11      0.00
  -31   13    8      3.26      0.00
  -29   13    8     -5.22      0.00
   19   13    8      2.18      0.00
   21   13    8     -1.18      0.00
  -30   14    8      0.78      0.00
  -28   14    8     -0.43      0.00
   18   14    8     -0.61      0.00
   20   14    8     -0.24      0.00
  -29   15    8      2.39      0.00
  -27   15    8     -8.08      0.00
   15   15    8      0.14      0.00
   17   15    8      3.84      0.00
   19   15    8     -0.20      0.00
  -28   16    8     -2.62      0.00
  -26   16    8     -1.48      0.00
  -24   16    8      1.67      0.00
   14   16    8      4.11      0.00
   16   16    8      1.34      0.00
  -25   17    8     -1.57      0.00
  -23   17    8     -0.49      0.00
   13   17    8     -0.35      0.00
   15   17    8      3.13      0.00
  -24   18    8     -2.27      0.00
  -22   18    8      0.54      0.00
  -20   18    8      2.92      0.00
   10   18    8     -1.77      0.00
   12   18    8     -1.43      0.00
   14   18    8      1.22      0.00
  -21   19    8     -0.81      0.00
  -19   19    8      1.66      0.00
  -17   19    8      1.56      0.00
    7   19    8     -2.98      0.00
    9   19    8     -0.38      0.00
   11   19    8     -1.29      0.00
  -20   20    8     -1.50      0.00
  -18   20    8      4.40      0.00
  -16   20    8     -0.79      0.00
  -14   20    8     -0.06      0.00
  -12   20    8     -0.24      0.00
    2   20    8      2.27      0.00
    4   20    8     -0.79      0.00
    6   20    8     -0.43      0.00
    8   20    8     -2.44      0.00
  -17   21    8      0.70      0.00
  -15   21    8      0.83      0.00
  -13   21    8     -0.25      0.00
  -11   21    8      2.24      0.00
   -9   21    8     -1.49      0.00
   -7   21    8     -0.59      0.00
   -5   21    8      2.44      0.00
   -3   21    8     -6.37      0.00
   -1   21    8      2.56      0.00
    1   21    8      1.91      0.00
    3   21    8      0.63      0.00
    5   21    8     -1.43      0.00
  -12   22    8      1.67      0.00
  -10   22    8      3.27      0.00
   -8   22    8     -2.85      0.00
   -6   22    8     -0.78      0.00
   -4   22    8     -0.48      0.00
   -2   22    8      0.86      0.00
    0   22    8      3.34      0.00
   25    1    9      6.02      0.00
  -36    2    9      3.57      0.00
   24    2    9      2.01      0.00
  -35    3    9      5.55      0.00
   23    3    9     -0.98      0.00
   25    3    9     -1.92      0.00
  -36    4    9     -2.61      0.00
   24    4    9      2.91      0.00
  -35    5    9     -5.00      0.00
   23    5    9      4.73      0.00
   25    5    9      4.60      0.00
  -36    6    9     -2.81      0.00
  -34    6    9      0.24      0.00
   22    6    9      6.73      0.00
   24    6    9      3.15      0.00
  -35    7    9      0.79      0.00
   23    7    9      6.71      0.00
  -34    8    9     -2.67      0.00
   22    8    9      3.18      0.00
  -35    9    9     -5.50      0.00
  -33    9    9      2.39      0.00
   21    9    9      4.56      0.00
   23    9    9      0.35      0.00
  -34   10    9     -3.60      0.00
  -32   10    9     -0.58      0.00
   20   10    9      1.96      0.00
   22   10    9      3.60      0.00
  -33   11    9     -2.62      0.00
  -31   11    9     -0.99      0.00
   19   11    9      5.98      0.00
   21   11    9      3.16      0.00
  -32   12    9      0.82      0.00
  -30   12    9     -5.61      0.00
   18   12    9      4.57      0.00
   20   12    9      7.19      0.00
  -31   13    9      0.29      0.00
  -29   13    9      0.28      0.00
   17   13    9     -1.03      0.00
   19   13    9      6.15      0.00
  -30   14    9      2.82      0.00
  -28   14    9     -3.39      0.00
   16   14    9     -0.83      0.00
   18   14    9      3.91      0.00
  -29   15    9      2.13      0.00
  -27   15    9      3.22      0.00
   15   15    9     -8.57      0.00
   17   15    9      1.45      0.00
  -28   16    9      3.18      0.00
  -26   16    9     -1.97      0.00
  -24   16    9     -2.32      0.00
   12   16    9     -8.54      0.00
   14   16    9     -2.72      0.00
   16   16    9     -2.65      0.00
  -25   17    9     -5.35      0.00
  -23   17    9     -0.55      0.00
   11   17    9     -3.60      0.00
   13   17    9     -3.71      0.00
  -24   18    9     -1.52      0.00
  -22   18    9     -6.61      0.00
  -20   18    9      3.36      0.00
    8   18    9      0.65      0.00
   10   18    9      1.14      0.00
   12   18    9     -2.88      0.00
  -21   19    9     -3.04      0.00
  -19   19    9      6.36      0.00
  -17   19    9      1.81      0.00
  -15   19    9     10.40      0.00
    3   19    9      1.50      0.00
    5   19    9     -3.70      0.00
    7   19    9      6.92      0.00
    9   19    9     -3.84      0.00
  -18   20    9      2.51      0.00
  -16   20    9      3.28      0.00
  -14   20    9      0.58      0.00
  -12   20    9      5.15      0.00
  -10   20    9      1.14      0.00
   -8   20    9      5.32      0.00
   -6   20    9      3.18      0.00
   -4   20    9     -4.76      0.00
   -2   20    9      3.90      0.00
    0   20    9     -6.84      0.00
    2   20    9     -5.03      0.00
    4   20    9      2.50      0.00
    6   20    9      0.05      0.00
  -15   21    9     -0.52      0.00
  -13   21    9      1.72      0.00
  -11   21    9      0.50      0.00
   -9   21    9      3.63      0.00
   -7   21    9      0.65      0.00
   -5   21    9     -0.71      0.00
   -3   21    9     -2.88      0.00
   -1   21    9     -2.72      0.00
    1   21    9     -1.29      0.00
    3   21    9     -4.47      0.00
   -8   22    9      0.10      0.00
   -6   22    9     -0.44      0.00
  -36    0   10      2.06      0.00
   22    0   10      6.94      0.00
   24    0   10      5.79      0.00
  -35    1   10     -0.90      0.00
   23    1   10      6.49      0.00
  -36    2   10     -3.85      0.00
   22    2   10      0.43      0.00
   24    2   10      2.62      0.00
  -35    3   10     -0.28      0.00
   23    3   10     -1.55      0.00
  -36    4   10     -0.69      0.00
   22    4   10      0.18      0.00
   24    4   10     -2.89      0.00
  -35    5   10      1.45      0.00
   21    5   10     -0.10      0.00
   23    5   10     -3.17      0.00
  -36    6   10      3.97      0.00
  -34    6   10     -3.66      0.00
   22    6   10     -2.55      0.00
  -35    7   10     -2.09      0.00
   21    7   10      0.24      0.00
  -34    8   10      3.69      0.00
   20    8   10      0.31      0.00
   22    8   10      2.64      0.00
  -35    9   10      1.74      0.00
  -33    9   10      0.18      0.00
   19    9   10     -0.95      0.00
   21    9   10      1.81      0.00
  -34   10   10     -1.48      0.00
  -32   10   10      1.92      0.00
   18   10   10      4.44      0.00
   20   10   10     -1.22      0.00
  -33   11   10     -2.91      0.00
  -31   11   10     -2.65      0.00
   17   11   10     -1.21      0.00
   19   11   10      2.25      0.00
  -32   12   10     -2.85      0.00
  -30   12   10     -1.80      0.00
   16   12   10      4.19      0.00
   18   12   10     -1.43      0.00
  -31   13   10     -1.01      0.00
  -29   13   10     -1.74      0.00
   15   13   10      3.95      0.00
   17   13   10      2.62      0.00
  -30   14   10      1.66      0.00
  -28   14   10      0.79      0.00
   14   14   10      1.37      0.00
   16   14   10      3.51      0.00
  -29   15   10     -0.48      0.00
  -27   15   10      0.98      0.00
  -25   15   10     -1.99      0.00
   13   15   10      2.83      0.00
   15   15   10      0.32      0.00
  -26   16   10     -0.40      0.00
  -24   16   10     -0.17      0.00
   10   16   10     -0.54      0.00
   12   16   10     -5.35      0.00
   14   16   10      3.26      0.00
  -25   17   10      0.43      0.00
  -23   17   10     -4.14      0.00
  -21   17   10      0.35      0.00
    7   17   10      2.73      0.00
    9   17   10      2.53      0.00
   11   17   10      0.62      0.00
  -22   18   10     -1.32      0.00
  -20   18   10      0.00      0.00
  -18   18   10     -0.72      0.00
    4   18   10     -3.84      0.00
    6   18   10      6.08      0.00
    8   18   10      1.63      0.00
   10   18   10      3.36      0.00
  -21   19   10     -1.47      0.00
  -19   19   10      1.36      0.00
  -17   19   10      3.34      0.00
  -15   19   10      0.49      0.00
  -13   19   10      6.08      0.00
    1   19   10      2.42      0.00
    3   19   10      3.04      0.00
    5   19   10      1.21      0.00
    7   19   10      4.35      0.00
  -18   20   10      2.70      0.00
  -16   20   10      1.67      0.00
  -14   20   10      2.33      0.00
  -12   20   10      2.60      0.00
  -10   20   10     -0.07      0.00
   -8   20   10     -5.51      0.00
   -6   20   10      4.97      0.00
   -4   20   10      2.97      0.00
   -2   20   10     -5.90      0.00
    0   20   10     -4.51      0.00
    2   20   10      0.14      0.00
    4   20   10      7.00      0.00
  -13   21   10     -0.59      0.00
  -11   21   10      3.38      0.00
   -9   21   10     -3.24      0.00
   -7   21   10     -0.63      0.00
   -5   21   10      4.40      0.00
   -3   21   10     -5.66      0.00
   -1   21   10     -2.27      0.00
  -35    1   11      2.02      0.00
   21    1   11     -5.48      0.00
   23    1   11      7.83      0.00
  -36    2   11     -4.63      0.00
   20    2   11      6.78      0.00
   22    2   11      3.88      0.00
  -35    3   11     -8.34      0.00
   21    3   11      9.00      0.00
  -36    4   11     -2.83      0.00
   20    4   11      1.71      0.00
   22    4   11      0.92      0.00
  -35    5   11     -5.87      0.00
   21    5   11     -1.99      0.00
  -36    6   11     -4.00      0.00
  -34    6   11     -4.03      0.00
   20    6   11     -3.98      0.00
  -35    7   11     -2.27      0.00
  -33    7   11     -6.79      0.00
   19    7   11     -2.31      0.00
   21    7   11     -3.56      0.00
  -34    8   11     -4.17      0.00
   18    8   11      1.96      0.00
   20    8   11     -5.03      0.00
  -33    9   11     -2.00      0.00
   17    9   11      4.66      0.00
   19    9   11     -1.74      0.00
  -34   10   11      1.41      0.00
  -32   10   11     -1.83      0.00
   16   10   11      3.06      0.00
   18   10   11     -5.17      0.00
  -33   11   11      2.49      0.00
  -31   11   11     -1.31      0.00
   15   11   11      7.80      0.00
   17   11   11     -8.37      0.00
  -32   12   11      2.52      0.00
  -30   12   11     -3.11      0.00
   14   12   11      1.83      0.00
   16   12   11     -4.51      0.00
  -31   13   11      2.95      0.00
  -29   13   11     -5.08      0.00
   13   13   11      7.90      0.00
   15   13   11     -5.19      0.00
  -30   14   11     -0.85      0.00
  -28   14   11      0.02      0.00
  -26   14   11      1.32      0.00
   12   14   11      2.94      0.00
   14   14   11      0.75      0.00
  -27   15   11      2.63      0.00
  -25   15   11      2.95      0.00
   11   15   11      5.92      0.00
   13   15   11      2.57      0.00
  -26   16   11      4.16      0.00
  -24   16   11      2.89      0.00
  -22   16   11      0.43      0.00
    8   16   11      1.21      0.00
   10   16   11      2.33      0.00
   12   16   11      2.29      0.00
  -25   17   11      4.34      0.00
  -23   17   11      0.53      0.00
  -21   17   11     -3.94      0.00
    5   17   11     -5.92      0.00
    7   17   11     -0.37      0.00
    9   17   11      1.05      0.00
  -22   18   11      0.95      0.00
  -20   18   11     -7.58      0.00
  -18   18   11      0.14      0.00
  -16   18   11     -4.65      0.00
    2   18   11     -3.98      0.00
    4   18   11     -3.65      0.00
    6   18   11     -3.09      0.00
    8   18   11      1.70      0.00
  -19   19   11     -4.72      0.00
  -17   19   11      1.33      0.00
  -15   19   11     -3.84      0.00
  -13   19   11      3.80      0.00
  -11   19   11     -1.79      0.00
   -9   19   11      1.74      0.00
   -7   19   11      1.45      0.00
   -5   19   11      1.10      0.00
   -3   19   11      2.89      0.00
   -1   19   11      0.08      0.00
    1   19   11      3.77      0.00
    3   19   11     -3.82      0.00
    5   19   11     -1.17      0.00
  -16   20   11      1.12      0.00
  -14   20   11     -1.56      0.00
  -12   20   11      1.11      0.00
  -10   20   11      0.77      0.00
   -8   20   11     -0.19      0.00
   -6   20   11      2.68      0.00
   -4   20   11      0.01      0.00
   -2   20   11      5.39      0.00
    0   20   11     -0.81      0.00
  -36    0   12      0.10      0.00
   20    0   12     -7.81      0.00
  -35    1   12     -1.99      0.00
   19    1   12      2.12      0.00
   21    1   12     -1.01      0.00
  -36    2   12     -5.08      0.00
   20    2   12      5.17      0.00
  -35    3   12     -0.92      0.00
   19    3   12     -1.11      0.00
   21    3   12      4.33      0.00
  -36    4   12      4.38      0.00
  -34    4   12     -2.13      0.00
   18    4   12      0.77      0.00
   20    4   12      5.38      0.00
  -35    5   12      1.04      0.00
   19    5   12      2.14      0.00
  -36    6   12     -1.20      0.00
  -34    6   12      0.89      0.00
   18    6   12      0.73      0.00
   20    6   12      0.26      0.00
  -35    7   12      2.80      0.00
  -33    7   12     -1.83      0.00
   17    7   12     -0.67      0.00
   19    7   12      0.51      0.00
  -34    8   12      1.50      0.00
  -32    8   12     -1.84      0.00
   16    8   12     -3.27      0.00
   18    8   12     -0.38      0.00
  -33    9   12      3.11      0.00
  -31    9   12     -1.90      0.00
   15    9   12      3.26      0.00
   17    9   12     -3.42      0.00
  -32   10   12      2.47      0.00
  -30   10   12     -0.95      0.00
   14   10   12      1.93      0.00
   16   10   12      1.18      0.00
  -31   11   12     -0.69      0.00
  -29   11   12      1.53      0.00
   13   11   12      2.45      0.00
   15   11   12      1.14      0.00
  -30   12   12     -1.12      0.00
  -28   12   12      1.66      0.00
   12   12   12     -1.57      0.00
   14   12   12      0.48      0.00
  -29   13   12     -2.03      0.00
  -27   13   12     -0.58      0.00
   11   13   12     -4.91      0.00
   13   13   12      1.23      0.00
  -28   14   12     -2.93      0.00
  -26   14   12     -0.28      0.00
   10   14   12     -2.35      0.00
   12   14   12     -2.99      0.00
  -27   15   12     -0.85      0.00
  -25   15   12     -0.95      0.00
  -23   15   12      0.87      0.00
    7   15   12      6.19      0.00
    9   15   12     -5.80      0.00
   11   15   12      1.34      0.00
  -26   16   12      0.16      0.00
  -24   16   12     -0.77      0.00
  -22   16   12      0.50      0.00
    6   16   12     -1.94      0.00
    8   16   12      3.36      0.00
   10   16   12     -3.99      0.00
  -23   17   12      1.67      0.00
  -21   17   12     -1.05      0.00
  -19   17   12      0.95      0.00
    1   17   12      4.65      0.00
    3   17   12     -3.28      0.00
    5   17   12     -2.88      0.00
    7   17   12      0.11      0.00
  -20   18   12     -2.52      0.00
  -18   18   12      3.85      0.00
  -16   18   12     -3.88      0.00
  -14   18   12      4.73      0.00
  -12   18   12      1.33      0.00
   -4   18   12      5.46      0.00
   -2   18   12      0.78      0.00
    0   18   12     -0.08      0.00
    2   18   12      0.00      0.00
    4   18   12     -2.72      0.00
  -17   19   12      1.08      0.00
  -15   19   12      0.25      0.00
  -13   19   12      2.06      0.00
  -11   19   12      8.31      0.00
   -9   19   12     -1.83      0.00
   -7   19   12     -0.46      0.00
   -5   19   12      3.96      0.00
   -3   19   12      4.91      0.00
   -1   19   12     -1.82      0.00
    1   19   12     -0.43      0.00
  -12   20   12      6.83      0.00
  -10   20   12      3.66      0.00
   -8   20   12     -2.23      0.00
   -6   20   12      1.73      0.00
   -4   20   12      5.51      0.00
  -35    1   13      4.25      0.00
   17    1   13      1.50      0.00
   19    1   13     -8.80      0.00
  -36    2   13     -0.18      0.00
  -34    2   13      1.14      0.00
   18    2   13     -8.01      0.00
  -35    3   13     -6.63      0.00
   17    3   13     -3.83      0.00
   19    3   13     -0.40      0.00
  -36    4   13     -0.75      0.00
  -34    4   13     -4.06      0.00
   16    4   13     -1.05      0.00
   18    4   13      0.16      0.00
  -35    5   13      1.20      0.00
  -33    5   13     -4.98      0.00
   17    5   13      1.03      0.00
  -34    6   13     -3.32      0.00
   16    6   13      3.63      0.00
   18    6   13      1.77      0.00
  -35    7   13      0.80      0.00
  -33    7   13     -2.12      0.00
   15    7   13     -6.24      0.00
   17    7   13      3.35      0.00
  -34    8   13      4.87      0.00
  -32    8   13     -4.20      0.00
   14    8   13     -5.48      0.00
   16    8   13     -2.34      0.00
  -33    9   13      4.42      0.00
  -31    9   13     -5.64      0.00
   13    9   13    -10.56      0.00
   15    9   13      2.27      0.00
  -32   10   13      3.97      0.00
  -30   10   13     -2.75      0.00
   12   10   13     -8.09      0.00
   14   10   13      0.58      0.00
  -31   11   13      6.12      0.00
  -29   11   13     -3.81      0.00
   11   11   13     -6.18      0.00
   13   11   13      2.37      0.00
  -30   12   13      2.19      0.00
  -28   12   13     -1.88      0.00
   10   12   13     -4.43      0.00
   12   12   13      1.57      0.00
  -29   13   13     -0.16      0.00
  -27   13   13      1.33      0.00
    9   13   13     -7.81      0.00
   11   13   13      0.44      0.00
  -28   14   13      1.19      0.00
  -26   14   13      1.20      0.00
  -24   14   13      6.33      0.00
    8   14   13     -5.84      0.00
   10   14   13     -2.59      0.00
  -27   15   13     -0.95      0.00
  -25   15   13      3.56      0.00
  -23   15   13      0.67      0.00
    5   15   13     -5.45      0.00
    7   15   13      0.06      0.00
    9   15   13     -4.46      0.00
  -24   16   13     -0.39      0.00
  -22   16   13      0.29      0.00
  -20   16   13     -5.56      0.00
    2   16   13     -3.96      0.00
    4   16   13      0.09      0.00
    6   16   13     -2.70      0.00
  -23   17   13     -0.47      0.00
  -21   17   13     -1.80      0.00
  -19   17   13     -3.55      0.00
  -17   17   13     -3.37      0.00
  -15   17   13      0.04      0.00
   -3   17   13      6.72      0.00
   -1   17   13     -0.59      0.00
    1   17   13      8.36      0.00
    3   17   13     -7.55      0.00
    5   17   13      0.96      0.00
  -20   18   13     -0.73      0.00
  -18   18   13     -5.20      0.00
  -16   18   13     -0.25      0.00
  -14   18   13     -2.80      0.00
  -12   18   13     -0.92      0.00
  -10   18   13     -2.63      0.00
   -8   18   13      0.91      0.00
   -6   18   13      2.57      0.00
   -4   18   13      0.06      0.00
   -2   18   13      6.32      0.00
    0   18   13     -1.04      0.00
    2   18   13      0.95      0.00
  -15   19   13     -2.08      0.00
  -13   19   13     -2.44      0.00
  -11   19   13     -0.51      0.00
   -9   19   13     -1.24      0.00
   -7   19   13     -0.34      0.00
   -5   19   13      1.49      0.00
   -3   19   13      0.14      0.00
  -36    0   14      3.64      0.00
  -34    0   14     -5.62      0.00
   16    0   14     -1.31      0.00
   18    0   14    -12.36      0.00
  -35    1   14      3.31      0.00
   15    1   14     -6.39      0.00
   17    1   14     -4.36      0.00
  -36    2   14      1.49      0.00
  -34    2   14      6.86      0.00
   16    2   14     -7.70      0.00
  -35    3   14     -2.26      0.00
  -33    3   14      5.73      0.00
   15    3   14      1.68      0.00
   17    3   14     -3.90      0.00
  -36    4   14     -0.76      0.00
  -34    4   14     -3.42      0.00
   14    4   14      0.39      0.00
   16    4   14     -0.06      0.00
  -35    5   14      1.46      0.00
  -33    5   14     -4.87      0.00
   15    5   14      2.95      0.00
   17    5   14     -0.23      0.00
  -34    6   14      0.78      0.00
  -32    6   14     -2.18      0.00
   14    6   14      2.48      0.00
   16    6   14      3.35      0.00
  -33    7   14      1.23      0.00
  -31    7   14     -2.93      0.00
   13    7   14      3.88      0.00
   15    7   14     -2.87      0.00
  -34    8   14     -0.20      0.00
  -32    8   14     -1.39      0.00
   12    8   14     -1.12      0.00
   14    8   14      2.84      0.00
  -33    9   14      1.36      0.00
  -31    9   14     -2.88      0.00
   11    9   14     -2.63      0.00
   13    9   14     -2.44      0.00
  -32   10   14      0.93      0.00
  -30   10   14     -4.79      0.00
   10   10   14     -4.29      0.00
   12   10   14     -1.50      0.00
  -31   11   14      1.32      0.00
  -29   11   14     -1.80      0.00
    9   11   14     -1.90      0.00
   11   11   14     -4.00      0.00
  -30   12   14      1.49      0.00
  -28   12   14      0.11      0.00
  -26   12   14     -2.12      0.00
    8   12   14     -1.36      0.00
   10   12   14     -3.69      0.00
  -29   13   14      2.49      0.00
  -27   13   14     -2.46      0.00
  -25   13   14     -0.41      0.00
    7   13   14      3.26      0.00
    9   13   14     -4.24      0.00
  -26   14   14     -0.20      0.00
  -24   14   14     -0.31      0.00
  -22   14   14     -0.52      0.00
    4   14   14      3.31      0.00
    6   14   14      2.72      0.00
    8   14   14     -0.05      0.00
  -25   15   14     -0.32      0.00
  -23   15   14     -0.01      0.00
  -21   15   14      0.48      0.00
  -19   15   14     -1.69      0.00
    1   15   14      0.77      0.00
    3   15   14     -0.34      0.00
    5   15   14      1.54      0.00
    7   15   14     -0.08      0.00
  -22   16   14      0.70      0.00
  -20   16   14     -1.38      0.00
  -18   16   14     -0.95      0.00
  -16   16   14      1.36      0.00
   -4   16   14      0.41      0.00
   -2   16   14      0.19      0.00
    0   16   14      1.73      0.00
    2   16   14      0.98      0.00
    4   16   14     -1.09      0.00
  -21   17   14     -0.26      0.00
  -19   17   14     -2.85      0.00
  -17   17   14      0.61      0.00
  -15   17   14      2.64      0.00
  -13   17   14     -2.23      0.00
  -11   17   14      1.22      0.00
   -9   17   14     -0.90      0.00
   -7   17   14      1.74      0.00
   -5   17   14     -3.49      0.00
   -3   17   14      0.97      0.00
   -1   17   14     -1.09      0.00
    1   17   14      4.84      0.00
  -16   18   14      0.27      0.00
  -14   18   14      0.88      0.00
  -12   18   14      0.09      0.00
  -10   18   14      0.93      0.00
   -8   18   14     -2.19      0.00
   -6   18   14      0.68      0.00
   -4   18   14     -2.13      0.00
   -2   18   14      1.11      0.00
  -35    1   15     -0.08      0.00
  -33    1   15     -3.77      0.00
   13    1   15     -6.34      0.00
   15    1   15      4.00      0.00
  -34    2   15      1.48      0.00
   14    2   15      0.31      0.00
  -35    3   15      2.69      0.00
  -33    3   15      3.61      0.00
   13    3   15     -3.48      0.00
   15    3   15     -4.97      0.00
  -34    4   15     -1.63      0.00
  -32    4   15      6.39      0.00
   12    4   15     -4.20      0.00
   14    4   15     -6.96      0.00
  -35    5   15      1.00      0.00
  -33    5   15     -1.63      0.00
   13    5   15     -6.55      0.00
   15    5   15      0.96      0.00
  -34    6   15      3.23      0.00
  -32    6   15     -5.62      0.00
   12    6   15     -4.99      0.00
   14    6   15     -3.70      0.00
  -33    7   15      2.13      0.00
  -31    7   15     -3.50      0.00
   11    7   15      6.18      0.00
   13    7   15     -2.90      0.00
  -32    8   15      2.01      0.00
  -30    8   15     -2.80      0.00
   10    8   15      9.95      0.00
   12    8   15      2.37      0.00
  -31    9   15      1.88      0.00
  -29    9   15     -0.90      0.00
    9    9   15      0.87      0.00
   11    9   15      6.23      0.00
  -30   10   15      0.46      0.00
  -28   10   15     -2.07      0.00
    8   10   15      6.51      0.00
   10   10   15     -0.84      0.00
  -29   11   15     -0.15      0.00
  -27   11   15     -6.17      0.00
    7   11   15     -2.39      0.00
    9   11   15      2.12      0.00
  -28   12   15     -2.03      0.00
  -26   12   15     -5.67      0.00
  -24   12   15     -1.78      0.00
    4   12   15    -10.00      0.00
    6   12   15      8.06      0.00
    8   12   15     -1.09      0.00
  -27   13   15     -2.49      0.00
  -25   13   15     -2.54      0.00
  -23   13   15      0.06      0.00
    3   13   15      3.36      0.00
    5   13   15      0.63      0.00
    7   13   15      4.15      0.00
  -26   14   15      0.60      0.00
  -24   14   15     -1.47      0.00
  -22   14   15      3.47      0.00
  -20   14   15      1.21      0.00
    0   14   15      1.63      0.00
    2   14   15     -3.61      0.00
    4   14   15      5.07      0.00
    6   14   15      1.29      0.00
  -23   15   15      3.61      0.00
  -21   15   15      2.38      0.00
  -19   15   15      0.27      0.00
  -17   15   15     -0.31      0.00
  -15   15   15     -2.69      0.00
   -5   15   15     -6.20      0.00
   -3   15   15     -0.98      0.00
   -1   15   15     -5.90      0.00
    1   15   15      9.18      0.00
    3   15   15     -3.35      0.00
  -20   16   15      2.01      0.00
  -18   16   15      1.05      0.00
  -16   16   15     -3.25      0.00
  -14   16   15     -1.05      0.00
  -12   16   15     -0.80      0.00
  -10   16   15     -3.04      0.00
   -8   16   15     -5.12      0.00
   -6   16   15      0.09      0.00
   -4   16   15     -1.83      0.00
   -2   16   15     -2.46      0.00
    0   16   15      2.28      0.00
  -17   17   15      0.09      0.00
  -15   17   15     -0.62      0.00
  -13   17   15      0.35      0.00
  -11   17   15     -2.73      0.00
   -9   17   15     -0.44      0.00
   -7   17   15     -2.85      0.00
   -5   17   15      2.58      0.00
   -3   17   15     -5.64      0.00
  -34    0   16     -2.05      0.00
  -32    0   16      2.25      0.00
   10    0   16      4.42      0.00
   12    0   16      6.30      0.00
  -35    1   16     -4.41      0.00
  -33    1   16      1.44      0.00
   11    1   16      5.29      0.00
   13    1   16      5.05      0.00
  -34    2   16     -1.26      0.00
  -32    2   16     -1.05      0.00
   10    2   16      0.60      0.00
   12    2   16      8.82      0.00
  -33    3   16     -3.06      0.00
  -31    3   16     -0.07      0.00
   11    3   16      2.88      0.00
   13    3   16      4.79      0.00
  -34    4   16      2.42      0.00
  -32    4   16      0.14      0.00
   10    4   16      3.73      0.00
   12    4   16     -3.02      0.00
  -33    5   16      2.71      0.00
  -31    5   16      0.13      0.00
    9    5   16      1.79      0.00
   11    5   16      1.38      0.00
  -32    6   16      2.72      0.00
  -30    6   16      3.12      0.00
    8    6   16     -5.57      0.00
   10    6   16      0.09      0.00
   12    6   16      1.29      0.00
  -33    7   16      1.48      0.00
  -31    7   16      3.59      0.00
  -29    7   16     -1.14      0.00
    9    7   16     -1.82      0.00
   11    7   16      2.75      0.00
  -32    8   16      3.14      0.00
  -30    8   16      0.50      0.00
  -28    8   16      1.07      0.00
    8    8   16     -0.14      0.00
   10    8   16     -0.19      0.00
  -31    9   16      1.61      0.00
  -29    9   16      0.49      0.00
  -27    9   16      1.48      0.00
    7    9   16      2.70      0.00
    9    9   16      1.71      0.00
  -30   10   16     -0.02      0.00
  -28   10   16      1.97      0.00
  -26   10   16      5.92      0.00
    4   10   16     -1.48      0.00
    6   10   16     -0.79      0.00
    8   10   16      5.16      0.00
  -29   11   16      2.99      0.00
  -27   11   16      1.19      0.00
  -25   11   16      2.30      0.00
    3   11   16     -3.46      0.00
    5   11   16      0.48      0.00
    7   11   16      4.83      0.00
  -28   12   16      1.62      0.00
  -26   12   16     -0.33      0.00
  -24   12   16      1.36      0.00
  -22   12   16      1.79      0.00
    2   12   16     -3.25      0.00
    4   12   16     -1.94      0.00
    6   12   16      5.00      0.00
  -25   13   16     -2.46      0.00
  -23   13   16      2.63      0.00
  -21   13   16      1.93      0.00
  -19   13   16     -0.82      0.00
   -1   13   16     -1.54      0.00
    1   13   16     -7.09      0.00
    3   13   16     -1.41      0.00
    5   13   16      3.32      0.00
  -24   14   16      2.52      0.00
  -22   14   16      0.84      0.00
  -20   14   16      1.20      0.00
  -18   14   16      0.40      0.00
  -16   14   16      0.64      0.00
  -14   14   16      0.23      0.00
   -8   14   16      2.04      0.00
   -6   14   16     -3.49      0.00
   -4   14   16     -1.04      0.00
   -2   14   16      0.49      0.00
    0   14   16     -1.53      0.00
    2   14   16     -7.35      0.00
  -21   15   16      2.37      0.00
  -19   15   16      0.71      0.00
  -17   15   16     -3.34      0.00
  -15   15   16      3.23      0.00
  -13   15   16      0.91      0.00
  -11   15   16     -0.20      0.00
   -9   15   16     -5.33      0.00
   -7   15   16      1.43      0.00
   -5   15   16      1.12      0.00
   -3   15   16     -4.27      0.00
   -1   15   16      0.43      0.00
  -18   16   16     -0.50      0.00
  -16   16   16     -3.95      0.00
  -14   16   16      4.55      0.00
  -12   16   16     -2.80      0.00
  -10   16   16      1.02      0.00
   -8   16   16     -5.22      0.00
   -6   16   16      4.28      0.00
   -4   16   16     -2.54      0.00
  -33    1   17     -3.16      0.00
  -31    1   17      2.78      0.00
    9    1   17      2.39      0.00
   11    1   17     -3.03      0.00
  -34    2   17     -6.98      0.00
  -32    2   17      0.53      0.00
  -30    2   17      3.28      0.00
    8    2   17      4.09      0.00
   10    2   17      0.05      0.00
  -33    3   17     -5.32      0.00
  -31    3   17     -0.15      0.00
    7    3   17      0.58      0.00
    9    3   17      4.19      0.00
   11    3   17      1.16      0.00
  -32    4   17     -8.42      0.00
  -30    4   17      3.88      0.00
    8    4   17      0.75      0.00
   10    4   17      5.41      0.00
  -33    5   17      2.24      0.00
  -31    5   17     -7.17      0.00
  -29    5   17     -1.07      0.00
    7    5   17      7.09      0.00
    9    5   17     -0.67      0.00
  -32    6   17      1.75      0.00
  -30    6   17    -11.19      0.00
  -28    6   17      5.87      0.00
    6    6   17     -1.76      0.00
    8    6   17      3.86      0.00
  -31    7   17      0.65      0.00
  -29    7   17     -5.18      0.00
  -27    7   17      2.32      0.00
    5    7   17      3.89      0.00
    7    7   17     -2.58      0.00
    9    7   17      0.75      0.00
  -30    8   17      2.21      0.00
  -28    8   17     -5.23      0.00
  -26    8   17      5.99      0.00
    4    8   17     10.47      0.00
    6    8   17      0.74      0.00
    8    8   17     -5.54      0.00
  -29    9   17      4.70      0.00
  -27    9   17     -3.53      0.00
  -25    9   17      4.05      0.00
    3    9   17      4.54      0.00
    5    9   17      7.17      0.00
    7    9   17     -3.62      0.00
  -28   10   17      3.50      0.00
  -26   10   17     -0.85      0.00
  -24   10   17      3.65      0.00
    2   10   17     11.17      0.00
    4   10   17     -2.32      0.00
    6   10   17      5.42      0.00
  -27   11   17      5.79      0.00
  -25   11   17     -0.77      0.00
  -23   11   17      1.71      0.00
  -21   11   17     -4.69      0.00
   -1   11   17     -0.99      0.00
    1   11   17      0.40      0.00
    3   11   17      3.66      0.00
    5   11   17     -1.09      0.00
  -26   12   17      3.96      0.00
  -24   12   17     -0.22      0.00
  -22   12   17     -1.02      0.00
  -20   12   17     -1.99      0.00
  -18   12   17     -1.53      0.00
   -4   12   17      1.90      0.00
   -2   12   17     -0.94      0.00
    0   12   17      5.09      0.00
    2   12   17     -6.03      0.00
  -23   13   17     -2.91      0.00
  -21   13   17      1.35      0.00
  -19   13   17     -2.54      0.00
  -17   13   17      0.30      0.00
  -15   13   17     -0.77      0.00
  -13   13   17      3.80      0.00
  -11   13   17      1.83      0.00
   -9   13   17      2.90      0.00
   -7   13   17      0.94      0.00
   -5   13   17      0.64      0.00
   -3   13   17      3.07      0.00
   -1   13   17     -1.49      0.00
    1   13   17     -1.39      0.00
  -20   14   17     -1.38      0.00
  -18   14   17      1.06      0.00
  -16   14   17     -0.11      0.00
  -14   14   17      2.58      0.00
  -12   14   17      1.89      0.00
  -10   14   17      2.24      0.00
   -8   14   17      0.59      0.00
   -6   14   17      2.66      0.00
   -4   14   17     -0.98      0.00
   -2   14   17      1.73      0.00
  -17   15   17      1.89      0.00
  -15   15   17      0.86      0.00
  -13   15   17      2.10      0.00
  -11   15   17      0.51      0.00
   -9   15   17      1.15      0.00
   -7   15   17     -0.16      0.00
   -5   15   17      4.29      0.00
  -32    0   18      6.63      0.00
  -30    0   18     -3.03      0.00
    4    0   18      0.80      0.00
    6    0   18     -0.24      0.00
    8    0   18      0.93      0.00
  -33    1   18      3.76      0.00
  -31    1   18      5.09      0.00
  -29    1   18     -5.91      0.00
    5    1   18     -0.66      0.00
    7    1   18      1.96      0.00
  -32    2   18      2.72      0.00
  -30    2   18      2.79      0.00
  -28    2   18     -7.14      0.00
    4    2   18     -1.39      0.00
    6    2   18     -0.73      0.00
    8    2   18      0.55      0.00
  -31    3   18     -0.30      0.00
  -29    3   18      1.56      0.00
    5    3   18      1.43      0.00
    7    3   18     -0.82      0.00
  -32    4   18     -3.08      0.00
  -30    4   18     -0.65      0.00
  -28    4   18      2.64      0.00
    4    4   18     -5.44      0.00
    6    4   18      4.98      0.00
    8    4   18     -2.64      0.00
  -31    5   18     -3.82      0.00
  -29    5   18      1.43      0.00
  -27    5   18     -0.31      0.00
    3    5   18      3.17      0.00
    5    5   18     -2.23      0.00
    7    5   18      1.51      0.00
  -30    6   18     -3.17      0.00
  -28    6   18     -0.97      0.00
  -26    6   18     -3.37      0.00
    2    6   18     -6.37      0.00
    4    6   18      6.86      0.00
    6    6   18     -1.51      0.00
  -29    7   18     -4.64      0.00
  -27    7   18     -1.69      0.00
  -25    7   18     -1.15      0.00
    1    7   18     -0.08      0.00
    3    7   18     -1.17      0.00
    5    7   18      6.22      0.00
  -28    8   18     -7.28      0.00
  -26    8   18      4.20      0.00
  -24    8   18     -5.16      0.00
    0    8   18     -5.27      0.00
    2    8   18      2.44      0.00
    4    8   18      2.56      0.00
  -27    9   18     -4.37      0.00
  -25    9   18      3.44      0.00
  -23    9   18     -1.35      0.00
   -1    9   18     -5.19      0.00
    1    9   18      1.57      0.00
    3    9   18      2.03      0.00
  -26   10   18     -5.58      0.00
  -24   10   18      6.01      0.00
  -22   10   18     -3.98      0.00
  -20   10   18      0.99      0.00
   -4   10   18      5.00      0.00
   -2   10   18     -3.42      0.00
    0   10   18     -0.74      0.00
    2   10   18      3.68      0.00
  -25   11   18     -3.41      0.00
  -23   11   18      1.70      0.00
  -21   11   18     -1.66      0.00
  -19   11   18     -0.84      0.00
  -17   11   18      2.12      0.00
  -15   11   18     -3.26      0.00
  -13   11   18     -0.28      0.00
  -11   11   18      4.42      0.00
   -9   11   18      1.14      0.00
   -7   11   18      0.94      0.00
   -5   11   18      3.94      0.00
   -3   11   18      2.79      0.00
   -1   11   18      1.85      0.00
    1   11   18     -2.40      0.00
  -22   12   18      1.63      0.00
  -20   12   18     -2.34      0.00
  -18   12   18      1.56      0.00
  -16   12   18     -1.74      0.00
  -14   12   18     -0.55      0.00
  -12   12   18      1.41      0.00
  -10   12   18      4.85      0.00
   -8   12   18     -0.28      0.00
   -6   12   18      2.71      0.00
   -4   12   18      5.13      0.00
   -2   12   18      3.76      0.00
  -21   13   18      0.22      0.00
  -19   13   18      0.43      0.00
  -17   13   18     -0.49      0.00
  -15   13   18     -1.01      0.00
  -13   13   18      1.00      0.00
  -11   13   18      2.09      0.00
   -9   13   18      2.54      0.00
   -7   13   18     -0.77      0.00
   -5   13   18      4.02      0.00
   -3   13   18      4.30      0.00
  -16   14   18     -3.62      0.00
  -14   14   18      1.91      0.00
  -12   14   18      0.45      0.00
  -10   14   18      3.07      0.00
   -8   14   18     -2.49      0.00
  -31    1   19      1.48      0.00
  -29    1   19     -0.37      0.00
  -27    1   19     -1.05      0.00
    1    1   19      5.34      0.00
    3    1   19     -3.68      0.00
    5    1   19      0.41      0.00
  -30    2   19      5.12      0.00
  -28    2   19     -3.04      0.00
  -26    2   19     -0.25      0.00
    0    2   19     -1.76      0.00
    2    2   19      1.66      0.00
    4    2   19     -1.76      0.00
  -29    3   19      4.22      0.00
  -27    3   19     -3.26      0.00
  -25    3   19      0.30      0.00
    1    3   19     -5.21      0.00
    3    3   19     -0.50      0.00
    5    3   19      0.63      0.00
  -30    4   19     -1.02      0.00
  -28    4   19      5.31      0.00
  -26    4   19     -4.93      0.00
    0    4   19     -0.75      0.00
    2    4   19     -4.63      0.00
    4    4   19     -0.69      0.00
  -29    5   19     -0.68      0.00
  -27    5   19      4.93      0.00
  -25    5   19     -4.34      0.00
   -1    5   19     -3.10      0.00
    1    5   19     -3.24      0.00
    3    5   19      0.46      0.00
  -28    6   19     -1.02      0.00
  -26    6   19      4.92      0.00
  -24    6   19     -8.62      0.00
   -2    6   19     -1.64      0.00
    0    6   19     -4.04      0.00
    2    6   19     -0.75      0.00
  -27    7   19     -1.02      0.00
  -25    7   19     -1.32      0.00
  -23    7   19     -2.87      0.00
  -21    7   19      3.02      0.00
   -3    7   19      1.55      0.00
   -1    7   19     -2.22      0.00
    1    7   19     -2.60      0.00
    3    7   19      0.97      0.00
  -26    8   19     -3.42      0.00
  -24    8   19     -0.30      0.00
  -22    8   19     -0.68      0.00
  -20    8   19      3.69      0.00
   -6    8   19      6.57      0.00
   -4    8   19     -1.41      0.00
   -2    8   19      2.10      0.00
    0    8   19     -3.94      0.00
  -25    9   19     -1.15      0.00
  -23    9   19      0.34      0.00
  -21    9   19     -2.67      0.00
  -19    9   19      6.13      0.00
  -17    9   19     -6.50      0.00
  -15    9   19      1.66      0.00
  -13    9   19     -0.87      0.00
  -11    9   19      0.83      0.00
   -9    9   19     -5.07      0.00
   -7    9   19      1.22      0.00
   -5    9   19      0.77      0.00
   -3    9   19      1.37      0.00
   -1    9   19     -1.44      0.00
  -24   10   19      0.44      0.00
  -22   10   19     -0.69      0.00
  -20   10   19      0.76      0.00
  -18   10   19     -0.25      0.00
  -16   10   19     -2.22      0.00
  -14   10   19     -1.68      0.00
  -12   10   19      2.34      0.00
  -10   10   19     -5.95      0.00
   -8   10   19      0.55      0.00
   -6   10   19     -2.82      0.00
   -4   10   19      3.80      0.00
   -2   10   19     -2.35      0.00
  -21   11   19      2.54      0.00
  -19   11   19     -4.00      0.00
  -17   11   19      2.26      0.00
  -15   11   19     -3.17      0.00
  -13   11   19      0.70      0.00
  -11   11   19     -2.42      0.00
   -9   11   19     -1.83      0.00
   -7   11   19     -1.64      0.00
   -5   11   19      0.44      0.00
   -3   11   19     -0.53      0.00
  -18   12   19      0.59      0.00
  -16   12   19     -1.68      0.00
  -14   12   19      0.52      0.00
  -12   12   19     -3.41      0.00
  -10   12   19      2.69      0.00
   -8   12   19     -3.33      0.00
   -6   12   19      0.44      0.00
  -28    0   20     -0.01      0.00
  -26    0   20      8.97      0.00
  -24    0   20     -4.46      0.00
  -22    0   20      2.77      0.00
   -4    0   20     -7.80      0.00
   -2    0   20      0.02      0.00
    0    0   20      4.32      0.00
    2    0   20      5.49      0.00
  -29    1   20      1.76      0.00
  -27    1   20      1.99      0.00
  -25    1   20      5.95      0.00
  -23    1   20     -3.63      0.00
   -3    1   20     -4.15      0.00
   -1    1   20      3.63      0.00
    1    1   20      5.84      0.00
  -28    2   20      2.75      0.00
  -26    2   20      0.03      0.00
  -24    2   20      5.08      0.00
  -22    2   20     -6.89      0.00
   -4    2   20      3.75      0.00
   -2    2   20     -2.00      0.00
    0    2   20      5.04      0.00
    2    2   20      3.91      0.00
  -27    3   20      3.17      0.00
  -25    3   20     -3.50      0.00
  -23    3   20      5.67      0.00
  -21    3   20     -6.81      0.00
   -5    3   20      5.47      0.00
   -3    3   20      3.09      0.00
   -1    3   20     -0.36      0.00
    1    3   20      3.57      0.00
  -28    4   20      0.82      0.00
  -26    4   20     -0.53      0.00
  -24    4   20      1.67      0.00
  -22    4   20      0.19      0.00
  -20    4   20     -6.21      0.00
   -6    4   20      6.65      0.00
   -4    4   20      1.62      0.00
   -2    4   20      1.52      0.00
    0    4   20      0.82      0.00
  -27    5   20     -1.31      0.00
  -25    5   20      4.19      0.00
  -23    5   20     -4.04      0.00
  -21    5   20      0.21      0.00
  -19    5   20     -8.29      0.00
   -7    5   20      2.10      0.00
   -5    5   20      3.18      0.00
   -3    5   20     -0.19      0.00
   -1    5   20     -1.41      0.00
  -26    6   20      3.97      0.00
  -24    6   20     -1.32      0.00
  -22    6   20     -0.19      0.00
  -20    6   20     -8.44      0.00
  -18    6   20      1.49      0.00
  -16    6   20     -1.24      0.00
  -14    6   20     10.26      0.00
  -12    6   20     -3.96      0.00
  -10    6   20      0.46      0.00
   -8    6   20      0.00      0.00
   -6    6   20      1.31      0.00
   -4    6   20     -0.18      0.00
   -2    6   20     -0.68      0.00
    0    6   20     -2.50      0.00
  -25    7   20      1.70      0.00
  -23    7   20      2.01      0.00
  -21    7   20     -8.83      0.00
  -19    7   20     -0.32      0.00
  -17    7   20     -0.90      0.00
  -15    7   20      8.59      0.00
  -13    7   20     -1.00      0.00
  -11    7   20      1.46      0.00
   -9    7   20      0.20      0.00
   -7    7   20      1.72      0.00
   -5    7   20     -2.39      0.00
   -3    7   20     -0.75      0.00
  -24    8   20      4.21      0.00
  -22    8   20     -4.84      0.00
  -20    8   20      1.06      0.00
  -18    8   20     -6.73      0.00
  -16    8   20     10.26      0.00
  -14    8   20     -2.59      0.00
  -12    8   20      4.35      0.00
  -10    8   20     -1.14      0.00
   -8    8   20      3.06      0.00
   -6    8   20     -2.72      0.00
   -4    8   20      0.44      0.00
  -21    9   20      0.67      0.00
  -19    9   20     -4.90      0.00
  -17    9   20      3.78      0.00
  -15    9   20      1.41      0.00
  -13    9   20      0.58      0.00
  -11    9   20      0.56      0.00
   -9    9   20      1.47      0.00
   -7    9   20     -0.26      0.00
   -5    9   20     -0.82      0.00
  -20   10   20     -5.18      0.00
  -18   10   20      3.92      0.00
  -16   10   20     -0.32      0.00
  -14   10   20      0.35      0.00
  -12   10   20     -2.93      0.00
  -10   10   20      3.55      0.00
   -8   10   20     -0.74      0.00
  -13   11   20     -2.27      0.00
  -25    1   21      2.82      0.00
  -23    1   21     -2.84      0.00
  -21    1   21      2.71      0.00
  -19    1   21     -5.09      0.00
  -17    1   21      5.71      0.00
  -15    1   21     -3.83      0.00
  -13    1   21      5.11      0.00
  -11    1   21     -4.98      0.00
   -9    1   21      2.42      0.00
   -7    1   21     -5.03      0.00
   -5    1   21      1.12      0.00
   -3    1   21     -0.58      0.00
  -26    2   21     -2.16      0.00
  -24    2   21      6.10      0.00
  -22    2   21     -6.28      0.00
  -20    2   21      0.83      0.00
  -18    2   21     -0.96      0.00
  -16    2   21      2.83      0.00
  -14    2   21     -0.38      0.00
  -12    2   21      2.68      0.00
  -10    2   21     -3.47      0.00
   -8    2   21     -0.30      0.00
   -6    2   21     -6.03      0.00
   -4    2   21      5.47      0.00
   -2    2   21     -2.37      0.00
  -25    3   21      1.01      0.00
  -23    3   21      1.44      0.00
  -21    3   21     -7.58      0.00
  -19    3   21      3.90      0.00
  -17    3   21     -1.71      0.00
  -15    3   21      4.85      0.00
  -13    3   21     -3.36      0.00
  -11    3   21      5.55      0.00
   -9    3   21     -2.79      0.00
   -7    3   21     -4.35      0.00
   -5    3   21     -1.32      0.00
   -3    3   21      6.82      0.00
  -24    4   21     -4.45      0.00
  -22    4   21      3.05      0.00
  -20    4   21     -6.84      0.00
  -18    4   21      5.24      0.00
  -16    4   21     -2.63      0.00
  -14    4   21      4.31      0.00
  -12    4   21     -0.91      0.00
  -10    4   21      6.60      0.00
   -8    4   21     -6.52      0.00
   -6    4   21     -0.83      0.00
   -4    4   21      1.79      0.00
  -23    5   21     -2.41      0.00
  -21    5   21      1.25      0.00
  -19    5   21     -2.71      0.00
  -17    5   21      3.05      0.00
  -15    5   21     -2.46      0.00
  -13    5   21      6.19      0.00
  -11    5   21      0.51      0.00
   -9    5   21      1.67      0.00
   -7    5   21     -4.64      0.00
   -5    5   21      3.02      0.00
  -22    6   21     -3.57      0.00
  -20    6   21      6.12      0.00
  -18    6   21     -4.12      0.00
  -16    6   21      2.72      0.00
  -14    6   21     -2.10      0.00
  -12    6   21      6.63      0.00
  -10    6   21      0.23      0.00
   -8    6   21     -3.02      0.00
   -6    6   21      0.31      0.00
  -21    7   21      1.12      0.00
  -19    7   21      3.46      0.00
  -17    7   21     -3.48      0.00
  -15    7   21      1.48      0.00
  -13    7   21      0.24      0.00
  -11    7   21      5.19      0.00
   -9    7   21     -5.10      0.00
   -7    7   21      0.90      0.00
  -18    8   21      2.37      0.00
  -16    8   21     -2.65      0.00
  -14    8   21      1.07      0.00
  -12    8   21      2.29      0.00
  -10    8   21     -3.23      0.00
    0    0    0      0.00      0.00
# SQUEEZE RESULTS (Version = 140518)
# Note: Data are Listed for all Voids in the P1 Unit Cell
# i.e. Centre of Gravity, Solvent Accessible Volume,
# Recovered number of Electrons in the Void and
# Details about the Squeezed Material
loop_
  _platon_squeeze_void_nr
  _platon_squeeze_void_average_x
  _platon_squeeze_void_average_y
  _platon_squeeze_void_average_z
  _platon_squeeze_void_volume
  _platon_squeeze_void_count_electrons
  _platon_squeeze_void_content
   1 -0.006 -0.001 -0.008      2285      1080 ' '
# Missing Reflections Below sin(th)/lambda = 0.25
loop_
  _platon_missing_refln_index_h
  _platon_missing_refln_index_k
  _platon_missing_refln_index_l
  _platon_missing_refln_theta
    2    0    0     1.519
    1    1    0     1.342
    3    1    0     2.534
    5    1    0     3.959
    2    2    0     2.685
    0    4    0     4.431
   -1    1    1     1.639
    1    1    1     2.058
   -1    3    2     4.088
   -8    0    4     6.235
   -4    0    4     4.843
    2    2    4     6.331
_platon_squeeze_void_probe_radius                  1.20
_platon_squeeze_details
The unit cell contains 34 disordered molecules of acetone which were
treated as a diffuse contribution to the overall scattering without specific
atom positions by SQUEEZE/PLATON.
TITL mo_StauDo3_0m_a.res in C2/c
CELL   29.1790   18.4000   17.2120     90.00    113.27     90.00
SPGR C2/c
# Solvent Accessible Volume =      2289
# Electrons Found in S.A.V. =      1078
# Note: Atoms in Void are Labelled as Cxxx and Qxxx for all Others
C101 0.251 0.299 0.714 !       4.29 eA-3
C102 0.244 0.180 0.414 !       3.65 eA-3
C103 0.258 0.214 0.377 !       3.64 eA-3
C104 0.275 0.290 0.406 !       3.17 eA-3
C105 0.740 0.185 0.832 !       2.84 eA-3
Q106 0.507 0.045 0.213 !       2.48 eA-3
C107 0.078 0.015 0.352 !       2.45 eA-3
Q108 0.507 0.040 0.797 !       2.44 eA-3
C109 0.072 0.014 0.791 !       2.31 eA-3
C110 0.889 0.069 0.030 !       2.27 eA-3
C111 0.467 0.483 0.085 !       2.27 eA-3
C112 0.515 0.448 0.314 !       1.90 eA-3
Q113 1.000 0.500 0.250 !       1.86 eA-3
Q114 0.772 0.250 0.311 !       1.85 eA-3
C115 0.740 0.238 0.732 !       1.85 eA-3
Q116 0.008 0.080 0.217 !       1.85 eA-3
Q117 0.759 0.225 0.315 !       1.84 eA-3
Q118 0.028 0.498 0.231 !       1.63 eA-3
C119 0.017 0.048 0.267 !       1.58 eA-3
C120 0.400 0.426 0.109 !       1.57 eA-3
C121 0.511 0.425 0.378 !       1.56 eA-3
Q122 0.216 0.189 0.194 !       1.52 eA-3
C123 0.630 0.411 0.399 !       1.52 eA-3
C124 0.468 0.451 0.271 !       1.52 eA-3
Q125 0.773 0.310 0.682 !       1.50 eA-3
Q126 0.639 0.262 0.417 !       1.46 eA-3
Q127 0.808 0.283 0.280 !       1.46 eA-3
Q128 0.712 0.331 0.713 !       1.43 eA-3
Q129 0.357 0.246 0.419 !       1.42 eA-3
Q130 0.828 0.266 0.237 !       1.42 eA-3
Q131 0.775 0.165 0.337 !       1.39 eA-3
C132 0.968 0.011 0.283 !       1.38 eA-3
Q133 0.262 0.194 0.819 !       1.38 eA-3
Q134 0.157 0.124 0.940 !       1.36 eA-3
Q135 0.486 0.330 0.288 !       1.33 eA-3
Q136 0.471 0.092 0.281 !       1.31 eA-3
C137 0.536 0.418 0.303 !       1.30 eA-3
Q138 0.334 0.208 0.703 !       1.30 eA-3
Q139 0.149 0.221 0.567 !       1.30 eA-3
Q140 0.490 0.048 0.364 !       1.29 eA-3
Q141 0.169 0.239 0.591 !       1.27 eA-3
Q142 0.447 0.483 0.287 !       1.26 eA-3
Q143 0.873 0.454 0.567 !       1.26 eA-3
Q144 0.193 0.294 0.331 !       1.26 eA-3
Q145 0.155 0.127 0.561 !       1.25 eA-3
Q146 0.798 0.317 0.230 !       1.25 eA-3
Q147 0.780 0.207 0.206 !       1.25 eA-3
C148 0.414 0.451 0.138 !       1.24 eA-3
Q149 0.149 0.264 0.251 !       1.23 eA-3
C150 0.500 0.500 0.256 !       1.20 eA-3
C151 0.406 0.449 0.051 !       1.18 eA-3
Q152 0.851 0.193 0.954 !       1.18 eA-3
C153 0.853 0.103 0.978 !       1.17 eA-3
C154 0.624 0.454 0.454 !       1.17 eA-3
Q155 0.842 0.043 0.072 !       1.17 eA-3
Q156 0.603 0.370 0.002 !       1.16 eA-3
Q157 0.103 0.870 1.002 !       1.16 eA-3
Q158 0.882 0.127 0.965 !       1.15 eA-3
Q159 0.140 0.091 0.584 !       1.13 eA-3
Q160 0.007 0.080 0.547 !       1.11 eA-3
Q161 0.897 0.128 0.582 !       1.08 eA-3
Q162 0.806 0.349 0.207 !       1.08 eA-3
Q163 0.135 0.126 0.985 !       1.05 eA-3
Q164 0.595 0.341 0.962 !       1.05 eA-3
Q165 0.874 0.141 0.040 !       1.03 eA-3
Q166 0.142 0.483 0.457 !       1.03 eA-3
Q167 0.821 0.073 0.598 !       1.02 eA-3
Q168 0.642 0.015 0.950 !       1.02 eA-3
Q169 0.306 0.339 0.641 !       1.01 eA-3
Q170 0.375 0.335 0.029 !       1.00 eA-3
Q171 0.780 0.319 0.106 !       1.00 eA-3
Q172 0.427 0.402 0.162 !       1.00 eA-3
Q173 0.827 0.172 0.071 !       0.99 eA-3
Q174 0.188 0.152 0.395 !       0.99 eA-3
Q175 0.209 0.026 0.926 !       0.97 eA-3
Q176 0.935 0.332 0.467 !       0.97 eA-3
Q177 0.415 0.482 0.790 !       0.97 eA-3
Q178 0.693 0.191 0.174 !       0.95 eA-3
Q179 0.900 0.314 0.528 !       0.94 eA-3
Q180 0.140 0.317 0.204 !       0.94 eA-3
Q181 0.133 0.069-0.003 !       0.94 eA-3
Q182 0.781 0.397 0.283 !       0.93 eA-3
Q183 0.655 0.342 0.966 !       0.92 eA-3
Q184 0.547 0.350 0.283 !       0.91 eA-3
Q185 0.691 0.221 0.213 !       0.91 eA-3
Q186 0.755 0.157 0.694 !       0.91 eA-3
Q187 0.080 0.206-0.009 !       0.90 eA-3
Q188 0.299 0.421 0.591 !       0.88 eA-3
Q189 0.614 0.124 0.675 !       0.88 eA-3
Q190 0.588 0.109 0.689 !       0.88 eA-3
Q191 0.470 0.156 0.280 !       0.88 eA-3
Q192 0.815 0.123 0.056 !       0.88 eA-3
Q193 0.610 0.195 0.665 !       0.87 eA-3
Q194 0.056 0.324 0.690 !       0.87 eA-3
Q195 0.688 0.212 0.890 !       0.86 eA-3
Q196 0.616 0.125 0.026 !       0.86 eA-3
Q197 0.340 0.404 0.564 !       0.85 eA-3
Q198 0.060 0.359 0.717 !       0.85 eA-3
Q199 0.217 0.155 0.490 !       0.85 eA-3
)
;
_shelx_fab_checksum              97496
loop_
_space_group_symop_id
_space_group_symop_operation_xyz
1 x,y,z
2 -x,y,1/2-z
3 -x,-y,-z
4 x,-y,1/2+z
5 1/2+x,1/2+y,z
6 1/2-x,1/2+y,1/2-z
7 1/2-x,1/2-y,-z
8 1/2+x,1/2-y,1/2+z
loop_
_atom_site_aniso_label
_atom_site_aniso_U_11
_atom_site_aniso_U_22
_atom_site_aniso_U_33
_atom_site_aniso_U_23
_atom_site_aniso_U_13
_atom_site_aniso_U_12
Ru1 0.0294(3) 0.0250(3) 0.0317(3) 0.0017(2) 0.0181(2) -0.0036(2)
Ru02 0.0293(3) 0.0229(3) 0.0287(3) 0.0017(2) 0.0119(2) 0.0088(2)
F1 0.035(2) 0.068(3) 0.075(3) 0.028(3) 0.005(2) -0.003(2)
F2 0.0643(17) 0.088(2) 0.0566(16) -0.0181(16) 0.0308(14) 0.0185(17)
O1 0.033(2) 0.028(2) 0.038(2) 0.0043(17) 0.0189(19) -0.0034(16)
O2 0.035(2) 0.034(2) 0.037(2) 0.0072(18) 0.017(2) -0.0070(18)
O3 0.040(2) 0.030(2) 0.040(2) 0.0024(18) 0.0254(19) -0.0005(18)
O4 0.046(3) 0.038(3) 0.038(2) -0.001(2) 0.028(2) -0.003(2)
O10 0.036(2) 0.035(2) 0.045(2) 0.008(2) 0.021(2) -0.0008(19)
F3 0.076(4) 0.085(4) 0.058(3) -0.004(3) -0.031(3) 0.005(3)
F4 0.054(3) 0.073(3) 0.091(4) 0.005(3) 0.046(3) -0.008(2)
C1 0.033(3) 0.032(3) 0.031(3) -0.002(2) 0.018(2) -0.003(2)
C2 0.032(3) 0.032(3) 0.033(3) -0.001(2) 0.020(3) -0.002(2)
C3 0.042(4) 0.036(3) 0.041(4) 0.004(3) 0.021(3) -0.003(3)
C4 0.044(4) 0.042(4) 0.039(4) 0.011(3) 0.014(3) -0.002(3)
O5 0.035(2) 0.031(2) 0.030(2) 0.0005(18) 0.0089(18) 0.0123(18)
C5 0.034(3) 0.042(4) 0.046(4) 0.008(3) 0.012(3) -0.003(3)
O6 0.034(2) 0.026(2) 0.031(2) -0.0044(17) 0.0080(18) 0.0077(17)
C6 0.032(3) 0.046(4) 0.053(4) 0.011(3) 0.018(3) -0.007(3)
O7 0.037(2) 0.027(2) 0.045(2) 0.0079(19) 0.021(2) 0.0116(18)
C7 0.036(3) 0.034(3) 0.038(3) 0.009(3) 0.016(3) 0.001(3)
O8 0.034(2) 0.028(2) 0.039(2) 0.0016(18) 0.0175(19) 0.0081(17)
C8 0.027(3) 0.033(3) 0.035(3) 0.000(2) 0.014(2) -0.003(2)
C9 0.0643(17) 0.088(2) 0.0566(16) -0.0181(16) 0.0308(14) 0.0185(17)
O9 0.044(2) 0.029(2) 0.039(2) 0.0055(19) 0.018(2) 0.0105(19)
C10 0.0643(17) 0.088(2) 0.0566(16) -0.0181(16) 0.0308(14) 0.0185(17)
C11 0.0643(17) 0.088(2) 0.0566(16) -0.0181(16) 0.0308(14) 0.0185(17)
C12 0.0643(17) 0.088(2) 0.0566(16) -0.0181(16) 0.0308(14) 0.0185(17)
C13 0.0643(17) 0.088(2) 0.0566(16) -0.0181(16) 0.0308(14) 0.0185(17)
C14 0.0643(17) 0.088(2) 0.0566(16) -0.0181(16) 0.0308(14) 0.0185(17)
C32 0.028(3) 0.040(3) 0.029(3) 0.008(3) 0.008(2) -0.004(3)
C33 0.055(4) 0.046(4) 0.057(4) 0.010(3) 0.029(4) -0.007(4)
C34 0.056(5) 0.050(5) 0.095(7) 0.015(4) 0.051(5) 0.001(4)
C15 0.031(3) 0.034(3) 0.031(3) 0.003(2) 0.016(2) 0.008(2)
C16 0.030(3) 0.035(3) 0.033(3) 0.002(3) 0.013(3) 0.008(2)
C17 0.043(4) 0.037(4) 0.056(5) 0.006(3) -0.001(3) 0.002(3)
C18 0.077(6) 0.044(5) 0.063(5) -0.006(4) -0.013(5) -0.006(4)
C19 0.047(4) 0.061(5) 0.043(4) 0.000(4) -0.001(3) 0.006(4)
C20 0.051(4) 0.057(5) 0.035(3) 0.010(3) 0.014(3) 0.023(4)
C21 0.047(4) 0.041(4) 0.033(3) 0.002(3) 0.018(3) 0.017(3)
C22 0.033(3) 0.029(3) 0.033(3) -0.001(2) 0.014(2) 0.006(2)
C23 0.031(3) 0.033(3) 0.032(3) 0.002(2) 0.011(3) 0.005(2)
C24 0.032(3) 0.036(3) 0.033(3) -0.001(3) 0.008(2) 0.004(3)
C25 0.033(3) 0.047(4) 0.042(4) -0.005(3) 0.016(3) 0.003(3)
C26 0.032(3) 0.059(5) 0.050(4) -0.003(4) 0.019(3) -0.004(3)
C27 0.052(4) 0.035(4) 0.079(6) 0.013(4) 0.029(4) 0.000(3)
C28 0.040(4) 0.033(3) 0.063(5) 0.000(3) 0.023(3) 0.005(3)
C29 0.051(4) 0.030(4) 0.044(4) 0.005(3) 0.013(3) 0.005(3)
C30 0.059(5) 0.044(5) 0.096(7) 0.002(5) 0.014(5) -0.002(4)
C31 0.066(6) 0.037(5) 0.112(9) 0.004(5) 0.022(6) 0.020(4)
loop_
_atom_site_label
_atom_site_type_symbol
_atom_site_thermal_displace_type
_atom_site_fract_x
_atom_site_fract_y
_atom_site_fract_z
_atom_site_occupancy
_atom_site_U_iso_or_equiv
_atom_site_calc_flag
_atom_site_refinement_flags
_atom_site_disorder_assembly
_atom_site_disorder_group
Ru1 Ru Uani 0.50512(2) 0.04808(2) 0.46289(3) 1.000 0.0268(2) d . . .
Ru02 Ru Uani 0.23750(2) 0.30892(2) 0.99145(3) 1.000 0.0268(2) d . . .
F1 F Uani 0.79577(17) 0.0231(3) 0.8258(3) 1.000 0.0646(16) d . . .
F2 F Uani 0.35288(19) 0.2523(3) 0.7188(3) 1.000 0.0675(10) d . . .
O1 O Uani 0.57822(16) 0.0564(2) 0.5495(3) 1.000 0.0315(12) d . . .
O2 O Uani 0.56773(17) -0.0389(2) 0.6225(3) 1.000 0.0345(12) d . . .
O3 O Uani 0.48031(17) 0.1176(2) 0.5329(3) 1.000 0.0337(12) d . . .
O4 O Uani 0.47197(18) 0.0225(3) 0.6077(3) 1.000 0.0371(16) d . . .
O10 O Uani 0.51715(17) 0.1531(3) 0.3960(3) 1.000 0.0371(12) d . . .
F3 F Uani 0.0373(2) 0.1555(4) 0.5272(4) 1.000 0.091(2) d . . .
F4 F Uani 0.47583(19) 0.3496(3) 0.8436(4) 1.000 0.0673(19) d . . .
C1 C Uani 0.5945(2) 0.0110(3) 0.6098(4) 1.000 0.0303(17) d . . .
C2 C Uani 0.6476(2) 0.0147(3) 0.6679(4) 1.000 0.0301(17) d . . .
C3 C Uani 0.6670(3) -0.0316(4) 0.7369(4) 1.000 0.038(2) d . . .
C4 C Uani 0.7166(3) -0.0304(4) 0.7894(5) 1.000 0.042(2) d . . .
O5 O Uani 0.18752(16) 0.2865(2) 0.8696(3) 1.000 0.0332(12) d . . .
C5 C Uani 0.7467(3) 0.0203(4) 0.7728(5) 1.000 0.042(2) d . . .
O6 O Uani 0.21153(16) 0.1696(2) 0.8865(3) 1.000 0.0318(12) d . . .
C6 C Uani 0.7291(3) 0.0680(4) 0.7063(5) 1.000 0.043(2) d . . .
O7 O Uani 0.29249(17) 0.3341(2) 0.9477(3) 1.000 0.0348(12) d . . .
C7 C Uani 0.6792(2) 0.0650(4) 0.6531(4) 1.000 0.0356(17) d . . .
O8 O Uani 0.31732(16) 0.2172(2) 0.9651(3) 1.000 0.0327(12) d . . .
C8 C Uani 0.4664(2) 0.0891(3) 0.5876(4) 1.000 0.0311(17) d . . .
C9 C Uani 0.4405(4) 0.1358(6) 0.6272(6) 1.000 0.0675(10) d . . .
O9 O Uani 0.20340(18) 0.4245(2) 0.9731(3) 1.000 0.0368(12) d . . .
C10 C Uani 0.4310(4) 0.1096(6) 0.6949(6) 1.000 0.0675(10) d . . .
C11 C Uani 0.4025(4) 0.1503(6) 0.7281(6) 1.000 0.0675(10) d . . .
C12 C Uani 0.3832(4) 0.2134(6) 0.6898(6) 1.000 0.0675(10) d . . .
C13 C Uani 0.3941(3) 0.2443(6) 0.6246(6) 1.000 0.0675(10) d . . .
C14 C Uani 0.4234(4) 0.2037(6) 0.5944(6) 1.000 0.0675(10) d . . .
C32 C Uani 0.5469(2) 0.1723(4) 0.3667(4) 1.000 0.0334(17) d . . .
C33 C Uani 0.5531(3) 0.2517(4) 0.3524(5) 1.000 0.051(2) d . . .
C34 C Uani 0.5778(3) 0.1181(5) 0.3428(7) 1.000 0.060(3) d . . .
C15 C Uani 0.1843(2) 0.2213(3) 0.8449(4) 1.000 0.0308(17) d . . .
C16 C Uani 0.1453(2) 0.2035(4) 0.7595(4) 1.000 0.0325(17) d . . .
C17 C Uani 0.1350(3) 0.1325(4) 0.7350(5) 1.000 0.052(3) d . . .
C18 C Uani 0.0996(4) 0.1156(5) 0.6541(6) 1.000 0.074(3) d . . .
C19 C Uani 0.0738(3) 0.1727(5) 0.6043(5) 1.000 0.056(3) d . . .
C20 C Uani 0.0827(3) 0.2439(5) 0.6273(5) 1.000 0.049(2) d . . .
C21 C Uani 0.1190(3) 0.2601(4) 0.7049(4) 1.000 0.040(2) d . . .
C22 C Uani 0.3212(2) 0.2823(3) 0.9455(4) 1.000 0.0314(17) d . . .
C23 C Uani 0.3627(2) 0.3012(3) 0.9192(4) 1.000 0.0325(17) d . . .
C24 C Uani 0.3983(2) 0.2486(4) 0.9259(4) 1.000 0.0352(17) d . . .
C25 C Uani 0.4380(2) 0.2653(4) 0.9028(4) 1.000 0.040(2) d . . .
C26 C Uani 0.4389(3) 0.3337(5) 0.8700(5) 1.000 0.046(2) d . . .
C27 C Uani 0.4039(3) 0.3862(4) 0.8610(6) 1.000 0.054(3) d . . .
C28 C Uani 0.3660(3) 0.3689(4) 0.8881(5) 1.000 0.045(2) d . . .
C29 C Uani 0.2170(3) 0.4865(4) 0.9929(5) 1.000 0.044(2) d . . .
C30 C Uani 0.2723(4) 0.5058(5) 1.0330(8) 1.000 0.072(3) d . . .
C31 C Uani 0.1799(4) 0.5457(5) 0.9776(9) 1.000 0.076(4) d . . .
H3 H Uiso 0.64540 -0.06490 0.74790 1.000 0.0460 c RU . .
H4 H Uiso 0.72980 -0.06320 0.83560 1.000 0.0510 c RU . .
H6 H Uiso 0.75070 0.10230 0.69700 1.000 0.0520 c RU . .
H7 H Uiso 0.66630 0.09720 0.60630 1.000 0.0430 c RU . .
H10 H Uiso 0.44390 0.06360 0.71880 1.000 0.0810 c RU . .
H11 H Uiso 0.39700 0.13390 0.77600 1.000 0.0810 c RU . .
H13 H Uiso 0.38190 0.29090 0.60210 1.000 0.0810 c RU . .
H14 H Uiso 0.43200 0.22280 0.55060 1.000 0.0810 c RU . .
H33A H Uiso 0.54910 0.25930 0.29370 1.000 0.0760 c RU . .
H33B H Uiso 0.58650 0.26770 0.39070 1.000 0.0760 c RU . .
H33C H Uiso 0.52790 0.27990 0.36350 1.000 0.0760 c RU . .
H34A H Uiso 0.56310 0.11050 0.28140 1.000 0.0910 c RU . .
H34B H Uiso 0.57860 0.07180 0.37150 1.000 0.0910 c RU . .
H34C H Uiso 0.61190 0.13660 0.35980 1.000 0.0910 c RU . .
H17 H Uiso 0.15200 0.09460 0.77290 1.000 0.0620 c RU . .
H18 H Uiso 0.09360 0.06690 0.63450 1.000 0.0890 c RU . .
H20 H Uiso 0.06420 0.28140 0.59030 1.000 0.0580 c RU . .
H21 H Uiso 0.12630 0.30930 0.72190 1.000 0.0470 c RU . .
H24 H Uiso 0.39570 0.20140 0.94620 1.000 0.0420 c RU . .
H25 H Uiso 0.46350 0.23080 0.90940 1.000 0.0480 c RU . .
H27 H Uiso 0.40540 0.43240 0.83740 1.000 0.0650 c RU . .
H28 H Uiso 0.34190 0.40480 0.88500 1.000 0.0530 c RU . .
H30A H Uiso 0.29210 0.46110 1.04810 1.000 0.1080 c RU . .
H30B H Uiso 0.27890 0.53490 1.08400 1.000 0.1080 c RU . .
H30C H Uiso 0.28130 0.53380 0.99270 1.000 0.1080 c RU . .
H31A H Uiso 0.18680 0.58440 0.94460 1.000 0.1140 c RU . .
H31B H Uiso 0.18210 0.56530 1.03180 1.000 0.1140 c RU . .
H31C H Uiso 0.14630 0.52640 0.94610 1.000 0.1140 c RU . .
loop_
_atom_type_symbol
_atom_type_description
_atom_type_scat_dispersion_real
_atom_type_scat_dispersion_imag
_atom_type_scat_source
C C 0.0033 0.0016 ' International Tables Vol C Tables 4.2.6.8 and 6.1.1.4'
H H 0.0000 0.0000 ' International Tables Vol C Tables 4.2.6.8 and 6.1.1.4'
F F 0.0171 0.0103 ' International Tables Vol C Tables 4.2.6.8 and 6.1.1.4'
O O 0.0106 0.0060 ' International Tables Vol C Tables 4.2.6.8 and 6.1.1.4'
Ru Ru -1.2594 0.8363 ' International Tables Vol C Tables 4.2.6.8 and 6.1.1.4'
loop_
_geom_angle_atom_site_label_1
_geom_angle_atom_site_label_2
_geom_angle_atom_site_label_3
_geom_angle
_geom_angle_site_symmetry_1
_geom_angle_site_symmetry_2
_geom_angle_site_symmetry_3
_geom_angle_publ_flag
O1 Ru1 O3 91.88(19) . . . yes
O1 Ru1 O10 88.92(17) . . . yes
Ru1 Ru1 O1 88.83(12) 3_656 . . yes
O1 Ru1 O2 179.37(17) . . 3_656 yes
O1 Ru1 O4 89.38(19) . . 3_656 yes
O3 Ru1 O10 86.06(17) . . . yes
Ru1 Ru1 O3 90.00(12) 3_656 . . yes
O2 Ru1 O3 88.08(19) 3_656 . . yes
O3 Ru1 O4 178.5(2) . . 3_656 yes
Ru1 Ru1 O10 175.40(12) 3_656 . . yes
O2 Ru1 O10 91.70(17) 3_656 . . yes
O4 Ru1 O10 94.8(2) 3_656 . . yes
Ru1 Ru1 O2 90.54(12) 3_656 . 3_656 yes
Ru1 Ru1 O4 89.20(15) 3_656 . 3_656 yes
O2 Ru1 O4 90.65(19) 3_656 . 3_656 yes
O5 Ru02 O9 87.25(16) . . . yes
Ru02 Ru02 O5 90.16(11) 7_557 . . yes
O5 Ru02 O6 179.13(18) . . 7_557 yes
O5 Ru02 O8 89.09(19) . . 7_557 yes
O7 Ru02 O9 95.60(17) . . . yes
Ru02 Ru02 O7 90.31(11) 7_557 . . yes
O6 Ru02 O7 88.69(19) 7_557 . . yes
O7 Ru02 O8 179.48(15) . . 7_557 yes
Ru02 Ru02 O9 173.58(14) 7_557 . . yes
O6 Ru02 O9 93.47(16) 7_557 . . yes
O8 Ru02 O9 84.89(17) 7_557 . . yes
Ru02 Ru02 O6 89.17(11) 7_557 . 7_557 yes
Ru02 Ru02 O8 89.20(11) 7_557 . 7_557 yes
O6 Ru02 O8 91.46(19) 7_557 . 7_557 yes
O5 Ru02 O7 90.75(19) . . . yes
Ru1 O1 C1 119.1(4) . . . yes
Ru1 O2 C1 117.7(4) 3_656 . . yes
Ru1 O3 C8 117.5(3) . . . yes
Ru1 O4 C8 119.0(4) 3_656 . . yes
Ru1 O10 C32 135.5(5) . . . yes
O1 C1 O2 123.8(6) . . . yes
O2 C1 C2 117.8(5) . . . yes
O1 C1 C2 118.5(5) . . . yes
C1 C2 C3 121.0(6) . . . no
C3 C2 C7 119.1(6) . . . no
C1 C2 C7 119.9(5) . . . no
C2 C3 C4 121.5(7) . . . no
C3 C4 C5 117.7(7) . . . no
C4 C5 C6 123.0(8) . . . no
F1 C5 C6 118.9(8) . . . yes
F1 C5 C4 118.1(7) . . . yes
Ru02 O5 C15 117.3(4) . . . yes
Ru02 O6 C15 117.9(4) 7_557 . . yes
C5 C6 C7 118.5(8) . . . no
C2 C7 C6 120.2(6) . . . no
Ru02 O7 C22 117.0(4) . . . yes
O4 C8 C9 118.1(7) . . . yes
O3 C8 C9 118.1(6) . . . yes
O3 C8 O4 123.7(6) . . . yes
Ru02 O8 C22 118.7(4) 7_557 . . yes
C8 C9 C14 120.4(9) . . . no
C10 C9 C14 119.9(11) . . . no
C8 C9 C10 119.6(9) . . . no
Ru02 O9 C29 138.7(6) . . . yes
C9 C10 C11 120.4(10) . . . no
C10 C11 C12 117.6(10) . . . no
F2 C12 C11 118.5(9) . . . yes
C11 C12 C13 124.0(11) . . . no
F2 C12 C13 117.5(9) . . . yes
C12 C13 C14 116.8(10) . . . no
C9 C14 C13 120.8(10) . . . no
C33 C32 C34 118.3(7) . . . no
O10 C32 C33 120.1(7) . . . yes
O10 C32 C34 121.6(7) . . . yes
C4 C3 H3 119.00 . . . no
C2 C3 H3 119.00 . . . no
C5 C4 H4 121.00 . . . no
C3 C4 H4 121.00 . . . no
C5 C6 H6 121.00 . . . no
C7 C6 H6 121.00 . . . no
C2 C7 H7 120.00 . . . no
C6 C7 H7 120.00 . . . no
C11 C10 H10 120.00 . . . no
C9 C10 H10 120.00 . . . no
C10 C11 H11 121.00 . . . no
C12 C11 H11 121.00 . . . no
C12 C13 H13 122.00 . . . no
C14 C13 H13 121.00 . . . no
C13 C14 H14 120.00 . . . no
C9 C14 H14 120.00 . . . no
C32 C33 H33C 110.00 . . . no
H33A C33 H33B 109.00 . . . no
H33A C33 H33C 109.00 . . . no
C32 C33 H33B 109.00 . . . no
C32 C33 H33A 110.00 . . . no
H33B C33 H33C 109.00 . . . no
H34A C34 H34C 109.00 . . . no
H34B C34 H34C 109.00 . . . no
C32 C34 H34A 110.00 . . . no
C32 C34 H34B 110.00 . . . no
C32 C34 H34C 110.00 . . . no
H34A C34 H34B 109.00 . . . no
O5 C15 O6 125.2(6) . . . yes
O5 C15 C16 117.7(6) . . . yes
O6 C15 C16 117.1(5) . . . yes
C15 C16 C17 120.0(6) . . . no
C15 C16 C21 119.7(6) . . . no
C17 C16 C21 120.3(6) . . . no
C16 C17 C18 120.2(7) . . . no
C17 C18 C19 117.1(8) . . . no
F3 C19 C18 116.8(8) . . . yes
F3 C19 C20 119.3(8) . . . yes
C18 C19 C20 123.9(8) . . . no
C19 C20 C21 118.5(8) . . . no
C16 C21 C20 119.8(7) . . . no
O7 C22 O8 124.8(6) . . . yes
O7 C22 C23 117.1(5) . . . yes
O8 C22 C23 118.2(5) . . . yes
C22 C23 C24 118.8(5) . . . no
C22 C23 C28 121.3(6) . . . no
C24 C23 C28 119.9(7) . . . no
C23 C24 C25 119.9(6) . . . no
C24 C25 C26 117.8(7) . . . no
F4 C26 C25 118.6(8) . . . yes
F4 C26 C27 117.8(8) . . . yes
C25 C26 C27 123.7(8) . . . no
C26 C27 C28 117.1(7) . . . no
C23 C28 C27 121.6(7) . . . no
O9 C29 C30 121.1(8) . . . yes
O9 C29 C31 120.4(9) . . . yes
C30 C29 C31 118.5(8) . . . no
C16 C17 H17 120.00 . . . no
C18 C17 H17 120.00 . . . no
C17 C18 H18 121.00 . . . no
C19 C18 H18 121.00 . . . no
C19 C20 H20 121.00 . . . no
C21 C20 H20 121.00 . . . no
C16 C21 H21 120.00 . . . no
C20 C21 H21 120.00 . . . no
C23 C24 H24 120.00 . . . no
C25 C24 H24 120.00 . . . no
C24 C25 H25 121.00 . . . no
C26 C25 H25 121.00 . . . no
C26 C27 H27 121.00 . . . no
C28 C27 H27 122.00 . . . no
C23 C28 H28 119.00 . . . no
C27 C28 H28 119.00 . . . no
C29 C30 H30A 109.00 . . . no
C29 C30 H30B 109.00 . . . no
C29 C30 H30C 109.00 . . . no
H30A C30 H30B 110.00 . . . no
H30A C30 H30C 110.00 . . . no
H30B C30 H30C 110.00 . . . no
C29 C31 H31A 109.00 . . . no
C29 C31 H31B 109.00 . . . no
C29 C31 H31C 109.00 . . . no
H31A C31 H31B 109.00 . . . no
H31A C31 H31C 109.00 . . . no
H31B C31 H31C 110.00 . . . no
loop_
_geom_bond_atom_site_label_1
_geom_bond_atom_site_label_2
_geom_bond_distance
_geom_bond_site_symmetry_1
_geom_bond_site_symmetry_2
_geom_bond_publ_flag
Ru1 O1 2.070(5) . . yes
Ru1 O3 2.074(5) . . yes
Ru1 O10 2.346(5) . . yes
Ru1 Ru1 2.2701(11) . 3_656 yes
Ru1 O2 2.059(5) . 3_656 yes
Ru1 O4 2.062(5) . 3_656 yes
Ru02 O7 2.076(5) . . yes
Ru02 O9 2.316(4) . . yes
Ru02 Ru02 2.2695(10) . 7_557 yes
Ru02 O6 2.077(5) . 7_557 yes
Ru02 O8 2.072(5) . 7_557 yes
Ru02 O5 2.069(5) . . yes
F1 C5 1.361(10) . . yes
F2 C12 1.376(13) . . yes
O1 C1 1.269(7) . . yes
O2 C1 1.279(8) . . yes
O3 C8 1.276(8) . . yes
O4 C8 1.266(8) . . yes
O10 C32 1.216(8) . . yes
F3 C19 1.371(10) . . yes
F4 C26 1.357(11) . . yes
C1 C2 1.477(9) . . no
C2 C3 1.388(9) . . no
C2 C7 1.399(9) . . no
C3 C4 1.371(12) . . no
C4 C5 1.386(12) . . no
O5 C15 1.264(7) . . yes
C5 C6 1.371(11) . . no
O6 C15 1.265(7) . . yes
C6 C7 1.381(11) . . no
O7 C22 1.279(7) . . yes
O8 C22 1.262(7) . . yes
C8 C9 1.477(13) . . no
O9 C29 1.212(8) . . yes
C9 C10 1.387(15) . . no
C9 C14 1.381(15) . . no
C10 C11 1.398(16) . . no
C11 C12 1.344(15) . . no
C12 C13 1.402(14) . . no
C13 C14 1.382(15) . . no
C32 C33 1.504(10) . . no
C32 C34 1.507(12) . . no
C3 H3 0.9500 . . no
C4 H4 0.9500 . . no
C6 H6 0.9500 . . no
C7 H7 0.9500 . . no
C10 H10 0.9500 . . no
C11 H11 0.9500 . . no
C13 H13 0.9500 . . no
C14 H14 0.9500 . . no
C33 H33A 0.9800 . . no
C33 H33C 0.9800 . . no
C33 H33B 0.9800 . . no
C34 H34C 0.9800 . . no
C34 H34B 0.9800 . . no
C34 H34A 0.9800 . . no
C15 C16 1.497(9) . . no
C16 C17 1.369(10) . . no
C16 C21 1.410(10) . . no
C17 C18 1.402(13) . . no
C18 C19 1.377(13) . . no
C19 C20 1.364(13) . . no
C20 C21 1.370(11) . . no
C22 C23 1.492(9) . . no
C23 C24 1.391(9) . . no
C23 C28 1.374(9) . . no
C24 C25 1.399(9) . . no
C25 C26 1.384(12) . . no
C26 C27 1.369(13) . . no
C27 C28 1.396(13) . . no
C29 C30 1.525(16) . . no
C29 C31 1.484(14) . . no
C17 H17 0.9500 . . no
C18 H18 0.9500 . . no
C20 H20 0.9500 . . no
C21 H21 0.9500 . . no
C24 H24 0.9500 . . no
C25 H25 0.9500 . . no
C27 H27 0.9500 . . no
C28 H28 0.9500 . . no
C30 H30A 0.9800 . . no
C30 H30B 0.9800 . . no
C30 H30C 0.9800 . . no
C31 H31A 0.9800 . . no
C31 H31B 0.9800 . . no
C31 H31C 0.9800 . . no
loop_
_geom_hbond_atom_site_label_D
_geom_hbond_atom_site_label_H
_geom_hbond_atom_site_label_A
_geom_hbond_distance_DH
_geom_hbond_distance_HA
_geom_hbond_distance_DA
_geom_hbond_angle_DHA
_geom_hbond_site_symmetry_A
_geom_hbond_publ_flag
C6 H6 O6 0.9500 2.4600 3.352(10) 156.00 2_656 yes
C25 H25 O3 0.9500 2.5900 3.494(8) 158.00 2_656 yes
C34 H34B O4 0.9800 2.3900 3.241(11) 144.00 3_656 yes
C34 H34C O5 0.9800 2.5700 3.518(11) 163.00 8_554 yes
loop_
_geom_torsion_atom_site_label_1
_geom_torsion_atom_site_label_2
_geom_torsion_atom_site_label_3
_geom_torsion_atom_site_label_4
_geom_torsion
_geom_torsion_site_symmetry_1
_geom_torsion_site_symmetry_2
_geom_torsion_site_symmetry_3
_geom_torsion_site_symmetry_4
_geom_torsion_publ_flag
O3 Ru1 O1 C1 91.2(5) . . . . no
O10 Ru1 O1 C1 177.3(5) . . . . no
Ru1 Ru1 O1 C1 1.3(4) 3_656 . . . no
O4 Ru1 O1 C1 -88.0(5) 3_656 . . . no
O1 Ru1 O3 C8 -91.4(5) . . . . no
O10 Ru1 O3 C8 179.8(5) . . . . no
Ru1 Ru1 O3 C8 -2.6(5) 3_656 . . . no
O2 Ru1 O3 C8 88.0(5) 3_656 . . . no
O1 Ru1 O10 C32 54.2(6) . . . . no
O3 Ru1 O10 C32 146.1(6) . . . . no
O2 Ru1 O10 C32 -125.9(6) 3_656 . . . no
O4 Ru1 O10 C32 -35.1(7) 3_656 . . . no
O1 Ru1 Ru1 O2 -0.03(18) . . 3_656 . no
O1 Ru1 Ru1 O4 90.60(19) . . 3_656 . no
O1 Ru1 Ru1 O1 180.00(18) . . 3_656 3_656 no
O1 Ru1 Ru1 O3 -88.12(19) . . 3_656 3_656 no
O3 Ru1 Ru1 O2 -91.92(19) . . 3_656 . no
O3 Ru1 Ru1 O4 -1.3(2) . . 3_656 . no
O3 Ru1 Ru1 O1 88.12(19) . . 3_656 3_656 no
O3 Ru1 Ru1 O3 180.0(2) . . 3_656 3_656 no
O2 Ru1 Ru1 O2 180.00(18) 3_656 . 3_656 . no
O2 Ru1 Ru1 O4 -89.4(2) 3_656 . 3_656 . no
O4 Ru1 Ru1 O2 89.4(2) 3_656 . 3_656 . no
O4 Ru1 Ru1 O4 -180.0(3) 3_656 . 3_656 . no
O3 Ru1 O2 C1 -88.8(4) . . 3_656 3_656 no
O10 Ru1 O2 C1 -174.9(4) . . 3_656 3_656 no
O1 Ru1 O4 C8 83.1(5) . . 3_656 3_656 no
O10 Ru1 O4 C8 172.0(5) . . 3_656 3_656 no
O9 Ru02 O6 C15 175.7(5) . . 7_557 7_557 no
O5 Ru02 O8 C22 89.2(5) . . 7_557 7_557 no
O9 Ru02 O8 C22 176.5(5) . . 7_557 7_557 no
O8 Ru02 O9 C29 127.2(8) 7_557 . . . no
O5 Ru02 Ru02 O6 -0.6(2) . . 7_557 . no
O5 Ru02 Ru02 O8 90.91(19) . . 7_557 . no
O5 Ru02 Ru02 O5 180.0(2) . . 7_557 7_557 no
O7 Ru02 O5 C15 93.2(5) . . . . no
O9 Ru02 O5 C15 -171.3(5) . . . . no
Ru02 Ru02 O5 C15 2.9(5) 7_557 . . . no
O8 Ru02 O5 C15 -86.3(5) 7_557 . . . no
O5 Ru02 O7 C22 -91.5(5) . . . . no
O9 Ru02 O7 C22 -178.8(4) . . . . no
Ru02 Ru02 O7 C22 -1.3(4) 7_557 . . . no
O6 Ru02 O7 C22 87.8(5) 7_557 . . . no
O5 Ru02 O9 C29 -143.5(8) . . . . no
O7 Ru02 O9 C29 -53.0(8) . . . . no
O6 Ru02 O9 C29 36.0(8) 7_557 . . . no
O7 Ru02 Ru02 O5 89.25(19) . . 7_557 7_557 no
O7 Ru02 Ru02 O7 180.00(19) . . 7_557 7_557 no
O6 Ru02 Ru02 O6 -180.0(2) 7_557 . 7_557 . no
O6 Ru02 Ru02 O8 -88.53(19) 7_557 . 7_557 . no
O5 Ru02 Ru02 O7 -89.25(19) . . 7_557 7_557 no
O7 Ru02 Ru02 O6 -91.31(19) . . 7_557 . no
O7 Ru02 Ru02 O8 0.16(19) . . 7_557 . no
O7 Ru02 O6 C15 -88.8(5) . . 7_557 7_557 no
O8 Ru02 Ru02 O6 88.53(19) 7_557 . 7_557 . no
O8 Ru02 Ru02 O8 180.0(2) 7_557 . 7_557 . no
Ru1 O1 C1 C2 176.1(4) . . . . no
Ru1 O1 C1 O2 -2.6(8) . . . . no
Ru1 O2 C1 C2 -176.2(4) 3_656 . . . no
Ru1 O2 C1 O1 2.5(8) 3_656 . . . no
Ru1 O3 C8 O4 8.0(9) . . . . no
Ru1 O3 C8 C9 -169.5(6) . . . . no
Ru1 O4 C8 O3 -9.6(9) 3_656 . . . no
Ru1 O4 C8 C9 167.8(6) 3_656 . . . no
Ru1 O10 C32 C33 -161.0(5) . . . . no
Ru1 O10 C32 C34 19.8(11) . . . . no
O1 C1 C2 C7 -3.3(9) . . . . no
O2 C1 C2 C3 -3.8(9) . . . . no
O2 C1 C2 C7 175.5(6) . . . . no
O1 C1 C2 C3 177.4(6) . . . . no
C1 C2 C3 C4 177.6(7) . . . . no
C7 C2 C3 C4 -1.8(11) . . . . no
C1 C2 C7 C6 -178.9(6) . . . . no
C3 C2 C7 C6 0.4(10) . . . . no
C2 C3 C4 C5 1.9(11) . . . . no
C3 C4 C5 C6 -0.8(12) . . . . no
C3 C4 C5 F1 178.4(7) . . . . no
F1 C5 C6 C7 -179.7(7) . . . . no
Ru02 O5 C15 O6 -5.1(9) . . . . no
Ru02 O5 C15 C16 175.1(4) . . . . no
C4 C5 C6 C7 -0.5(12) . . . . no
Ru02 O6 C15 O5 4.5(9) 7_557 . . . no
C5 C6 C7 C2 0.7(11) . . . . no
Ru02 O6 C15 C16 -175.7(4) 7_557 . . . no
Ru02 O7 C22 C23 -176.3(4) . . . . no
Ru02 O7 C22 O8 2.6(8) . . . . no
O4 C8 C9 C10 11.3(13) . . . . no
O4 C8 C9 C14 -165.3(9) . . . . no
O3 C8 C9 C10 -171.2(9) . . . . no
O3 C8 C9 C14 12.3(13) . . . . no
Ru02 O8 C22 C23 176.4(4) 7_557 . . . no
Ru02 O8 C22 O7 -2.4(9) 7_557 . . . no
C14 C9 C10 C11 2.5(17) . . . . no
C8 C9 C14 C13 172.4(9) . . . . no
C8 C9 C10 C11 -174.0(9) . . . . no
Ru02 O9 C29 C30 10.1(13) . . . . no
Ru02 O9 C29 C31 -170.6(7) . . . . no
C10 C9 C14 C13 -4.2(17) . . . . no
C9 C10 C11 C12 2.8(16) . . . . no
C10 C11 C12 F2 176.6(9) . . . . no
C10 C11 C12 C13 -6.9(17) . . . . no
F2 C12 C13 C14 -178.2(9) . . . . no
C11 C12 C13 C14 5.3(16) . . . . no
C12 C13 C14 C9 0.5(15) . . . . no
O5 C15 C16 C17 -170.0(7) . . . . no
O5 C15 C16 C21 9.5(10) . . . . no
O6 C15 C16 C17 10.2(10) . . . . no
O6 C15 C16 C21 -170.4(7) . . . . no
C15 C16 C17 C18 -178.0(8) . . . . no
C21 C16 C17 C18 2.5(13) . . . . no
C15 C16 C21 C20 -178.9(7) . . . . no
C17 C16 C21 C20 0.6(12) . . . . no
C16 C17 C18 C19 -4.6(15) . . . . no
C17 C18 C19 F3 -176.4(9) . . . . no
C17 C18 C19 C20 3.8(16) . . . . no
F3 C19 C20 C21 179.4(8) . . . . no
C18 C19 C20 C21 -0.8(15) . . . . no
C19 C20 C21 C16 -1.4(13) . . . . no
O7 C22 C23 C24 172.2(6) . . . . no
O7 C22 C23 C28 -8.4(9) . . . . no
O8 C22 C23 C24 -6.7(9) . . . . no
O8 C22 C23 C28 172.7(6) . . . . no
C22 C23 C24 C25 -179.1(6) . . . . no
C28 C23 C24 C25 1.5(10) . . . . no
C22 C23 C28 C27 -178.0(7) . . . . no
C24 C23 C28 C27 1.4(11) . . . . no
C23 C24 C25 C26 -3.0(10) . . . . no
C24 C25 C26 F4 -177.0(7) . . . . no
C24 C25 C26 C27 1.7(12) . . . . no
F4 C26 C27 C28 179.7(7) . . . . no
C25 C26 C27 C28 1.1(13) . . . . no
C26 C27 C28 C23 -2.6(12) . . . . no
