#------------------------------------------------------------------------------
#$Date: 2021-06-05 21:52:41 +0300 (Sat, 05 Jun 2021) $
#$Revision: 266081 $
#$URL: file:///home/coder/svn-repositories/cod/cif/7/70/70/7707039.cif $
#------------------------------------------------------------------------------
#
# This file is available in the Crystallography Open Database (COD),
# http://www.crystallography.net/
#
# All data on this site have been placed in the public domain by the
# contributors.
#
data_7707039
loop_
_publ_author_name
'Heinz, Werner R.'
'Staude, Dominik'
'Mayer, David'
'Bunzen, Hana'
'Fischer, Roland A.'
_publ_section_title
;
 Scrutinizing ligand exchange reactions in the formation of the precious
 group metal-organic framework Ru<sup>II,II</sup>-HKUST-1: the impact of
 diruthenium tetracarboxylate precursor and modulator choice.
;
_journal_issue                   15
_journal_name_full
'Dalton transactions (Cambridge, England : 2003)'
_journal_page_first              5226
_journal_page_last               5235
_journal_paper_doi               10.1039/d1dt00118c
_journal_volume                  50
_journal_year                    2021
_chemical_compound_source        'see text'
_chemical_formula_moiety         'C38 H40 O14 Ru2'
_chemical_formula_sum            'C12.67 H13.33 O4.67 Ru0.67'
_chemical_formula_weight         308.048
_chemical_properties_physical    Air-sensitive,Moisture-sensitive
_space_group_IT_number           15
_space_group_name_Hall           '-C 2yc'
_space_group_name_H-M_alt        'C 1 2/c 1'
_symmetry_cell_setting           monoclinic
_symmetry_Int_Tables_number      15
_symmetry_space_group_name_Hall  '-C 2yc'
_symmetry_space_group_name_H-M   'C 1 2/c 1'
_atom_sites_solution_hydrogens   geom
_audit_update_record
;
2020-11-11 deposited with the CCDC.	2021-03-29 downloaded from the CCDC.
;
_cell_angle_alpha                90
_cell_angle_beta                 117.401(2)
_cell_angle_gamma                90
_cell_formula_units_Z            4
_cell_length_a                   24.3485(18)
_cell_length_b                   9.9212(7)
_cell_length_c                   23.6907(17)
_cell_measurement_reflns_used    9861
_cell_measurement_temperature    100
_cell_measurement_theta_max      24.6236
_cell_measurement_theta_min      2.6230
_cell_volume                     5080.8(6)
_computing_cell_refinement       'SAINT (Bruker, 2017)'
_computing_data_collection       'APEX III Control Software (Bruker, 2016)'
_computing_data_reduction        'SAINT (Bruker, 2017)'
_computing_molecular_graphics    'PLATON (Spek, 2011)'
_computing_publication_material  'PLATON (Spek, 2011), enCIFer (Allen, 2014)'
_computing_structure_refinement
'SHELXL2014 (Sheldrick, 2014), SHELXLE (Huebschle, 2011)'
_computing_structure_solution    'SHELXT (Sheldrick, 2015)'
_diffrn_ambient_temperature      100
_diffrn_detector                 ' CMOS plate '
_diffrn_detector_area_resol_mean 16
_diffrn_measured_fraction_theta_full 0.998
_diffrn_measured_fraction_theta_max 0.998
_diffrn_measurement_device       ' \k-geometry diffractometer '
_diffrn_measurement_device_type  ' Bruker Photon CMOS '
_diffrn_measurement_method       ' phi- and omega-rotation '
_diffrn_radiation_monochromator  'Helios optic'
_diffrn_radiation_probe          x-ray
_diffrn_radiation_source         'IMS microsource'
_diffrn_radiation_type           MoK\a
_diffrn_radiation_wavelength     0.71073
_diffrn_reflns_av_R_equivalents  0.0802
_diffrn_reflns_av_unetI/netI     0.0251
_diffrn_reflns_limit_h_max       29
_diffrn_reflns_limit_h_min       -29
_diffrn_reflns_limit_k_max       11
_diffrn_reflns_limit_k_min       -11
_diffrn_reflns_limit_l_max       28
_diffrn_reflns_limit_l_min       -28
_diffrn_reflns_number            101927
_diffrn_reflns_reduction_process
;
;
_diffrn_reflns_theta_full        25.24
_diffrn_reflns_theta_max         25.35
_diffrn_reflns_theta_min         2.26
_exptl_absorpt_coefficient_mu    0.216
_exptl_absorpt_correction_T_max  0.7454
_exptl_absorpt_correction_T_min  0.6864
_exptl_absorpt_correction_type   multi-scan
_exptl_absorpt_process_details   'SADABS 2016/2, Bruker, 2016'
_exptl_crystal_colour            'clear red'
_exptl_crystal_density_diffrn    0.403
_exptl_crystal_density_method    'Not Measured'
_exptl_crystal_description       fragment
_exptl_crystal_F_000             1872
_exptl_crystal_size_max          0.365
_exptl_crystal_size_mid          0.175
_exptl_crystal_size_min          0.049
_refine_diff_density_max         1.366
_refine_diff_density_min         -1.107
_refine_diff_density_rms         0.109
_refine_ls_extinction_method     none
_refine_ls_goodness_of_fit_ref   1.203
_refine_ls_hydrogen_treatment    constr
_refine_ls_matrix_type           full
_refine_ls_number_parameters     248
_refine_ls_number_reflns         4634
_refine_ls_number_restraints     0
_refine_ls_restrained_S_all      1.203
_refine_ls_R_factor_all          0.0690
_refine_ls_R_factor_gt           0.0574
_refine_ls_shift/su_max          0.001
_refine_ls_shift/su_mean         0.000
_refine_ls_structure_factor_coef Fsqd
_refine_ls_weighting_details
'W=1/[\S^2^(FO^2^)+71.3381P] WHERE P=(FO^2^+2FC^2^)/3'
_refine_ls_weighting_scheme      calc
_refine_ls_wR_factor_gt          0.1190
_refine_ls_wR_factor_ref         0.1258
_reflns_number_gt                4065
_reflns_number_total             4634
_reflns_threshold_expression     I>2\s(I)
_cod_data_source_file            d1dt00118c2.cif
_cod_data_source_block           mo_staudo1_0m_sq
_cod_depositor_comments
'Adding full bibliography for 7707038--7707041.cif.'
_cod_original_sg_symbol_H-M      'C 2/c'
_cod_database_code               7707039
_shelx_res_file
;
 
    mo_staudo1_0m_sq.res created by SHELXL-2014/7
 
 
TITL mo_StauDo1_0m_a.res in C2/c
CELL 0.71073 24.3485 9.9212 23.6907 90.000 117.401 90.000
ZERR 12.00 0.0018 0.0007 0.0017 0.000 0.002 0.000
LATT 7
SYMM -x, y, -z+1/2
SFAC C H O RU
UNIT 152 160 56 8
LIST 4 ! automatically inserted. Change 6 to 4 for CHECKCIF!!
ACTA
TEMP -173.140
L.S. 10
FMAP 2
PLAN -20
BOND $H
ABIN
OMIT -22 2 4 !affected by squeeze
OMIT -21 3 1 !affected by squeeze
OMIT 0 0 6 !affected by squeeze
OMIT -24 2 6 !affected by squeeze
ACTA
WGHT    0.000000   71.338112
FVAR       0.15846
RU1   4    0.238087    0.356743    0.507641    11.00000    0.03186    0.01546 =
         0.02986   -0.00277    0.01819    0.00005
C1    1    0.282048    0.192221    0.620845    11.00000    0.03090    0.02179 =
         0.03331   -0.00407    0.02085   -0.00142
O1    3    0.262927    0.309956    0.600910    11.00000    0.02941    0.01684 =
         0.03083   -0.00100    0.01687    0.00110
O2    3    0.287189    0.098901    0.586244    11.00000    0.03325    0.01450 =
         0.03571   -0.00207    0.02247    0.00095
C2    1    0.299804    0.162332    0.688176    11.00000    0.03204    0.01905 =
         0.02918   -0.00121    0.01621   -0.00273
O3    3    0.345271    0.092042    0.877015    11.00000    0.05529    0.02936 =
         0.03408    0.00602    0.02629    0.00351
C3    1    0.317470    0.033141    0.713073    11.00000    0.03912    0.02183 =
         0.03841   -0.00191    0.02195    0.00111
AFIX  43
H3    2    0.319037   -0.036972    0.686541    11.00000   -1.20000
AFIX   0
O7    3    0.211527    0.577853    0.519718    11.00000    0.01684    0.01922 =
         0.03072   -0.00272    0.01180    0.00063
C7    1    0.296803    0.263456    0.727675    11.00000    0.04347    0.02048 =
         0.03577    0.00197    0.02325    0.00269
AFIX  43
H7    2    0.283664    0.351487    0.711204    11.00000   -1.20000
AFIX   0
O6    3    0.610792    0.478168    0.603395    11.00000    0.03105    0.03500 =
         0.08079    0.00599    0.02094   -0.00247
C6    1    0.312767    0.236383    0.790335    11.00000    0.04977    0.02413 =
         0.03454   -0.00261    0.02644    0.00025
AFIX  43
H6    2    0.311274    0.306252    0.817016    11.00000   -1.20000
AFIX   0
O5    3    0.351236    0.202637    0.518569    11.00000    0.02669    0.01744 =
         0.03444   -0.00295    0.01703   -0.00106
C5    1    0.331060    0.107438    0.814819    11.00000    0.04293    0.02682 =
         0.03059    0.00337    0.02239   -0.00071
O4    3    0.327491    0.413190    0.533963    11.00000    0.02474    0.01681 =
         0.04045   -0.00061    0.01932    0.00280
C4    1    0.332776    0.005325    0.775863    11.00000    0.04566    0.02230 =
         0.04075    0.00659    0.02417    0.00514
AFIX  43
H4    2    0.344394   -0.083381    0.792112    11.00000   -1.20000
AFIX   0
C8    1    0.367070   -0.037382    0.905556    11.00000    0.05162    0.03811 =
         0.04970    0.01986    0.03315    0.01277
AFIX 137
H8A   2    0.334240   -0.104442    0.885011    11.00000   -1.50000
H8B   2    0.378642   -0.032821    0.950980    11.00000   -1.50000
H8C   2    0.403220   -0.063311    0.900178    11.00000   -1.50000
AFIX   0
C10   1    0.430261    0.367965    0.553165    11.00000    0.03675    0.02281 =
         0.03461    0.00273    0.01996    0.00405
C11   1    0.472586    0.279019    0.549472    11.00000    0.02679    0.02730 =
         0.05389   -0.00916    0.01830    0.00027
AFIX  43
H11   2    0.460032    0.189585    0.534929    11.00000   -1.20000
AFIX   0
C12   1    0.532376    0.318356    0.566534    11.00000    0.03208    0.03169 =
         0.06379   -0.00338    0.02006    0.00566
AFIX  43
H12   2    0.560726    0.256337    0.563686    11.00000   -1.20000
AFIX   0
C13   1    0.551309    0.449340    0.588007    11.00000    0.02503    0.03119 =
         0.05266    0.00214    0.01664   -0.00626
C14   1    0.509620    0.536826    0.592625    11.00000    0.02883    0.02459 =
         0.06314   -0.00396    0.01810   -0.00463
AFIX  43
H14   2    0.522411    0.625676    0.608020    11.00000   -1.20000
AFIX   0
C15   1    0.450304    0.497998    0.575466    11.00000    0.03200    0.02319 =
         0.05652   -0.00154    0.02355    0.00076
AFIX  43
H15   2    0.422283    0.560312    0.578745    11.00000   -1.20000
AFIX   0
C16   1    0.631871    0.610975    0.623742    11.00000    0.03975    0.03791 =
         0.11018    0.00253    0.02500   -0.01411
AFIX 137
H16A  2    0.674394    0.620451    0.630074    11.00000   -1.50000
H16B  2    0.630733    0.629097    0.663855    11.00000   -1.50000
H16C  2    0.605077    0.675311    0.591383    11.00000   -1.50000
AFIX   0
C17   1    0.288861    0.639782    0.622180    11.00000    0.04588    0.03773 =
         0.05887   -0.02008    0.02498   -0.00268
AFIX 137
H17A  2    0.299897    0.544090    0.625439    11.00000   -1.50000
H17B  2    0.280022    0.664343    0.657246    11.00000   -1.50000
H17C  2    0.323386    0.694315    0.624465    11.00000   -1.50000
AFIX   0
C18   1    0.232871    0.665090    0.560262    11.00000    0.05238    0.01777 =
         0.04342   -0.00550    0.03414   -0.01031
C19   1    0.203659    0.801214    0.549344    11.00000    0.09531    0.02014 =
         0.05895    0.00214    0.05853    0.00363
AFIX 137
H19A  2    0.235177    0.870499    0.557753    11.00000   -1.50000
H19B  2    0.185158    0.814212    0.577964    11.00000   -1.50000
H19C  2    0.171460    0.808314    0.505146    11.00000   -1.50000
AFIX   0
C9    1    0.365336    0.325529    0.534283    11.00000    0.03899    0.02124 =
         0.02492    0.00072    0.01895    0.00473
 
REM <autosolution>
REM {'C00U': 'AtomInfo(hybridisation=3)',
REM  'O003': 'AtomInfo(hybridisation=3)',
REM  'O002': 'AtomInfo(hybridisation=3)',
REM  'O005': 'AtomInfo(hybridisation=3)',
REM  'O004': 'AtomInfo(hybridisation=3)',
REM  'C00S': 'AtomInfo(hybridisation=3)',
REM  'C00R': 'AtomInfo(hybridisation=3)',
REM  'O008': 'AtomInfo(hybridisation=3)',
REM  'C00E': 'AtomInfo(hybridisation=3)',
REM  'C00D': 'AtomInfo(hybridisation=3)',
REM  'C00G': 'AtomInfo(hybridisation=3)',
REM  'C00F': 'AtomInfo(hybridisation=3)',
REM  'C00A': 'AtomInfo(hybridisation=3)',
REM  'C00C': 'AtomInfo(hybridisation=3)',
REM  'C00B': 'AtomInfo(hybridisation=3)',
REM  'C00M': 'AtomInfo(hybridisation=3)',
REM  'C00Q': 'AtomInfo(hybridisation=3)',
REM  'C00O': 'AtomInfo(hybridisation=3)',
REM  'C00N': 'AtomInfo(hybridisation=3)',
REM  'C00I': 'AtomInfo(hybridisation=3)',
REM  'C00H': 'AtomInfo(hybridisation=3)',
REM  'C00K': 'AtomInfo(hybridisation=3)',
REM  'C00J': 'AtomInfo(hybridisation=3)',
REM  'O007': 'AtomInfo(hybridisation=3)',
REM  'O006': 'AtomInfo(hybridisation=3)', 'RU01': 'AtomInfo()',
REM  'C00L': 'AtomInfo(hybridisation=3)',
REM  'O00T': 'AtomInfo(hybridisation=3)',
REM  'C009': 'AtomInfo(hybridisation=3)',
REM  'C00P': 'AtomInfo(hybridisation=3)'}
REM </autosolution>
HKLF 4 1 1 0 0 0 1 0 0 0 1
 
REM  mo_StauDo1_0m_a.res in C2/c
REM R1 =  0.0574 for    4065 Fo > 4sig(Fo)  and  0.0690 for all    4634 data
REM    248 parameters refined using      0 restraints
 
END
 
WGHT      0.0000     66.6734
 
REM Highest difference peak  1.366,  deepest hole -1.107,  1-sigma level  0.109
Q1    1   0.2193  0.1393  0.4762  11.00000  0.05    1.37
Q2    1   0.1936  0.3448  0.4912  11.00000  0.05    1.05
Q3    1   0.2653  0.3682  0.4700  11.00000  0.05    0.90
Q4    1   0.2836  0.3973  0.5670  11.00000  0.05    0.64
Q5    1   0.1761  0.4015  0.4500  11.00000  0.05    0.64
Q6    1   0.2815  0.2663  0.5022  11.00000  0.05    0.62
Q7    1   0.2854  0.5628  0.4988  11.00000  0.05    0.57
Q8    1   0.1855  0.3269  0.4444  11.00000  0.05    0.56
Q9    1   0.2347  0.5849  0.4875  11.00000  0.05    0.56
Q10   1   0.2007  0.3263  0.5378  11.00000  0.05    0.53
Q11   1   0.2799  0.4555  0.5023  11.00000  0.05    0.52
Q12   1   0.2638  0.5947  0.5397  11.00000  0.05    0.51
Q13   1   0.2001  0.1619  0.4312  11.00000  0.05    0.51
Q14   1   0.1695  0.5827  0.4975  11.00000  0.05    0.51
Q15   1   0.2632  0.4932  0.5301  11.00000  0.05    0.49
Q16   1   0.2724  0.2387  0.4530  11.00000  0.05    0.48
Q17   1   0.2225  0.2603  0.4613  11.00000  0.05    0.44
Q18   1   0.3015  0.6138  0.5414  11.00000  0.05    0.42
Q19   1   0.2676  0.3963  0.4304  11.00000  0.05    0.41
Q20   1   0.1357  0.3428  0.4491  11.00000  0.05    0.41
;
_shelx_res_checksum              37291
_shelx_fab_file
;
    4    0    0    113.64      0.00
    6    0    0    -11.42      0.00
    8    0    0    -10.73      0.00
   10    0    0     11.12      0.00
   12    0    0     16.73      0.00
   14    0    0     13.55      0.00
   16    0    0      7.29      0.00
   18    0    0      3.00      0.00
   20    0    0     -0.91      0.00
   22    0    0     -4.29      0.00
   24    0    0     -1.46      0.00
   26    0    0      2.41      0.00
    1    1    0    -95.69      0.00
    3    1    0    -60.13      0.00
    5    1    0    -26.34      0.00
    7    1    0    -16.32      0.00
    9    1    0    -19.19      0.00
   11    1    0    -17.49      0.00
   13    1    0     -7.56      0.00
   15    1    0      1.95      0.00
   17    1    0      6.24      0.00
   19    1    0      9.17      0.00
   21    1    0      8.49      0.00
   23    1    0     -0.07      0.00
   25    1    0     -6.60      0.00
    0    2    0     80.24      0.00
    2    2    0     72.50      0.00
    4    2    0     57.21      0.00
    6    2    0     42.56      0.00
    8    2    0     25.03      0.00
   10    2    0      6.24      0.00
   12    2    0     -2.14      0.00
   14    2    0      0.04      0.00
   16    2    0     -1.11      0.00
   18    2    0     -7.48      0.00
   20    2    0     -5.05      0.00
   22    2    0      7.53      0.00
   24    2    0     13.36      0.00
    1    3    0     21.12      0.00
    3    3    0     -2.56      0.00
    5    3    0    -20.21      0.00
    7    3    0    -14.96      0.00
    9    3    0      1.69      0.00
   11    3    0     11.06      0.00
   13    3    0      5.98      0.00
   15    3    0     -4.45      0.00
   17    3    0     -6.02      0.00
   19    3    0      0.49      0.00
   21    3    0      2.08      0.00
   23    3    0     -3.07      0.00
   25    3    0     -4.65      0.00
    0    4    0    -39.12      0.00
    2    4    0    -30.44      0.00
    4    4    0    -12.21      0.00
    6    4    0      2.33      0.00
    8    4    0      6.84      0.00
   10    4    0      3.60      0.00
   12    4    0      0.35      0.00
   14    4    0      0.54      0.00
   16    4    0      0.00      0.00
   18    4    0     -0.98      0.00
   20    4    0      1.51      0.00
   22    4    0      2.39      0.00
   24    4    0     -2.35      0.00
    1    5    0     21.52      0.00
    3    5    0     14.51      0.00
    5    5    0      8.49      0.00
    7    5    0      4.89      0.00
    9    5    0      3.44      0.00
   11    5    0      5.66      0.00
   13    5    0      6.21      0.00
   15    5    0      1.35      0.00
   17    5    0     -2.50      0.00
   19    5    0     -1.94      0.00
   21    5    0     -0.41      0.00
   23    5    0      1.38      0.00
    0    6    0    -26.19      0.00
    2    6    0    -20.34      0.00
    4    6    0    -11.03      0.00
    6    6    0     -7.24      0.00
    8    6    0     -6.23      0.00
   10    6    0     -5.30      0.00
   12    6    0     -5.40      0.00
   14    6    0     -5.35      0.00
   16    6    0     -4.16      0.00
   18    6    0     -2.00      0.00
   20    6    0      0.90      0.00
   22    6    0      2.47      0.00
    1    7    0      7.69      0.00
    3    7    0      7.59      0.00
    5    7    0      9.01      0.00
    7    7    0      8.22      0.00
    9    7    0      3.94      0.00
   11    7    0      2.01      0.00
   13    7    0      3.67      0.00
   15    7    0      3.76      0.00
   17    7    0      1.37      0.00
   19    7    0      0.23      0.00
   21    7    0      1.30      0.00
    0    8    0     -2.61      0.00
    2    8    0     -3.70      0.00
    4    8    0     -5.79      0.00
    6    8    0     -6.60      0.00
    8    8    0     -4.62      0.00
   10    8    0      0.22      0.00
   12    8    0      4.31      0.00
   14    8    0      1.66      0.00
   16    8    0     -5.84      0.00
   18    8    0     -7.74      0.00
    1    9    0      2.20      0.00
    3    9    0      2.04      0.00
    5    9    0      2.25      0.00
    7    9    0      3.62      0.00
    9    9    0      2.83      0.00
   11    9    0     -2.16      0.00
   13    9    0     -4.84      0.00
   15    9    0     -1.83      0.00
   17    9    0     -0.23      0.00
    0   10    0     -3.51      0.00
    2   10    0     -3.24      0.00
    4   10    0     -2.43      0.00
    6   10    0     -1.81      0.00
    8   10    0     -1.66      0.00
   10   10    0     -0.64      0.00
   12   10    0      0.34      0.00
   14   10    0     -0.75      0.00
    1   11    0      6.64      0.00
    3   11    0      2.22      0.00
    5   11    0     -0.51      0.00
    7   11    0      0.37      0.00
    9   11    0      0.90      0.00
  -25    1    1     -2.85      0.00
  -23    1    1     -2.60      0.00
  -21    1    1      3.55      0.00
  -19    1    1      3.05      0.00
  -17    1    1     -1.82      0.00
  -15    1    1      2.96      0.00
  -13    1    1     11.91      0.00
  -11    1    1      9.76      0.00
   -9    1    1     -2.63      0.00
   -7    1    1     -9.56      0.00
   -5    1    1      9.87      0.00
   -3    1    1     53.15      0.00
   -1    1    1     72.69      0.00
    1    1    1     36.65      0.00
    3    1    1    -12.64      0.00
    5    1    1    -22.74      0.00
    7    1    1     -2.75      0.00
    9    1    1     12.81      0.00
   11    1    1     11.81      0.00
   13    1    1      0.72      0.00
   15    1    1     -6.85      0.00
   17    1    1     -5.52      0.00
   19    1    1     -6.36      0.00
   21    1    1    -12.61      0.00
   23    1    1    -11.69      0.00
   25    1    1     -2.44      0.00
  -26    2    1     -1.77      0.00
  -24    2    1      2.40      0.00
  -22    2    1      0.45      0.00
  -20    2    1     -3.17      0.00
  -18    2    1     -3.16      0.00
  -16    2    1     -5.58      0.00
  -14    2    1     -9.49      0.00
  -12    2    1     -4.53      0.00
  -10    2    1     10.69      0.00
   -8    2    1     26.50      0.00
   -6    2    1     20.87      0.00
   -4    2    1    -23.13      0.00
   -2    2    1    -68.19      0.00
    0    2    1    -52.65      0.00
    2    2    1      8.93      0.00
    4    2    1     44.47      0.00
    6    2    1     34.15      0.00
    8    2    1     12.12      0.00
   10    2    1     -0.61      0.00
   12    2    1     -2.28      0.00
   14    2    1      3.48      0.00
   16    2    1      7.17      0.00
   18    2    1      7.02      0.00
   20    2    1      7.96      0.00
   22    2    1      6.27      0.00
   24    2    1      0.35      0.00
  -25    3    1     12.23      0.00
  -23    3    1      5.74      0.00
  -21    3    1      1.75      0.00
  -19    3    1     -0.29      0.00
  -17    3    1     -5.44      0.00
  -15    3    1     -8.02      0.00
  -13    3    1     -1.70      0.00
  -11    3    1      9.35      0.00
   -9    3    1     18.74      0.00
   -7    3    1     26.32      0.00
   -5    3    1     33.97      0.00
   -3    3    1     34.95      0.00
   -1    3    1     19.86      0.00
    1    3    1     -1.50      0.00
    3    3    1     -7.91      0.00
    5    3    1      1.04      0.00
    7    3    1      9.37      0.00
    9    3    1      9.92      0.00
   11    3    1      3.36      0.00
   13    3    1     -6.05      0.00
   15    3    1    -10.62      0.00
   17    3    1    -11.25      0.00
   19    3    1    -11.16      0.00
   21    3    1     -1.55      0.00
   23    3    1     16.60      0.00
  -24    4    1      3.91      0.00
  -22    4    1      5.57      0.00
  -20    4    1     -1.26      0.00
  -18    4    1     -8.54      0.00
  -16    4    1     -8.80      0.00
  -14    4    1     -4.62      0.00
  -12    4    1     -0.79      0.00
  -10    4    1     -0.11      0.00
   -8    4    1     -2.57      0.00
   -6    4    1     -4.71      0.00
   -4    4    1     -5.10      0.00
   -2    4    1     -4.10      0.00
    0    4    1      0.52      0.00
    2    4    1      8.17      0.00
    4    4    1     14.93      0.00
    6    4    1     20.03      0.00
    8    4    1     21.23      0.00
   10    4    1     13.77      0.00
   12    4    1      1.51      0.00
   14    4    1     -5.80      0.00
   16    4    1     -4.90      0.00
   18    4    1      0.45      0.00
   20    4    1      4.01      0.00
   22    4    1      2.03      0.00
   24    4    1     -1.81      0.00
  -23    5    1     -2.62      0.00
  -21    5    1     -0.34      0.00
  -19    5    1      0.71      0.00
  -17    5    1     -0.80      0.00
  -15    5    1     -1.65      0.00
  -13    5    1     -0.43      0.00
  -11    5    1      3.50      0.00
   -9    5    1      9.40      0.00
   -7    5    1      9.69      0.00
   -5    5    1      0.16      0.00
   -3    5    1     -9.76      0.00
   -1    5    1    -11.57      0.00
    1    5    1     -8.50      0.00
    3    5    1     -5.28      0.00
    5    5    1     -4.39      0.00
    7    5    1     -8.18      0.00
    9    5    1    -12.48      0.00
   11    5    1    -10.31      0.00
   13    5    1     -4.30      0.00
   15    5    1     -1.58      0.00
   17    5    1     -1.77      0.00
   19    5    1     -1.03      0.00
   21    5    1      0.53      0.00
   23    5    1      1.22      0.00
  -22    6    1      3.16      0.00
  -20    6    1      3.07      0.00
  -18    6    1      1.44      0.00
  -16    6    1      2.36      0.00
  -14    6    1      3.50      0.00
  -12    6    1     -0.34      0.00
  -10    6    1     -5.40      0.00
   -8    6    1     -4.69      0.00
   -6    6    1      1.18      0.00
   -4    6    1      8.01      0.00
   -2    6    1     11.91      0.00
    0    6    1      9.05      0.00
    2    6    1      1.94      0.00
    4    6    1     -1.50      0.00
    6    6    1      0.77      0.00
    8    6    1      4.88      0.00
   10    6    1      7.68      0.00
   12    6    1      5.91      0.00
   14    6    1      0.04      0.00
   16    6    1     -2.18      0.00
   18    6    1      1.28      0.00
   20    6    1      2.27      0.00
   22    6    1     -1.07      0.00
  -21    7    1     -5.61      0.00
  -19    7    1      1.65      0.00
  -17    7    1      3.10      0.00
  -15    7    1     -3.69      0.00
  -13    7    1     -7.98      0.00
  -11    7    1     -5.29      0.00
   -9    7    1     -2.11      0.00
   -7    7    1     -1.59      0.00
   -5    7    1     -2.57      0.00
   -3    7    1     -5.32      0.00
   -1    7    1     -7.12      0.00
    1    7    1     -4.19      0.00
    3    7    1      0.64      0.00
    5    7    1      2.45      0.00
    7    7    1      0.06      0.00
    9    7    1     -4.51      0.00
   11    7    1     -5.07      0.00
   13    7    1      2.12      0.00
   15    7    1      8.82      0.00
   17    7    1      6.19      0.00
   19    7    1     -0.73      0.00
  -18    8    1      1.64      0.00
  -16    8    1      4.45      0.00
  -14    8    1      6.26      0.00
  -12    8    1      4.08      0.00
  -10    8    1      1.54      0.00
   -8    8    1      1.44      0.00
   -6    8    1      2.03      0.00
   -4    8    1      3.71      0.00
   -2    8    1      6.23      0.00
    0    8    1      5.16      0.00
    2    8    1      0.78      0.00
    4    8    1     -2.29      0.00
    6    8    1     -3.65      0.00
    8    8    1     -3.21      0.00
   10    8    1     -0.10      0.00
   12    8    1      1.10      0.00
   14    8    1     -1.53      0.00
   16    8    1     -1.39      0.00
   18    8    1      3.08      0.00
  -17    9    1      1.42      0.00
  -15    9    1      0.84      0.00
  -13    9    1      0.35      0.00
  -11    9    1      1.31      0.00
   -9    9    1      0.78      0.00
   -7    9    1     -1.71      0.00
   -5    9    1     -3.07      0.00
   -3    9    1     -2.61      0.00
   -1    9    1     -1.00      0.00
    1    9    1      1.27      0.00
    3    9    1      2.55      0.00
    5    9    1      3.04      0.00
    7    9    1      3.73      0.00
    9    9    1      3.09      0.00
   11    9    1      1.57      0.00
   13    9    1      1.79      0.00
   15    9    1      1.87      0.00
  -14   10    1     -4.31      0.00
  -12   10    1     -2.10      0.00
  -10   10    1      2.38      0.00
   -8   10    1      4.55      0.00
   -6   10    1      4.09      0.00
   -4   10    1      2.45      0.00
   -2   10    1      0.60      0.00
    0   10    1     -0.45      0.00
    2   10    1     -0.22      0.00
    4   10    1      0.78      0.00
    6   10    1      1.73      0.00
    8   10    1      1.07      0.00
   10   10    1     -1.82      0.00
   12   10    1     -3.89      0.00
   -9   11    1     -1.73      0.00
   -7   11    1     -2.05      0.00
   -5   11    1     -1.33      0.00
   -3   11    1      0.45      0.00
   -1   11    1      1.49      0.00
    1   11    1      0.12      0.00
    3   11    1     -1.72      0.00
    5   11    1     -1.47      0.00
    7   11    1      0.64      0.00
    9   11    1      2.91      0.00
  -26    0    2     -3.98      0.00
  -24    0    2     -0.51      0.00
  -22    0    2     -2.72      0.00
  -20    0    2     -6.87      0.00
  -18    0    2     -8.22      0.00
  -16    0    2     -9.98      0.00
  -14    0    2    -10.10      0.00
  -12    0    2     -2.80      0.00
  -10    0    2     16.35      0.00
   -8    0    2     32.40      0.00
   -6    0    2    -15.71      0.00
   -4    0    2   -152.96      0.00
    2    0    2    -49.77      0.00
    4    0    2     33.25      0.00
    6    0    2     25.03      0.00
    8    0    2      3.96      0.00
   10    0    2     -0.42      0.00
   12    0    2     -1.69      0.00
   14    0    2     -2.29      0.00
   16    0    2     -1.42      0.00
   18    0    2     -1.83      0.00
   20    0    2     -2.60      0.00
   22    0    2     -1.80      0.00
   24    0    2      1.23      0.00
  -25    1    2     -4.08      0.00
  -23    1    2    -11.63      0.00
  -21    1    2    -10.28      0.00
  -19    1    2     -6.37      0.00
  -17    1    2     -5.98      0.00
  -15    1    2     -3.45      0.00
  -13    1    2      3.35      0.00
  -11    1    2      5.32      0.00
   -9    1    2      2.73      0.00
   -7    1    2     14.32      0.00
   -5    1    2     36.81      0.00
   -3    1    2     23.84      0.00
   -1    1    2    -40.30      0.00
    1    1    2    -91.82      0.00
    3    1    2    -77.95      0.00
    5    1    2    -30.35      0.00
    7    1    2      1.79      0.00
    9    1    2     11.11      0.00
   11    1    2      5.87      0.00
   13    1    2     -4.78      0.00
   15    1    2     -8.34      0.00
   17    1    2     -4.74      0.00
   19    1    2     -0.37      0.00
   21    1    2      4.96      0.00
   23    1    2      6.14      0.00
  -26    2    2     -1.48      0.00
  -24    2    2     -1.26      0.00
  -22    2    2     -1.83      0.00
  -20    2    2     -1.09      0.00
  -18    2    2      2.97      0.00
  -16    2    2      8.89      0.00
  -14    2    2      9.66      0.00
  -12    2    2     -1.04      0.00
  -10    2    2    -17.67      0.00
   -8    2    2    -29.70      0.00
   -6    2    2    -38.29      0.00
   -4    2    2    -47.17      0.00
   -2    2    2    -46.47      0.00
    0    2    2    -31.09      0.00
    2    2    2    -15.98      0.00
    4    2    2    -10.36      0.00
    6    2    2     -4.78      0.00
    8    2    2      3.61      0.00
   10    2    2      5.52      0.00
   12    2    2      1.90      0.00
   14    2    2      2.25      0.00
   16    2    2      4.12      0.00
   18    2    2     -1.83      0.00
   20    2    2    -10.02      0.00
   22    2    2     -5.74      0.00
   24    2    2      7.58      0.00
  -25    3    2     -9.34      0.00
  -23    3    2    -15.19      0.00
  -21    3    2    -10.05      0.00
  -19    3    2     -0.05      0.00
  -17    3    2      0.23      0.00
  -15    3    2     -5.79      0.00
  -13    3    2     -3.69      0.00
  -11    3    2      7.74      0.00
   -9    3    2     18.36      0.00
   -7    3    2     18.61      0.00
   -5    3    2      5.72      0.00
   -3    3    2     -7.78      0.00
   -1    3    2     -3.83      0.00
    1    3    2     13.40      0.00
    3    3    2     20.50      0.00
    5    3    2      7.62      0.00
    7    3    2    -11.59      0.00
    9    3    2    -19.37      0.00
   11    3    2    -12.04      0.00
   13    3    2     -1.23      0.00
   15    3    2      2.72      0.00
   17    3    2      3.50      0.00
   19    3    2      7.09      0.00
   21    3    2      9.55      0.00
   23    3    2      6.50      0.00
  -24    4    2      1.25      0.00
  -22    4    2      0.16      0.00
  -20    4    2      2.93      0.00
  -18    4    2      7.98      0.00
  -16    4    2      8.79      0.00
  -14    4    2      0.01      0.00
  -12    4    2    -13.59      0.00
  -10    4    2    -20.95      0.00
   -8    4    2    -15.04      0.00
   -6    4    2      3.36      0.00
   -4    4    2     20.19      0.00
   -2    4    2     15.29      0.00
    0    4    2     -7.64      0.00
    2    4    2    -21.73      0.00
    4    4    2    -16.21      0.00
    6    4    2     -3.14      0.00
    8    4    2      6.71      0.00
   10    4    2      6.89      0.00
   12    4    2     -2.22      0.00
   14    4    2     -6.78      0.00
   16    4    2     -1.87      0.00
   18    4    2     -1.02      0.00
   20    4    2     -5.83      0.00
   22    4    2     -3.97      0.00
  -23    5    2     -0.78      0.00
  -21    5    2     -4.06      0.00
  -19    5    2     -3.14      0.00
  -17    5    2     -1.03      0.00
  -15    5    2     -1.52      0.00
  -13    5    2     -1.62      0.00
  -11    5    2     -1.18      0.00
   -9    5    2     -3.42      0.00
   -7    5    2     -5.99      0.00
   -5    5    2     -5.43      0.00
   -3    5    2     -0.69      0.00
   -1    5    2      9.37      0.00
    1    5    2     19.04      0.00
    3    5    2     18.76      0.00
    5    5    2     10.54      0.00
    7    5    2      2.99      0.00
    9    5    2     -1.27      0.00
   11    5    2     -1.50      0.00
   13    5    2      2.39      0.00
   15    5    2      6.12      0.00
   17    5    2      7.32      0.00
   19    5    2      6.29      0.00
   21    5    2      1.95      0.00
  -22    6    2     -3.08      0.00
  -20    6    2      3.66      0.00
  -18    6    2      7.89      0.00
  -16    6    2      6.01      0.00
  -14    6    2      3.10      0.00
  -12    6    2      4.44      0.00
  -10    6    2      8.23      0.00
   -8    6    2      8.53      0.00
   -6    6    2      5.78      0.00
   -4    6    2      5.85      0.00
   -2    6    2      6.80      0.00
    0    6    2      2.28      0.00
    2    6    2     -5.47      0.00
    4    6    2    -11.26      0.00
    6    6    2    -14.07      0.00
    8    6    2    -12.37      0.00
   10    6    2     -6.99      0.00
   12    6    2     -3.20      0.00
   14    6    2     -1.87      0.00
   16    6    2     -0.64      0.00
   18    6    2     -0.31      0.00
   20    6    2     -0.56      0.00
  -21    7    2     -3.30      0.00
  -19    7    2     -3.76      0.00
  -17    7    2     -4.47      0.00
  -15    7    2     -5.07      0.00
  -13    7    2     -4.96      0.00
  -11    7    2     -6.80      0.00
   -9    7    2     -9.27      0.00
   -7    7    2     -7.05      0.00
   -5    7    2     -2.26      0.00
   -3    7    2     -0.08      0.00
   -1    7    2      0.71      0.00
    1    7    2      1.19      0.00
    3    7    2      1.02      0.00
    5    7    2      3.93      0.00
    7    7    2      9.43      0.00
    9    7    2     10.27      0.00
   11    7    2      5.83      0.00
   13    7    2      2.27      0.00
   15    7    2      1.08      0.00
   17    7    2     -0.23      0.00
   19    7    2     -2.32      0.00
  -20    8    2      8.12      0.00
  -18    8    2      6.06      0.00
  -16    8    2     -1.91      0.00
  -14    8    2     -2.81      0.00
  -12    8    2      3.69      0.00
  -10    8    2      7.26      0.00
   -8    8    2      6.12      0.00
   -6    8    2      5.14      0.00
   -4    8    2      4.10      0.00
   -2    8    2      0.81      0.00
    0    8    2     -2.11      0.00
    2    8    2     -1.43      0.00
    4    8    2      1.01      0.00
    6    8    2      1.01      0.00
    8    8    2     -2.04      0.00
   10    8    2     -4.48      0.00
   12    8    2     -3.29      0.00
   14    8    2      0.07      0.00
   16    8    2      2.29      0.00
   18    8    2      2.80      0.00
  -17    9    2      1.49      0.00
  -15    9    2      4.46      0.00
  -13    9    2      1.24      0.00
  -11    9    2     -3.50      0.00
   -9    9    2     -4.19      0.00
   -7    9    2     -2.80      0.00
   -5    9    2     -1.84      0.00
   -3    9    2     -0.65      0.00
   -1    9    2      0.43      0.00
    1    9    2      1.07      0.00
    3    9    2      1.73      0.00
    5    9    2      1.37      0.00
    7    9    2      0.50      0.00
    9    9    2      1.14      0.00
   11    9    2      1.47      0.00
   13    9    2      0.60      0.00
   15    9    2      2.39      0.00
  -14   10    2      0.52      0.00
  -12   10    2      3.85      0.00
  -10   10    2      3.51      0.00
   -8   10    2      0.63      0.00
   -6   10    2     -0.25      0.00
   -4   10    2      0.53      0.00
   -2   10    2      1.16      0.00
    0   10    2      2.22      0.00
    2   10    2      3.40      0.00
    4   10    2      2.96      0.00
    6   10    2      0.47      0.00
    8   10    2     -1.90      0.00
   10   10    2     -0.83      0.00
   12   10    2      2.78      0.00
   -9   11    2     -2.06      0.00
   -7   11    2      0.27      0.00
   -5   11    2      0.77      0.00
   -3   11    2     -1.50      0.00
   -1   11    2     -3.47      0.00
    1   11    2     -3.17      0.00
    3   11    2     -2.06      0.00
    5   11    2     -1.75      0.00
    7   11    2     -1.50      0.00
    9   11    2     -0.95      0.00
  -27    1    3     -5.36      0.00
  -25    1    3     -6.05      0.00
  -23    1    3     -4.75      0.00
  -21    1    3     -1.20      0.00
  -19    1    3      1.45      0.00
  -17    1    3     -2.36      0.00
  -15    1    3     -7.78      0.00
  -13    1    3     -3.25      0.00
  -11    1    3      8.84      0.00
   -9    1    3     13.51      0.00
   -7    1    3      6.28      0.00
   -5    1    3      2.15      0.00
   -3    1    3     16.05      0.00
   -1    1    3     37.52      0.00
    1    1    3     40.11      0.00
    3    1    3     18.44      0.00
    5    1    3     -6.47      0.00
    7    1    3    -16.75      0.00
    9    1    3    -11.15      0.00
   11    1    3      0.64      0.00
   13    1    3      5.80      0.00
   15    1    3      2.79      0.00
   17    1    3      1.73      0.00
   19    1    3      4.71      0.00
   21    1    3      5.28      0.00
   23    1    3      3.92      0.00
  -26    2    3     -3.45      0.00
  -24    2    3     -2.13      0.00
  -22    2    3      0.56      0.00
  -20    2    3      1.56      0.00
  -18    2    3      6.49      0.00
  -16    2    3     11.68      0.00
  -14    2    3      4.03      0.00
  -12    2    3    -15.68      0.00
  -10    2    3    -34.83      0.00
   -8    2    3    -39.91      0.00
   -6    2    3    -24.71      0.00
   -4    2    3    -13.56      0.00
   -2    2    3    -38.05      0.00
    0    2    3    -73.54      0.00
    2    2    3    -69.64      0.00
    4    2    3    -33.58      0.00
    6    2    3     -6.74      0.00
    8    2    3      0.86      0.00
   10    2    3     -0.85      0.00
   12    2    3     -5.63      0.00
   14    2    3     -6.19      0.00
   16    2    3     -2.51      0.00
   18    2    3     -0.94      0.00
   20    2    3      0.24      0.00
   22    2    3      1.58      0.00
   24    2    3     -1.64      0.00
  -25    3    3      6.47      0.00
  -23    3    3     -2.41      0.00
  -21    3    3     -5.86      0.00
  -19    3    3      2.74      0.00
  -17    3    3     11.22      0.00
  -15    3    3     10.75      0.00
  -13    3    3      5.25      0.00
  -11    3    3     -0.81      0.00
   -9    3    3     -7.47      0.00
   -7    3    3    -14.62      0.00
   -5    3    3    -11.90      0.00
   -3    3    3     14.41      0.00
   -1    3    3     48.45      0.00
    1    3    3     52.77      0.00
    3    3    3     24.86      0.00
    5    3    3     -3.16      0.00
    7    3    3    -14.69      0.00
    9    3    3    -11.73      0.00
   11    3    3      0.81      0.00
   13    3    3      9.39      0.00
   15    3    3      7.76      0.00
   17    3    3      6.79      0.00
   19    3    3      5.98      0.00
   21    3    3     -4.59      0.00
   23    3    3    -14.72      0.00
  -24    4    3     -4.41      0.00
  -22    4    3      1.38      0.00
  -20    4    3      5.54      0.00
  -18    4    3      3.76      0.00
  -16    4    3      1.40      0.00
  -14    4    3      2.49      0.00
  -12    4    3      4.01      0.00
  -10    4    3      2.37      0.00
   -8    4    3     -2.96      0.00
   -6    4    3     -9.24      0.00
   -4    4    3    -13.12      0.00
   -2    4    3    -14.71      0.00
    0    4    3    -15.73      0.00
    2    4    3    -17.59      0.00
    4    4    3    -21.47      0.00
    6    4    3    -23.47      0.00
    8    4    3    -17.49      0.00
   10    4    3     -6.90      0.00
   12    4    3     -0.37      0.00
   14    4    3      0.86      0.00
   16    4    3      0.53      0.00
   18    4    3      0.70      0.00
   20    4    3      1.16      0.00
   22    4    3     -0.02      0.00
  -23    5    3     -2.69      0.00
  -21    5    3     -2.50      0.00
  -19    5    3      0.32      0.00
  -17    5    3      0.75      0.00
  -15    5    3     -3.90      0.00
  -13    5    3     -9.38      0.00
  -11    5    3    -12.87      0.00
   -9    5    3    -11.91      0.00
   -7    5    3     -2.72      0.00
   -5    5    3      8.66      0.00
   -3    5    3      9.82      0.00
   -1    5    3      1.54      0.00
    1    5    3     -3.42      0.00
    3    5    3      1.52      0.00
    5    5    3     11.43      0.00
    7    5    3     17.19      0.00
    9    5    3     13.79      0.00
   11    5    3      5.32      0.00
   13    5    3     -0.18      0.00
   15    5    3     -0.69      0.00
   17    5    3     -0.55      0.00
   19    5    3     -2.55      0.00
   21    5    3     -4.47      0.00
  -22    6    3      2.01      0.00
  -20    6    3     -1.23      0.00
  -18    6    3     -3.41      0.00
  -16    6    3     -0.32      0.00
  -14    6    3      7.46      0.00
  -12    6    3     13.27      0.00
  -10    6    3     11.50      0.00
   -8    6    3      4.39      0.00
   -6    6    3     -1.31      0.00
   -4    6    3     -1.09      0.00
   -2    6    3      5.19      0.00
    0    6    3     11.86      0.00
    2    6    3     10.65      0.00
    4    6    3      1.00      0.00
    6    6    3     -8.37      0.00
    8    6    3    -10.29      0.00
   10    6    3     -5.04      0.00
   12    6    3      2.06      0.00
   14    6    3      4.97      0.00
   16    6    3      3.56      0.00
   18    6    3      3.47      0.00
   20    6    3      5.48      0.00
  -21    7    3     -0.69      0.00
  -19    7    3     -1.30      0.00
  -17    7    3      0.85      0.00
  -15    7    3      1.31      0.00
  -13    7    3     -1.38      0.00
  -11    7    3     -2.71      0.00
   -9    7    3     -2.03      0.00
   -7    7    3     -2.73      0.00
   -5    7    3     -4.66      0.00
   -3    7    3     -6.22      0.00
   -1    7    3     -7.29      0.00
    1    7    3     -7.58      0.00
    3    7    3     -7.17      0.00
    5    7    3     -4.76      0.00
    7    7    3      0.98      0.00
    9    7    3      3.73      0.00
   11    7    3     -2.05      0.00
   13    7    3     -7.83      0.00
   15    7    3     -6.75      0.00
   17    7    3     -6.65      0.00
   19    7    3    -10.07      0.00
  -20    8    3     -1.01      0.00
  -18    8    3     -5.40      0.00
  -16    8    3     -3.97      0.00
  -14    8    3      0.79      0.00
  -12    8    3      2.06      0.00
  -10    8    3      0.42      0.00
   -8    8    3      0.39      0.00
   -6    8    3      0.52      0.00
   -4    8    3     -0.68      0.00
   -2    8    3      0.62      0.00
    0    8    3      4.14      0.00
    2    8    3      5.80      0.00
    4    8    3      6.34      0.00
    6    8    3      6.51      0.00
    8    8    3      4.46      0.00
   10    8    3      2.79      0.00
   12    8    3      3.54      0.00
   14    8    3      2.66      0.00
   16    8    3     -0.26      0.00
  -17    9    3     -2.81      0.00
  -15    9    3     -1.56      0.00
  -13    9    3     -0.80      0.00
  -11    9    3     -0.46      0.00
   -9    9    3      0.10      0.00
   -7    9    3      0.32      0.00
   -5    9    3      0.31      0.00
   -3    9    3     -0.55      0.00
   -1    9    3     -2.87      0.00
    1    9    3     -4.60      0.00
    3    9    3     -4.55      0.00
    5    9    3     -3.87      0.00
    7    9    3     -2.43      0.00
    9    9    3     -0.96      0.00
   11    9    3     -1.51      0.00
   13    9    3     -1.98      0.00
   15    9    3      0.43      0.00
  -14   10    3      1.88      0.00
  -12   10    3     -0.84      0.00
  -10   10    3     -2.19      0.00
   -8   10    3     -1.53      0.00
   -6   10    3     -0.35      0.00
   -4   10    3      0.56      0.00
   -2   10    3      1.30      0.00
    0   10    3      1.76      0.00
    2   10    3      1.46      0.00
    4   10    3      0.25      0.00
    6   10    3     -1.00      0.00
    8   10    3     -1.13      0.00
   10   10    3     -0.60      0.00
   12   10    3     -0.43      0.00
  -11   11    3      1.07      0.00
   -9   11    3      0.11      0.00
   -7   11    3     -0.33      0.00
   -5   11    3     -1.52      0.00
   -3   11    3     -2.36      0.00
   -1   11    3     -1.01      0.00
    1   11    3      0.95      0.00
    3   11    3      0.67      0.00
    5   11    3     -2.04      0.00
    7   11    3     -4.55      0.00
  -26    0    4      2.57      0.00
  -24    0    4      1.22      0.00
  -22    0    4      6.50      0.00
  -20    0    4     14.44      0.00
  -18    0    4     17.31      0.00
  -16    0    4     10.16      0.00
  -14    0    4     -4.60      0.00
  -12    0    4    -20.58      0.00
  -10    0    4    -33.40      0.00
   -8    0    4    -33.60      0.00
   -6    0    4    -14.11      0.00
   -4    0    4      5.22      0.00
   -2    0    4     -0.17      0.00
    0    0    4    -15.18      0.00
    2    0    4    -10.87      0.00
    4    0    4      4.88      0.00
    6    0    4      6.41      0.00
    8    0    4     -5.47      0.00
   10    0    4    -10.05      0.00
   12    0    4     -0.61      0.00
   14    0    4      9.19      0.00
   16    0    4     10.12      0.00
   18    0    4      8.20      0.00
   20    0    4      5.93      0.00
   22    0    4     -0.93      0.00
  -27    1    4      1.78      0.00
  -25    1    4      3.96      0.00
  -23    1    4      1.21      0.00
  -21    1    4     -2.70      0.00
  -19    1    4     -1.45      0.00
  -17    1    4      3.90      0.00
  -15    1    4      7.85      0.00
  -13    1    4      9.89      0.00
  -11    1    4     12.87      0.00
   -9    1    4     12.47      0.00
   -7    1    4     12.92      0.00
   -5    1    4     46.09      0.00
   -3    1    4    118.72      0.00
   -1    1    4    165.25      0.00
    1    1    4    132.35      0.00
    3    1    4     60.71      0.00
    5    1    4     12.17      0.00
    7    1    4     -6.28      0.00
    9    1    4     -7.47      0.00
   11    1    4      0.56      0.00
   13    1    4      2.90      0.00
   15    1    4     -2.57      0.00
   17    1    4     -3.29      0.00
   19    1    4     -0.34      0.00
   21    1    4      0.55      0.00
   23    1    4      3.21      0.00
  -26    2    4      1.27      0.00
  -24    2    4     26.02      0.00
  -22    2    4     39.80      0.00
  -20    2    4     25.01      0.00
  -18    2    4     -0.58      0.00
  -16    2    4    -13.45      0.00
  -14    2    4    -10.97      0.00
  -12    2    4     -3.13      0.00
  -10    2    4      0.32      0.00
   -8    2    4     -0.66      0.00
   -6    2    4      2.74      0.00
   -4    2    4      8.62      0.00
   -2    2    4      4.92      0.00
    0    2    4     -5.45      0.00
    2    2    4    -10.05      0.00
    4    2    4     -9.47      0.00
    6    2    4     -7.83      0.00
    8    2    4     -2.26      0.00
   10    2    4      3.47      0.00
   12    2    4      2.04      0.00
   14    2    4     -0.23      0.00
   16    2    4      4.94      0.00
   18    2    4      7.34      0.00
   20    2    4     -6.76      0.00
   22    2    4    -26.43      0.00
  -25    3    4      5.39      0.00
  -23    3    4      0.25      0.00
  -21    3    4     -3.97      0.00
  -19    3    4     -0.56      0.00
  -17    3    4      5.12      0.00
  -15    3    4      3.27      0.00
  -13    3    4     -3.31      0.00
  -11    3    4     -4.50      0.00
   -9    3    4      1.97      0.00
   -7    3    4      8.92      0.00
   -5    3    4      7.01      0.00
   -3    3    4     -5.33      0.00
   -1    3    4    -16.64      0.00
    1    3    4    -14.01      0.00
    3    3    4      1.40      0.00
    5    3    4     16.19      0.00
    7    3    4     18.42      0.00
    9    3    4      9.05      0.00
   11    3    4      0.24      0.00
   13    3    4     -1.27      0.00
   15    3    4     -0.51      0.00
   17    3    4     -0.10      0.00
   19    3    4      2.88      0.00
   21    3    4      5.43      0.00
   23    3    4      3.36      0.00
  -26    4    4      2.29      0.00
  -24    4    4      2.83      0.00
  -22    4    4     -0.30      0.00
  -20    4    4     -8.33      0.00
  -18    4    4    -14.50      0.00
  -16    4    4     -8.47      0.00
  -14    4    4      6.92      0.00
  -12    4    4     17.40      0.00
  -10    4    4     16.33      0.00
   -8    4    4      6.18      0.00
   -6    4    4     -5.08      0.00
   -4    4    4     -1.64      0.00
   -2    4    4     18.49      0.00
    0    4    4     30.28      0.00
    2    4    4     18.38      0.00
    4    4    4     -1.71      0.00
    6    4    4    -12.98      0.00
    8    4    4    -11.66      0.00
   10    4    4     -0.34      0.00
   12    4    4      8.38      0.00
   14    4    4      4.20      0.00
   16    4    4     -2.72      0.00
   18    4    4     -1.82      0.00
   20    4    4      0.00      0.00
   22    4    4     -2.12      0.00
  -25    5    4     -0.82      0.00
  -23    5    4      7.06      0.00
  -21    5    4      9.78      0.00
  -19    5    4      3.65      0.00
  -17    5    4     -3.68      0.00
  -15    5    4     -6.57      0.00
  -13    5    4     -5.09      0.00
  -11    5    4     -1.47      0.00
   -9    5    4     -0.47      0.00
   -7    5    4     -5.38      0.00
   -5    5    4    -14.80      0.00
   -3    5    4    -24.95      0.00
   -1    5    4    -28.78      0.00
    1    5    4    -20.80      0.00
    3    5    4     -6.13      0.00
    5    5    4      5.15      0.00
    7    5    4      7.92      0.00
    9    5    4      2.91      0.00
   11    5    4     -3.15      0.00
   13    5    4     -4.90      0.00
   15    5    4     -6.57      0.00
   17    5    4     -9.20      0.00
   19    5    4     -4.98      0.00
   21    5    4      3.20      0.00
  -24    6    4      1.39      0.00
  -22    6    4     -3.32      0.00
  -20    6    4     -6.21      0.00
  -18    6    4     -0.25      0.00
  -16    6    4      7.62      0.00
  -14    6    4      7.74      0.00
  -12    6    4      3.00      0.00
  -10    6    4      2.05      0.00
   -8    6    4      4.94      0.00
   -6    6    4      6.49      0.00
   -4    6    4      6.75      0.00
   -2    6    4      6.45      0.00
    0    6    4      3.60      0.00
    2    6    4      1.84      0.00
    4    6    4      5.17      0.00
    6    6    4      7.69      0.00
    8    6    4      5.47      0.00
   10    6    4      3.38      0.00
   12    6    4      2.24      0.00
   14    6    4      0.10      0.00
   16    6    4      0.32      0.00
   18    6    4      2.36      0.00
   20    6    4      1.48      0.00
  -21    7    4      3.15      0.00
  -19    7    4     -0.80      0.00
  -17    7    4     -1.43      0.00
  -15    7    4     -0.03      0.00
  -13    7    4      0.71      0.00
  -11    7    4      0.76      0.00
   -9    7    4     -1.61      0.00
   -7    7    4     -5.57      0.00
   -5    7    4     -6.57      0.00
   -3    7    4     -4.38      0.00
   -1    7    4     -1.65      0.00
    1    7    4      0.11      0.00
    3    7    4     -1.68      0.00
    5    7    4     -5.80      0.00
    7    7    4     -6.23      0.00
    9    7    4     -3.20      0.00
   11    7    4     -1.68      0.00
   13    7    4     -1.24      0.00
   15    7    4     -0.25      0.00
   17    7    4     -0.37      0.00
  -20    8    4      2.40      0.00
  -18    8    4      7.72      0.00
  -16    8    4      4.78      0.00
  -14    8    4     -3.98      0.00
  -12    8    4     -6.63      0.00
  -10    8    4     -0.99      0.00
   -8    8    4      3.53      0.00
   -6    8    4      2.56      0.00
   -4    8    4      0.49      0.00
   -2    8    4      0.19      0.00
    0    8    4      0.50      0.00
    2    8    4      0.74      0.00
    4    8    4      1.08      0.00
    6    8    4      1.11      0.00
    8    8    4      0.36      0.00
   10    8    4     -0.50      0.00
   12    8    4      0.39      0.00
   14    8    4      2.39      0.00
   16    8    4      1.97      0.00
  -17    9    4     -4.53      0.00
  -15    9    4     -1.51      0.00
  -13    9    4     -0.63      0.00
  -11    9    4     -2.24      0.00
   -9    9    4     -2.69      0.00
   -7    9    4     -2.35      0.00
   -5    9    4     -2.62      0.00
   -3    9    4     -1.88      0.00
   -1    9    4     -0.59      0.00
    1    9    4     -2.00      0.00
    3    9    4     -5.38      0.00
    5    9    4     -6.64      0.00
    7    9    4     -4.35      0.00
    9    9    4     -0.72      0.00
   11    9    4      0.53      0.00
   13    9    4     -2.02      0.00
  -14   10    4     -1.46      0.00
  -12   10    4     -0.72      0.00
  -10   10    4      1.26      0.00
   -8   10    4      1.35      0.00
   -6   10    4      1.01      0.00
   -4   10    4      1.18      0.00
   -2   10    4      0.12      0.00
    0   10    4     -1.74      0.00
    2   10    4     -2.04      0.00
    4   10    4     -0.14      0.00
    6   10    4      1.79      0.00
    8   10    4      0.81      0.00
   10   10    4     -2.05      0.00
  -11   11    4      0.12      0.00
   -9   11    4     -0.33      0.00
   -7   11    4     -0.67      0.00
   -5   11    4     -1.77      0.00
   -3   11    4     -2.12      0.00
   -1   11    4     -0.41      0.00
    1   11    4      1.44      0.00
    3   11    4      1.86      0.00
    5   11    4      1.85      0.00
    7   11    4      2.38      0.00
  -27    1    5      0.25      0.00
  -25    1    5     -2.82      0.00
  -23    1    5     -4.54      0.00
  -21    1    5     -0.68      0.00
  -19    1    5      4.50      0.00
  -17    1    5      5.48      0.00
  -15    1    5      2.38      0.00
  -13    1    5     -1.09      0.00
  -11    1    5      2.71      0.00
   -9    1    5     14.61      0.00
   -7    1    5     14.70      0.00
   -5    1    5     -9.02      0.00
   -3    1    5    -26.78      0.00
   -1    1    5     -9.08      0.00
    1    1    5     22.86      0.00
    3    1    5     35.34      0.00
    5    1    5     28.34      0.00
    7    1    5     13.70      0.00
    9    1    5     -1.35      0.00
   11    1    5     -5.22      0.00
   13    1    5      2.52      0.00
   15    1    5      7.03      0.00
   17    1    5      5.36      0.00
   19    1    5      4.02      0.00
   21    1    5     -0.03      0.00
   23    1    5     -6.85      0.00
  -26    2    5      4.06      0.00
  -24    2    5      1.03      0.00
  -22    2    5     -2.24      0.00
  -20    2    5     -7.63      0.00
  -18    2    5    -13.05      0.00
  -16    2    5     -9.09      0.00
  -14    2    5      3.27      0.00
  -12    2    5     12.77      0.00
  -10    2    5     13.96      0.00
   -8    2    5      8.74      0.00
   -6    2    5      7.21      0.00
   -4    2    5     19.85      0.00
   -2    2    5     32.05      0.00
    0    2    5     19.83      0.00
    2    2    5     -6.17      0.00
    4    2    5    -17.25      0.00
    6    2    5     -9.87      0.00
    8    2    5      1.78      0.00
   10    2    5      6.85      0.00
   12    2    5      1.54      0.00
   14    2    5     -6.61      0.00
   16    2    5     -8.69      0.00
   18    2    5     -7.88      0.00
   20    2    5     -6.09      0.00
   22    2    5      0.68      0.00
  -27    3    5     -6.67      0.00
  -25    3    5      3.60      0.00
  -23    3    5     12.41      0.00
  -21    3    5      7.01      0.00
  -19    3    5     -2.67      0.00
  -17    3    5     -5.74      0.00
  -15    3    5     -6.06      0.00
  -13    3    5     -5.12      0.00
  -11    3    5      1.58      0.00
   -9    3    5     13.09      0.00
   -7    3    5     20.78      0.00
   -5    3    5     12.99      0.00
   -3    3    5     -7.16      0.00
   -1    3    5    -15.07      0.00
    1    3    5      0.96      0.00
    3    3    5     22.35      0.00
    5    3    5     31.49      0.00
    7    3    5     26.17      0.00
    9    3    5     10.74      0.00
   11    3    5     -1.63      0.00
   13    3    5     -1.82      0.00
   15    3    5      0.59      0.00
   17    3    5     -0.80      0.00
   19    3    5      0.99      0.00
   21    3    5      4.77      0.00
  -26    4    5     -0.89      0.00
  -24    4    5     -5.95      0.00
  -22    4    5     -7.67      0.00
  -20    4    5     -5.12      0.00
  -18    4    5     -2.57      0.00
  -16    4    5     -1.85      0.00
  -14    4    5     -1.54      0.00
  -12    4    5      0.92      0.00
  -10    4    5      7.32      0.00
   -8    4    5     13.32      0.00
   -6    4    5     11.96      0.00
   -4    4    5      3.47      0.00
   -2    4    5     -6.58      0.00
    0    4    5    -12.21      0.00
    2    4    5     -9.50      0.00
    4    4    5     -3.25      0.00
    6    4    5     -2.01      0.00
    8    4    5     -4.08      0.00
   10    4    5     -3.85      0.00
   12    4    5     -2.42      0.00
   14    4    5     -0.92      0.00
   16    4    5      0.46      0.00
   18    4    5     -1.29      0.00
   20    4    5     -3.62      0.00
  -25    5    5      4.32      0.00
  -23    5    5      1.19      0.00
  -21    5    5     -1.87      0.00
  -19    5    5     -1.83      0.00
  -17    5    5      1.39      0.00
  -15    5    5      3.89      0.00
  -13    5    5      3.99      0.00
  -11    5    5      2.78      0.00
   -9    5    5     -0.65      0.00
   -7    5    5     -5.35      0.00
   -5    5    5     -5.16      0.00
   -3    5    5      2.47      0.00
   -1    5    5     10.61      0.00
    1    5    5     11.39      0.00
    3    5    5      6.19      0.00
    5    5    5      2.46      0.00
    7    5    5      2.97      0.00
    9    5    5      4.45      0.00
   11    5    5      4.72      0.00
   13    5    5      3.47      0.00
   15    5    5      0.27      0.00
   17    5    5     -2.08      0.00
   19    5    5      0.28      0.00
  -24    6    5     -2.14      0.00
  -22    6    5      0.36      0.00
  -20    6    5      1.54      0.00
  -18    6    5     -1.03      0.00
  -16    6    5     -5.35      0.00
  -14    6    5     -6.89      0.00
  -12    6    5     -3.77      0.00
  -10    6    5      1.00      0.00
   -8    6    5      2.94      0.00
   -6    6    5      0.29      0.00
   -4    6    5     -4.81      0.00
   -2    6    5     -7.73      0.00
    0    6    5     -5.58      0.00
    2    6    5     -0.77      0.00
    4    6    5      1.81      0.00
    6    6    5     -0.01      0.00
    8    6    5     -4.74      0.00
   10    6    5     -7.95      0.00
   12    6    5     -5.87      0.00
   14    6    5     -0.98      0.00
   16    6    5      1.42      0.00
   18    6    5      1.31      0.00
  -21    7    5      4.57      0.00
  -19    7    5     12.39      0.00
  -17    7    5     15.09      0.00
  -15    7    5      9.04      0.00
  -13    7    5     -0.96      0.00
  -11    7    5     -7.13      0.00
   -9    7    5     -5.69      0.00
   -7    7    5      0.63      0.00
   -5    7    5      5.90      0.00
   -3    7    5      5.14      0.00
   -1    7    5     -0.91      0.00
    1    7    5     -4.46      0.00
    3    7    5     -2.17      0.00
    5    7    5     -0.96      0.00
    7    7    5     -2.41      0.00
    9    7    5     -0.47      0.00
   11    7    5      1.01      0.00
   13    7    5     -3.66      0.00
   15    7    5     -5.01      0.00
   17    7    5      2.23      0.00
  -20    8    5     -2.68      0.00
  -18    8    5     -5.40      0.00
  -16    8    5     -7.56      0.00
  -14    8    5     -4.55      0.00
  -12    8    5      0.20      0.00
  -10    8    5      1.52      0.00
   -8    8    5      1.24      0.00
   -6    8    5      1.85      0.00
   -4    8    5      1.56      0.00
   -2    8    5      1.07      0.00
    0    8    5      2.46      0.00
    2    8    5      3.51      0.00
    4    8    5      2.99      0.00
    6    8    5      2.53      0.00
    8    8    5      1.45      0.00
   10    8    5      0.32      0.00
   12    8    5      1.65      0.00
   14    8    5      2.71      0.00
   16    8    5      0.53      0.00
  -17    9    5      3.38      0.00
  -15    9    5      0.56      0.00
  -13    9    5      0.58      0.00
  -11    9    5      2.34      0.00
   -9    9    5      3.11      0.00
   -7    9    5      1.42      0.00
   -5    9    5     -0.93      0.00
   -3    9    5     -1.54      0.00
   -1    9    5     -1.23      0.00
    1    9    5     -1.21      0.00
    3    9    5     -1.25      0.00
    5    9    5     -1.91      0.00
    7    9    5     -2.77      0.00
    9    9    5     -1.80      0.00
   11    9    5     -0.09      0.00
   13    9    5     -0.31      0.00
  -14   10    5     -1.58      0.00
  -12   10    5     -1.14      0.00
  -10   10    5     -1.33      0.00
   -8   10    5     -1.26      0.00
   -6   10    5     -0.40      0.00
   -4   10    5      0.20      0.00
   -2   10    5     -0.11      0.00
    0   10    5     -0.16      0.00
    2   10    5      0.68      0.00
    4   10    5      1.69      0.00
    6   10    5      2.30      0.00
    8   10    5      2.29      0.00
   10   10    5      1.57      0.00
  -11   11    5      1.32      0.00
   -9   11    5     -0.22      0.00
   -7   11    5     -0.11      0.00
   -5   11    5      1.54      0.00
   -3   11    5      1.87      0.00
   -1   11    5      0.60      0.00
    1   11    5     -0.29      0.00
    3   11    5      0.67      0.00
    5   11    5      3.08      0.00
  -28    0    6     -2.07      0.00
  -26    0    6     -2.79      0.00
  -24    0    6     -7.91      0.00
  -22    0    6    -16.11      0.00
  -20    0    6    -18.87      0.00
  -18    0    6    -10.49      0.00
  -16    0    6      2.36      0.00
  -14    0    6      8.61      0.00
  -12    0    6      5.09      0.00
  -10    0    6     -3.76      0.00
   -8    0    6     -5.86      0.00
   -6    0    6      8.56      0.00
   -4    0    6     22.45      0.00
   -2    0    6      8.70      0.00
    0    0    6    -22.72      0.00
    2    0    6    -37.34      0.00
    4    0    6    -24.24      0.00
    6    0    6      1.57      0.00
    8    0    6     17.79      0.00
   10    0    6     10.45      0.00
   12    0    6     -5.85      0.00
   14    0    6     -8.45      0.00
   16    0    6     -4.37      0.00
   18    0    6     -6.33      0.00
   20    0    6     -4.99      0.00
   22    0    6      2.10      0.00
  -27    1    6      7.09      0.00
  -25    1    6     10.28      0.00
  -23    1    6      9.27      0.00
  -21    1    6      3.78      0.00
  -19    1    6     -4.42      0.00
  -17    1    6    -11.62      0.00
  -15    1    6    -12.21      0.00
  -13    1    6     -5.12      0.00
  -11    1    6      4.10      0.00
   -9    1    6      6.06      0.00
   -7    1    6    -15.21      0.00
   -5    1    6    -63.19      0.00
   -3    1    6   -101.63      0.00
   -1    1    6    -92.49      0.00
    1    1    6    -52.34      0.00
    3    1    6    -20.49      0.00
    5    1    6     -5.29      0.00
    7    1    6      0.23      0.00
    9    1    6     -1.29      0.00
   11    1    6     -1.95      0.00
   13    1    6      0.78      0.00
   15    1    6     -1.22      0.00
   17    1    6     -5.77      0.00
   19    1    6     -4.61      0.00
   21    1    6     -1.30      0.00
  -26    2    6    -27.87      0.00
  -24    2    6    -51.26      0.00
  -22    2    6    -44.24      0.00
  -20    2    6    -15.18      0.00
  -18    2    6      5.89      0.00
  -16    2    6     10.72      0.00
  -14    2    6      9.16      0.00
  -12    2    6      8.95      0.00
  -10    2    6     12.45      0.00
   -8    2    6     13.17      0.00
   -6    2    6      3.63      0.00
   -4    2    6     -7.88      0.00
   -2    2    6     -8.56      0.00
    0    2    6     -1.23      0.00
    2    2    6      4.46      0.00
    4    2    6      4.63      0.00
    6    2    6     -1.09      0.00
    8    2    6     -8.32      0.00
   10    2    6     -8.28      0.00
   12    2    6     -0.77      0.00
   14    2    6      2.90      0.00
   16    2    6     -0.44      0.00
   18    2    6      3.30      0.00
   20    2    6     20.12      0.00
   22    2    6     30.56      0.00
  -27    3    6      3.89      0.00
  -25    3    6      7.59      0.00
  -23    3    6      5.60      0.00
  -21    3    6      0.49      0.00
  -19    3    6     -2.06      0.00
  -17    3    6     -1.10      0.00
  -15    3    6     -0.77      0.00
  -13    3    6     -6.85      0.00
  -11    3    6    -20.48      0.00
   -9    3    6    -31.46      0.00
   -7    3    6    -27.12      0.00
   -5    3    6    -11.31      0.00
   -3    3    6     -0.80      0.00
   -1    3    6     -2.72      0.00
    1    3    6    -10.06      0.00
    3    3    6    -13.56      0.00
    5    3    6     -7.96      0.00
    7    3    6      3.03      0.00
    9    3    6      7.80      0.00
   11    3    6      3.16      0.00
   13    3    6     -2.16      0.00
   15    3    6     -5.11      0.00
   17    3    6     -8.54      0.00
   19    3    6     -7.97      0.00
   21    3    6     -0.99      0.00
  -26    4    6     -2.89      0.00
  -24    4    6     -1.04      0.00
  -22    4    6      2.90      0.00
  -20    4    6      7.51      0.00
  -18    4    6      8.27      0.00
  -16    4    6      2.89      0.00
  -14    4    6     -1.52      0.00
  -12    4    6      1.10      0.00
  -10    4    6      7.97      0.00
   -8    4    6     14.93      0.00
   -6    4    6     17.17      0.00
   -4    4    6     11.14      0.00
   -2    4    6      4.79      0.00
    0    4    6      7.50      0.00
    2    4    6     12.76      0.00
    4    4    6     10.60      0.00
    6    4    6      2.69      0.00
    8    4    6     -5.11      0.00
   10    4    6     -8.54      0.00
   12    4    6     -5.24      0.00
   14    4    6      0.64      0.00
   16    4    6      2.75      0.00
   18    4    6      0.73      0.00
   20    4    6     -2.18      0.00
  -25    5    6     -3.89      0.00
  -23    5    6     -8.14      0.00
  -21    5    6     -2.24      0.00
  -19    5    6      6.20      0.00
  -17    5    6      8.54      0.00
  -15    5    6      4.56      0.00
  -13    5    6     -2.68      0.00
  -11    5    6     -8.32      0.00
   -9    5    6     -8.39      0.00
   -7    5    6     -3.57      0.00
   -5    5    6      2.32      0.00
   -3    5    6      3.57      0.00
   -1    5    6     -2.18      0.00
    1    5    6     -8.70      0.00
    3    5    6    -10.43      0.00
    5    5    6     -7.81      0.00
    7    5    6     -1.64      0.00
    9    5    6      3.62      0.00
   11    5    6      2.99      0.00
   13    5    6      3.53      0.00
   15    5    6      9.33      0.00
   17    5    6      7.90      0.00
   19    5    6     -2.62      0.00
  -24    6    6     -1.94      0.00
  -22    6    6     -4.50      0.00
  -20    6    6    -11.12      0.00
  -18    6    6    -16.35      0.00
  -16    6    6    -12.46      0.00
  -14    6    6     -3.83      0.00
  -12    6    6     -1.50      0.00
  -10    6    6     -4.45      0.00
   -8    6    6     -3.89      0.00
   -6    6    6     -0.87      0.00
   -4    6    6      1.02      0.00
   -2    6    6      5.93      0.00
    0    6    6     12.26      0.00
    2    6    6     11.93      0.00
    4    6    6      7.09      0.00
    6    6    6      3.43      0.00
    8    6    6     -0.48      0.00
   10    6    6     -3.06      0.00
   12    6    6     -1.14      0.00
   14    6    6      0.38      0.00
   16    6    6     -0.56      0.00
   18    6    6      0.71      0.00
  -23    7    6      3.32      0.00
  -21    7    6      8.18      0.00
  -19    7    6      8.43      0.00
  -17    7    6      4.61      0.00
  -15    7    6      3.42      0.00
  -13    7    6      5.52      0.00
  -11    7    6      7.24      0.00
   -9    7    6      7.89      0.00
   -7    7    6      7.39      0.00
   -5    7    6      4.65      0.00
   -3    7    6      0.44      0.00
   -1    7    6     -2.64      0.00
    1    7    6     -3.10      0.00
    3    7    6     -3.01      0.00
    5    7    6     -4.30      0.00
    7    7    6     -4.22      0.00
    9    7    6     -1.00      0.00
   11    7    6      1.46      0.00
   13    7    6      1.39      0.00
   15    7    6      1.85      0.00
   17    7    6      2.96      0.00
  -20    8    6     -6.37      0.00
  -18    8    6     -4.01      0.00
  -16    8    6     -0.97      0.00
  -14    8    6     -1.06      0.00
  -12    8    6     -4.56      0.00
  -10    8    6     -7.23      0.00
   -8    8    6     -5.95      0.00
   -6    8    6     -2.81      0.00
   -4    8    6     -0.74      0.00
   -2    8    6     -0.37      0.00
    0    8    6     -1.67      0.00
    2    8    6     -2.93      0.00
    4    8    6     -1.62      0.00
    6    8    6      1.35      0.00
    8    8    6      2.85      0.00
   10    8    6      1.67      0.00
   12    8    6     -1.47      0.00
   14    8    6     -3.95      0.00
  -19    9    6      0.09      0.00
  -17    9    6     -0.64      0.00
  -15    9    6      4.03      0.00
  -13    9    6      8.94      0.00
  -11    9    6      8.43      0.00
   -9    9    6      5.59      0.00
   -7    9    6      4.62      0.00
   -5    9    6      3.89      0.00
   -3    9    6      2.54      0.00
   -1    9    6      3.49      0.00
    1    9    6      7.56      0.00
    3    9    6     11.37      0.00
    5    9    6     10.97      0.00
    7    9    6      6.24      0.00
    9    9    6      1.87      0.00
   11    9    6      0.77      0.00
   13    9    6      0.09      0.00
  -16   10    6     -0.49      0.00
  -14   10    6     -1.90      0.00
  -12   10    6     -2.87      0.00
  -10   10    6     -2.43      0.00
   -8   10    6     -2.59      0.00
   -6   10    6     -3.07      0.00
   -4   10    6     -2.33      0.00
   -2   10    6     -1.57      0.00
    0   10    6     -1.86      0.00
    2   10    6     -2.27      0.00
    4   10    6     -2.16      0.00
    6   10    6     -1.62      0.00
    8   10    6     -1.47      0.00
   10   10    6     -2.14      0.00
  -11   11    6      2.81      0.00
   -9   11    6      1.60      0.00
   -7   11    6      1.74      0.00
   -5   11    6      2.91      0.00
   -3   11    6      2.88      0.00
   -1   11    6      2.18      0.00
    1   11    6      1.77      0.00
    3   11    6      0.39      0.00
    5   11    6     -2.08      0.00
  -27    1    7      1.05      0.00
  -25    1    7     -0.53      0.00
  -23    1    7     -2.73      0.00
  -21    1    7     -2.84      0.00
  -19    1    7      1.98      0.00
  -17    1    7      5.74      0.00
  -15    1    7      1.18      0.00
  -13    1    7    -11.46      0.00
  -11    1    7    -27.98      0.00
   -9    1    7    -35.40      0.00
   -7    1    7    -19.87      0.00
   -5    1    7      1.24      0.00
   -3    1    7     -4.79      0.00
   -1    1    7    -29.95      0.00
    1    1    7    -39.34      0.00
    3    1    7    -27.00      0.00
    5    1    7     -9.06      0.00
    7    1    7      5.08      0.00
    9    1    7      8.07      0.00
   11    1    7     -0.37      0.00
   13    1    7     -6.42      0.00
   15    1    7     -4.65      0.00
   17    1    7     -2.02      0.00
   19    1    7      1.65      0.00
   21    1    7      7.31      0.00
  -28    2    7     -0.60      0.00
  -26    2    7      1.70      0.00
  -24    2    7      2.55      0.00
  -22    2    7      0.68      0.00
  -20    2    7      0.30      0.00
  -18    2    7      1.23      0.00
  -16    2    7      1.59      0.00
  -14    2    7      4.69      0.00
  -12    2    7     11.00      0.00
  -10    2    7     14.46      0.00
   -8    2    7     10.95      0.00
   -6    2    7      4.18      0.00
   -4    2    7      4.57      0.00
   -2    2    7     16.46      0.00
    0    2    7     27.06      0.00
    2    2    7     21.63      0.00
    4    2    7      3.04      0.00
    6    2    7    -13.83      0.00
    8    2    7    -16.55      0.00
   10    2    7     -5.23      0.00
   12    2    7      6.36      0.00
   14    2    7      8.74      0.00
   16    2    7      6.64      0.00
   18    2    7      3.33      0.00
   20    2    7     -2.86      0.00
  -27    3    7     -3.50      0.00
  -25    3    7     -5.82      0.00
  -23    3    7      0.43      0.00
  -21    3    7      8.67      0.00
  -19    3    7      7.38      0.00
  -17    3    7      1.49      0.00
  -15    3    7     -0.89      0.00
  -13    3    7     -3.93      0.00
  -11    3    7    -12.77      0.00
   -9    3    7    -24.07      0.00
   -7    3    7    -30.23      0.00
   -5    3    7    -28.28      0.00
   -3    3    7    -25.10      0.00
   -1    3    7    -26.72      0.00
    1    3    7    -28.79      0.00
    3    3    7    -25.99      0.00
    5    3    7    -18.60      0.00
    7    3    7     -9.63      0.00
    9    3    7     -4.05      0.00
   11    3    7     -2.33      0.00
   13    3    7     -0.16      0.00
   15    3    7     -0.33      0.00
   17    3    7     -4.75      0.00
   19    3    7     -2.94      0.00
   21    3    7      6.54      0.00
  -26    4    7      1.87      0.00
  -24    4    7      2.28      0.00
  -22    4    7     -0.23      0.00
  -20    4    7     -0.41      0.00
  -18    4    7      1.35      0.00
  -16    4    7      2.06      0.00
  -14    4    7      1.34      0.00
  -12    4    7     -2.74      0.00
  -10    4    7     -8.13      0.00
   -8    4    7     -6.88      0.00
   -6    4    7      2.38      0.00
   -4    4    7     14.47      0.00
   -2    4    7     24.59      0.00
    0    4    7     26.35      0.00
    2    4    7     19.11      0.00
    4    4    7     12.34      0.00
    6    4    7      9.81      0.00
    8    4    7      7.34      0.00
   10    4    7      5.02      0.00
   12    4    7      3.28      0.00
   14    4    7      0.86      0.00
   16    4    7      1.23      0.00
   18    4    7      3.61      0.00
   20    4    7      1.22      0.00
  -25    5    7     -0.01      0.00
  -23    5    7      2.70      0.00
  -21    5    7      2.08      0.00
  -19    5    7      0.03      0.00
  -17    5    7     -0.11      0.00
  -15    5    7      1.60      0.00
  -13    5    7      3.28      0.00
  -11    5    7      3.52      0.00
   -9    5    7      1.49      0.00
   -7    5    7     -1.44      0.00
   -5    5    7     -3.37      0.00
   -3    5    7     -5.74      0.00
   -1    5    7    -10.22      0.00
    1    5    7    -15.03      0.00
    3    5    7    -17.77      0.00
    5    5    7    -16.69      0.00
    7    5    7    -11.10      0.00
    9    5    7     -4.60      0.00
   11    5    7     -1.25      0.00
   13    5    7      0.38      0.00
   15    5    7      1.96      0.00
   17    5    7      1.09      0.00
   19    5    7     -2.24      0.00
  -24    6    7     -1.23      0.00
  -22    6    7      1.81      0.00
  -20    6    7      2.97      0.00
  -18    6    7      0.77      0.00
  -16    6    7     -1.94      0.00
  -14    6    7     -4.22      0.00
  -12    6    7     -5.78      0.00
  -10    6    7     -4.55      0.00
   -8    6    7     -0.59      0.00
   -6    6    7      2.85      0.00
   -4    6    7      3.05      0.00
   -2    6    7      1.14      0.00
    0    6    7      1.39      0.00
    2    6    7      5.18      0.00
    4    6    7      8.75      0.00
    6    6    7      9.97      0.00
    8    6    7      9.85      0.00
   10    6    7      7.42      0.00
   12    6    7      2.74      0.00
   14    6    7     -0.46      0.00
   16    6    7     -1.33      0.00
   18    6    7     -1.97      0.00
  -23    7    7     -2.62      0.00
  -21    7    7    -12.51      0.00
  -19    7    7    -16.99      0.00
  -17    7    7    -10.41      0.00
  -15    7    7      2.02      0.00
  -13    7    7     11.16      0.00
  -11    7    7     11.42      0.00
   -9    7    7      4.11      0.00
   -7    7    7     -3.82      0.00
   -5    7    7     -5.00      0.00
   -3    7    7      0.97      0.00
   -1    7    7      5.54      0.00
    1    7    7      3.00      0.00
    3    7    7     -1.07      0.00
    5    7    7     -2.24      0.00
    7    7    7     -3.94      0.00
    9    7    7     -4.31      0.00
   11    7    7      1.96      0.00
   13    7    7      8.45      0.00
   15    7    7      6.30      0.00
  -20    8    7      6.56      0.00
  -18    8    7      5.07      0.00
  -16    8    7      1.02      0.00
  -14    8    7     -2.32      0.00
  -12    8    7     -2.58      0.00
  -10    8    7     -1.60      0.00
   -8    8    7     -0.53      0.00
   -6    8    7      1.05      0.00
   -4    8    7      0.96      0.00
   -2    8    7     -1.62      0.00
    0    8    7     -3.61      0.00
    2    8    7     -4.63      0.00
    4    8    7     -5.14      0.00
    6    8    7     -2.16      0.00
    8    8    7      2.08      0.00
   10    8    7      1.59      0.00
   12    8    7     -0.23      0.00
   14    8    7      1.63      0.00
  -19    9    7     -1.17      0.00
  -17    9    7      0.81      0.00
  -15    9    7      0.08      0.00
  -13    9    7     -1.56      0.00
  -11    9    7     -2.32      0.00
   -9    9    7     -1.94      0.00
   -7    9    7     -0.98      0.00
   -5    9    7     -0.12      0.00
   -3    9    7      0.57      0.00
   -1    9    7      0.76      0.00
    1    9    7      0.54      0.00
    3    9    7      1.31      0.00
    5    9    7      2.63      0.00
    7    9    7      2.30      0.00
    9    9    7      0.93      0.00
   11    9    7      0.22      0.00
  -16   10    7      0.95      0.00
  -14   10    7      1.59      0.00
  -12   10    7      1.53      0.00
  -10   10    7      1.01      0.00
   -8   10    7     -0.13      0.00
   -6   10    7     -1.00      0.00
   -4   10    7     -0.58      0.00
   -2   10    7     -0.02      0.00
    0   10    7     -0.16      0.00
    2   10    7     -0.14      0.00
    4   10    7     -0.25      0.00
    6   10    7     -1.22      0.00
    8   10    7     -2.02      0.00
  -11   11    7      1.36      0.00
   -9   11    7      2.46      0.00
   -7   11    7      1.56      0.00
   -5   11    7     -0.18      0.00
   -3   11    7     -0.97      0.00
   -1   11    7     -0.42      0.00
    1   11    7      0.23      0.00
    3   11    7     -0.65      0.00
  -28    0    8     -0.30      0.00
  -26    0    8      0.68      0.00
  -24    0    8      1.31      0.00
  -22    0    8      0.84      0.00
  -20    0    8     -1.29      0.00
  -18    0    8     -3.62      0.00
  -16    0    8     -0.96      0.00
  -14    0    8      6.34      0.00
  -12    0    8     11.54      0.00
  -10    0    8      9.91      0.00
   -8    0    8      0.94      0.00
   -6    0    8     -4.23      0.00
   -4    0    8     12.08      0.00
   -2    0    8     41.51      0.00
    0    0    8     51.79      0.00
    2    0    8     32.28      0.00
    4    0    8      2.45      0.00
    6    0    8    -16.07      0.00
    8    0    8    -14.08      0.00
   10    0    8     -2.32      0.00
   12    0    8      0.72      0.00
   14    0    8     -1.91      0.00
   16    0    8      1.25      0.00
   18    0    8      2.59      0.00
   20    0    8     -2.49      0.00
  -27    1    8     -3.08      0.00
  -25    1    8      3.08      0.00
  -23    1    8     11.95      0.00
  -21    1    8     16.03      0.00
  -19    1    8     15.22      0.00
  -17    1    8     11.42      0.00
  -15    1    8      3.36      0.00
  -13    1    8     -6.31      0.00
  -11    1    8     -9.60      0.00
   -9    1    8      0.87      0.00
   -7    1    8     24.21      0.00
   -5    1    8     43.94      0.00
   -3    1    8     43.25      0.00
   -1    1    8     29.69      0.00
    1    1    8     21.48      0.00
    3    1    8     19.24      0.00
    5    1    8     14.73      0.00
    7    1    8      8.59      0.00
    9    1    8      4.79      0.00
   11    1    8      3.96      0.00
   13    1    8      4.70      0.00
   15    1    8      4.95      0.00
   17    1    8      4.52      0.00
   19    1    8      3.36      0.00
   21    1    8     -0.08      0.00
  -28    2    8      3.94      0.00
  -26    2    8     15.41      0.00
  -24    2    8     18.11      0.00
  -22    2    8      8.19      0.00
  -20    2    8     -0.16      0.00
  -18    2    8     -0.36      0.00
  -16    2    8     -0.75      0.00
  -14    2    8     -5.81      0.00
  -12    2    8    -11.37      0.00
  -10    2    8    -12.36      0.00
   -8    2    8     -5.30      0.00
   -6    2    8      8.08      0.00
   -4    2    8     18.45      0.00
   -2    2    8     17.80      0.00
    0    2    8      8.69      0.00
    2    2    8      0.29      0.00
    4    2    8     -1.72      0.00
    6    2    8      1.83      0.00
    8    2    8      5.41      0.00
   10    2    8      2.72      0.00
   12    2    8     -3.06      0.00
   14    2    8     -0.89      0.00
   16    2    8      5.19      0.00
   18    2    8     -2.26      0.00
   20    2    8    -18.71      0.00
  -27    3    8     -1.25      0.00
  -25    3    8      1.92      0.00
  -23    3    8      5.08      0.00
  -21    3    8      1.79      0.00
  -19    3    8     -4.05      0.00
  -17    3    8     -4.74      0.00
  -15    3    8      1.79      0.00
  -13    3    8     13.87      0.00
  -11    3    8     23.84      0.00
   -9    3    8     20.81      0.00
   -7    3    8      8.48      0.00
   -5    3    8      2.78      0.00
   -3    3    8      6.10      0.00
   -1    3    8      7.52      0.00
    1    3    8      3.46      0.00
    3    3    8     -2.82      0.00
    5    3    8     -8.41      0.00
    7    3    8     -7.74      0.00
    9    3    8      0.08      0.00
   11    3    8      5.30      0.00
   13    3    8      3.80      0.00
   15    3    8      2.47      0.00
   17    3    8      2.31      0.00
   19    3    8     -1.13      0.00
  -26    4    8      2.49      0.00
  -24    4    8      4.15      0.00
  -22    4    8      5.24      0.00
  -20    4    8      3.23      0.00
  -18    4    8      0.91      0.00
  -16    4    8     -0.57      0.00
  -14    4    8     -3.20      0.00
  -12    4    8     -4.77      0.00
  -10    4    8     -3.27      0.00
   -8    4    8     -2.90      0.00
   -6    4    8     -6.99      0.00
   -4    4    8    -13.01      0.00
   -2    4    8    -15.97      0.00
    0    4    8    -11.92      0.00
    2    4    8     -2.11      0.00
    4    4    8      6.47      0.00
    6    4    8      8.22      0.00
    8    4    8      3.94      0.00
   10    4    8     -1.10      0.00
   12    4    8     -2.45      0.00
   14    4    8     -0.55      0.00
   16    4    8      2.26      0.00
   18    4    8      5.11      0.00
  -25    5    8      3.31      0.00
  -23    5    8     -0.96      0.00
  -21    5    8     -5.71      0.00
  -19    5    8     -4.65      0.00
  -17    5    8     -1.62      0.00
  -15    5    8      0.98      0.00
  -13    5    8      3.83      0.00
  -11    5    8      4.96      0.00
   -9    5    8      3.05      0.00
   -7    5    8     -0.02      0.00
   -5    5    8     -0.49      0.00
   -3    5    8      2.98      0.00
   -1    5    8      4.99      0.00
    1    5    8      1.31      0.00
    3    5    8     -4.14      0.00
    5    5    8     -7.29      0.00
    7    5    8     -6.14      0.00
    9    5    8      0.22      0.00
   11    5    8      3.72      0.00
   13    5    8     -2.27      0.00
   15    5    8     -6.96      0.00
   17    5    8     -1.90      0.00
  -24    6    8      2.72      0.00
  -22    6    8      7.10      0.00
  -20    6    8      8.46      0.00
  -18    6    8      5.42      0.00
  -16    6    8      0.05      0.00
  -14    6    8     -1.44      0.00
  -12    6    8      2.48      0.00
  -10    6    8      4.47      0.00
   -8    6    8      2.22      0.00
   -6    6    8      0.75      0.00
   -4    6    8     -0.79      0.00
   -2    6    8     -4.66      0.00
    0    6    8     -6.43      0.00
    2    6    8     -4.72      0.00
    4    6    8     -2.09      0.00
    6    6    8      1.57      0.00
    8    6    8      3.99      0.00
   10    6    8      2.45      0.00
   12    6    8      0.55      0.00
   14    6    8     -0.20      0.00
   16    6    8     -1.94      0.00
  -23    7    8     -0.28      0.00
  -21    7    8      0.76      0.00
  -19    7    8      2.44      0.00
  -17    7    8      1.68      0.00
  -15    7    8     -1.84      0.00
  -13    7    8     -4.16      0.00
  -11    7    8     -3.83      0.00
   -9    7    8     -3.47      0.00
   -7    7    8     -3.23      0.00
   -5    7    8     -1.13      0.00
   -3    7    8      0.80      0.00
   -1    7    8      0.09      0.00
    1    7    8     -0.02      0.00
    3    7    8      2.07      0.00
    5    7    8      1.82      0.00
    7    7    8     -1.42      0.00
    9    7    8     -2.37      0.00
   11    7    8     -0.94      0.00
   13    7    8     -1.26      0.00
   15    7    8     -2.61      0.00
  -20    8    8     -4.55      0.00
  -18    8    8     -1.36      0.00
  -16    8    8      1.98      0.00
  -14    8    8      2.03      0.00
  -12    8    8     -0.15      0.00
  -10    8    8     -2.17      0.00
   -8    8    8     -2.86      0.00
   -6    8    8     -2.49      0.00
   -4    8    8     -1.96      0.00
   -2    8    8     -0.88      0.00
    0    8    8      0.81      0.00
    2    8    8      0.56      0.00
    4    8    8     -1.80      0.00
    6    8    8     -2.53      0.00
    8    8    8     -0.88      0.00
   10    8    8      0.66      0.00
   12    8    8      1.96      0.00
   14    8    8      3.06      0.00
  -19    9    8      4.07      0.00
  -17    9    8     -1.18      0.00
  -15    9    8     -5.95      0.00
  -13    9    8     -5.48      0.00
  -11    9    8     -1.48      0.00
   -9    9    8      1.74      0.00
   -7    9    8      2.92      0.00
   -5    9    8      2.44      0.00
   -3    9    8      0.60      0.00
   -1    9    8     -1.80      0.00
    1    9    8     -4.33      0.00
    3    9    8     -6.18      0.00
    5    9    8     -5.47      0.00
    7    9    8     -2.61      0.00
    9    9    8     -0.02      0.00
   11    9    8      2.13      0.00
  -16   10    8     -0.87      0.00
  -14   10    8      0.51      0.00
  -12   10    8     -0.31      0.00
  -10   10    8     -1.67      0.00
   -8   10    8     -2.69      0.00
   -6   10    8     -3.44      0.00
   -4   10    8     -3.01      0.00
   -2   10    8     -1.77      0.00
    0   10    8     -1.26      0.00
    2   10    8     -1.41      0.00
    4   10    8     -1.04      0.00
    6   10    8      0.77      0.00
    8   10    8      3.57      0.00
   -9   11    8      0.78      0.00
   -7   11    8      1.48      0.00
   -5   11    8      1.59      0.00
   -3   11    8      1.45      0.00
   -1   11    8      1.47      0.00
    1   11    8      2.03      0.00
    3   11    8      2.56      0.00
  -27    1    9      2.52      0.00
  -25    1    9      1.93      0.00
  -23    1    9     -1.64      0.00
  -21    1    9     -6.68      0.00
  -19    1    9    -11.35      0.00
  -17    1    9     -9.83      0.00
  -15    1    9      0.03      0.00
  -13    1    9     11.26      0.00
  -11    1    9     15.48      0.00
   -9    1    9      9.21      0.00
   -7    1    9     -0.99      0.00
   -5    1    9     -0.55      0.00
   -3    1    9     12.25      0.00
   -1    1    9     20.78      0.00
    1    1    9     16.11      0.00
    3    1    9      6.10      0.00
    5    1    9     -1.51      0.00
    7    1    9     -4.07      0.00
    9    1    9     -1.96      0.00
   11    1    9     -0.55      0.00
   13    1    9     -2.61      0.00
   15    1    9     -4.43      0.00
   17    1    9     -4.79      0.00
   19    1    9     -4.56      0.00
  -28    2    9      0.10      0.00
  -26    2    9      0.07      0.00
  -24    2    9      3.70      0.00
  -22    2    9      6.36      0.00
  -20    2    9      5.25      0.00
  -18    2    9      3.31      0.00
  -16    2    9      0.73      0.00
  -14    2    9     -2.27      0.00
  -12    2    9      0.37      0.00
  -10    2    9     10.94      0.00
   -8    2    9     19.28      0.00
   -6    2    9     13.08      0.00
   -4    2    9     -4.20      0.00
   -2    2    9    -14.43      0.00
    0    2    9     -7.50      0.00
    2    2    9      7.77      0.00
    4    2    9     17.87      0.00
    6    2    9     16.77      0.00
    8    2    9      7.56      0.00
   10    2    9     -0.47      0.00
   12    2    9     -2.19      0.00
   14    2    9     -0.57      0.00
   16    2    9      2.18      0.00
   18    2    9      4.27      0.00
   20    2    9      1.37      0.00
  -27    3    9      0.55      0.00
  -25    3    9     -6.33      0.00
  -23    3    9    -11.71      0.00
  -21    3    9     -7.86      0.00
  -19    3    9     -0.15      0.00
  -17    3    9      1.85      0.00
  -15    3    9     -1.42      0.00
  -13    3    9     -3.23      0.00
  -11    3    9     -0.32      0.00
   -9    3    9      4.88      0.00
   -7    3    9      9.96      0.00
   -5    3    9     15.20      0.00
   -3    3    9     16.91      0.00
   -1    3    9     10.11      0.00
    1    3    9      0.11      0.00
    3    3    9     -4.07      0.00
    5    3    9     -1.37      0.00
    7    3    9      4.76      0.00
    9    3    9      7.84      0.00
   11    3    9      2.72      0.00
   13    3    9     -2.25      0.00
   15    3    9      0.93      0.00
   17    3    9      1.37      0.00
   19    3    9     -7.22      0.00
  -26    4    9      1.49      0.00
  -24    4    9      3.97      0.00
  -22    4    9      3.42      0.00
  -20    4    9     -0.49      0.00
  -18    4    9     -1.24      0.00
  -16    4    9      1.46      0.00
  -14    4    9      4.67      0.00
  -12    4    9      8.09      0.00
  -10    4    9      9.60      0.00
   -8    4    9      7.23      0.00
   -6    4    9      1.43      0.00
   -4    4    9     -6.37      0.00
   -2    4    9     -9.92      0.00
    0    4    9     -4.35      0.00
    2    4    9      2.64      0.00
    4    4    9      2.57      0.00
    6    4    9     -1.34      0.00
    8    4    9     -4.39      0.00
   10    4    9     -6.80      0.00
   12    4    9     -8.34      0.00
   14    4    9     -6.72      0.00
   16    4    9      0.51      0.00
   18    4    9      9.69      0.00
  -25    5    9      0.49      0.00
  -23    5    9     -0.28      0.00
  -21    5    9      0.61      0.00
  -19    5    9     -0.41      0.00
  -17    5    9     -3.97      0.00
  -15    5    9     -6.47      0.00
  -13    5    9     -4.58      0.00
  -11    5    9      1.90      0.00
   -9    5    9      8.00      0.00
   -7    5    9      7.53      0.00
   -5    5    9      1.98      0.00
   -3    5    9     -1.32      0.00
   -1    5    9      0.66      0.00
    1    5    9      4.84      0.00
    3    5    9      6.90      0.00
    5    5    9      4.89      0.00
    7    5    9      0.84      0.00
    9    5    9     -2.10      0.00
   11    5    9     -3.05      0.00
   13    5    9     -2.56      0.00
   15    5    9     -2.31      0.00
   17    5    9     -3.98      0.00
  -24    6    9     -2.18      0.00
  -22    6    9     -2.29      0.00
  -20    6    9      2.16      0.00
  -18    6    9      4.83      0.00
  -16    6    9      3.44      0.00
  -14    6    9      0.78      0.00
  -12    6    9     -2.89      0.00
  -10    6    9     -7.14      0.00
   -8    6    9     -8.85      0.00
   -6    6    9     -6.89      0.00
   -4    6    9     -3.33      0.00
   -2    6    9     -0.80      0.00
    0    6    9     -0.60      0.00
    2    6    9     -1.12      0.00
    4    6    9     -0.34      0.00
    6    6    9      0.60      0.00
    8    6    9      0.51      0.00
   10    6    9      0.30      0.00
   12    6    9      0.08      0.00
   14    6    9     -0.23      0.00
   16    6    9      0.92      0.00
  -23    7    9     -1.68      0.00
  -21    7    9     -1.60      0.00
  -19    7    9      0.33      0.00
  -17    7    9      2.93      0.00
  -15    7    9      1.38      0.00
  -13    7    9     -1.91      0.00
  -11    7    9      0.07      0.00
   -9    7    9      5.95      0.00
   -7    7    9      7.92      0.00
   -5    7    9      4.15      0.00
   -3    7    9      0.64      0.00
   -1    7    9      0.63      0.00
    1    7    9      0.50      0.00
    3    7    9     -0.99      0.00
    5    7    9     -0.70      0.00
    7    7    9     -0.17      0.00
    9    7    9     -3.20      0.00
   11    7    9     -7.34      0.00
   13    7    9     -8.42      0.00
   15    7    9     -6.34      0.00
  -20    8    9      4.01      0.00
  -18    8    9      3.30      0.00
  -16    8    9      2.14      0.00
  -14    8    9      0.17      0.00
  -12    8    9     -1.98      0.00
  -10    8    9     -3.49      0.00
   -8    8    9     -4.71      0.00
   -6    8    9     -4.56      0.00
   -4    8    9     -2.68      0.00
   -2    8    9     -1.30      0.00
    0    8    9      0.20      0.00
    2    8    9      2.90      0.00
    4    8    9      2.85      0.00
    6    8    9      0.08      0.00
    8    8    9      0.75      0.00
   10    8    9      3.22      0.00
   12    8    9      1.58      0.00
  -19    9    9     -1.66      0.00
  -17    9    9     -1.67      0.00
  -15    9    9     -1.49      0.00
  -13    9    9     -0.12      0.00
  -11    9    9      2.58      0.00
   -9    9    9      4.17      0.00
   -7    9    9      3.26      0.00
   -5    9    9      1.60      0.00
   -3    9    9      1.31      0.00
   -1    9    9      1.78      0.00
    1    9    9      1.19      0.00
    3    9    9      0.18      0.00
    5    9    9      0.27      0.00
    7    9    9      0.04      0.00
    9    9    9     -1.55      0.00
  -14   10    9     -0.98      0.00
  -12   10    9     -1.80      0.00
  -10   10    9     -0.61      0.00
   -8   10    9      1.47      0.00
   -6   10    9      1.44      0.00
   -4   10    9      0.09      0.00
   -2   10    9     -0.01      0.00
    0   10    9      0.40      0.00
    2   10    9     -0.36      0.00
    4   10    9     -1.28      0.00
    6   10    9     -0.91      0.00
   -9   11    9     -3.50      0.00
   -7   11    9     -2.72      0.00
   -5   11    9     -0.01      0.00
   -3   11    9      1.55      0.00
   -1   11    9      1.27      0.00
    1   11    9      0.83      0.00
  -28    0   10      0.02      0.00
  -26    0   10      0.24      0.00
  -24    0   10      1.49      0.00
  -22    0   10      0.62      0.00
  -20    0   10      0.15      0.00
  -18    0   10     -1.00      0.00
  -16    0   10     -6.46      0.00
  -14    0   10     -8.07      0.00
  -12    0   10      2.06      0.00
  -10    0   10     13.27      0.00
   -8    0   10      8.18      0.00
   -6    0   10    -17.12      0.00
   -4    0   10    -46.82      0.00
   -2    0   10    -57.22      0.00
    0    0   10    -42.60      0.00
    2    0   10    -20.62      0.00
    4    0   10     -7.29      0.00
    6    0   10     -3.25      0.00
    8    0   10     -2.20      0.00
   10    0   10      0.13      0.00
   12    0   10      1.99      0.00
   14    0   10      1.02      0.00
   16    0   10      1.01      0.00
   18    0   10      3.01      0.00
  -29    1   10      0.13      0.00
  -27    1   10     -2.85      0.00
  -25    1   10     -9.24      0.00
  -23    1   10    -11.23      0.00
  -21    1   10     -9.13      0.00
  -19    1   10     -7.73      0.00
  -17    1   10     -4.80      0.00
  -15    1   10      0.35      0.00
  -13    1   10      1.65      0.00
  -11    1   10     -3.76      0.00
   -9    1   10    -12.65      0.00
   -7    1   10    -19.18      0.00
   -5    1   10    -19.11      0.00
   -3    1   10    -16.23      0.00
   -1    1   10    -16.52      0.00
    1    1   10    -16.77      0.00
    3    1   10    -11.23      0.00
    5    1   10     -3.36      0.00
    7    1   10     -0.76      0.00
    9    1   10     -3.96      0.00
   11    1   10     -5.73      0.00
   13    1   10     -3.19      0.00
   15    1   10     -2.75      0.00
   17    1   10     -4.56      0.00
   19    1   10     -0.09      0.00
  -28    2   10      0.57      0.00
  -26    2   10      1.22      0.00
  -24    2   10      1.24      0.00
  -22    2   10     -0.92      0.00
  -20    2   10     -4.88      0.00
  -18    2   10     -6.64      0.00
  -16    2   10     -3.27      0.00
  -14    2   10      1.22      0.00
  -12    2   10      1.41      0.00
  -10    2   10     -1.66      0.00
   -8    2   10     -6.60      0.00
   -6    2   10    -15.30      0.00
   -4    2   10    -22.40      0.00
   -2    2   10    -18.63      0.00
    0    2   10     -7.78      0.00
    2    2   10     -0.78      0.00
    4    2   10      0.60      0.00
    6    2   10     -0.15      0.00
    8    2   10     -1.01      0.00
   10    2   10     -0.61      0.00
   12    2   10     -1.30      0.00
   14    2   10     -3.86      0.00
   16    2   10     -1.04      0.00
   18    2   10      7.41      0.00
  -27    3   10     -3.70      0.00
  -25    3   10     -6.24      0.00
  -23    3   10     -3.63      0.00
  -21    3   10      3.04      0.00
  -19    3   10      6.23      0.00
  -17    3   10      3.74      0.00
  -15    3   10     -0.33      0.00
  -13    3   10     -2.32      0.00
  -11    3   10      0.35      0.00
   -9    3   10      5.60      0.00
   -7    3   10      5.47      0.00
   -5    3   10     -1.09      0.00
   -3    3   10     -4.82      0.00
   -1    3   10     -2.24      0.00
    1    3   10      1.27      0.00
    3    3   10      2.95      0.00
    5    3   10      2.05      0.00
    7    3   10     -2.80      0.00
    9    3   10     -6.52      0.00
   11    3   10     -3.32      0.00
   13    3   10      0.87      0.00
   15    3   10     -0.72      0.00
   17    3   10     -1.90      0.00
  -26    4   10     -3.85      0.00
  -24    4   10     -6.02      0.00
  -22    4   10     -4.70      0.00
  -20    4   10     -2.34      0.00
  -18    4   10     -0.46      0.00
  -16    4   10      0.69      0.00
  -14    4   10     -3.58      0.00
  -12    4   10    -13.87      0.00
  -10    4   10    -19.88      0.00
   -8    4   10    -13.44      0.00
   -6    4   10      0.37      0.00
   -4    4   10     10.11      0.00
   -2    4   10      9.84      0.00
    0    4   10      3.42      0.00
    2    4   10     -1.58      0.00
    4    4   10     -2.04      0.00
    6    4   10      0.66      0.00
    8    4   10      3.64      0.00
   10    4   10      3.65      0.00
   12    4   10      0.19      0.00
   14    4   10     -3.61      0.00
   16    4   10     -5.04      0.00
   18    4   10     -3.79      0.00
  -25    5   10      0.95      0.00
  -23    5   10      1.55      0.00
  -21    5   10     -0.08      0.00
  -19    5   10     -1.01      0.00
  -17    5   10     -0.18      0.00
  -15    5   10      1.32      0.00
  -13    5   10      4.17      0.00
  -11    5   10      7.24      0.00
   -9    5   10      7.73      0.00
   -7    5   10      5.41      0.00
   -5    5   10      2.31      0.00
   -3    5   10      1.08      0.00
   -1    5   10      2.96      0.00
    1    5   10      6.65      0.00
    3    5   10     10.01      0.00
    5    5   10      9.10      0.00
    7    5   10      1.42      0.00
    9    5   10     -5.98      0.00
   11    5   10     -5.25      0.00
   13    5   10     -1.13      0.00
   15    5   10     -0.07      0.00
   17    5   10     -0.14      0.00
  -24    6   10     -2.89      0.00
  -22    6   10     -2.49      0.00
  -20    6   10     -2.25      0.00
  -18    6   10     -2.59      0.00
  -16    6   10     -1.29      0.00
  -14    6   10     -0.53      0.00
  -12    6   10     -1.65      0.00
  -10    6   10     -2.02      0.00
   -8    6   10     -1.23      0.00
   -6    6   10     -0.51      0.00
   -4    6   10     -0.20      0.00
   -2    6   10     -1.11      0.00
    0    6   10     -2.22      0.00
    2    6   10     -1.97      0.00
    4    6   10     -1.33      0.00
    6    6   10     -0.27      0.00
    8    6   10      0.92      0.00
   10    6   10     -0.22      0.00
   12    6   10     -0.91      0.00
   14    6   10      2.18      0.00
  -23    7   10     -3.73      0.00
  -21    7   10     -2.80      0.00
  -19    7   10     -0.66      0.00
  -17    7   10      0.45      0.00
  -15    7   10     -0.16      0.00
  -13    7   10     -1.83      0.00
  -11    7   10     -2.79      0.00
   -9    7   10     -2.21      0.00
   -7    7   10     -1.83      0.00
   -5    7   10     -1.52      0.00
   -3    7   10      0.76      0.00
   -1    7   10      2.59      0.00
    1    7   10      1.34      0.00
    3    7   10      0.73      0.00
    5    7   10      2.16      0.00
    7    7   10      1.00      0.00
    9    7   10     -2.06      0.00
   11    7   10     -1.72      0.00
   13    7   10      0.97      0.00
  -20    8   10      2.90      0.00
  -18    8   10      3.16      0.00
  -16    8   10      3.77      0.00
  -14    8   10      5.09      0.00
  -12    8   10      7.01      0.00
  -10    8   10      7.84      0.00
   -8    8   10      6.18      0.00
   -6    8   10      3.66      0.00
   -4    8   10      2.55      0.00
   -2    8   10      2.41      0.00
    0    8   10      2.54      0.00
    2    8   10      3.01      0.00
    4    8   10      2.20      0.00
    6    8   10     -0.56      0.00
    8    8   10     -2.42      0.00
   10    8   10     -2.45      0.00
   12    8   10     -2.94      0.00
  -19    9   10      0.10      0.00
  -17    9   10      0.25      0.00
  -15    9   10      0.38      0.00
  -13    9   10     -0.72      0.00
  -11    9   10     -3.27      0.00
   -9    9   10     -4.86      0.00
   -7    9   10     -3.34      0.00
   -5    9   10     -0.44      0.00
   -3    9   10      0.20      0.00
   -1    9   10     -1.55      0.00
    1    9   10     -1.89      0.00
    3    9   10      0.95      0.00
    5    9   10      3.79      0.00
    7    9   10      3.31      0.00
    9    9   10      0.47      0.00
  -14   10   10     -0.20      0.00
  -12   10   10      3.23      0.00
  -10   10   10      4.86      0.00
   -8   10   10      3.82      0.00
   -6   10   10      1.85      0.00
   -4   10   10      1.03      0.00
   -2   10   10      1.64      0.00
    0   10   10      2.22      0.00
    2   10   10      2.05      0.00
    4   10   10      0.84      0.00
    6   10   10     -1.93      0.00
   -9   11   10     -1.19      0.00
   -7   11   10     -1.44      0.00
   -5   11   10     -2.19      0.00
   -3   11   10     -2.79      0.00
   -1   11   10     -2.38      0.00
  -29    1   11     -0.15      0.00
  -27    1   11     -0.39      0.00
  -25    1   11      2.20      0.00
  -23    1   11      3.96      0.00
  -21    1   11      5.35      0.00
  -19    1   11      7.05      0.00
  -17    1   11      5.48      0.00
  -15    1   11      1.80      0.00
  -13    1   11      1.01      0.00
  -11    1   11      1.38      0.00
   -9    1   11     -1.23      0.00
   -7    1   11     -5.11      0.00
   -5    1   11     -7.00      0.00
   -3    1   11     -6.87      0.00
   -1    1   11     -6.50      0.00
    1    1   11     -6.78      0.00
    3    1   11     -6.44      0.00
    5    1   11     -4.82      0.00
    7    1   11     -3.09      0.00
    9    1   11     -0.83      0.00
   11    1   11      2.48      0.00
   13    1   11      3.86      0.00
   15    1   11      1.74      0.00
   17    1   11     -0.71      0.00
  -28    2   11     -0.40      0.00
  -26    2   11     -2.06      0.00
  -24    2   11     -2.01      0.00
  -22    2   11     -0.05      0.00
  -20    2   11      0.21      0.00
  -18    2   11     -0.19      0.00
  -16    2   11     -0.36      0.00
  -14    2   11     -5.12      0.00
  -12    2   11    -15.03      0.00
  -10    2   11    -21.54      0.00
   -8    2   11    -16.96      0.00
   -6    2   11     -4.26      0.00
   -4    2   11      4.60      0.00
   -2    2   11      2.73      0.00
    0    2   11     -3.55      0.00
    2    2   11     -6.15      0.00
    4    2   11     -4.96      0.00
    6    2   11     -2.48      0.00
    8    2   11     -0.01      0.00
   10    2   11      1.04      0.00
   12    2   11      0.02      0.00
   14    2   11     -2.02      0.00
   16    2   11     -1.54      0.00
   18    2   11      3.50      0.00
  -27    3   11      3.74      0.00
  -25    3   11      5.46      0.00
  -23    3   11      0.01      0.00
  -21    3   11     -4.24      0.00
  -19    3   11     -3.99      0.00
  -17    3   11     -2.91      0.00
  -15    3   11     -1.04      0.00
  -13    3   11      0.89      0.00
  -11    3   11     -0.53      0.00
   -9    3   11     -5.15      0.00
   -7    3   11    -10.85      0.00
   -5    3   11    -13.30      0.00
   -3    3   11     -6.88      0.00
   -1    3   11      3.56      0.00
    1    3   11      7.01      0.00
    3    3   11      3.03      0.00
    5    3   11     -2.80      0.00
    7    3   11     -7.20      0.00
    9    3   11     -6.06      0.00
   11    3   11     -0.61      0.00
   13    3   11      1.51      0.00
   15    3   11      0.61      0.00
   17    3   11      1.94      0.00
  -26    4   11     -2.68      0.00
  -24    4   11     -2.23      0.00
  -22    4   11      1.01      0.00
  -20    4   11      3.18      0.00
  -18    4   11      2.90      0.00
  -16    4   11      2.56      0.00
  -14    4   11      1.93      0.00
  -12    4   11     -0.31      0.00
  -10    4   11     -2.58      0.00
   -8    4   11     -2.29      0.00
   -6    4   11     -0.14      0.00
   -4    4   11     -0.82      0.00
   -2    4   11     -5.85      0.00
    0    4   11     -9.37      0.00
    2    4   11     -7.32      0.00
    4    4   11     -3.22      0.00
    6    4   11     -0.67      0.00
    8    4   11      2.45      0.00
   10    4   11      9.51      0.00
   12    4   11     15.61      0.00
   14    4   11      9.64      0.00
   16    4   11     -5.08      0.00
  -25    5   11      2.03      0.00
  -23    5   11      1.15      0.00
  -21    5   11     -1.44      0.00
  -19    5   11     -1.25      0.00
  -17    5   11      0.25      0.00
  -15    5   11     -1.34      0.00
  -13    5   11     -6.04      0.00
  -11    5   11     -9.84      0.00
   -9    5   11     -9.12      0.00
   -7    5   11     -3.25      0.00
   -5    5   11      5.01      0.00
   -3    5   11     10.72      0.00
   -1    5   11     10.05      0.00
    1    5   11      4.90      0.00
    3    5   11      0.94      0.00
    5    5   11      0.31      0.00
    7    5   11      0.99      0.00
    9    5   11      0.91      0.00
   11    5   11     -1.26      0.00
   13    5   11     -3.95      0.00
   15    5   11     -3.18      0.00
  -24    6   11     -0.45      0.00
  -22    6   11     -1.81      0.00
  -20    6   11     -1.86      0.00
  -18    6   11      0.09      0.00
  -16    6   11      3.38      0.00
  -14    6   11      7.76      0.00
  -12    6   11     10.41      0.00
  -10    6   11      8.26      0.00
   -8    6   11      3.51      0.00
   -6    6   11      0.17      0.00
   -4    6   11     -1.56      0.00
   -2    6   11     -2.75      0.00
    0    6   11     -3.36      0.00
    2    6   11     -4.13      0.00
    4    6   11     -5.62      0.00
    6    6   11     -5.84      0.00
    8    6   11     -2.87      0.00
   10    6   11      1.69      0.00
   12    6   11      4.96      0.00
   14    6   11      6.02      0.00
  -23    7   11      8.02      0.00
  -21    7   11      6.13      0.00
  -19    7   11     -2.35      0.00
  -17    7   11     -6.91      0.00
  -15    7   11     -4.03      0.00
  -13    7   11     -2.03      0.00
  -11    7   11     -4.00      0.00
   -9    7   11     -3.69      0.00
   -7    7   11      0.65      0.00
   -5    7   11      2.63      0.00
   -3    7   11     -0.22      0.00
   -1    7   11     -2.23      0.00
    1    7   11     -0.11      0.00
    3    7   11      2.98      0.00
    5    7   11      4.72      0.00
    7    7   11      4.90      0.00
    9    7   11      2.99      0.00
   11    7   11      1.16      0.00
   13    7   11      1.23      0.00
  -20    8   11     -0.19      0.00
  -18    8   11     -0.26      0.00
  -16    8   11     -0.92      0.00
  -14    8   11      0.51      0.00
  -12    8   11      1.52      0.00
  -10    8   11      0.21      0.00
   -8    8   11     -1.42      0.00
   -6    8   11     -1.89      0.00
   -4    8   11     -1.16      0.00
   -2    8   11     -0.10      0.00
    0    8   11     -0.36      0.00
    2    8   11     -1.49      0.00
    4    8   11     -2.33      0.00
    6    8   11     -3.65      0.00
    8    8   11     -4.09      0.00
   10    8   11     -1.34      0.00
  -19    9   11      2.41      0.00
  -17    9   11      3.90      0.00
  -15    9   11      2.86      0.00
  -13    9   11      0.46      0.00
  -11    9   11     -1.13      0.00
   -9    9   11     -1.14      0.00
   -7    9   11     -0.35      0.00
   -5    9   11      0.55      0.00
   -3    9   11      1.27      0.00
   -1    9   11      0.92      0.00
    1    9   11     -0.92      0.00
    3    9   11     -2.21      0.00
    5    9   11     -0.61      0.00
    7    9   11      2.34      0.00
  -14   10   11      1.58      0.00
  -12   10   11      1.00      0.00
  -10   10   11     -1.51      0.00
   -8   10   11     -1.05      0.00
   -6   10   11      0.93      0.00
   -4   10   11     -0.43      0.00
   -2   10   11     -3.86      0.00
    0   10   11     -3.60      0.00
    2   10   11      0.96      0.00
    4   10   11      4.02      0.00
   -5   11   11     -2.77      0.00
  -28    0   12      4.79      0.00
  -26    0   12      5.45      0.00
  -24    0   12      8.95      0.00
  -22    0   12     12.67      0.00
  -20    0   12     13.49      0.00
  -18    0   12     15.02      0.00
  -16    0   12     16.17      0.00
  -14    0   12     10.45      0.00
  -12    0   12      2.37      0.00
  -10    0   12      5.13      0.00
   -8    0   12     22.20      0.00
   -6    0   12     41.98      0.00
   -4    0   12     48.86      0.00
   -2    0   12     39.67      0.00
    0    0   12     26.48      0.00
    2    0   12     18.40      0.00
    4    0   12     12.23      0.00
    6    0   12      5.29      0.00
    8    0   12      1.20      0.00
   10    0   12      0.25      0.00
   12    0   12     -1.41      0.00
   14    0   12     -3.73      0.00
   16    0   12     -4.03      0.00
  -29    1   12     -1.86      0.00
  -27    1   12     -0.44      0.00
  -25    1   12     -1.78      0.00
  -23    1   12     -4.07      0.00
  -21    1   12     -3.13      0.00
  -19    1   12     -3.25      0.00
  -17    1   12     -6.43      0.00
  -15    1   12     -6.41      0.00
  -13    1   12     -3.74      0.00
  -11    1   12     -4.85      0.00
   -9    1   12     -7.71      0.00
   -7    1   12     -5.70      0.00
   -5    1   12      2.15      0.00
   -3    1   12     10.88      0.00
   -1    1   12     13.88      0.00
    1    1   12      9.62      0.00
    3    1   12      3.54      0.00
    5    1   12      1.03      0.00
    7    1   12      2.84      0.00
    9    1   12      5.30      0.00
   11    1   12      4.64      0.00
   13    1   12      3.00      0.00
   15    1   12      2.80      0.00
   17    1   12      0.27      0.00
  -28    2   12     -1.75      0.00
  -26    2   12     -1.64      0.00
  -24    2   12      2.69      0.00
  -22    2   12      5.41      0.00
  -20    2   12      6.68      0.00
  -18    2   12      8.98      0.00
  -16    2   12     10.64      0.00
  -14    2   12     11.40      0.00
  -12    2   12     11.77      0.00
  -10    2   12     11.55      0.00
   -8    2   12     15.63      0.00
   -6    2   12     25.37      0.00
   -4    2   12     29.59      0.00
   -2    2   12     22.19      0.00
    0    2   12     11.77      0.00
    2    2   12      4.27      0.00
    4    2   12     -1.74      0.00
    6    2   12     -4.28      0.00
    8    2   12     -1.24      0.00
   10    2   12      2.98      0.00
   12    2   12      2.80      0.00
   14    2   12     -1.55      0.00
   16    2   12     -3.90      0.00
  -27    3   12      1.13      0.00
  -25    3   12      0.74      0.00
  -23    3   12     -1.88      0.00
  -21    3   12     -3.76      0.00
  -19    3   12     -2.73      0.00
  -17    3   12     -2.19      0.00
  -15    3   12     -3.76      0.00
  -13    3   12     -4.37      0.00
  -11    3   12     -3.60      0.00
   -9    3   12     -2.93      0.00
   -7    3   12     -0.77      0.00
   -5    3   12      2.21      0.00
   -3    3   12      1.97      0.00
   -1    3   12     -0.67      0.00
    1    3   12     -1.57      0.00
    3    3   12     -0.20      0.00
    5    3   12      2.47      0.00
    7    3   12      4.70      0.00
    9    3   12      2.60      0.00
   11    3   12     -1.50      0.00
   13    3   12     -0.01      0.00
   15    3   12      3.53      0.00
   17    3   12     -0.33      0.00
  -26    4   12      3.17      0.00
  -24    4   12      0.35      0.00
  -22    4   12     -1.58      0.00
  -20    4   12     -2.76      0.00
  -18    4   12     -5.38      0.00
  -16    4   12     -4.09      0.00
  -14    4   12      4.23      0.00
  -12    4   12     10.68      0.00
  -10    4   12      7.50      0.00
   -8    4   12     -1.59      0.00
   -6    4   12     -8.80      0.00
   -4    4   12     -9.73      0.00
   -2    4   12     -5.49      0.00
    0    4   12     -1.44      0.00
    2    4   12     -1.02      0.00
    4    4   12     -2.51      0.00
    6    4   12     -2.89      0.00
    8    4   12     -1.43      0.00
   10    4   12      0.89      0.00
   12    4   12      3.20      0.00
   14    4   12      4.61      0.00
   16    4   12      3.61      0.00
  -25    5   12      5.87      0.00
  -23    5   12      6.90      0.00
  -21    5   12      5.29      0.00
  -19    5   12      6.31      0.00
  -17    5   12      7.53      0.00
  -15    5   12      3.85      0.00
  -13    5   12     -0.09      0.00
  -11    5   12      1.91      0.00
   -9    5   12      6.13      0.00
   -7    5   12      5.93      0.00
   -5    5   12      1.51      0.00
   -3    5   12     -1.84      0.00
   -1    5   12     -2.33      0.00
    1    5   12     -3.87      0.00
    3    5   12     -6.24      0.00
    5    5   12     -3.99      0.00
    7    5   12      1.14      0.00
    9    5   12      3.89      0.00
   11    5   12      6.19      0.00
   13    5   12      7.51      0.00
   15    5   12      2.85      0.00
  -24    6   12     -1.40      0.00
  -22    6   12     -4.36      0.00
  -20    6   12     -5.70      0.00
  -18    6   12     -6.20      0.00
  -16    6   12     -6.22      0.00
  -14    6   12     -4.98      0.00
  -12    6   12     -4.41      0.00
  -10    6   12     -6.10      0.00
   -8    6   12     -7.85      0.00
   -6    6   12     -6.55      0.00
   -4    6   12     -1.92      0.00
   -2    6   12      2.45      0.00
    0    6   12      3.24      0.00
    2    6   12      1.20      0.00
    4    6   12     -1.43      0.00
    6    6   12     -2.14      0.00
    8    6   12      0.95      0.00
   10    6   12      3.84      0.00
   12    6   12      1.96      0.00
   14    6   12     -0.32      0.00
  -23    7   12      4.67      0.00
  -21    7   12      4.48      0.00
  -19    7   12      4.00      0.00
  -17    7   12      4.70      0.00
  -15    7   12      5.98      0.00
  -13    7   12      6.78      0.00
  -11    7   12      6.61      0.00
   -9    7   12      5.50      0.00
   -7    7   12      3.65      0.00
   -5    7   12      0.94      0.00
   -3    7   12     -1.46      0.00
   -1    7   12     -1.83      0.00
    1    7   12     -1.50      0.00
    3    7   12     -1.91      0.00
    5    7   12     -0.87      0.00
    7    7   12      1.79      0.00
    9    7   12      2.37      0.00
   11    7   12      0.07      0.00
  -20    8   12     -5.77      0.00
  -18    8   12     -5.54      0.00
  -16    8   12     -4.37      0.00
  -14    8   12     -5.97      0.00
  -12    8   12     -7.75      0.00
  -10    8   12     -5.22      0.00
   -8    8   12     -0.59      0.00
   -6    8   12      0.50      0.00
   -4    8   12     -2.00      0.00
   -2    8   12     -3.39      0.00
    0    8   12     -1.94      0.00
    2    8   12     -0.28      0.00
    4    8   12     -0.17      0.00
    6    8   12     -0.64      0.00
    8    8   12     -0.29      0.00
   10    8   12      1.19      0.00
  -17    9   12      0.53      0.00
  -15    9   12     -0.04      0.00
  -13    9   12      0.65      0.00
  -11    9   12      0.90      0.00
   -9    9   12     -1.00      0.00
   -7    9   12     -3.16      0.00
   -5    9   12     -2.77      0.00
   -3    9   12      0.19      0.00
   -1    9   12      2.46      0.00
    1    9   12      0.54      0.00
    3    9   12     -3.52      0.00
    5    9   12     -3.44      0.00
    7    9   12      1.15      0.00
  -14   10   12     -1.19      0.00
  -12   10   12     -3.33      0.00
  -10   10   12     -2.07      0.00
   -8   10   12      0.44      0.00
   -6   10   12      1.51      0.00
   -4   10   12      0.98      0.00
   -2   10   12      0.30      0.00
    0   10   12      0.29      0.00
    2   10   12      0.70      0.00
  -29    1   13      0.11      0.00
  -27    1   13      0.88      0.00
  -25    1   13      1.58      0.00
  -23    1   13      3.13      0.00
  -21    1   13      3.87      0.00
  -19    1   13      2.80      0.00
  -17    1   13      0.53      0.00
  -15    1   13     -1.25      0.00
  -13    1   13      0.94      0.00
  -11    1   13      7.77      0.00
   -9    1   13     12.67      0.00
   -7    1   13      8.99      0.00
   -5    1   13     -0.62      0.00
   -3    1   13     -6.80      0.00
   -1    1   13     -4.80      0.00
    1    1   13      0.65      0.00
    3    1   13      3.82      0.00
    5    1   13      4.81      0.00
    7    1   13      3.87      0.00
    9    1   13     -0.46      0.00
   11    1   13     -4.13      0.00
   13    1   13     -1.78      0.00
   15    1   13      2.46      0.00
  -28    2   13      1.73      0.00
  -26    2   13     -1.49      0.00
  -24    2   13     -6.03      0.00
  -22    2   13     -7.92      0.00
  -20    2   13     -8.10      0.00
  -18    2   13     -7.48      0.00
  -16    2   13     -3.06      0.00
  -14    2   13      3.27      0.00
  -12    2   13      5.63      0.00
  -10    2   13      3.92      0.00
   -8    2   13      2.48      0.00
   -6    2   13      4.88      0.00
   -4    2   13     11.12      0.00
   -2    2   13     15.32      0.00
    0    2   13     12.70      0.00
    2    2   13      6.95      0.00
    4    2   13      2.79      0.00
    6    2   13     -0.02      0.00
    8    2   13     -1.49      0.00
   10    2   13     -0.38      0.00
   12    2   13      1.45      0.00
   14    2   13      0.16      0.00
   16    2   13     -4.25      0.00
  -27    3   13     -3.88      0.00
  -25    3   13      3.64      0.00
  -23    3   13      7.27      0.00
  -21    3   13      4.35      0.00
  -19    3   13      3.71      0.00
  -17    3   13      5.19      0.00
  -15    3   13      4.74      0.00
  -13    3   13      6.02      0.00
  -11    3   13      9.34      0.00
   -9    3   13      9.61      0.00
   -7    3   13      5.89      0.00
   -5    3   13     -0.95      0.00
   -3    3   13     -8.66      0.00
   -1    3   13    -11.45      0.00
    1    3   13     -8.14      0.00
    3    3   13     -2.95      0.00
    5    3   13      1.44      0.00
    7    3   13      2.88      0.00
    9    3   13      0.66      0.00
   11    3   13     -1.36      0.00
   13    3   13     -0.84      0.00
   15    3   13      0.48      0.00
  -26    4   13     -2.16      0.00
  -24    4   13     -1.69      0.00
  -22    4   13     -0.84      0.00
  -20    4   13     -1.69      0.00
  -18    4   13     -3.07      0.00
  -16    4   13     -2.42      0.00
  -14    4   13     -0.29      0.00
  -12    4   13      1.74      0.00
  -10    4   13      3.13      0.00
   -8    4   13      4.74      0.00
   -6    4   13      8.49      0.00
   -4    4   13     11.88      0.00
   -2    4   13      9.44      0.00
    0    4   13      3.67      0.00
    2    4   13      1.92      0.00
    4    4   13      4.60      0.00
    6    4   13      6.82      0.00
    8    4   13      3.86      0.00
   10    4   13     -4.36      0.00
   12    4   13     -8.16      0.00
   14    4   13     -1.47      0.00
  -25    5   13     -1.86      0.00
  -23    5   13      1.09      0.00
  -21    5   13      3.34      0.00
  -19    5   13      1.83      0.00
  -17    5   13      0.03      0.00
  -15    5   13     -0.20      0.00
  -13    5   13      0.10      0.00
  -11    5   13      0.25      0.00
   -9    5   13     -1.52      0.00
   -7    5   13     -6.73      0.00
   -5    5   13    -11.90      0.00
   -3    5   13    -11.62      0.00
   -1    5   13     -6.50      0.00
    1    5   13     -2.17      0.00
    3    5   13     -1.16      0.00
    5    5   13     -1.59      0.00
    7    5   13     -1.73      0.00
    9    5   13     -1.21      0.00
   11    5   13     -0.31      0.00
   13    5   13      0.26      0.00
  -24    6   13     -0.91      0.00
  -22    6   13     -0.54      0.00
  -20    6   13      1.86      0.00
  -18    6   13      2.81      0.00
  -16    6   13     -0.66      0.00
  -14    6   13     -3.34      0.00
  -12    6   13     -0.23      0.00
  -10    6   13      4.90      0.00
   -8    6   13      6.72      0.00
   -6    6   13      5.50      0.00
   -4    6   13      3.70      0.00
   -2    6   13      2.59      0.00
    0    6   13      2.87      0.00
    2    6   13      4.28      0.00
    4    6   13      4.85      0.00
    6    6   13      3.22      0.00
    8    6   13      1.09      0.00
   10    6   13      0.61      0.00
   12    6   13      0.32      0.00
  -23    7   13     -5.83      0.00
  -21    7   13     -5.68      0.00
  -19    7   13     -3.26      0.00
  -17    7   13     -1.70      0.00
  -15    7   13     -0.56      0.00
  -13    7   13      0.76      0.00
  -11    7   13     -0.23      0.00
   -9    7   13     -4.69      0.00
   -7    7   13     -7.99      0.00
   -5    7   13     -5.34      0.00
   -3    7   13      0.26      0.00
   -1    7   13      2.15      0.00
    1    7   13     -0.44      0.00
    3    7   13     -3.04      0.00
    5    7   13     -2.56      0.00
    7    7   13     -0.19      0.00
    9    7   13      0.46      0.00
   11    7   13     -1.11      0.00
  -20    8   13      2.21      0.00
  -18    8   13      3.43      0.00
  -16    8   13      1.72      0.00
  -14    8   13     -0.35      0.00
  -12    8   13      1.34      0.00
  -10    8   13      4.44      0.00
   -8    8   13      5.22      0.00
   -6    8   13      4.10      0.00
   -4    8   13      2.11      0.00
   -2    8   13      0.00      0.00
    0    8   13     -0.30      0.00
    2    8   13      1.21      0.00
    4    8   13      1.62      0.00
    6    8   13     -0.34      0.00
    8    8   13     -2.41      0.00
  -17    9   13     -2.14      0.00
  -15    9   13     -1.71      0.00
  -13    9   13     -1.38      0.00
  -11    9   13      1.17      0.00
   -9    9   13      3.97      0.00
   -7    9   13      3.18      0.00
   -5    9   13     -0.21      0.00
   -3    9   13     -1.29      0.00
   -1    9   13      1.18      0.00
    1    9   13      2.42      0.00
    3    9   13     -0.52      0.00
    5    9   13     -3.40      0.00
  -14   10   13     -2.35      0.00
  -12   10   13     -0.84      0.00
  -10   10   13     -1.33      0.00
   -8   10   13     -3.13      0.00
   -6   10   13     -2.25      0.00
   -4   10   13      0.90      0.00
   -2   10   13      2.24      0.00
    0   10   13      0.41      0.00
  -28    0   14     -4.77      0.00
  -26    0   14     -7.15      0.00
  -24    0   14    -10.22      0.00
  -22    0   14    -12.34      0.00
  -20    0   14    -11.86      0.00
  -18    0   14     -7.58      0.00
  -16    0   14     -2.06      0.00
  -14    0   14     -0.48      0.00
  -12    0   14     -3.75      0.00
  -10    0   14     -9.44      0.00
   -8    0   14    -15.16      0.00
   -6    0   14    -16.11      0.00
   -4    0   14    -11.06      0.00
   -2    0   14     -8.39      0.00
    0    0   14    -12.49      0.00
    2    0   14    -14.72      0.00
    4    0   14     -9.52      0.00
    6    0   14     -4.04      0.00
    8    0   14     -3.34      0.00
   10    0   14     -2.85      0.00
   12    0   14     -0.62      0.00
   14    0   14     -0.79      0.00
   16    0   14     -2.50      0.00
  -29    1   14      1.45      0.00
  -27    1   14      5.14      0.00
  -25    1   14      7.02      0.00
  -23    1   14      3.85      0.00
  -21    1   14      0.23      0.00
  -19    1   14     -0.65      0.00
  -17    1   14     -3.07      0.00
  -15    1   14     -5.99      0.00
  -13    1   14     -2.83      0.00
  -11    1   14      3.59      0.00
   -9    1   14      3.47      0.00
   -7    1   14     -6.03      0.00
   -5    1   14    -17.86      0.00
   -3    1   14    -22.43      0.00
   -1    1   14    -17.67      0.00
    1    1   14     -9.68      0.00
    3    1   14     -2.83      0.00
    5    1   14      1.41      0.00
    7    1   14      0.91      0.00
    9    1   14     -1.76      0.00
   11    1   14     -0.53      0.00
   13    1   14      4.16      0.00
   15    1   14      7.25      0.00
  -28    2   14      2.44      0.00
  -26    2   14     -3.38      0.00
  -24    2   14     -5.74      0.00
  -22    2   14     -1.54      0.00
  -20    2   14      1.14      0.00
  -18    2   14     -0.97      0.00
  -16    2   14     -4.35      0.00
  -14    2   14     -6.46      0.00
  -12    2   14     -5.38      0.00
  -10    2   14     -3.74      0.00
   -8    2   14     -8.38      0.00
   -6    2   14    -16.92      0.00
   -4    2   14    -19.60      0.00
   -2    2   14    -15.19      0.00
    0    2   14     -9.02      0.00
    2    2   14     -2.98      0.00
    4    2   14      1.52      0.00
    6    2   14      1.08      0.00
    8    2   14     -3.29      0.00
   10    2   14     -5.28      0.00
   12    2   14     -2.47      0.00
   14    2   14     -0.67      0.00
  -27    3   14     -3.47      0.00
  -25    3   14     -2.90      0.00
  -23    3   14     -1.81      0.00
  -21    3   14     -2.37      0.00
  -19    3   14     -2.95      0.00
  -17    3   14     -2.16      0.00
  -15    3   14     -2.92      0.00
  -13    3   14     -5.47      0.00
  -11    3   14     -5.29      0.00
   -9    3   14     -2.53      0.00
   -7    3   14     -1.09      0.00
   -5    3   14      0.24      0.00
   -3    3   14      3.02      0.00
   -1    3   14      3.43      0.00
    1    3   14      0.55      0.00
    3    3   14     -1.66      0.00
    5    3   14     -1.79      0.00
    7    3   14     -0.51      0.00
    9    3   14      0.92      0.00
   11    3   14     -0.49      0.00
   13    3   14     -3.04      0.00
   15    3   14     -0.88      0.00
  -26    4   14      5.18      0.00
  -24    4   14      6.10      0.00
  -22    4   14      5.51      0.00
  -20    4   14      6.37      0.00
  -18    4   14      7.01      0.00
  -16    4   14      5.08      0.00
  -14    4   14      2.76      0.00
  -12    4   14      1.58      0.00
  -10    4   14      0.56      0.00
   -8    4   14     -0.40      0.00
   -6    4   14     -1.56      0.00
   -4    4   14     -3.47      0.00
   -2    4   14     -4.28      0.00
    0    4   14     -2.24      0.00
    2    4   14      0.87      0.00
    4    4   14      1.80      0.00
    6    4   14      0.49      0.00
    8    4   14      0.33      0.00
   10    4   14      1.77      0.00
   12    4   14      0.89      0.00
   14    4   14     -1.51      0.00
  -25    5   14     -8.83      0.00
  -23    5   14     -2.80      0.00
  -21    5   14     -0.72      0.00
  -19    5   14     -3.63      0.00
  -17    5   14     -2.86      0.00
  -15    5   14     -0.82      0.00
  -13    5   14     -4.21      0.00
  -11    5   14     -7.87      0.00
   -9    5   14     -4.45      0.00
   -7    5   14      3.50      0.00
   -5    5   14      8.12      0.00
   -3    5   14      5.72      0.00
   -1    5   14      1.21      0.00
    1    5   14      0.44      0.00
    3    5   14      1.13      0.00
    5    5   14     -0.05      0.00
    7    5   14     -2.69      0.00
    9    5   14     -8.43      0.00
   11    5   14    -15.06      0.00
   13    5   14    -13.29      0.00
  -24    6   14      0.83      0.00
  -22    6   14      3.54      0.00
  -20    6   14      3.72      0.00
  -18    6   14      0.73      0.00
  -16    6   14     -2.34      0.00
  -14    6   14     -1.95      0.00
  -12    6   14      1.41      0.00
  -10    6   14      4.43      0.00
   -8    6   14      4.80      0.00
   -6    6   14      2.14      0.00
   -4    6   14     -1.42      0.00
   -2    6   14     -2.31      0.00
    0    6   14      0.14      0.00
    2    6   14      2.96      0.00
    4    6   14      3.27      0.00
    6    6   14      1.63      0.00
    8    6   14      1.19      0.00
   10    6   14      2.23      0.00
  -23    7   14     -3.58      0.00
  -21    7   14     -1.56      0.00
  -19    7   14      0.93      0.00
  -17    7   14      1.26      0.00
  -15    7   14      0.80      0.00
  -13    7   14      0.71      0.00
  -11    7   14      0.57      0.00
   -9    7   14      0.68      0.00
   -7    7   14      1.59      0.00
   -5    7   14      2.68      0.00
   -3    7   14      2.62      0.00
   -1    7   14      1.06      0.00
    1    7   14     -0.85      0.00
    3    7   14     -1.95      0.00
    5    7   14     -2.54      0.00
    7    7   14     -3.58      0.00
    9    7   14     -4.31      0.00
  -20    8   14     -1.31      0.00
  -18    8   14     -1.16      0.00
  -16    8   14      1.32      0.00
  -14    8   14      2.52      0.00
  -12    8   14     -1.27      0.00
  -10    8   14     -6.50      0.00
   -8    8   14     -6.86      0.00
   -6    8   14     -2.31      0.00
   -4    8   14      1.65      0.00
   -2    8   14      1.61      0.00
    0    8   14     -0.07      0.00
    2    8   14      0.51      0.00
    4    8   14      2.79      0.00
    6    8   14      3.15      0.00
  -17    9   14      0.37      0.00
  -15    9   14      0.89      0.00
  -13    9   14      2.92      0.00
  -11    9   14      5.04      0.00
   -9    9   14      4.90      0.00
   -7    9   14      2.67      0.00
   -5    9   14      0.38      0.00
   -3    9   14     -1.13      0.00
   -1    9   14     -1.14      0.00
    1    9   14      0.67      0.00
    3    9   14      1.27      0.00
  -12   10   14      1.07      0.00
  -10   10   14     -0.12      0.00
   -8   10   14     -0.22      0.00
   -6   10   14      0.42      0.00
   -4   10   14      0.77      0.00
   -2   10   14      0.33      0.00
  -29    1   15     -2.04      0.00
  -27    1   15     -2.45      0.00
  -25    1   15     -1.52      0.00
  -23    1   15     -1.67      0.00
  -21    1   15     -1.99      0.00
  -19    1   15      0.50      0.00
  -17    1   15      3.91      0.00
  -15    1   15      3.20      0.00
  -13    1   15     -1.59      0.00
  -11    1   15     -5.25      0.00
   -9    1   15     -3.37      0.00
   -7    1   15      3.83      0.00
   -5    1   15     10.05      0.00
   -3    1   15      8.50      0.00
   -1    1   15      1.34      0.00
    1    1   15     -4.23      0.00
    3    1   15     -6.61      0.00
    5    1   15     -6.81      0.00
    7    1   15     -3.32      0.00
    9    1   15      1.61      0.00
   11    1   15      1.93      0.00
   13    1   15     -1.50      0.00
  -28    2   15      3.19      0.00
  -26    2   15      4.01      0.00
  -24    2   15      3.40      0.00
  -22    2   15      2.84      0.00
  -20    2   15      2.05      0.00
  -18    2   15     -0.74      0.00
  -16    2   15     -4.00      0.00
  -14    2   15     -5.40      0.00
  -12    2   15     -6.29      0.00
  -10    2   15     -8.28      0.00
   -8    2   15    -12.05      0.00
   -6    2   15    -17.27      0.00
   -4    2   15    -18.59      0.00
   -2    2   15    -11.88      0.00
    0    2   15     -3.23      0.00
    2    2   15      0.46      0.00
    4    2   15      1.10      0.00
    6    2   15      2.00      0.00
    8    2   15      2.42      0.00
   10    2   15      1.64      0.00
   12    2   15      1.00      0.00
   14    2   15      1.82      0.00
  -27    3   15     -1.15      0.00
  -25    3   15     -3.13      0.00
  -23    3   15      0.64      0.00
  -21    3   15      3.84      0.00
  -19    3   15      3.92      0.00
  -17    3   15      3.21      0.00
  -15    3   15      0.60      0.00
  -13    3   15     -2.28      0.00
  -11    3   15     -0.06      0.00
   -9    3   15      5.82      0.00
   -7    3   15      9.54      0.00
   -5    3   15      9.35      0.00
   -3    3   15      6.48      0.00
   -1    3   15      2.88      0.00
    1    3   15      0.02      0.00
    3    3   15     -1.78      0.00
    5    3   15     -1.33      0.00
    7    3   15      1.06      0.00
    9    3   15      1.45      0.00
   11    3   15     -0.71      0.00
   13    3   15     -1.68      0.00
  -26    4   15      1.47      0.00
  -24    4   15     -1.52      0.00
  -22    4   15     -3.42      0.00
  -20    4   15     -2.84      0.00
  -18    4   15     -3.58      0.00
  -16    4   15     -4.95      0.00
  -14    4   15     -5.18      0.00
  -12    4   15     -6.60      0.00
  -10    4   15     -9.36      0.00
   -8    4   15    -11.20      0.00
   -6    4   15    -10.52      0.00
   -4    4   15     -4.99      0.00
   -2    4   15      2.95      0.00
    0    4   15      5.18      0.00
    2    4   15      0.08      0.00
    4    4   15     -6.35      0.00
    6    4   15     -9.96      0.00
    8    4   15     -9.54      0.00
   10    4   15     -6.27      0.00
   12    4   15     -3.70      0.00
  -25    5   15      3.77      0.00
  -23    5   15      0.88      0.00
  -21    5   15      0.77      0.00
  -19    5   15      2.08      0.00
  -17    5   15      3.37      0.00
  -15    5   15      4.16      0.00
  -13    5   15      3.17      0.00
  -11    5   15      2.17      0.00
   -9    5   15      3.96      0.00
   -7    5   15      5.62      0.00
   -5    5   15      3.44      0.00
   -3    5   15      0.06      0.00
   -1    5   15     -1.29      0.00
    1    5   15     -1.53      0.00
    3    5   15     -1.14      0.00
    5    5   15      0.26      0.00
    7    5   15      1.40      0.00
    9    5   15      1.82      0.00
   11    5   15      1.93      0.00
  -24    6   15      1.45      0.00
  -22    6   15     -0.61      0.00
  -20    6   15     -2.85      0.00
  -18    6   15     -1.29      0.00
  -16    6   15      0.57      0.00
  -14    6   15     -1.36      0.00
  -12    6   15     -3.94      0.00
  -10    6   15     -3.42      0.00
   -8    6   15     -0.91      0.00
   -6    6   15      1.38      0.00
   -4    6   15      2.23      0.00
   -2    6   15      1.32      0.00
    0    6   15      0.34      0.00
    2    6   15      1.01      0.00
    4    6   15      1.79      0.00
    6    6   15      0.15      0.00
    8    6   15     -2.81      0.00
   10    6   15     -3.49      0.00
  -23    7   15      1.75      0.00
  -21    7   15      0.27      0.00
  -19    7   15     -2.38      0.00
  -17    7   15     -3.30      0.00
  -15    7   15     -1.86      0.00
  -13    7   15     -1.00      0.00
  -11    7   15     -1.12      0.00
   -9    7   15     -0.09      0.00
   -7    7   15      0.32      0.00
   -5    7   15     -2.20      0.00
   -3    7   15     -4.34      0.00
   -1    7   15     -2.80      0.00
    1    7   15     -0.31      0.00
    3    7   15     -0.19      0.00
    5    7   15     -0.50      0.00
    7    7   15      1.55      0.00
  -20    8   15      4.04      0.00
  -18    8   15      5.24      0.00
  -16    8   15      5.00      0.00
  -14    8   15      2.47      0.00
  -12    8   15     -1.20      0.00
  -10    8   15     -2.83      0.00
   -8    8   15     -1.75      0.00
   -6    8   15      0.25      0.00
   -4    8   15      1.42      0.00
   -2    8   15      0.42      0.00
    0    8   15     -1.61      0.00
    2    8   15     -1.15      0.00
    4    8   15      1.61      0.00
    6    8   15      2.20      0.00
  -17    9   15     -1.28      0.00
  -15    9   15      0.58      0.00
  -13    9   15      0.13      0.00
  -11    9   15     -3.29      0.00
   -9    9   15     -5.02      0.00
   -7    9   15     -2.91      0.00
   -5    9   15     -0.25      0.00
   -3    9   15      0.11      0.00
   -1    9   15     -0.22      0.00
    1    9   15      1.38      0.00
    3    9   15      3.78      0.00
  -10   10   15     -1.17      0.00
   -8   10   15     -0.87      0.00
   -6   10   15      0.76      0.00
   -4   10   15      1.84      0.00
  -28    0   16      1.28      0.00
  -26    0   16     -1.43      0.00
  -24    0   16     -2.68      0.00
  -22    0   16     -2.15      0.00
  -20    0   16     -3.29      0.00
  -18    0   16     -6.67      0.00
  -16    0   16     -8.31      0.00
  -14    0   16     -7.61      0.00
  -12    0   16     -5.99      0.00
  -10    0   16     -2.57      0.00
   -8    0   16      0.32      0.00
   -6    0   16     -0.07      0.00
   -4    0   16      1.19      0.00
   -2    0   16      7.78      0.00
    0    0   16     12.80      0.00
    2    0   16      9.45      0.00
    4    0   16      2.02      0.00
    6    0   16     -1.02      0.00
    8    0   16      0.40      0.00
   10    0   16      0.00      0.00
   12    0   16     -2.07      0.00
  -29    1   16     -4.52      0.00
  -27    1   16     -2.28      0.00
  -25    1   16      4.18      0.00
  -23    1   16      9.71      0.00
  -21    1   16     11.82      0.00
  -19    1   16     13.04      0.00
  -17    1   16     13.30      0.00
  -15    1   16     10.63      0.00
  -13    1   16      7.27      0.00
  -11    1   16      6.65      0.00
   -9    1   16      9.81      0.00
   -7    1   16     14.97      0.00
   -5    1   16     16.95      0.00
   -3    1   16     13.80      0.00
   -1    1   16     10.45      0.00
    1    1   16      8.17      0.00
    3    1   16      3.64      0.00
    5    1   16      0.12      0.00
    7    1   16      1.62      0.00
    9    1   16      2.54      0.00
   11    1   16     -1.73      0.00
   13    1   16     -5.99      0.00
  -28    2   16      2.62      0.00
  -26    2   16      7.49      0.00
  -24    2   16      3.60      0.00
  -22    2   16     -4.73      0.00
  -20    2   16     -8.40      0.00
  -18    2   16     -5.02      0.00
  -16    2   16      1.81      0.00
  -14    2   16      5.34      0.00
  -12    2   16      2.30      0.00
  -10    2   16     -1.05      0.00
   -8    2   16      1.42      0.00
   -6    2   16      6.22      0.00
   -4    2   16      8.28      0.00
   -2    2   16      7.60      0.00
    0    2   16      4.79      0.00
    2    2   16      0.44      0.00
    4    2   16     -2.10      0.00
    6    2   16     -0.42      0.00
    8    2   16      2.58      0.00
   10    2   16      3.12      0.00
   12    2   16      2.12      0.00
  -27    3   16      1.75      0.00
  -25    3   16      0.49      0.00
  -23    3   16      1.25      0.00
  -21    3   16      1.88      0.00
  -19    3   16      1.40      0.00
  -17    3   16      1.79      0.00
  -15    3   16      3.08      0.00
  -13    3   16      2.71      0.00
  -11    3   16      1.15      0.00
   -9    3   16      1.33      0.00
   -7    3   16      2.67      0.00
   -5    3   16      2.93      0.00
   -3    3   16      3.08      0.00
   -1    3   16      4.28      0.00
    1    3   16      4.77      0.00
    3    3   16      3.17      0.00
    5    3   16      0.47      0.00
    7    3   16     -1.05      0.00
    9    3   16      0.02      0.00
   11    3   16      1.21      0.00
  -26    4   16     -3.65      0.00
  -24    4   16     -3.15      0.00
  -22    4   16     -2.84      0.00
  -20    4   16     -0.74      0.00
  -18    4   16      0.49      0.00
  -16    4   16     -1.08      0.00
  -14    4   16     -1.36      0.00
  -12    4   16      1.83      0.00
  -10    4   16      4.83      0.00
   -8    4   16      5.39      0.00
   -6    4   16      3.71      0.00
   -4    4   16     -0.04      0.00
   -2    4   16     -3.23      0.00
    0    4   16     -2.85      0.00
    2    4   16     -0.21      0.00
    4    4   16      1.85      0.00
    6    4   16      1.71      0.00
    8    4   16     -0.19      0.00
   10    4   16      0.14      0.00
   12    4   16      3.83      0.00
  -25    5   16      2.08      0.00
  -23    5   16     -4.42      0.00
  -21    5   16     -4.34      0.00
  -19    5   16     -3.92      0.00
  -17    5   16     -4.60      0.00
  -15    5   16     -0.98      0.00
  -13    5   16      3.40      0.00
  -11    5   16      1.31      0.00
   -9    5   16     -5.03      0.00
   -7    5   16     -8.29      0.00
   -5    5   16     -5.29      0.00
   -3    5   16      0.21      0.00
   -1    5   16      1.91      0.00
    1    5   16     -0.17      0.00
    3    5   16     -1.09      0.00
    5    5   16      0.23      0.00
    7    5   16      2.46      0.00
    9    5   16      5.77      0.00
   11    5   16      7.90      0.00
  -24    6   16      3.02      0.00
  -22    6   16      3.70      0.00
  -20    6   16      4.54      0.00
  -18    6   16      5.70      0.00
  -16    6   16      5.33      0.00
  -14    6   16      3.54      0.00
  -12    6   16      1.94      0.00
  -10    6   16      0.73      0.00
   -8    6   16      0.21      0.00
   -6    6   16      0.73      0.00
   -4    6   16      0.53      0.00
   -2    6   16     -1.25      0.00
    0    6   16     -1.96      0.00
    2    6   16      0.06      0.00
    4    6   16      1.45      0.00
    6    6   16     -1.14      0.00
    8    6   16     -3.85      0.00
  -21    7   16     -3.26      0.00
  -19    7   16     -4.11      0.00
  -17    7   16     -4.23      0.00
  -15    7   16     -4.76      0.00
  -13    7   16     -3.81      0.00
  -11    7   16     -1.25      0.00
   -9    7   16      0.30      0.00
   -7    7   16     -0.04      0.00
   -5    7   16     -0.52      0.00
   -3    7   16      0.25      0.00
   -1    7   16      1.59      0.00
    1    7   16      1.70      0.00
    3    7   16      0.56      0.00
    5    7   16      0.92      0.00
    7    7   16      3.68      0.00
  -20    8   16      2.67      0.00
  -18    8   16      1.52      0.00
  -16    8   16      0.63      0.00
  -14    8   16      2.02      0.00
  -12    8   16      3.77      0.00
  -10    8   16      2.84      0.00
   -8    8   16     -0.52      0.00
   -6    8   16     -3.72      0.00
   -4    8   16     -4.69      0.00
   -2    8   16     -2.74      0.00
    0    8   16      0.36      0.00
    2    8   16      1.35      0.00
    4    8   16      0.04      0.00
  -15    9   16     -4.50      0.00
  -13    9   16     -5.40      0.00
  -11    9   16     -2.03      0.00
   -9    9   16      2.88      0.00
   -7    9   16      5.26      0.00
   -5    9   16      4.58      0.00
   -3    9   16      2.79      0.00
   -1    9   16      0.57      0.00
    1    9   16     -1.54      0.00
  -27    1   17     -2.21      0.00
  -25    1   17     -2.82      0.00
  -23    1   17     -2.23      0.00
  -21    1   17     -2.19      0.00
  -19    1   17     -2.94      0.00
  -17    1   17     -2.30      0.00
  -15    1   17     -0.10      0.00
  -13    1   17      2.29      0.00
  -11    1   17      3.77      0.00
   -9    1   17      2.59      0.00
   -7    1   17     -0.22      0.00
   -5    1   17     -0.32      0.00
   -3    1   17      2.10      0.00
   -1    1   17      3.63      0.00
    1    1   17      4.71      0.00
    3    1   17      5.29      0.00
    5    1   17      2.49      0.00
    7    1   17     -1.81      0.00
    9    1   17     -2.77      0.00
   11    1   17     -0.73      0.00
  -28    2   17      1.21      0.00
  -26    2   17      2.65      0.00
  -24    2   17      2.21      0.00
  -22    2   17      2.22      0.00
  -20    2   17      2.73      0.00
  -18    2   17      1.65      0.00
  -16    2   17      0.68      0.00
  -14    2   17      2.28      0.00
  -12    2   17      3.50      0.00
  -10    2   17      2.59      0.00
   -8    2   17      2.68      0.00
   -6    2   17      2.69      0.00
   -4    2   17     -0.77      0.00
   -2    2   17     -3.88      0.00
    0    2   17     -2.17      0.00
    2    2   17      1.27      0.00
    4    2   17      2.48      0.00
    6    2   17      1.32      0.00
    8    2   17     -0.49      0.00
   10    2   17     -0.73      0.00
   12    2   17      0.47      0.00
  -27    3   17      0.72      0.00
  -25    3   17     -2.44      0.00
  -23    3   17     -5.05      0.00
  -21    3   17     -5.78      0.00
  -19    3   17     -4.78      0.00
  -17    3   17     -0.85      0.00
  -15    3   17      3.73      0.00
  -13    3   17      4.32      0.00
  -11    3   17      1.46      0.00
   -9    3   17     -0.41      0.00
   -7    3   17      1.40      0.00
   -5    3   17      5.32      0.00
   -3    3   17      6.26      0.00
   -1    3   17      2.94      0.00
    1    3   17      0.48      0.00
    3    3   17      0.57      0.00
    5    3   17     -0.33      0.00
    7    3   17     -1.42      0.00
    9    3   17      0.39      0.00
   11    3   17      2.45      0.00
  -26    4   17     -6.61      0.00
  -24    4   17     -2.33      0.00
  -22    4   17      0.37      0.00
  -20    4   17      2.24      0.00
  -18    4   17      3.18      0.00
  -16    4   17      1.36      0.00
  -14    4   17      0.40      0.00
  -12    4   17      2.71      0.00
  -10    4   17      4.08      0.00
   -8    4   17      2.19      0.00
   -6    4   17     -1.51      0.00
   -4    4   17     -5.51      0.00
   -2    4   17     -6.13      0.00
    0    4   17     -1.48      0.00
    2    4   17      3.12      0.00
    4    4   17      4.13      0.00
    6    4   17      5.99      0.00
    8    4   17     10.74      0.00
   10    4   17     12.49      0.00
  -25    5   17      1.73      0.00
  -23    5   17      1.79      0.00
  -21    5   17      2.09      0.00
  -19    5   17      1.35      0.00
  -17    5   17     -0.55      0.00
  -15    5   17     -0.85      0.00
  -13    5   17      0.53      0.00
  -11    5   17      0.54      0.00
   -9    5   17      0.13      0.00
   -7    5   17      2.12      0.00
   -5    5   17      3.73      0.00
   -3    5   17      2.01      0.00
   -1    5   17      0.44      0.00
    1    5   17      1.14      0.00
    3    5   17      1.28      0.00
    5    5   17      0.68      0.00
    7    5   17      0.92      0.00
    9    5   17      0.42      0.00
  -24    6   17     -3.54      0.00
  -22    6   17     -3.30      0.00
  -20    6   17     -3.60      0.00
  -18    6   17     -2.49      0.00
  -16    6   17      0.13      0.00
  -14    6   17      1.05      0.00
  -12    6   17     -1.11      0.00
  -10    6   17     -4.32      0.00
   -8    6   17     -5.76      0.00
   -6    6   17     -4.00      0.00
   -4    6   17     -0.61      0.00
   -2    6   17      0.95      0.00
    0    6   17     -0.48      0.00
    2    6   17     -2.05      0.00
    4    6   17     -0.84      0.00
    6    6   17      1.51      0.00
    8    6   17      1.39      0.00
  -21    7   17      4.94      0.00
  -19    7   17      3.65      0.00
  -17    7   17      0.38      0.00
  -15    7   17     -0.57      0.00
  -13    7   17      3.54      0.00
  -11    7   17      7.80      0.00
   -9    7   17      7.59      0.00
   -7    7   17      5.13      0.00
   -5    7   17      3.32      0.00
   -3    7   17      1.75      0.00
   -1    7   17      0.33      0.00
    1    7   17     -0.24      0.00
    3    7   17     -0.84      0.00
    5    7   17     -2.08      0.00
  -18    8   17     -3.44      0.00
  -16    8   17     -1.38      0.00
  -14    8   17      0.10      0.00
  -12    8   17      0.49      0.00
  -10    8   17     -0.58      0.00
   -8    8   17     -2.12      0.00
   -6    8   17     -2.03      0.00
   -4    8   17      0.29      0.00
   -2    8   17      2.13      0.00
    0    8   17      0.47      0.00
    2    8   17     -3.06      0.00
  -15    9   17     -2.07      0.00
  -13    9   17     -1.28      0.00
  -11    9   17      2.51      0.00
   -9    9   17      4.53      0.00
   -7    9   17      2.57      0.00
   -5    9   17     -0.73      0.00
   -3    9   17     -1.52      0.00
   -1    9   17      0.36      0.00
  -28    0   18      0.35      0.00
  -26    0   18      1.07      0.00
  -24    0   18      2.36      0.00
  -22    0   18      1.18      0.00
  -20    0   18     -2.80      0.00
  -18    0   18     -5.25      0.00
  -16    0   18     -2.81      0.00
  -14    0   18      0.22      0.00
  -12    0   18     -2.15      0.00
  -10    0   18     -6.96      0.00
   -8    0   18     -8.78      0.00
   -6    0   18     -9.06      0.00
   -4    0   18     -9.28      0.00
   -2    0   18     -7.78      0.00
    0    0   18     -4.91      0.00
    2    0   18     -1.03      0.00
    4    0   18      2.56      0.00
    6    0   18      1.61      0.00
    8    0   18     -1.80      0.00
   10    0   18     -1.40      0.00
  -27    1   18     -4.32      0.00
  -25    1   18     -7.69      0.00
  -23    1   18     -7.53      0.00
  -21    1   18     -7.01      0.00
  -19    1   18     -5.84      0.00
  -17    1   18     -2.36      0.00
  -15    1   18      0.57      0.00
  -13    1   18      0.73      0.00
  -11    1   18     -0.92      0.00
   -9    1   18     -3.62      0.00
   -7    1   18     -5.27      0.00
   -5    1   18     -5.05      0.00
   -3    1   18     -6.92      0.00
   -1    1   18    -10.44      0.00
    1    1   18     -8.86      0.00
    3    1   18     -3.08      0.00
    5    1   18     -0.57      0.00
    7    1   18     -0.67      0.00
    9    1   18      2.28      0.00
   11    1   18      6.49      0.00
  -28    2   18     -5.02      0.00
  -26    2   18     -6.05      0.00
  -24    2   18     -1.62      0.00
  -22    2   18      3.29      0.00
  -20    2   18      3.75      0.00
  -18    2   18     -0.82      0.00
  -16    2   18     -5.98      0.00
  -14    2   18     -6.49      0.00
  -12    2   18     -3.00      0.00
  -10    2   18     -0.14      0.00
   -8    2   18      0.57      0.00
   -6    2   18      0.14      0.00
   -4    2   18     -1.21      0.00
   -2    2   18     -2.32      0.00
    0    2   18     -1.69      0.00
    2    2   18     -0.90      0.00
    4    2   18     -2.02      0.00
    6    2   18     -3.68      0.00
    8    2   18     -4.38      0.00
   10    2   18     -4.70      0.00
  -27    3   18      3.20      0.00
  -25    3   18      0.56      0.00
  -23    3   18     -1.01      0.00
  -21    3   18     -0.72      0.00
  -19    3   18     -0.92      0.00
  -17    3   18     -1.86      0.00
  -15    3   18     -1.95      0.00
  -13    3   18     -1.77      0.00
  -11    3   18     -2.88      0.00
   -9    3   18     -4.75      0.00
   -7    3   18     -5.68      0.00
   -5    3   18     -5.17      0.00
   -3    3   18     -4.27      0.00
   -1    3   18     -3.90      0.00
    1    3   18     -2.58      0.00
    3    3   18      1.35      0.00
    5    3   18      4.67      0.00
    7    3   18      3.12      0.00
    9    3   18     -0.29      0.00
  -26    4   18     -2.09      0.00
  -24    4   18      0.35      0.00
  -22    4   18     -0.76      0.00
  -20    4   18     -2.38      0.00
  -18    4   18     -0.09      0.00
  -16    4   18      2.46      0.00
  -14    4   18      1.69      0.00
  -12    4   18     -0.01      0.00
  -10    4   18     -0.81      0.00
   -8    4   18     -0.30      0.00
   -6    4   18      2.71      0.00
   -4    4   18      6.05      0.00
   -2    4   18      5.70      0.00
    0    4   18      2.16      0.00
    2    4   18     -1.63      0.00
    4    4   18     -3.87      0.00
    6    4   18     -3.14      0.00
    8    4   18     -1.00      0.00
  -25    5   18      6.19      0.00
  -23    5   18      5.78      0.00
  -21    5   18      3.39      0.00
  -19    5   18      2.99      0.00
  -17    5   18      0.73      0.00
  -15    5   18     -3.99      0.00
  -13    5   18     -4.84      0.00
  -11    5   18     -0.67      0.00
   -9    5   18      1.88      0.00
   -7    5   18     -0.75      0.00
   -5    5   18     -4.00      0.00
   -3    5   18     -2.95      0.00
   -1    5   18     -0.11      0.00
    1    5   18     -0.47      0.00
    3    5   18     -2.35      0.00
    5    5   18     -0.73      0.00
    7    5   18      2.89      0.00
  -22    6   18     -5.40      0.00
  -20    6   18     -3.57      0.00
  -18    6   18     -1.73      0.00
  -16    6   18      0.02      0.00
  -14    6   18      0.43      0.00
  -12    6   18      0.36      0.00
  -10    6   18      0.93      0.00
   -8    6   18      1.39      0.00
   -6    6   18      1.80      0.00
   -4    6   18      2.43      0.00
   -2    6   18      1.71      0.00
    0    6   18     -0.77      0.00
    2    6   18     -2.24      0.00
    4    6   18     -0.67      0.00
    6    6   18      1.38      0.00
  -21    7   18      2.43      0.00
  -19    7   18      2.28      0.00
  -17    7   18      2.21      0.00
  -15    7   18      0.89      0.00
  -13    7   18     -1.37      0.00
  -11    7   18     -2.53      0.00
   -9    7   18     -1.64      0.00
   -7    7   18     -0.09      0.00
   -5    7   18      0.66      0.00
   -3    7   18      0.93      0.00
   -1    7   18      1.37      0.00
    1    7   18      1.83      0.00
    3    7   18      1.74      0.00
  -18    8   18     -2.12      0.00
  -16    8   18      0.40      0.00
  -14    8   18      1.68      0.00
  -12    8   18      1.31      0.00
  -10    8   18     -0.27      0.00
   -8    8   18     -1.60      0.00
   -6    8   18     -1.06      0.00
   -4    8   18      0.03      0.00
   -2    8   18     -1.27      0.00
    0    8   18     -3.81      0.00
  -13    9   18      2.03      0.00
  -11    9   18     -1.34      0.00
   -9    9   18     -2.67      0.00
   -7    9   18     -1.66      0.00
   -5    9   18      0.01      0.00
  -27    1   19      2.67      0.00
  -25    1   19      2.55      0.00
  -23    1   19      1.93      0.00
  -21    1   19      0.49      0.00
  -19    1   19     -1.77      0.00
  -17    1   19     -3.56      0.00
  -15    1   19     -4.36      0.00
  -13    1   19     -5.36      0.00
  -11    1   19     -5.81      0.00
   -9    1   19     -4.87      0.00
   -7    1   19     -4.55      0.00
   -5    1   19     -4.36      0.00
   -3    1   19     -2.14      0.00
   -1    1   19     -0.82      0.00
    1    1   19     -1.84      0.00
    3    1   19     -1.00      0.00
    5    1   19      1.01      0.00
    7    1   19     -0.54      0.00
    9    1   19     -3.67      0.00
  -26    2   19      0.04      0.00
  -24    2   19      1.50      0.00
  -22    2   19      1.93      0.00
  -20    2   19      4.22      0.00
  -18    2   19      6.33      0.00
  -16    2   19      4.79      0.00
  -14    2   19      2.42      0.00
  -12    2   19      2.23      0.00
  -10    2   19      2.36      0.00
   -8    2   19      2.81      0.00
   -6    2   19      4.80      0.00
   -4    2   19      5.34      0.00
   -2    2   19      2.73      0.00
    0    2   19     -0.59      0.00
    2    2   19     -3.26      0.00
    4    2   19     -3.69      0.00
    6    2   19      0.13      0.00
    8    2   19      4.72      0.00
  -27    3   19      1.99      0.00
  -25    3   19      2.66      0.00
  -23    3   19      1.14      0.00
  -21    3   19     -1.93      0.00
  -19    3   19     -5.90      0.00
  -17    3   19     -8.97      0.00
  -15    3   19     -9.55      0.00
  -13    3   19     -8.29      0.00
  -11    3   19     -6.29      0.00
   -9    3   19     -5.04      0.00
   -7    3   19     -5.77      0.00
   -5    3   19     -5.73      0.00
   -3    3   19     -2.63      0.00
   -1    3   19     -0.48      0.00
    1    3   19     -1.79      0.00
    3    3   19     -2.50      0.00
    5    3   19     -1.47      0.00
    7    3   19     -3.04      0.00
    9    3   19     -6.93      0.00
  -26    4   19      2.76      0.00
  -24    4   19      2.86      0.00
  -22    4   19      2.74      0.00
  -20    4   19      2.57      0.00
  -18    4   19      4.20      0.00
  -16    4   19      5.75      0.00
  -14    4   19      4.04      0.00
  -12    4   19      1.53      0.00
  -10    4   19      1.99      0.00
   -8    4   19      4.08      0.00
   -6    4   19      4.83      0.00
   -4    4   19      3.16      0.00
   -2    4   19     -0.25      0.00
    0    4   19     -1.87      0.00
    2    4   19      0.75      0.00
    4    4   19      2.63      0.00
    6    4   19     -1.60      0.00
    8    4   19     -6.87      0.00
  -25    5   19      0.16      0.00
  -23    5   19     -2.28      0.00
  -21    5   19     -2.91      0.00
  -19    5   19     -1.57      0.00
  -17    5   19     -0.68      0.00
  -15    5   19     -0.72      0.00
  -13    5   19     -0.81      0.00
  -11    5   19     -1.48      0.00
   -9    5   19     -3.59      0.00
   -7    5   19     -5.24      0.00
   -5    5   19     -3.24      0.00
   -3    5   19      0.47      0.00
   -1    5   19      0.69      0.00
    1    5   19     -1.78      0.00
    3    5   19     -2.39      0.00
    5    5   19     -1.67      0.00
    7    5   19     -1.90      0.00
  -22    6   19      5.86      0.00
  -20    6   19      4.07      0.00
  -18    6   19      0.58      0.00
  -16    6   19     -0.76      0.00
  -14    6   19      0.00      0.00
  -12    6   19      1.57      0.00
  -10    6   19      2.82      0.00
   -8    6   19      1.79      0.00
   -6    6   19     -0.95      0.00
   -4    6   19     -2.19      0.00
   -2    6   19     -1.11      0.00
    0    6   19      0.27      0.00
    2    6   19      0.23      0.00
    4    6   19     -1.12      0.00
  -21    7   19     -1.54      0.00
  -19    7   19      0.53      0.00
  -17    7   19      2.60      0.00
  -15    7   19      0.99      0.00
  -13    7   19     -2.92      0.00
  -11    7   19     -3.60      0.00
   -9    7   19     -0.43      0.00
   -7    7   19      1.78      0.00
   -5    7   19      0.70      0.00
   -3    7   19     -0.98      0.00
   -1    7   19     -0.32      0.00
    1    7   19      2.18      0.00
    3    7   19      3.59      0.00
  -16    8   19     -1.58      0.00
  -14    8   19     -1.10      0.00
  -12    8   19     -0.91      0.00
  -10    8   19     -1.26      0.00
   -8    8   19     -1.64      0.00
   -6    8   19     -2.24      0.00
   -4    8   19     -2.14      0.00
   -2    8   19      0.02      0.00
  -28    0   20      5.02      0.00
  -26    0   20      5.17      0.00
  -24    0   20      3.99      0.00
  -22    0   20      6.58      0.00
  -20    0   20     10.70      0.00
  -18    0   20      8.99      0.00
  -16    0   20      2.46      0.00
  -14    0   20     -0.70      0.00
  -12    0   20      0.85      0.00
  -10    0   20      3.65      0.00
   -8    0   20      7.54      0.00
   -6    0   20      9.37      0.00
   -4    0   20      4.63      0.00
   -2    0   20     -1.43      0.00
    0    0   20     -2.55      0.00
    2    0   20     -1.27      0.00
    4    0   20      1.15      0.00
    6    0   20      5.11      0.00
    8    0   20      5.33      0.00
  -27    1   20      2.92      0.00
  -25    1   20     -0.12      0.00
  -23    1   20     -2.62      0.00
  -21    1   20     -1.23      0.00
  -19    1   20      0.25      0.00
  -17    1   20     -0.61      0.00
  -15    1   20     -1.46      0.00
  -13    1   20     -0.30      0.00
  -11    1   20      2.30      0.00
   -9    1   20      4.00      0.00
   -7    1   20      4.42      0.00
   -5    1   20      6.69      0.00
   -3    1   20     10.29      0.00
   -1    1   20      9.80      0.00
    1    1   20      4.97      0.00
    3    1   20      1.07      0.00
    5    1   20     -0.72      0.00
    7    1   20     -2.89      0.00
  -26    2   20      4.50      0.00
  -24    2   20      2.86      0.00
  -22    2   20      2.98      0.00
  -20    2   20      4.66      0.00
  -18    2   20      4.94      0.00
  -16    2   20      3.22      0.00
  -14    2   20      1.41      0.00
  -12    2   20      0.44      0.00
  -10    2   20     -0.58      0.00
   -8    2   20     -2.29      0.00
   -6    2   20     -3.40      0.00
   -4    2   20     -1.94      0.00
   -2    2   20      1.20      0.00
    0    2   20      2.87      0.00
    2    2   20      1.99      0.00
    4    2   20      0.38      0.00
    6    2   20      0.32      0.00
    8    2   20      2.21      0.00
  -25    3   20     -0.95      0.00
  -23    3   20     -0.83      0.00
  -21    3   20     -1.54      0.00
  -19    3   20     -1.37      0.00
  -17    3   20      0.27      0.00
  -15    3   20      2.09      0.00
  -13    3   20      2.94      0.00
  -11    3   20      3.32      0.00
   -9    3   20      3.88      0.00
   -7    3   20      4.00      0.00
   -5    3   20      3.41      0.00
   -3    3   20      3.00      0.00
   -1    3   20      2.07      0.00
    1    3   20     -0.63      0.00
    3    3   20     -2.55      0.00
    5    3   20     -0.56      0.00
    7    3   20      2.62      0.00
  -24    4   20     -0.87      0.00
  -22    4   20     -0.37      0.00
  -20    4   20     -1.60      0.00
  -18    4   20     -2.15      0.00
  -16    4   20     -0.30      0.00
  -14    4   20      1.27      0.00
  -12    4   20      1.23      0.00
  -10    4   20      0.42      0.00
   -8    4   20     -1.10      0.00
   -6    4   20     -3.10      0.00
   -4    4   20     -4.92      0.00
   -2    4   20     -5.48      0.00
    0    4   20     -2.73      0.00
    2    4   20      1.78      0.00
    4    4   20      2.30      0.00
    6    4   20     -1.67      0.00
  -23    5   20      2.33      0.00
  -21    5   20      4.29      0.00
  -19    5   20      3.48      0.00
  -17    5   20      3.00      0.00
  -15    5   20      2.20      0.00
  -13    5   20     -0.81      0.00
  -11    5   20     -2.37      0.00
   -9    5   20      0.76      0.00
   -7    5   20      3.59      0.00
   -5    5   20      1.17      0.00
   -3    5   20     -2.05      0.00
   -1    5   20     -0.51      0.00
    1    5   20      2.77      0.00
    3    5   20      2.14      0.00
    5    5   20     -1.68      0.00
  -22    6   20      0.95      0.00
  -20    6   20      0.23      0.00
  -18    6   20     -1.44      0.00
  -16    6   20     -1.22      0.00
  -14    6   20      0.41      0.00
  -12    6   20      0.61      0.00
  -10    6   20      0.20      0.00
   -8    6   20      0.90      0.00
   -6    6   20      1.84      0.00
   -4    6   20      2.27      0.00
   -2    6   20      2.43      0.00
    0    6   20      2.12      0.00
    2    6   20      1.33      0.00
  -19    7   20     -0.48      0.00
  -17    7   20      1.38      0.00
  -15    7   20      2.18      0.00
  -13    7   20      1.33      0.00
  -11    7   20     -0.02      0.00
   -9    7   20     -1.15      0.00
   -7    7   20     -1.70      0.00
   -5    7   20     -2.09      0.00
   -3    7   20     -2.44      0.00
   -1    7   20     -2.03      0.00
    1    7   20     -1.43      0.00
  -14    8   20     -3.00      0.00
  -12    8   20      0.44      0.00
  -10    8   20      4.58      0.00
   -8    8   20      5.49      0.00
   -6    8   20      2.36      0.00
   -4    8   20     -0.45      0.00
  -27    1   21     -0.80      0.00
  -25    1   21      0.49      0.00
  -23    1   21      0.25      0.00
  -21    1   21     -0.63      0.00
  -19    1   21     -0.25      0.00
  -17    1   21      0.30      0.00
  -15    1   21     -0.04      0.00
  -13    1   21     -0.29      0.00
  -11    1   21      0.08      0.00
   -9    1   21      1.04      0.00
   -7    1   21      1.74      0.00
   -5    1   21      0.31      0.00
   -3    1   21     -1.72      0.00
   -1    1   21     -0.89      0.00
    1    1   21      1.10      0.00
    3    1   21      1.10      0.00
    5    1   21      0.92      0.00
    7    1   21      2.19      0.00
  -26    2   21     -2.60      0.00
  -24    2   21     -3.15      0.00
  -22    2   21     -3.31      0.00
  -20    2   21     -2.22      0.00
  -18    2   21      1.24      0.00
  -16    2   21      4.13      0.00
  -14    2   21      4.68      0.00
  -12    2   21      4.84      0.00
  -10    2   21      3.97      0.00
   -8    2   21      0.98      0.00
   -6    2   21     -0.76      0.00
   -4    2   21     -0.04      0.00
   -2    2   21      0.39      0.00
    0    2   21      1.00      0.00
    2    2   21      2.33      0.00
    4    2   21      1.43      0.00
    6    2   21     -1.10      0.00
  -25    3   21     -1.85      0.00
  -23    3   21      0.62      0.00
  -21    3   21      3.26      0.00
  -19    3   21      2.74      0.00
  -17    3   21      0.51      0.00
  -15    3   21     -0.02      0.00
  -13    3   21      0.78      0.00
  -11    3   21      1.04      0.00
   -9    3   21      0.92      0.00
   -7    3   21      0.24      0.00
   -5    3   21     -0.91      0.00
   -3    3   21     -0.36      0.00
   -1    3   21      1.69      0.00
    1    3   21      1.91      0.00
    3    3   21      0.46      0.00
    5    3   21      0.74      0.00
  -24    4   21     -3.63      0.00
  -22    4   21     -3.39      0.00
  -20    4   21     -2.26      0.00
  -18    4   21     -0.14      0.00
  -16    4   21      1.97      0.00
  -14    4   21      2.75      0.00
  -12    4   21      1.99      0.00
  -10    4   21      0.63      0.00
   -8    4   21      0.09      0.00
   -6    4   21      0.82      0.00
   -4    4   21      1.61      0.00
   -2    4   21      1.38      0.00
    0    4   21      0.19      0.00
    2    4   21     -1.10      0.00
    4    4   21     -1.15      0.00
  -23    5   21     -0.40      0.00
  -21    5   21     -1.76      0.00
  -19    5   21     -1.72      0.00
  -17    5   21     -1.79      0.00
  -15    5   21     -2.53      0.00
  -13    5   21     -2.07      0.00
  -11    5   21     -0.08      0.00
   -9    5   21      2.14      0.00
   -7    5   21      2.80      0.00
   -5    5   21      0.75      0.00
   -3    5   21     -0.98      0.00
   -1    5   21      0.47      0.00
    1    5   21      1.57      0.00
    3    5   21      0.09      0.00
  -20    6   21     -0.67      0.00
  -18    6   21     -1.57      0.00
  -16    6   21     -2.39      0.00
  -14    6   21     -1.36      0.00
  -12    6   21     -0.45      0.00
  -10    6   21     -0.49      0.00
   -8    6   21     -0.58      0.00
   -6    6   21     -0.71      0.00
   -4    6   21     -1.01      0.00
   -2    6   21     -1.32      0.00
    0    6   21     -1.52      0.00
  -17    7   21     -1.44      0.00
  -15    7   21      1.20      0.00
  -13    7   21      2.09      0.00
  -11    7   21     -0.31      0.00
   -9    7   21     -2.00      0.00
   -7    7   21      0.31      0.00
   -5    7   21      3.72      0.00
   -3    7   21      3.94      0.00
  -12    8   21      1.04      0.00
  -10    8   21      1.74      0.00
   -8    8   21      1.42      0.00
  -26    0   22     -5.80      0.00
  -24    0   22     -5.09      0.00
  -22    0   22     -5.39      0.00
  -20    0   22     -4.83      0.00
  -18    0   22     -1.43      0.00
  -16    0   22      2.12      0.00
  -14    0   22      3.83      0.00
  -12    0   22      3.77      0.00
  -10    0   22     -0.13      0.00
   -8    0   22     -6.69      0.00
   -6    0   22     -8.61      0.00
   -4    0   22     -4.29      0.00
   -2    0   22     -0.75      0.00
    0    0   22     -1.58      0.00
    2    0   22     -3.72      0.00
    4    0   22     -3.90      0.00
    6    0   22     -0.87      0.00
  -25    1   22      3.13      0.00
  -23    1   22      4.01      0.00
  -21    1   22     -0.21      0.00
  -19    1   22     -3.31      0.00
  -17    1   22     -2.96      0.00
  -15    1   22     -2.17      0.00
  -13    1   22     -2.75      0.00
  -11    1   22     -3.22      0.00
   -9    1   22     -3.17      0.00
   -7    1   22     -4.37      0.00
   -5    1   22     -5.88      0.00
   -3    1   22     -4.58      0.00
   -1    1   22     -1.18      0.00
    1    1   22      1.00      0.00
    3    1   22      1.19      0.00
    5    1   22      0.44      0.00
  -26    2   22      2.85      0.00
  -24    2   22      0.51      0.00
  -22    2   22     -4.88      0.00
  -20    2   22     -6.34      0.00
  -18    2   22     -2.82      0.00
  -16    2   22      0.24      0.00
  -14    2   22      0.39      0.00
  -12    2   22     -0.82      0.00
  -10    2   22     -1.56      0.00
   -8    2   22     -0.52      0.00
   -6    2   22      0.42      0.00
   -4    2   22     -2.18      0.00
   -2    2   22     -5.61      0.00
    0    2   22     -4.05      0.00
    2    2   22      0.74      0.00
    4    2   22      2.56      0.00
  -25    3   22      1.17      0.00
  -23    3   22      3.80      0.00
  -21    3   22      6.04      0.00
  -19    3   22      4.45      0.00
  -17    3   22      0.75      0.00
  -15    3   22     -1.13      0.00
  -13    3   22     -1.23      0.00
  -11    3   22     -1.62      0.00
   -9    3   22     -2.08      0.00
   -7    3   22     -1.90      0.00
   -5    3   22     -1.40      0.00
   -3    3   22     -0.19      0.00
   -1    3   22      1.57      0.00
    1    3   22      1.68      0.00
    3    3   22     -0.14      0.00
  -24    4   22     -1.13      0.00
  -22    4   22     -1.07      0.00
  -20    4   22     -0.79      0.00
  -18    4   22     -2.54      0.00
  -16    4   22     -4.22      0.00
  -14    4   22     -3.50      0.00
  -12    4   22     -1.12      0.00
  -10    4   22      0.60      0.00
   -8    4   22      0.25      0.00
   -6    4   22     -0.18      0.00
   -4    4   22      1.61      0.00
   -2    4   22      2.55      0.00
    0    4   22     -0.01      0.00
    2    4   22     -1.59      0.00
  -21    5   22     -2.96      0.00
  -19    5   22     -0.06      0.00
  -17    5   22      2.66      0.00
  -15    5   22      4.95      0.00
  -13    5   22      5.53      0.00
  -11    5   22      2.06      0.00
   -9    5   22     -1.83      0.00
   -7    5   22     -0.77      0.00
   -5    5   22      2.47      0.00
   -3    5   22      2.22      0.00
   -1    5   22     -0.47      0.00
    1    5   22     -1.75      0.00
  -20    6   22     -0.33      0.00
  -18    6   22     -1.95      0.00
  -16    6   22     -4.31      0.00
  -14    6   22     -3.86      0.00
  -12    6   22     -1.56      0.00
  -10    6   22     -1.35      0.00
   -8    6   22     -2.97      0.00
   -6    6   22     -3.76      0.00
   -4    6   22     -3.37      0.00
   -2    6   22     -2.65      0.00
  -15    7   22     -1.21      0.00
  -13    7   22      0.26      0.00
  -11    7   22      0.68      0.00
   -9    7   22      0.30      0.00
   -7    7   22      0.10      0.00
   -5    7   22      0.67      0.00
  -25    1   23     -2.17      0.00
  -23    1   23      0.89      0.00
  -21    1   23      2.45      0.00
  -19    1   23      1.10      0.00
  -17    1   23      0.44      0.00
  -15    1   23      1.56      0.00
  -13    1   23      1.89      0.00
  -11    1   23      0.80      0.00
   -9    1   23     -0.61      0.00
   -7    1   23     -1.75      0.00
   -5    1   23     -1.77      0.00
   -3    1   23     -0.96      0.00
   -1    1   23     -0.92      0.00
    1    1   23     -0.48      0.00
    3    1   23      2.02      0.00
  -24    2   23      2.06      0.00
  -22    2   23      1.12      0.00
  -20    2   23     -2.75      0.00
  -18    2   23     -6.00      0.00
  -16    2   23     -5.39      0.00
  -14    2   23     -3.69      0.00
  -12    2   23     -2.93      0.00
  -10    2   23     -1.38      0.00
   -8    2   23      0.00      0.00
   -6    2   23     -0.44      0.00
   -4    2   23     -0.54      0.00
   -2    2   23      0.04      0.00
    0    2   23     -1.22      0.00
    2    2   23     -3.59      0.00
  -23    3   23      0.71      0.00
  -21    3   23      2.05      0.00
  -19    3   23      4.40      0.00
  -17    3   23      3.57      0.00
  -15    3   23      0.59      0.00
  -13    3   23     -1.76      0.00
  -11    3   23     -3.08      0.00
   -9    3   23     -2.34      0.00
   -7    3   23      0.75      0.00
   -5    3   23      2.74      0.00
   -3    3   23      1.75      0.00
   -1    3   23      0.64      0.00
    1    3   23      1.12      0.00
    3    3   23      1.88      0.00
  -22    4   23      1.26      0.00
  -20    4   23     -1.97      0.00
  -18    4   23     -4.23      0.00
  -16    4   23     -2.92      0.00
  -14    4   23     -0.41      0.00
  -12    4   23      0.81      0.00
  -10    4   23      0.62      0.00
   -8    4   23     -0.70      0.00
   -6    4   23     -1.82      0.00
   -4    4   23     -1.25      0.00
   -2    4   23     -0.58      0.00
    0    4   23     -1.17      0.00
  -21    5   23      2.92      0.00
  -19    5   23      1.55      0.00
  -17    5   23      0.70      0.00
  -15    5   23      0.36      0.00
  -13    5   23     -0.05      0.00
  -11    5   23     -1.10      0.00
   -9    5   23     -2.43      0.00
   -7    5   23     -1.93      0.00
   -5    5   23      0.50      0.00
   -3    5   23      1.48      0.00
   -1    5   23      0.65      0.00
  -18    6   23      6.54      0.00
  -16    6   23      4.30      0.00
  -14    6   23     -0.01      0.00
  -12    6   23     -2.13      0.00
  -10    6   23     -1.29      0.00
   -8    6   23     -0.03      0.00
   -6    6   23     -0.24      0.00
   -4    6   23     -0.81      0.00
  -13    7   23      1.28      0.00
  -11    7   23      4.11      0.00
   -9    7   23      3.01      0.00
  -24    0   24      4.05      0.00
  -22    0   24      2.67      0.00
  -20    0   24      1.78      0.00
  -18    0   24      2.57      0.00
  -16    0   24      3.29      0.00
  -14    0   24      1.92      0.00
  -12    0   24      1.09      0.00
  -10    0   24      3.84      0.00
   -8    0   24      7.33      0.00
   -6    0   24      6.78      0.00
   -4    0   24      2.62      0.00
   -2    0   24     -0.14      0.00
    0    0   24      0.80      0.00
    2    0   24      2.02      0.00
  -25    1   24     -4.94      0.00
  -23    1   24     -2.73      0.00
  -21    1   24      1.15      0.00
  -19    1   24      1.70      0.00
  -17    1   24      0.13      0.00
  -15    1   24     -0.67      0.00
  -13    1   24     -0.92      0.00
  -11    1   24     -0.72      0.00
   -9    1   24      1.31      0.00
   -7    1   24      3.97      0.00
   -5    1   24      4.38      0.00
   -3    1   24      2.54      0.00
   -1    1   24      0.33      0.00
    1    1   24     -1.21      0.00
  -24    2   24     -0.05      0.00
  -22    2   24      1.76      0.00
  -20    2   24      2.32      0.00
  -18    2   24      2.82      0.00
  -16    2   24      3.39      0.00
  -14    2   24      3.49      0.00
  -12    2   24      3.91      0.00
  -10    2   24      3.43      0.00
   -8    2   24      0.54      0.00
   -6    2   24     -0.72      0.00
   -4    2   24      2.48      0.00
   -2    2   24      4.45      0.00
    0    2   24      1.29      0.00
    2    2   24     -2.07      0.00
  -23    3   24     -5.99      0.00
  -21    3   24     -5.15      0.00
  -19    3   24     -2.52      0.00
  -17    3   24     -0.86      0.00
  -15    3   24     -0.68      0.00
  -13    3   24     -0.39      0.00
  -11    3   24      0.42      0.00
   -9    3   24      1.42      0.00
   -7    3   24      2.15      0.00
   -5    3   24      1.40      0.00
   -3    3   24     -0.50      0.00
   -1    3   24     -0.95      0.00
    1    3   24      0.28      0.00
  -22    4   24      0.85      0.00
  -20    4   24     -0.51      0.00
  -18    4   24     -0.51      0.00
  -16    4   24     -0.81      0.00
  -14    4   24     -1.98      0.00
  -12    4   24     -2.10      0.00
  -10    4   24      0.20      0.00
   -8    4   24      3.08      0.00
   -6    4   24      3.26      0.00
   -4    4   24      0.99      0.00
   -2    4   24     -0.08      0.00
  -19    5   24      1.72      0.00
  -17    5   24      1.17      0.00
  -15    5   24     -0.26      0.00
  -13    5   24      0.04      0.00
  -11    5   24      1.69      0.00
   -9    5   24      1.05      0.00
   -7    5   24     -1.31      0.00
   -5    5   24     -1.65      0.00
   -3    5   24     -0.18      0.00
  -16    6   24      2.53      0.00
  -14    6   24     -0.26      0.00
  -12    6   24     -1.39      0.00
  -10    6   24      0.86      0.00
   -8    6   24      3.27      0.00
  -23    1   25      1.16      0.00
  -21    1   25      0.98      0.00
  -19    1   25      2.06      0.00
  -17    1   25      1.44      0.00
  -15    1   25     -0.33      0.00
  -13    1   25     -0.64      0.00
  -11    1   25     -0.33      0.00
   -9    1   25     -0.44      0.00
   -7    1   25     -0.01      0.00
   -5    1   25      0.51      0.00
   -3    1   25      0.64      0.00
   -1    1   25      0.96      0.00
  -22    2   25     -1.09      0.00
  -20    2   25      1.63      0.00
  -18    2   25      1.80      0.00
  -16    2   25     -0.36      0.00
  -14    2   25     -1.67      0.00
  -12    2   25     -1.49      0.00
  -10    2   25     -0.25      0.00
   -8    2   25      1.78      0.00
   -6    2   25      2.09      0.00
   -4    2   25     -0.40      0.00
   -2    2   25     -1.74      0.00
  -21    3   25     -4.83      0.00
  -19    3   25     -2.24      0.00
  -17    3   25      1.14      0.00
  -15    3   25      2.05      0.00
  -13    3   25      2.20      0.00
  -11    3   25      2.38      0.00
   -9    3   25      0.23      0.00
   -7    3   25     -3.49      0.00
   -5    3   25     -4.82      0.00
   -3    3   25     -2.93      0.00
  -20    4   25      1.66      0.00
  -18    4   25      0.89      0.00
  -16    4   25     -0.40      0.00
  -14    4   25     -1.16      0.00
  -12    4   25     -0.54      0.00
  -10    4   25      2.14      0.00
   -8    4   25      4.99      0.00
   -6    4   25      4.52      0.00
   -4    4   25      1.71      0.00
  -17    5   25      0.58      0.00
  -15    5   25      0.65      0.00
  -13    5   25      0.26      0.00
  -11    5   25      0.04      0.00
   -9    5   25     -1.32      0.00
   -7    5   25     -3.35      0.00
  -22    0   26      0.36      0.00
  -20    0   26     -1.56      0.00
  -18    0   26     -5.10      0.00
  -16    0   26     -5.89      0.00
  -14    0   26     -4.01      0.00
  -12    0   26     -1.67      0.00
  -10    0   26      0.63      0.00
   -8    0   26      1.54      0.00
   -6    0   26      0.11      0.00
   -4    0   26     -1.73      0.00
   -2    0   26     -2.66      0.00
  -21    1   26     -0.94      0.00
  -19    1   26      0.54      0.00
  -17    1   26      0.22      0.00
  -15    1   26     -0.15      0.00
  -13    1   26      0.06      0.00
  -11    1   26     -1.51      0.00
   -9    1   26     -4.04      0.00
   -7    1   26     -4.29      0.00
   -5    1   26     -2.50      0.00
   -3    1   26     -0.53      0.00
  -22    2   26      6.45      0.00
  -20    2   26      1.27      0.00
  -18    2   26     -2.08      0.00
  -16    2   26     -2.22      0.00
  -14    2   26     -1.62      0.00
  -12    2   26     -1.85      0.00
  -10    2   26     -1.56      0.00
   -8    2   26     -0.61      0.00
   -6    2   26     -1.46      0.00
   -4    2   26     -3.56      0.00
  -19    3   26     -0.36      0.00
  -17    3   26     -0.87      0.00
  -15    3   26     -0.65      0.00
  -13    3   26     -0.36      0.00
  -11    3   26     -0.13      0.00
   -9    3   26      0.39      0.00
   -7    3   26      1.26      0.00
   -5    3   26      1.60      0.00
  -18    4   26      3.51      0.00
  -16    4   26      3.88      0.00
  -14    4   26      2.62      0.00
  -12    4   26     -1.00      0.00
  -10    4   26     -4.57      0.00
   -8    4   26     -5.58      0.00
  -19    1   27     -3.45      0.00
  -17    1   27     -1.13      0.00
  -15    1   27      0.95      0.00
  -13    1   27      1.50      0.00
  -11    1   27      2.76      0.00
   -9    1   27      3.16      0.00
   -7    1   27      0.27      0.00
   -5    1   27     -2.69      0.00
  -20    2   27      2.46      0.00
  -18    2   27      1.61      0.00
  -16    2   27      1.47      0.00
  -14    2   27      1.55      0.00
  -12    2   27      0.01      0.00
  -10    2   27     -2.26      0.00
   -8    2   27     -1.13      0.00
   -6    2   27      3.91      0.00
  -17    3   27     -0.49      0.00
  -15    3   27      1.37      0.00
  -13    3   27      1.22      0.00
  -11    3   27     -0.40      0.00
   -9    3   27     -0.80      0.00
  -18    0   28      2.15      0.00
  -16    0   28      2.49      0.00
  -14    0   28      1.68      0.00
  -12    0   28     -1.70      0.00
  -10    0   28     -4.61      0.00
  -17    1   28      3.21      0.00
  -15    1   28      2.39      0.00
  -13    1   28      2.06      0.00
  -11    1   28      2.87      0.00
   -9    1   28      1.96      0.00
  -14    2   28      0.06      0.00
  -12    2   28      1.02      0.00
    2    0    0    358.16      0.00
   28    0    0      0.92      0.00
   27    1    0     -3.16      0.00
   26    2    0      6.56      0.00
   27    3    0     -0.59      0.00
   26    4    0     -4.76      0.00
   25    5    0      3.04      0.00
   24    6    0      1.84      0.00
   23    7    0      2.07      0.00
   20    8    0     -2.00      0.00
   22    8    0      1.78      0.00
   19    9    0     -2.66      0.00
   16   10    0     -1.63      0.00
   11   11    0     -0.07      0.00
   13   11    0      0.25      0.00
    0   12    0     -0.82      0.00
    2   12    0     -0.28      0.00
    4   12    0      0.66      0.00
    6   12    0      1.28      0.00
    8   12    0      1.41      0.00
   10   12    0      0.78      0.00
  -27    1    1      2.08      0.00
   27    1    1      3.11      0.00
  -28    2    1     -4.09      0.00
   26    2    1     -2.12      0.00
  -27    3    1     11.46      0.00
   25    3    1     22.03      0.00
   27    3    1      9.35      0.00
  -26    4    1     -1.16      0.00
   26    4    1     -2.71      0.00
  -25    5    1     -2.25      0.00
   25    5    1      1.07      0.00
  -24    6    1      1.19      0.00
   24    6    1     -1.98      0.00
  -23    7    1     -7.55      0.00
   21    7    1     -3.31      0.00
   23    7    1     -2.19      0.00
  -22    8    1      2.37      0.00
  -20    8    1      1.42      0.00
   20    8    1      4.68      0.00
  -19    9    1      0.23      0.00
   17    9    1     -0.47      0.00
   19    9    1     -2.11      0.00
  -18   10    1      1.01      0.00
  -16   10    1     -1.70      0.00
   14   10    1     -2.50      0.00
   16   10    1     -0.41      0.00
  -15   11    1      1.21      0.00
  -13   11    1      1.14      0.00
  -11   11    1     -0.36      0.00
   11   11    1      3.11      0.00
   13   11    1      0.81      0.00
  -10   12    1      0.71      0.00
   -8   12    1      0.78      0.00
   -6   12    1     -0.02      0.00
   -4   12    1      0.41      0.00
   -2   12    1      2.15      0.00
    0   12    1      3.17      0.00
    2   12    1      2.61      0.00
    4   12    1      1.68      0.00
    6   12    1      0.98      0.00
    8   12    1     -0.06      0.00
   10   12    1     -0.77      0.00
  -28    0    2     -4.28      0.00
   -2    0    2   -258.62      0.00
    0    0    2   -201.16      0.00
   26    0    2      3.96      0.00
  -29    1    2      2.85      0.00
  -27    1    2      3.57      0.00
   25    1    2     -1.00      0.00
   27    1    2     -5.31      0.00
  -28    2    2     -2.16      0.00
   26    2    2     11.06      0.00
  -27    3    2     -2.55      0.00
   25    3    2      1.37      0.00
  -26    4    2      2.96      0.00
   24    4    2      1.77      0.00
  -25    5    2      1.92      0.00
   23    5    2     -2.65      0.00
   25    5    2     -2.29      0.00
  -24    6    2     -4.94      0.00
   22    6    2      0.06      0.00
   24    6    2     -0.09      0.00
  -23    7    2     -1.81      0.00
   21    7    2     -3.57      0.00
  -22    8    2      2.14      0.00
   20    8    2      2.72      0.00
  -21    9    2     -2.19      0.00
  -19    9    2     -2.57      0.00
   17    9    2      5.38      0.00
   19    9    2      3.30      0.00
  -18   10    2      0.43      0.00
  -16   10    2     -1.15      0.00
   14   10    2      3.46      0.00
   16   10    2      0.18      0.00
  -15   11    2      0.97      0.00
  -13   11    2     -0.13      0.00
  -11   11    2     -2.31      0.00
   11   11    2     -1.03      0.00
   13   11    2     -1.00      0.00
  -10   12    2      0.20      0.00
   -8   12    2     -0.04      0.00
   -6   12    2      0.85      0.00
   -4   12    2      1.81      0.00
   -2   12    2      0.41      0.00
    0   12    2     -2.13      0.00
    2   12    2     -2.62      0.00
    4   12    2     -1.40      0.00
    6   12    2     -0.82      0.00
    8   12    2     -0.64      0.00
  -29    1    3     -2.85      0.00
   25    1    3      3.69      0.00
  -28    2    3     -0.52      0.00
   26    2    3     -4.72      0.00
  -27    3    3      6.93      0.00
   25    3    3    -10.91      0.00
  -28    4    3     -2.57      0.00
  -26    4    3     -5.13      0.00
   24    4    3     -2.31      0.00
  -27    5    3     -2.04      0.00
  -25    5    3     -1.95      0.00
   23    5    3     -3.43      0.00
  -26    6    3      1.61      0.00
  -24    6    3      2.82      0.00
   22    6    3      4.68      0.00
  -25    7    3      1.38      0.00
  -23    7    3      1.32      0.00
   21    7    3     -8.10      0.00
  -22    8    3      3.05      0.00
   18    8    3     -0.11      0.00
   20    8    3      2.90      0.00
  -21    9    3     -0.20      0.00
  -19    9    3     -2.25      0.00
   17    9    3      2.62      0.00
  -18   10    3     -0.24      0.00
  -16   10    3      2.39      0.00
   14   10    3      0.05      0.00
   16   10    3      0.97      0.00
  -15   11    3      1.70      0.00
  -13   11    3      2.13      0.00
    9   11    3     -3.80      0.00
   11   11    3     -0.22      0.00
   13   11    3      1.80      0.00
  -10   12    3     -0.47      0.00
   -8   12    3      1.68      0.00
   -6   12    3      2.22      0.00
   -4   12    3      1.02      0.00
   -2   12    3     -0.84      0.00
    0   12    3     -2.52      0.00
    2   12    3     -3.32      0.00
    4   12    3     -2.68      0.00
    6   12    3     -0.93      0.00
    8   12    3      0.31      0.00
  -28    0    4      5.16      0.00
   24    0    4     -6.75      0.00
   26    0    4     -4.63      0.00
  -29    1    4     -0.86      0.00
   25    1    4      5.45      0.00
  -28    2    4     -7.58      0.00
   24    2    4    -27.41      0.00
  -29    3    4      1.97      0.00
  -27    3    4      5.48      0.00
   25    3    4      0.73      0.00
  -28    4    4      1.23      0.00
   24    4    4     -2.93      0.00
  -27    5    4     -3.66      0.00
   23    5    4      3.95      0.00
  -26    6    4      0.86      0.00
   22    6    4      0.13      0.00
  -25    7    4      2.44      0.00
  -23    7    4      4.95      0.00
   19    7    4     -1.39      0.00
   21    7    4     -1.67      0.00
  -22    8    4     -2.23      0.00
   18    8    4     -0.14      0.00
   20    8    4      0.41      0.00
  -21    9    4     -0.32      0.00
  -19    9    4     -4.25      0.00
   15    9    4     -4.29      0.00
   17    9    4     -2.51      0.00
  -18   10    4      2.34      0.00
  -16   10    4      1.00      0.00
   12   10    4     -2.60      0.00
   14   10    4     -0.91      0.00
  -15   11    4      0.25      0.00
  -13   11    4      0.67      0.00
    9   11    4      2.64      0.00
   11   11    4      1.56      0.00
  -10   12    4      0.69      0.00
   -8   12    4     -0.06      0.00
   -6   12    4     -1.52      0.00
   -4   12    4     -0.57      0.00
   -2   12    4      2.33      0.00
    0   12    4      3.51      0.00
    2   12    4      2.41      0.00
    4   12    4      1.30      0.00
    6   12    4      0.93      0.00
    8   12    4      0.73      0.00
  -29    1    5      0.50      0.00
   25    1    5     -7.33      0.00
  -28    2    5      4.23      0.00
   24    2    5      6.54      0.00
  -29    3    5     -5.54      0.00
   23    3    5      3.88      0.00
  -28    4    5      1.92      0.00
   22    4    5     -1.20      0.00
   24    4    5      1.94      0.00
  -27    5    5      4.96      0.00
   21    5    5      4.43      0.00
   23    5    5      4.44      0.00
  -26    6    5     -2.46      0.00
   20    6    5      1.28      0.00
   22    6    5      0.81      0.00
  -25    7    5      0.07      0.00
  -23    7    5     -0.14      0.00
   19    7    5      5.91      0.00
  -24    8    5     -3.54      0.00
  -22    8    5     -3.15      0.00
   18    8    5     -1.29      0.00
  -21    9    5      4.01      0.00
  -19    9    5      5.82      0.00
   15    9    5     -1.32      0.00
   17    9    5     -0.86      0.00
  -18   10    5     -2.84      0.00
  -16   10    5     -2.52      0.00
   12   10    5      0.50      0.00
   14   10    5     -0.24      0.00
  -15   11    5      0.20      0.00
  -13   11    5      1.41      0.00
    7   11    5      4.23      0.00
    9   11    5      2.47      0.00
   11   11    5      0.07      0.00
  -12   12    5     -1.33      0.00
  -10   12    5     -2.07      0.00
   -8   12    5     -2.10      0.00
   -6   12    5     -1.51      0.00
   -4   12    5     -0.70      0.00
   -2   12    5      0.40      0.00
    0   12    5      1.73      0.00
    2   12    5      2.30      0.00
    4   12    5      1.44      0.00
    6   12    5      0.26      0.00
  -30    0    6     -1.70      0.00
   24    0    6      3.54      0.00
  -29    1    6      2.58      0.00
   23    1    6     -0.94      0.00
  -30    2    6      3.26      0.00
  -28    2    6     -2.98      0.00
   24    2    6     19.54      0.00
  -29    3    6     -0.27      0.00
   23    3    6      3.30      0.00
  -28    4    6     -2.07      0.00
   22    4    6     -2.97      0.00
  -27    5    6      2.60      0.00
   21    5    6     -5.96      0.00
  -26    6    6     -0.76      0.00
   20    6    6      2.58      0.00
  -25    7    6      0.18      0.00
   19    7    6      1.92      0.00
  -24    8    6     -2.18      0.00
  -22    8    6     -5.25      0.00
   16    8    6     -3.52      0.00
   18    8    6     -1.94      0.00
  -21    9    6      2.57      0.00
   15    9    6     -1.52      0.00
  -18   10    6     -0.83      0.00
   12   10    6     -1.54      0.00
   14   10    6      1.05      0.00
  -15   11    6      1.31      0.00
  -13   11    6      2.79      0.00
    7   11    6     -3.33      0.00
    9   11    6     -2.12      0.00
   11   11    6     -0.02      0.00
  -12   12    6     -1.69      0.00
  -10   12    6     -1.30      0.00
   -8   12    6      0.00      0.00
   -6   12    6      0.69      0.00
   -4   12    6     -0.32      0.00
   -2   12    6     -2.35      0.00
    0   12    6     -3.77      0.00
    2   12    6     -3.46      0.00
    4   12    6     -1.88      0.00
    6   12    6     -0.72      0.00
  -29    1    7      2.28      0.00
   23    1    7      7.95      0.00
  -30    2    7     -0.57      0.00
   22    2    7     -6.74      0.00
  -29    3    7     -0.90      0.00
   23    3    7      9.10      0.00
  -28    4    7     -0.82      0.00
   22    4    7     -3.16      0.00
  -27    5    7     -2.77      0.00
   21    5    7     -3.87      0.00
  -26    6    7     -1.51      0.00
   20    6    7     -1.40      0.00
  -25    7    7      2.23      0.00
   17    7    7      0.29      0.00
   19    7    7     -1.60      0.00
  -24    8    7      3.71      0.00
  -22    8    7      5.70      0.00
   16    8    7      2.42      0.00
  -21    9    7     -3.50      0.00
   13    9    7     -0.47      0.00
   15    9    7     -1.37      0.00
  -20   10    7      0.27      0.00
  -18   10    7      0.17      0.00
   10   10    7     -1.93      0.00
   12   10    7     -1.49      0.00
  -15   11    7     -0.34      0.00
  -13   11    7     -0.19      0.00
    5   11    7     -2.70      0.00
    7   11    7     -3.42      0.00
    9   11    7     -1.77      0.00
  -10   12    7      0.44      0.00
   -8   12    7      0.39      0.00
   -6   12    7     -0.43      0.00
   -4   12    7     -0.52      0.00
   -2   12    7     -0.39      0.00
    0   12    7     -1.50      0.00
    2   12    7     -2.57      0.00
    4   12    7     -2.14      0.00
  -30    0    8      0.21      0.00
   22    0    8     -2.91      0.00
  -29    1    8     -2.65      0.00
   23    1    8     -2.96      0.00
  -30    2    8     -2.01      0.00
   22    2    8    -20.29      0.00
  -29    3    8     -0.11      0.00
   21    3    8     -4.12      0.00
  -28    4    8      2.20      0.00
   20    4    8      5.62      0.00
   22    4    8      2.00      0.00
  -27    5    8      0.56      0.00
   19    5    8      2.79      0.00
   21    5    8      0.88      0.00
  -26    6    8     -1.09      0.00
   18    6    8     -1.81      0.00
   20    6    8      1.08      0.00
  -25    7    8     -0.21      0.00
   17    7    8     -2.14      0.00
  -24    8    8     -1.44      0.00
  -22    8    8     -4.01      0.00
   16    8    8      2.06      0.00
  -21    9    8      4.76      0.00
   13    9    8      3.68      0.00
   15    9    8      2.59      0.00
  -20   10    8     -2.63      0.00
  -18   10    8     -2.81      0.00
   10   10    8      4.32      0.00
   12   10    8      1.70      0.00
  -15   11    8      0.15      0.00
  -13   11    8     -0.66      0.00
  -11   11    8     -0.34      0.00
    5   11    8      2.04      0.00
    7   11    8      0.79      0.00
    9   11    8     -0.06      0.00
  -10   12    8      0.12      0.00
   -8   12    8     -0.76      0.00
   -6   12    8     -1.79      0.00
   -4   12    8     -1.29      0.00
   -2   12    8      0.45      0.00
    0   12    8      0.89      0.00
    2   12    8     -0.17      0.00
    4   12    8     -0.55      0.00
  -29    1    9      0.06      0.00
   21    1    9     -2.28      0.00
  -30    2    9      0.70      0.00
   22    2    9     -3.47      0.00
  -29    3    9      2.08      0.00
   21    3    9    -10.73      0.00
  -28    4    9      1.48      0.00
   20    4    9     10.40      0.00
  -29    5    9      1.92      0.00
  -27    5    9      2.38      0.00
   19    5    9     -5.20      0.00
  -26    6    9      0.92      0.00
   18    6    9      3.02      0.00
  -25    7    9     -2.17      0.00
   17    7    9     -2.77      0.00
  -24    8    9      1.03      0.00
  -22    8    9      3.22      0.00
   14    8    9     -0.66      0.00
   16    8    9      0.66      0.00
  -21    9    9     -1.18      0.00
   11    9    9     -2.11      0.00
   13    9    9     -0.72      0.00
  -20   10    9     -0.13      0.00
  -18   10    9     -0.53      0.00
  -16   10    9     -0.35      0.00
    8   10    9      0.16      0.00
   10   10    9      0.62      0.00
  -15   11    9      0.12      0.00
  -13   11    9     -0.02      0.00
  -11   11    9     -1.68      0.00
    3   11    9      1.45      0.00
    5   11    9      2.47      0.00
    7   11    9      1.95      0.00
  -10   12    9     -0.13      0.00
   -8   12    9      1.19      0.00
   -6   12    9      1.79      0.00
   -4   12    9      0.63      0.00
   -2   12    9      0.13      0.00
    0   12    9      0.74      0.00
    2   12    9      0.57      0.00
  -30    0   10      1.47      0.00
   20    0   10      1.70      0.00
   22    0   10     -1.51      0.00
   21    1   10      6.97      0.00
  -30    2   10      0.48      0.00
   20    2   10      8.96      0.00
  -29    3   10     -1.06      0.00
   19    3   10      2.80      0.00
   21    3   10      6.41      0.00
  -30    4   10     -0.73      0.00
  -28    4   10     -1.12      0.00
   20    4   10     -1.36      0.00
  -29    5   10      0.54      0.00
  -27    5   10      0.01      0.00
   19    5   10     -0.44      0.00
  -28    6   10      1.17      0.00
  -26    6   10     -0.73      0.00
   16    6   10      3.33      0.00
   18    6   10      0.11      0.00
  -25    7   10     -2.28      0.00
   15    7   10      1.81      0.00
   17    7   10      0.80      0.00
  -24    8   10      1.93      0.00
  -22    8   10      2.64      0.00
   14    8   10     -3.03      0.00
  -21    9   10      0.13      0.00
   11    9   10     -1.38      0.00
   13    9   10     -0.93      0.00
  -20   10   10      1.43      0.00
  -18   10   10     -0.25      0.00
  -16   10   10     -1.88      0.00
    8   10   10     -4.50      0.00
   10   10   10     -4.20      0.00
  -15   11   10     -0.35      0.00
  -13   11   10     -0.79      0.00
  -11   11   10     -1.10      0.00
    1   11   10     -1.43      0.00
    3   11   10     -0.85      0.00
    5   11   10     -0.56      0.00
    7   11   10     -0.37      0.00
  -10   12   10      0.50      0.00
   -8   12   10      1.08      0.00
   -6   12   10      1.69      0.00
   -4   12   10      1.14      0.00
   -2   12   10      0.34      0.00
    0   12   10      0.09      0.00
   19    1   11     -1.31      0.00
   21    1   11     -0.82      0.00
  -30    2   11     -0.11      0.00
   20    2   11      7.03      0.00
  -29    3   11     -1.88      0.00
   19    3   11      3.40      0.00
  -30    4   11     -0.73      0.00
  -28    4   11     -1.46      0.00
   18    4   11     -9.63      0.00
  -29    5   11     -1.51      0.00
  -27    5   11     -0.33      0.00
   17    5   11     -0.15      0.00
  -28    6   11     -0.55      0.00
  -26    6   11     -0.13      0.00
   16    6   11      4.88      0.00
  -25    7   11      3.66      0.00
   15    7   11      0.22      0.00
  -24    8   11     -2.68      0.00
  -22    8   11     -2.23      0.00
   12    8   11      1.75      0.00
   14    8   11      1.87      0.00
  -21    9   11     -0.05      0.00
    9    9   11      3.05      0.00
   11    9   11      1.37      0.00
  -20   10   11     -0.20      0.00
  -18   10   11     -2.32      0.00
  -16   10   11     -1.16      0.00
    6   10   11      2.42      0.00
    8   10   11      0.00      0.00
  -15   11   11     -0.15      0.00
  -13   11   11      0.43      0.00
  -11   11   11      2.06      0.00
   -9   11   11      1.75      0.00
   -7   11   11     -1.09      0.00
   -3   11   11     -1.78      0.00
   -1   11   11     -0.41      0.00
    1   11   11     -0.41      0.00
    3   11   11     -1.43      0.00
    5   11   11     -1.63      0.00
   -8   12   11     -1.54      0.00
   -6   12   11     -1.47      0.00
   -4   12   11     -0.46      0.00
   -2   12   11      0.27      0.00
  -30    0   12      3.37      0.00
   18    0   12     -3.37      0.00
   20    0   12     -3.96      0.00
   19    1   12     -3.83      0.00
  -30    2   12      1.97      0.00
   18    2   12     -0.87      0.00
   20    2   12      2.24      0.00
  -29    3   12      0.43      0.00
   19    3   12     -6.36      0.00
  -30    4   12      0.70      0.00
  -28    4   12      2.90      0.00
   18    4   12      1.16      0.00
  -29    5   12     -1.53      0.00
  -27    5   12      1.31      0.00
   17    5   12     -2.86      0.00
  -28    6   12      0.00      0.00
  -26    6   12      0.38      0.00
   16    6   12      0.94      0.00
  -25    7   12      3.05      0.00
   13    7   12     -2.10      0.00
   15    7   12     -2.26      0.00
  -24    8   12     -0.14      0.00
  -22    8   12     -2.90      0.00
   12    8   12      2.32      0.00
  -21    9   12      0.49      0.00
  -19    9   12      1.05      0.00
    9    9   12      3.75      0.00
   11    9   12      2.24      0.00
  -18   10   12      2.84      0.00
  -16   10   12      2.29      0.00
    4   10   12      1.36      0.00
    6   10   12      1.88      0.00
    8   10   12      1.48      0.00
  -15   11   12      0.33      0.00
  -13   11   12      1.10      0.00
  -11   11   12      0.99      0.00
   -9   11   12      0.70      0.00
   -7   11   12      0.86      0.00
   -5   11   12      0.84      0.00
   -3   11   12     -0.02      0.00
   -1   11   12     -0.43      0.00
    1   11   12      0.69      0.00
    3   11   12      1.39      0.00
   17    1   13      1.98      0.00
   19    1   13     -0.61      0.00
  -30    2   13      1.84      0.00
   18    2   13     -6.23      0.00
  -29    3   13     -4.28      0.00
   17    3   13      1.05      0.00
  -30    4   13     -0.67      0.00
  -28    4   13     -1.48      0.00
   16    4   13      4.65      0.00
  -29    5   13      3.12      0.00
  -27    5   13     -0.10      0.00
   15    5   13      0.35      0.00
   17    5   13      0.15      0.00
  -28    6   13     -1.33      0.00
  -26    6   13     -0.86      0.00
   14    6   13     -1.15      0.00
  -25    7   13     -2.27      0.00
   13    7   13     -1.29      0.00
  -24    8   13      0.46      0.00
  -22    8   13      0.85      0.00
   10    8   13     -2.52      0.00
   12    8   13     -1.43      0.00
  -21    9   13     -2.73      0.00
  -19    9   13     -3.34      0.00
    7    9   13     -2.12      0.00
    9    9   13      0.59      0.00
  -18   10   13      0.73      0.00
  -16   10   13     -1.94      0.00
    2   10   13     -1.33      0.00
    4   10   13     -0.24      0.00
    6   10   13      1.31      0.00
  -15   11   13     -0.76      0.00
  -13   11   13     -0.86      0.00
  -11   11   13      0.14      0.00
   -9   11   13      2.41      0.00
   -7   11   13      3.63      0.00
   -5   11   13      2.63      0.00
   -3   11   13      1.17      0.00
   -1   11   13      0.86      0.00
    1   11   13      1.19      0.00
  -30    0   14     -3.16      0.00
   18    0   14     -1.30      0.00
   17    1   14      6.63      0.00
  -30    2   14      2.77      0.00
   16    2   14     -3.18      0.00
   18    2   14     -4.10      0.00
  -29    3   14     -2.14      0.00
   17    3   14      3.14      0.00
  -30    4   14      0.02      0.00
  -28    4   14      2.07      0.00
   16    4   14     -0.72      0.00
  -29    5   14     -1.67      0.00
  -27    5   14     -7.93      0.00
   15    5   14     -3.65      0.00
  -28    6   14     -0.71      0.00
  -26    6   14     -1.21      0.00
   12    6   14      1.53      0.00
   14    6   14     -0.42      0.00
  -25    7   14     -2.25      0.00
   11    7   14     -2.87      0.00
   13    7   14     -0.29      0.00
  -24    8   14     -1.01      0.00
  -22    8   14     -0.70      0.00
    8    8   14      1.21      0.00
   10    8   14     -0.22      0.00
  -21    9   14      1.59      0.00
  -19    9   14      0.96      0.00
    5    9   14     -1.26      0.00
    7    9   14     -3.05      0.00
    9    9   14     -1.51      0.00
  -18   10   14     -2.01      0.00
  -16   10   14     -0.20      0.00
  -14   10   14      1.54      0.00
    0   10   14     -0.55      0.00
    2   10   14     -0.56      0.00
    4   10   14      0.50      0.00
    6   10   14      1.10      0.00
  -13   11   14     -2.03      0.00
  -11   11   14     -1.35      0.00
   -9   11   14     -0.29      0.00
   -7   11   14     -0.17      0.00
   -5   11   14     -0.45      0.00
   -3   11   14     -0.52      0.00
   -1   11   14     -0.96      0.00
    1   11   14     -1.39      0.00
   15    1   15     -2.38      0.00
   17    1   15     -0.37      0.00
  -30    2   15      0.93      0.00
   16    2   15      2.74      0.00
  -29    3   15      2.97      0.00
   15    3   15     -0.79      0.00
  -30    4   15     -0.43      0.00
  -28    4   15      1.10      0.00
   14    4   15     -2.03      0.00
   16    4   15      0.47      0.00
  -29    5   15      2.93      0.00
  -27    5   15      5.62      0.00
   13    5   15      0.70      0.00
   15    5   15     -1.06      0.00
  -28    6   15     -0.44      0.00
  -26    6   15      0.51      0.00
   12    6   15     -1.51      0.00
  -25    7   15      1.20      0.00
    9    7   15      3.69      0.00
   11    7   15      2.63      0.00
  -24    8   15     -0.10      0.00
  -22    8   15      1.73      0.00
    8    8   15      0.11      0.00
   10    8   15     -0.64      0.00
  -21    9   15      0.51      0.00
  -19    9   15     -1.28      0.00
    5    9   15      3.91      0.00
    7    9   15      2.02      0.00
  -18   10   15      1.95      0.00
  -16   10   15      3.02      0.00
  -14   10   15      2.09      0.00
  -12   10   15      0.09      0.00
   -2   10   15      0.51      0.00
    0   10   15     -1.92      0.00
    2   10   15     -2.89      0.00
    4   10   15     -2.01      0.00
  -13   11   15     -0.22      0.00
  -11   11   15     -0.42      0.00
   -9   11   15     -0.47      0.00
   -7   11   15     -0.51      0.00
   -5   11   15     -0.48      0.00
   -3   11   15     -0.30      0.00
  -30    0   16      3.12      0.00
   14    0   16     -0.94      0.00
   16    0   16      1.46      0.00
   15    1   16     -5.15      0.00
  -30    2   16     -2.45      0.00
   14    2   16      1.91      0.00
   16    2   16      1.33      0.00
  -29    3   16      3.27      0.00
   13    3   16     -0.60      0.00
   15    3   16     -2.46      0.00
  -30    4   16     -4.05      0.00
  -28    4   16     -4.94      0.00
   14    4   16      4.83      0.00
  -29    5   16      6.03      0.00
  -27    5   16      8.49      0.00
   13    5   16      5.50      0.00
  -26    6   16      1.47      0.00
   10    6   16     -1.39      0.00
   12    6   16      2.54      0.00
  -25    7   16      1.28      0.00
  -23    7   16     -0.46      0.00
    9    7   16      4.96      0.00
   11    7   16      2.56      0.00
  -24    8   16     -0.11      0.00
  -22    8   16      1.68      0.00
    6    8   16     -1.00      0.00
    8    8   16     -1.05      0.00
  -21    9   16      2.44      0.00
  -19    9   16      1.95      0.00
  -17    9   16     -0.92      0.00
    3    9   16     -1.90      0.00
    5    9   16     -0.74      0.00
  -18   10   16      0.08      0.00
  -16   10   16      0.17      0.00
  -14   10   16      1.42      0.00
  -12   10   16      1.71      0.00
  -10   10   16     -0.85      0.00
   -8   10   16     -3.82      0.00
   -6   10   16     -4.34      0.00
   -4   10   16     -2.61      0.00
   -2   10   16     -0.40      0.00
    0   10   16      0.57      0.00
    2   10   16      0.12      0.00
   -9   11   16      0.75      0.00
   -7   11   16      2.18      0.00
   -5   11   16      2.00      0.00
  -29    1   17     -0.92      0.00
   13    1   17      0.95      0.00
   15    1   17      1.01      0.00
  -30    2   17     -1.21      0.00
   14    2   17      0.77      0.00
  -29    3   17      1.31      0.00
   13    3   17      1.22      0.00
  -28    4   17     -7.54      0.00
   12    4   17      7.77      0.00
  -27    5   17      1.14      0.00
   11    5   17     -0.99      0.00
  -26    6   17     -3.34      0.00
   10    6   17     -0.26      0.00
  -25    7   17      2.28      0.00
  -23    7   17      4.24      0.00
    7    7   17     -2.20      0.00
    9    7   17     -0.45      0.00
  -22    8   17     -4.41      0.00
  -20    8   17     -5.03      0.00
    4    8   17     -3.89      0.00
    6    8   17     -1.73      0.00
  -21    9   17      1.38      0.00
  -19    9   17      2.33      0.00
  -17    9   17      0.57      0.00
    1    9   17      1.13      0.00
    3    9   17     -0.74      0.00
    5    9   17     -2.21      0.00
  -16   10   17     -1.63      0.00
  -14   10   17      0.36      0.00
  -12   10   17      2.87      0.00
  -10   10   17      3.54      0.00
   -8   10   17      1.15      0.00
   -6   10   17     -2.29      0.00
   -4   10   17     -3.20      0.00
   -2   10   17     -1.25      0.00
    0   10   17      0.34      0.00
  -30    0   18      0.56      0.00
   12    0   18      0.17      0.00
   14    0   18     -1.05      0.00
  -29    1   18      0.80      0.00
   13    1   18      6.41      0.00
  -30    2   18     -0.40      0.00
   12    2   18     -3.96      0.00
   14    2   18     -1.56      0.00
  -29    3   18      3.62      0.00
   11    3   18     -0.30      0.00
   13    3   18      1.27      0.00
  -28    4   18     -2.96      0.00
   10    4   18     -1.27      0.00
   12    4   18     -2.95      0.00
  -27    5   18      0.99      0.00
    9    5   18      2.56      0.00
   11    5   18     -1.39      0.00
  -26    6   18     -5.59      0.00
  -24    6   18     -6.99      0.00
    8    6   18      0.15      0.00
   10    6   18     -2.57      0.00
  -25    7   18      2.35      0.00
  -23    7   18      2.89      0.00
    5    7   18      0.46      0.00
    7    7   18     -1.36      0.00
  -22    8   18     -4.45      0.00
  -20    8   18     -4.44      0.00
    2    8   18     -3.80      0.00
    4    8   18     -1.65      0.00
    6    8   18     -0.39      0.00
  -19    9   18      1.01      0.00
  -17    9   18      3.41      0.00
  -15    9   18      4.31      0.00
   -3    9   18      1.39      0.00
   -1    9   18      2.29      0.00
    1    9   18      2.23      0.00
    3    9   18      1.04      0.00
  -14   10   18     -1.97      0.00
  -12   10   18     -0.91      0.00
  -10   10   18      1.33      0.00
   -8   10   18      1.97      0.00
   -6   10   18      0.84      0.00
   -4   10   18     -0.35      0.00
   -2   10   18     -0.54      0.00
  -29    1   19      2.57      0.00
   11    1   19     -4.20      0.00
   13    1   19     -2.79      0.00
  -30    2   19     -2.52      0.00
  -28    2   19     -2.44      0.00
   10    2   19      5.17      0.00
   12    2   19      2.67      0.00
  -29    3   19      0.25      0.00
   11    3   19     -7.20      0.00
  -28    4   19      3.00      0.00
   10    4   19     -5.86      0.00
  -27    5   19      1.33      0.00
    9    5   19     -1.78      0.00
  -26    6   19      1.58      0.00
  -24    6   19      3.87      0.00
    6    6   19     -1.64      0.00
    8    6   19     -0.35      0.00
  -25    7   19     -1.81      0.00
  -23    7   19     -2.00      0.00
    5    7   19      2.29      0.00
    7    7   19      0.16      0.00
  -22    8   19      0.47      0.00
  -20    8   19      0.42      0.00
  -18    8   19     -0.89      0.00
    0    8   19      3.02      0.00
    2    8   19      4.15      0.00
    4    8   19      2.82      0.00
  -19    9   19     -1.12      0.00
  -17    9   19      0.81      0.00
  -15    9   19      1.67      0.00
  -13    9   19     -0.66      0.00
  -11    9   19     -3.46      0.00
   -9    9   19     -3.07      0.00
   -7    9   19      0.32      0.00
   -5    9   19      2.75      0.00
   -3    9   19      1.08      0.00
   -1    9   19     -2.19      0.00
    1    9   19     -2.45      0.00
  -12   10   19     -0.95      0.00
  -10   10   19     -1.34      0.00
   -8   10   19     -0.19      0.00
   -6   10   19      1.44      0.00
  -30    0   20      1.66      0.00
   10    0   20      0.92      0.00
   12    0   20     -1.47      0.00
  -29    1   20      1.59      0.00
    9    1   20     -4.81      0.00
   11    1   20     -3.79      0.00
  -30    2   20      1.35      0.00
  -28    2   20      4.40      0.00
   10    2   20      3.14      0.00
  -29    3   20     -2.67      0.00
  -27    3   20     -2.10      0.00
    9    3   20      2.85      0.00
   11    3   20      1.33      0.00
  -28    4   20      1.67      0.00
  -26    4   20     -0.45      0.00
    8    4   20     -3.74      0.00
   10    4   20     -1.37      0.00
  -27    5   20     -3.86      0.00
  -25    5   20     -2.00      0.00
    7    5   20     -3.60      0.00
    9    5   20     -1.89      0.00
  -26    6   20      2.18      0.00
  -24    6   20      1.05      0.00
    4    6   20      0.37      0.00
    6    6   20     -0.29      0.00
  -23    7   20     -0.05      0.00
  -21    7   20     -0.89      0.00
    3    7   20     -1.53      0.00
    5    7   20     -1.07      0.00
  -22    8   20      1.86      0.00
  -20    8   20      0.99      0.00
  -18    8   20     -1.42      0.00
  -16    8   20     -3.46      0.00
   -2    8   20      0.21      0.00
    0    8   20      1.88      0.00
    2    8   20      1.83      0.00
  -17    9   20     -1.83      0.00
  -15    9   20     -1.92      0.00
  -13    9   20     -1.22      0.00
  -11    9   20     -1.12      0.00
   -9    9   20     -1.25      0.00
   -7    9   20     -0.96      0.00
   -5    9   20     -0.83      0.00
   -3    9   20     -1.12      0.00
   -1    9   20     -1.20      0.00
  -29    1   21     -1.70      0.00
    9    1   21      2.74      0.00
  -30    2   21      1.40      0.00
  -28    2   21     -0.60      0.00
    8    2   21     -1.51      0.00
   10    2   21     -0.10      0.00
  -29    3   21     -0.22      0.00
  -27    3   21     -1.57      0.00
    7    3   21      2.86      0.00
    9    3   21      3.47      0.00
  -28    4   21     -1.09      0.00
  -26    4   21     -2.89      0.00
    6    4   21      0.16      0.00
    8    4   21      0.95      0.00
  -27    5   21      0.00      0.00
  -25    5   21      0.61      0.00
    5    5   21      0.15      0.00
    7    5   21      2.25      0.00
  -26    6   21     -0.83      0.00
  -24    6   21     -2.95      0.00
  -22    6   21     -2.13      0.00
    2    6   21     -0.77      0.00
    4    6   21      0.82      0.00
    6    6   21      1.23      0.00
  -23    7   21     -0.34      0.00
  -21    7   21     -1.32      0.00
  -19    7   21     -2.31      0.00
   -1    7   21      1.13      0.00
    1    7   21     -1.36      0.00
    3    7   21     -1.42      0.00
  -20    8   21      1.41      0.00
  -18    8   21      2.49      0.00
  -16    8   21      1.39      0.00
  -14    8   21      0.34      0.00
   -6    8   21      0.58      0.00
   -4    8   21     -0.84      0.00
   -2    8   21     -2.28      0.00
    0    8   21     -2.61      0.00
  -15    9   21     -0.14      0.00
  -13    9   21      0.79      0.00
  -11    9   21      1.33      0.00
   -9    9   21      0.48      0.00
   -7    9   21     -1.45      0.00
   -5    9   21     -2.05      0.00
  -30    0   22     -1.52      0.00
  -28    0   22     -5.00      0.00
    8    0   22      3.22      0.00
  -29    1   22     -4.98      0.00
  -27    1   22     -2.38      0.00
    7    1   22     -0.38      0.00
    9    1   22     -0.69      0.00
  -28    2   22      0.88      0.00
    6    2   22      0.75      0.00
    8    2   22     -0.99      0.00
  -29    3   22      1.30      0.00
  -27    3   22      0.83      0.00
    5    3   22     -1.11      0.00
    7    3   22     -0.56      0.00
  -28    4   22      1.26      0.00
  -26    4   22      0.58      0.00
    4    4   22      0.95      0.00
    6    4   22      3.27      0.00
  -27    5   22      0.97      0.00
  -25    5   22     -0.83      0.00
  -23    5   22     -3.36      0.00
    3    5   22     -1.08      0.00
    5    5   22      0.27      0.00
  -24    6   22      0.58      0.00
  -22    6   22     -0.15      0.00
    0    6   22     -1.71      0.00
    2    6   22     -0.31      0.00
    4    6   22      1.08      0.00
  -23    7   22      0.80      0.00
  -21    7   22      0.36      0.00
  -19    7   22     -1.90      0.00
  -17    7   22     -2.66      0.00
   -3    7   22      0.88      0.00
   -1    7   22      0.37      0.00
    1    7   22      0.44      0.00
  -18    8   22      2.69      0.00
  -16    8   22      4.11      0.00
  -14    8   22      3.13      0.00
  -12    8   22     -0.31      0.00
  -10    8   22     -3.07      0.00
   -8    8   22     -2.01      0.00
   -6    8   22      1.03      0.00
   -4    8   22      2.23      0.00
   -2    8   22      1.40      0.00
  -13    9   22     -0.20      0.00
  -11    9   22     -0.02      0.00
   -9    9   22     -0.55      0.00
  -29    1   23     -1.72      0.00
  -27    1   23     -2.84      0.00
    5    1   23      3.44      0.00
    7    1   23      1.34      0.00
  -28    2   23      1.49      0.00
  -26    2   23      1.65      0.00
    4    2   23     -4.52      0.00
    6    2   23     -3.81      0.00
  -27    3   23      3.61      0.00
  -25    3   23      2.51      0.00
    5    3   23      2.05      0.00
  -26    4   23      0.09      0.00
  -24    4   23      1.77      0.00
    2    4   23     -1.21      0.00
    4    4   23     -0.14      0.00
  -25    5   23      1.95      0.00
  -23    5   23      3.27      0.00
    1    5   23      0.71      0.00
    3    5   23      0.81      0.00
  -24    6   23      0.69      0.00
  -22    6   23      1.26      0.00
  -20    6   23      4.35      0.00
   -2    6   23     -0.34      0.00
    0    6   23      0.40      0.00
    2    6   23      0.31      0.00
  -21    7   23     -0.05      0.00
  -19    7   23     -1.03      0.00
  -17    7   23     -2.11      0.00
  -15    7   23     -1.74      0.00
   -7    7   23     -0.39      0.00
   -5    7   23     -1.85      0.00
   -3    7   23     -0.73      0.00
   -1    7   23      0.83      0.00
  -18    8   23     -0.26      0.00
  -16    8   23      0.19      0.00
  -14    8   23     -0.53      0.00
  -12    8   23     -1.50      0.00
  -10    8   23     -1.52      0.00
   -8    8   23     -0.84      0.00
   -6    8   23      0.17      0.00
   -4    8   23      0.86      0.00
  -28    0   24      3.85      0.00
  -26    0   24      4.58      0.00
    4    0   24      0.61      0.00
    6    0   24     -1.47      0.00
  -29    1   24      2.24      0.00
  -27    1   24     -1.78      0.00
    3    1   24     -1.31      0.00
    5    1   24     -0.31      0.00
  -28    2   24     -1.41      0.00
  -26    2   24     -1.77      0.00
    4    2   24     -1.98      0.00
  -27    3   24     -1.70      0.00
  -25    3   24     -4.18      0.00
    3    3   24      0.62      0.00
    5    3   24     -0.25      0.00
  -26    4   24      0.90      0.00
  -24    4   24      2.18      0.00
    0    4   24      0.74      0.00
    2    4   24      0.60      0.00
    4    4   24     -0.82      0.00
  -25    5   24     -0.27      0.00
  -23    5   24      0.87      0.00
  -21    5   24      1.37      0.00
   -1    5   24      0.62      0.00
    1    5   24      0.39      0.00
  -22    6   24     -0.80      0.00
  -20    6   24      0.71      0.00
  -18    6   24      2.78      0.00
   -6    6   24      3.44      0.00
   -4    6   24      2.53      0.00
   -2    6   24      1.75      0.00
    0    6   24      0.89      0.00
  -19    7   24      1.42      0.00
  -17    7   24      0.55      0.00
  -15    7   24     -0.61      0.00
  -13    7   24     -1.03      0.00
  -11    7   24     -0.56      0.00
   -9    7   24     -0.24      0.00
   -7    7   24     -0.78      0.00
   -5    7   24     -0.97      0.00
   -3    7   24     -0.18      0.00
  -14    8   24      0.17      0.00
  -12    8   24      1.86      0.00
  -10    8   24      2.23      0.00
   -8    8   24      0.92      0.00
  -27    1   25      1.98      0.00
  -25    1   25      2.40      0.00
    1    1   25      0.21      0.00
    3    1   25     -1.48      0.00
  -26    2   25     -1.15      0.00
  -24    2   25     -2.41      0.00
    0    2   25      0.39      0.00
    2    2   25      2.27      0.00
    4    2   25      1.12      0.00
  -27    3   25      0.12      0.00
  -25    3   25     -0.41      0.00
  -23    3   25     -3.29      0.00
   -1    3   25     -0.64      0.00
    1    3   25      0.01      0.00
    3    3   25     -0.51      0.00
  -26    4   25     -1.81      0.00
  -24    4   25     -0.93      0.00
  -22    4   25      0.86      0.00
   -2    4   25      0.79      0.00
    0    4   25      1.66      0.00
    2    4   25      1.34      0.00
  -23    5   25     -3.62      0.00
  -21    5   25     -3.16      0.00
  -19    5   25     -1.11      0.00
   -5    5   25     -3.65      0.00
   -3    5   25     -2.18      0.00
   -1    5   25     -1.00      0.00
  -22    6   25     -0.67      0.00
  -20    6   25     -3.06      0.00
  -18    6   25     -2.60      0.00
  -16    6   25      0.81      0.00
  -14    6   25      3.08      0.00
  -12    6   25      2.14      0.00
  -10    6   25      0.89      0.00
   -8    6   25      1.77      0.00
   -6    6   25      2.82      0.00
   -4    6   25      1.91      0.00
   -2    6   25      0.22      0.00
  -17    7   25     -0.70      0.00
  -15    7   25     -1.63      0.00
  -13    7   25     -2.87      0.00
  -11    7   25     -2.08      0.00
   -9    7   25      0.10      0.00
   -7    7   25      0.84      0.00
  -26    0   26     -1.70      0.00
  -24    0   26     -0.81      0.00
    0    0   26     -2.96      0.00
    2    0   26     -2.20      0.00
  -27    1   26      0.60      0.00
  -25    1   26     -0.68      0.00
  -23    1   26     -2.00      0.00
   -1    1   26      1.50      0.00
    1    1   26      2.95      0.00
  -26    2   26      5.11      0.00
  -24    2   26      8.45      0.00
   -2    2   26     -3.06      0.00
    0    2   26     -0.30      0.00
    2    2   26      0.92      0.00
  -25    3   26      0.86      0.00
  -23    3   26      1.14      0.00
  -21    3   26      0.68      0.00
   -3    3   26      0.41      0.00
   -1    3   26     -1.34      0.00
    1    3   26     -1.64      0.00
  -24    4   26     -0.40      0.00
  -22    4   26      1.42      0.00
  -20    4   26      2.90      0.00
   -6    4   26     -3.77      0.00
   -4    4   26     -0.84      0.00
   -2    4   26      0.71      0.00
    0    4   26      0.57      0.00
  -23    5   26     -0.19      0.00
  -21    5   26     -2.36      0.00
  -19    5   26     -3.39      0.00
  -17    5   26     -1.99      0.00
  -15    5   26      0.34      0.00
  -13    5   26      1.75      0.00
  -11    5   26      2.16      0.00
   -9    5   26      1.69      0.00
   -7    5   26      0.13      0.00
   -5    5   26     -1.34      0.00
   -3    5   26     -1.40      0.00
  -20    6   26     -0.79      0.00
  -18    6   26     -1.64      0.00
  -16    6   26     -0.61      0.00
  -14    6   26      0.17      0.00
  -12    6   26     -1.51      0.00
  -10    6   26     -3.45      0.00
   -8    6   26     -2.74      0.00
   -6    6   26     -0.83      0.00
  -13    7   26     -0.09      0.00
  -11    7   26     -0.03      0.00
  -25    1   27     -3.11      0.00
  -23    1   27     -2.65      0.00
  -21    1   27     -3.25      0.00
   -3    1   27     -2.76      0.00
   -1    1   27     -1.42      0.00
  -24    2   27      2.36      0.00
  -22    2   27      2.97      0.00
   -4    2   27      6.81      0.00
   -2    2   27      3.59      0.00
    0    2   27     -0.91      0.00
  -23    3   27      2.61      0.00
  -21    3   27      0.54      0.00
  -19    3   27     -1.41      0.00
   -7    3   27      0.59      0.00
   -5    3   27      1.58      0.00
   -3    3   27      0.78      0.00
   -1    3   27     -0.45      0.00
  -22    4   27      1.22      0.00
  -20    4   27      1.03      0.00
  -18    4   27     -0.70      0.00
  -16    4   27     -1.31      0.00
  -14    4   27     -0.46      0.00
  -12    4   27     -0.52      0.00
  -10    4   27     -1.84      0.00
   -8    4   27     -1.98      0.00
   -6    4   27     -0.39      0.00
   -4    4   27      0.34      0.00
  -21    5   27      1.21      0.00
  -19    5   27      0.26      0.00
  -17    5   27     -0.53      0.00
  -15    5   27     -0.63      0.00
  -13    5   27     -0.50      0.00
  -11    5   27      0.50      0.00
   -9    5   27      1.91      0.00
   -7    5   27      1.83      0.00
   -5    5   27      0.71      0.00
  -16    6   27     -0.49      0.00
  -14    6   27      0.63      0.00
  -12    6   27      1.02      0.00
  -10    6   27     -0.72      0.00
  -24    0   28      0.96      0.00
  -22    0   28      0.73      0.00
  -20    0   28      1.40      0.00
   -8    0   28     -2.55      0.00
   -6    0   28      1.55      0.00
   -4    0   28      2.02      0.00
   -2    0   28     -0.21      0.00
  -25    1   28     -0.28      0.00
  -23    1   28     -2.20      0.00
  -21    1   28     -1.98      0.00
  -19    1   28      1.16      0.00
   -7    1   28      0.49      0.00
   -5    1   28      1.27      0.00
   -3    1   28      2.36      0.00
  -24    2   28     -4.05      0.00
  -22    2   28     -2.36      0.00
  -20    2   28     -1.07      0.00
  -18    2   28     -0.78      0.00
  -16    2   28     -0.48      0.00
  -10    2   28      1.67      0.00
   -8    2   28      0.89      0.00
   -6    2   28     -0.08      0.00
   -4    2   28      0.02      0.00
   -2    2   28      0.03      0.00
  -23    3   28     -2.10      0.00
  -21    3   28     -0.91      0.00
  -19    3   28      0.13      0.00
  -17    3   28      0.06      0.00
  -15    3   28     -0.02      0.00
  -13    3   28     -0.21      0.00
  -11    3   28     -1.34      0.00
   -9    3   28     -2.48      0.00
   -7    3   28     -2.28      0.00
   -5    3   28     -0.94      0.00
  -20    4   28     -0.78      0.00
  -18    4   28     -0.93      0.00
  -16    4   28     -1.23      0.00
  -14    4   28      0.30      0.00
  -12    4   28      3.05      0.00
  -10    4   28      4.45      0.00
   -8    4   28      3.76      0.00
   -6    4   28      1.89      0.00
  -17    5   28     -0.75      0.00
  -15    5   28     -1.89      0.00
  -13    5   28     -1.96      0.00
  -11    5   28     -0.56      0.00
   -9    5   28      0.64      0.00
  -23    1   29      1.20      0.00
  -21    1   29      1.86      0.00
  -19    1   29      0.42      0.00
  -17    1   29     -1.50      0.00
  -15    1   29     -1.42      0.00
  -13    1   29     -0.87      0.00
  -11    1   29     -0.88      0.00
   -9    1   29      0.46      0.00
   -7    1   29      2.00      0.00
   -5    1   29      1.05      0.00
  -22    2   29     -2.41      0.00
  -20    2   29     -0.74      0.00
  -18    2   29      0.70      0.00
  -16    2   29     -0.21      0.00
  -14    2   29     -0.70      0.00
  -12    2   29      0.74      0.00
  -10    2   29      0.37      0.00
   -8    2   29     -3.20      0.00
   -6    2   29     -5.41      0.00
  -21    3   29     -0.06      0.00
  -19    3   29     -0.47      0.00
  -17    3   29     -1.07      0.00
  -15    3   29     -1.47      0.00
  -13    3   29     -0.61      0.00
  -11    3   29      1.10      0.00
   -9    3   29      1.16      0.00
   -7    3   29     -0.79      0.00
  -18    4   29      1.27      0.00
  -16    4   29      0.47      0.00
  -14    4   29     -0.77      0.00
  -12    4   29     -0.82      0.00
  -10    4   29     -0.18      0.00
    0    0    0      0.00      0.00
# SQUEEZE RESULTS (Version = 140518)
# Note: Data are Listed for all Voids in the P1 Unit Cell
# i.e. Centre of Gravity, Solvent Accessible Volume,
# Recovered number of Electrons in the Void and
# Details about the Squeezed Material
loop_
  _platon_squeeze_void_nr
  _platon_squeeze_void_average_x
  _platon_squeeze_void_average_y
  _platon_squeeze_void_average_z
  _platon_squeeze_void_volume
  _platon_squeeze_void_count_electrons
  _platon_squeeze_void_content
   1  0.500 -0.009 -0.001       804       226 ' '
   2  1.000 -0.335  0.173       804       226 ' '
# Missing Reflections Below sin(th)/lambda = 0.25
loop_
  _platon_missing_refln_index_h
  _platon_missing_refln_index_k
  _platon_missing_refln_index_l
  _platon_missing_refln_theta
    2    0    0     1.884
   -2    0    2     1.985
    0    0    2     1.936
_platon_squeeze_void_probe_radius                  1.20
_platon_squeeze_details
The unit cell contains 14 disordered molecules of acetone which were
treated as a diffuse contribution to the overall scattering without specific
atom positions by SQUEEZE/PLATON.
TITL mo_StauDo1_0m_a.res in C2/c
CELL   24.3485    9.9212   23.6907     90.00    117.40     90.00
SPGR C2/c
# Solvent Accessible Volume =      1614
# Electrons Found in S.A.V. =       449
# Note: Atoms in Void are Labelled as Cxxx and Qxxx for all Others
C101 0.577 0.123 0.370 !       4.19 eA-3
C102 0.500 0.437 0.252 !       3.76 eA-3
C103 0.971 0.436 0.625 !       3.52 eA-3
C104 1.001 0.434 0.175 !       3.02 eA-3
C105 0.509 0.087 0.416 !       2.91 eA-3
C106 0.945 0.088 0.241 !       2.73 eA-3
C107 0.532 0.150 0.162 !       2.20 eA-3
C108 0.435 0.220 0.279 !       1.92 eA-3
C109 0.935 0.283 0.768 !       1.92 eA-3
C110 0.045 0.482 0.334 !       1.69 eA-3
Q111 0.780 0.126 0.027 !       1.44 eA-3
Q112 0.197 0.345 0.493 !       1.41 eA-3
Q113 0.238 0.119 0.531 !       1.10 eA-3
Q114 0.219 0.088 0.438 !       0.96 eA-3
Q115 0.730 0.068 0.487 !       0.96 eA-3
Q116 0.173 0.411 0.443 !       0.89 eA-3
Q117 0.258 0.250 0.965 !       0.89 eA-3
Q118 0.306 0.165 0.461 !       0.88 eA-3
Q119 0.215 0.062-0.001 !       0.84 eA-3
C120 0.463 0.177 0.684 !       0.84 eA-3
C121 0.465 0.280 0.713 !       0.81 eA-3
C122 0.531 0.087 0.231 !       0.76 eA-3
C123 1.000 0.156 0.252 !       0.76 eA-3
Q124 0.763 0.094 0.539 !       0.75 eA-3
Q125 0.662 0.437 0.524 !       0.75 eA-3
Q126 0.416 0.039 0.569 !       0.74 eA-3
Q127 0.079 0.243 0.288 !       0.74 eA-3
Q128 0.705 0.275 0.982 !       0.73 eA-3
Q129 0.079 0.056 0.720 !       0.72 eA-3
C130 0.555 0.221 0.362 !       0.72 eA-3
Q131 0.007 0.439 0.127 !       0.71 eA-3
Q132 0.697 0.087 0.438 !       0.71 eA-3
Q133 0.686 0.352 0.011 !       0.71 eA-3
Q134 0.932 0.375 0.322 !       0.70 eA-3
Q135 0.745 0.410 0.429 !       0.70 eA-3
Q136 0.831 0.407 0.511 !       0.70 eA-3
Q137 0.777 0.029 0.002 !       0.70 eA-3
Q138 0.715 0.437 0.539 !       0.69 eA-3
Q139 0.141 0.127 0.625 !       0.69 eA-3
Q140 0.576 0.503 0.185 !       0.67 eA-3
Q141 0.310 0.190 0.554 !       0.67 eA-3
Q142 0.268 0.121 0.420 !       0.67 eA-3
C143 0.551 0.061 0.790 !       0.67 eA-3
Q144 0.396 0.348 0.542 !       0.66 eA-3
Q145 0.733 0.499 0.471 !       0.66 eA-3
Q146 0.270 0.400 0.437 !       0.66 eA-3
Q147 0.014 0.443 0.015 !       0.66 eA-3
C148 0.013 0.250 0.221 !       0.65 eA-3
C149 0.987 0.250 0.283 !       0.65 eA-3
Q150 0.883 0.065 0.631 !       0.64 eA-3
Q151 0.430 0.026 0.332 !       0.64 eA-3
C152 0.489 0.245 0.276 !       0.63 eA-3
Q153 0.378 0.022 0.008 !       0.63 eA-3
C154 0.951 0.433 0.720 !       0.63 eA-3
C155 0.987 0.249 0.306 !       0.63 eA-3
Q156 0.988 0.280 0.630 !       0.63 eA-3
Q157 0.061 0.214 0.400 !       0.62 eA-3
Q158 0.626 0.468 0.471 !       0.62 eA-3
Q159 0.307 0.504 0.429 !       0.62 eA-3
Q160 0.194 0.197 0.429 !       0.61 eA-3
Q161 0.820 0.407 0.198 !       0.60 eA-3
Q162 0.362 0.027 0.690 !       0.60 eA-3
Q163 0.480 0.407 0.671 !       0.60 eA-3
Q164 0.616 0.070 0.090 !       0.60 eA-3
Q165 0.895 0.254 0.809 !       0.59 eA-3
Q166 0.756 0.190 0.501 !       0.59 eA-3
C167 0.576 0.198 0.308 !       0.58 eA-3
C168 0.948 0.247 0.275 !       0.58 eA-3
C169 0.426 0.280 0.677 !       0.58 eA-3
Q170 0.112 0.061 0.047 !       0.58 eA-3
Q171 0.320 0.096 0.437 !       0.58 eA-3
Q172 0.797 0.093 0.429 !       0.58 eA-3
Q173 1.001 0.313 0.347 !       0.57 eA-3
C174 0.428 0.075 0.056 !       0.57 eA-3
Q175 0.160 0.442 0.046 !       0.57 eA-3
C176 0.924 0.261 0.712 !       0.56 eA-3
Q177 0.227 0.192 0.074 !       0.56 eA-3
C178 0.054 0.319 0.197 !       0.56 eA-3
Q179 0.779 0.286 0.438 !       0.56 eA-3
Q180 0.829 0.027 0.537 !       0.56 eA-3
Q181 0.150 0.251 0.977 !       0.56 eA-3
Q182 0.311 0.502 0.198 !       0.55 eA-3
Q183 0.535 0.442 0.697 !       0.55 eA-3
Q184 0.280 0.226 0.457 !       0.55 eA-3
Q185 0.546 0.313 0.665 !       0.54 eA-3
Q186 0.357 0.088 0.071 !       0.54 eA-3
Q187 0.670 0.412 0.502 !       0.54 eA-3
Q188 0.295 0.251 0.032 !       0.54 eA-3
Q189 0.628 0.441 0.864 !       0.53 eA-3
Q190 0.583 0.470 0.940 !       0.53 eA-3
Q191 0.244 0.409 0.904 !       0.53 eA-3
Q192 0.908 0.031 0.687 !       0.53 eA-3
Q193 0.780 0.195 0.654 !       0.53 eA-3
Q194 0.375 0.060 0.043 !       0.53 eA-3
Q195 0.121 0.339 0.286 !       0.53 eA-3
Q196 0.217 0.250 0.587 !       0.53 eA-3
Q197 0.096 0.434 0.286 !       0.53 eA-3
Q198 0.642 0.499 0.804 !       0.52 eA-3
Q199 0.586 0.313 0.122 !       0.52 eA-3
)
;
_shelx_fab_checksum              70635
loop_
_space_group_symop_id
_space_group_symop_operation_xyz
1 x,y,z
2 -x,y,1/2-z
3 -x,-y,-z
4 x,-y,1/2+z
5 1/2+x,1/2+y,z
6 1/2-x,1/2+y,1/2-z
7 1/2-x,1/2-y,-z
8 1/2+x,1/2-y,1/2+z
loop_
_atom_site_aniso_label
_atom_site_aniso_U_11
_atom_site_aniso_U_22
_atom_site_aniso_U_33
_atom_site_aniso_U_23
_atom_site_aniso_U_13
_atom_site_aniso_U_12
Ru1 0.0319(2) 0.0155(2) 0.0299(2) -0.0028(2) 0.0182(2) 0.0001(2)
O1 0.029(2) 0.0168(18) 0.031(2) -0.0010(15) 0.0169(17) 0.0011(15)
O2 0.033(2) 0.0145(17) 0.036(2) -0.0021(15) 0.0225(18) 0.0009(15)
O3 0.055(3) 0.029(2) 0.034(2) 0.0060(18) 0.026(2) 0.0035(19)
O4 0.0247(19) 0.0168(17) 0.040(2) -0.0006(16) 0.0193(17) 0.0028(15)
O5 0.027(2) 0.0174(18) 0.034(2) -0.0030(15) 0.0170(17) -0.0011(15)
O6 0.031(2) 0.035(2) 0.081(4) 0.006(2) 0.021(2) -0.002(2)
O7 0.0168(18) 0.0192(17) 0.0307(19) -0.0027(16) 0.0118(15) 0.0006(14)
C1 0.031(3) 0.022(3) 0.033(3) -0.004(2) 0.021(3) -0.001(2)
C2 0.032(3) 0.019(3) 0.029(3) -0.001(2) 0.016(2) -0.003(2)
C3 0.039(3) 0.022(3) 0.038(3) -0.002(2) 0.022(3) 0.001(2)
C4 0.046(4) 0.022(3) 0.041(3) 0.007(3) 0.024(3) 0.005(3)
C5 0.043(3) 0.027(3) 0.031(3) 0.003(2) 0.022(3) -0.001(3)
C6 0.050(4) 0.024(3) 0.035(3) -0.003(2) 0.026(3) 0.000(3)
C7 0.043(4) 0.020(3) 0.036(3) 0.002(2) 0.023(3) 0.003(2)
C8 0.052(4) 0.038(4) 0.050(4) 0.020(3) 0.033(3) 0.013(3)
C9 0.039(3) 0.021(3) 0.025(3) 0.001(2) 0.019(2) 0.005(2)
C10 0.037(3) 0.023(3) 0.035(3) 0.003(2) 0.020(3) 0.004(2)
C11 0.027(3) 0.027(3) 0.054(4) -0.009(3) 0.018(3) 0.000(2)
C12 0.032(3) 0.032(3) 0.064(4) -0.003(3) 0.020(3) 0.006(3)
C13 0.025(3) 0.031(3) 0.053(4) 0.002(3) 0.017(3) -0.006(3)
C14 0.029(3) 0.025(3) 0.063(4) -0.004(3) 0.018(3) -0.005(3)
C15 0.032(3) 0.023(3) 0.057(4) -0.002(3) 0.024(3) 0.001(2)
C16 0.040(4) 0.038(4) 0.110(7) 0.003(4) 0.025(4) -0.014(3)
C17 0.046(4) 0.038(4) 0.059(4) -0.020(3) 0.025(3) -0.003(3)
C18 0.052(4) 0.018(3) 0.043(3) -0.006(2) 0.034(3) -0.010(3)
C19 0.095(6) 0.020(3) 0.059(4) 0.002(3) 0.059(4) 0.004(3)
loop_
_atom_site_label
_atom_site_type_symbol
_atom_site_thermal_displace_type
_atom_site_fract_x
_atom_site_fract_y
_atom_site_fract_z
_atom_site_occupancy
_atom_site_U_iso_or_equiv
_atom_site_calc_flag
_atom_site_refinement_flags
_atom_site_disorder_assembly
_atom_site_disorder_group
Ru1 Ru Uani 0.23809(2) 0.35674(4) 0.50764(2) 1.000 0.0242(1) d . . .
O1 O Uani 0.26293(17) 0.3100(3) 0.60091(17) 1.000 0.0244(11) d . . .
O2 O Uani 0.28719(17) 0.0989(3) 0.58624(17) 1.000 0.0253(11) d . . .
O3 O Uani 0.3453(2) 0.0920(4) 0.87701(19) 1.000 0.0372(14) d . . .
O4 O Uani 0.32749(16) 0.4132(3) 0.53396(18) 1.000 0.0255(11) d . . .
O5 O Uani 0.35124(16) 0.2026(3) 0.51857(17) 1.000 0.0250(11) d . . .
O6 O Uani 0.6108(2) 0.4782(4) 0.6034(2) 1.000 0.0509(16) d . . .
O7 O Uani 0.21153(15) 0.5779(3) 0.51972(16) 1.000 0.0219(10) d . . .
C1 C Uani 0.2820(3) 0.1922(5) 0.6208(3) 1.000 0.0262(17) d . . .
C2 C Uani 0.2998(2) 0.1623(5) 0.6882(2) 1.000 0.0259(17) d . . .
C3 C Uani 0.3175(3) 0.0331(6) 0.7131(3) 1.000 0.0313(17) d . . .
C4 C Uani 0.3328(3) 0.0053(6) 0.7759(3) 1.000 0.0348(19) d . . .
C5 C Uani 0.3311(3) 0.1074(6) 0.8148(3) 1.000 0.0317(17) d . . .
C6 C Uani 0.3128(3) 0.2364(6) 0.7903(3) 1.000 0.0338(19) d . . .
C7 C Uani 0.2968(3) 0.2635(6) 0.7277(3) 1.000 0.0311(19) d . . .
C8 C Uani 0.3671(3) -0.0374(6) 0.9056(3) 1.000 0.043(2) d . . .
C9 C Uani 0.3653(3) 0.3255(5) 0.5343(2) 1.000 0.0267(17) d . . .
C10 C Uani 0.4303(3) 0.3680(6) 0.5532(3) 1.000 0.0303(17) d . . .
C11 C Uani 0.4726(3) 0.2790(6) 0.5495(3) 1.000 0.0363(19) d . . .
C12 C Uani 0.5324(3) 0.3184(6) 0.5665(3) 1.000 0.0435(19) d . . .
C13 C Uani 0.5513(3) 0.4493(6) 0.5880(3) 1.000 0.0367(19) d . . .
C14 C Uani 0.5096(3) 0.5368(6) 0.5926(3) 1.000 0.0402(19) d . . .
C15 C Uani 0.4503(3) 0.4980(6) 0.5755(3) 1.000 0.0360(19) d . . .
C16 C Uani 0.6319(3) 0.6110(7) 0.6237(5) 1.000 0.066(3) d . . .
C17 C Uani 0.2889(3) 0.6398(7) 0.6222(3) 1.000 0.047(2) d . . .
C18 C Uani 0.2329(3) 0.6651(5) 0.5603(3) 1.000 0.0329(19) d . . .
C19 C Uani 0.2037(4) 0.8012(6) 0.5493(3) 1.000 0.049(3) d . . .
H3 H Uiso 0.31900 -0.03700 0.68650 1.000 0.0380 c RU . .
H4 H Uiso 0.34440 -0.08340 0.79210 1.000 0.0410 c RU . .
H6 H Uiso 0.31130 0.30630 0.81700 1.000 0.0400 c RU . .
H7 H Uiso 0.28370 0.35150 0.71120 1.000 0.0380 c RU . .
H8A H Uiso 0.33420 -0.10440 0.88500 1.000 0.0640 c RU . .
H8B H Uiso 0.37860 -0.03280 0.95100 1.000 0.0640 c RU . .
H8C H Uiso 0.40320 -0.06330 0.90020 1.000 0.0640 c RU . .
H11 H Uiso 0.46000 0.18960 0.53490 1.000 0.0430 c RU . .
H12 H Uiso 0.56070 0.25630 0.56370 1.000 0.0520 c RU . .
H14 H Uiso 0.52240 0.62570 0.60800 1.000 0.0480 c RU . .
H15 H Uiso 0.42230 0.56030 0.57870 1.000 0.0430 c RU . .
H16A H Uiso 0.67440 0.62050 0.63010 1.000 0.0990 c RU . .
H16B H Uiso 0.63070 0.62910 0.66390 1.000 0.0990 c RU . .
H16C H Uiso 0.60510 0.67530 0.59140 1.000 0.0990 c RU . .
H17A H Uiso 0.29990 0.54410 0.62540 1.000 0.0710 c RU . .
H17B H Uiso 0.28000 0.66430 0.65720 1.000 0.0710 c RU . .
H17C H Uiso 0.32340 0.69430 0.62450 1.000 0.0710 c RU . .
H19A H Uiso 0.23520 0.87050 0.55780 1.000 0.0740 c RU . .
H19B H Uiso 0.18520 0.81420 0.57800 1.000 0.0740 c RU . .
H19C H Uiso 0.17150 0.80830 0.50510 1.000 0.0740 c RU . .
loop_
_atom_type_symbol
_atom_type_description
_atom_type_scat_dispersion_real
_atom_type_scat_dispersion_imag
_atom_type_scat_source
C C 0.0033 0.0016 ' International Tables Vol C Tables 4.2.6.8 and 6.1.1.4'
H H 0.0000 0.0000 ' International Tables Vol C Tables 4.2.6.8 and 6.1.1.4'
O O 0.0106 0.0060 ' International Tables Vol C Tables 4.2.6.8 and 6.1.1.4'
Ru Ru -1.2594 0.8363 ' International Tables Vol C Tables 4.2.6.8 and 6.1.1.4'
loop_
_geom_angle_atom_site_label_1
_geom_angle_atom_site_label_2
_geom_angle_atom_site_label_3
_geom_angle
_geom_angle_site_symmetry_1
_geom_angle_site_symmetry_2
_geom_angle_site_symmetry_3
_geom_angle_publ_flag
O1 Ru1 O4 89.35(16) . . . yes
O1 Ru1 O7 92.36(12) . . . yes
Ru1 Ru1 O1 89.46(9) 7_556 . . yes
O1 Ru1 O2 179.27(12) . . 7_556 yes
O1 Ru1 O5 90.41(16) . . 7_556 yes
O4 Ru1 O7 91.21(13) . . . yes
Ru1 Ru1 O4 89.43(9) 7_556 . . yes
O2 Ru1 O4 91.02(16) 7_556 . . yes
O4 Ru1 O5 179.22(13) . . 7_556 yes
Ru1 Ru1 O7 178.08(9) 7_556 . . yes
O2 Ru1 O7 88.27(12) 7_556 . . yes
O5 Ru1 O7 89.54(13) 7_556 . . yes
Ru1 Ru1 O2 89.91(9) 7_556 . 7_556 yes
Ru1 Ru1 O5 89.83(9) 7_556 . 7_556 yes
O2 Ru1 O5 89.21(16) 7_556 . 7_556 yes
Ru1 O1 C1 119.0(4) . . . yes
Ru1 O2 C1 117.8(3) 7_556 . . yes
C5 O3 C8 117.8(5) . . . yes
Ru1 O4 C9 118.9(3) . . . yes
Ru1 O5 C9 117.8(4) 7_556 . . yes
C13 O6 C16 117.7(6) . . . yes
Ru1 O7 C18 136.1(4) . . . yes
O1 C1 O2 123.8(5) . . . yes
O1 C1 C2 117.5(5) . . . yes
O2 C1 C2 118.6(5) . . . yes
C1 C2 C3 121.4(5) . . . no
C1 C2 C7 120.0(5) . . . no
C3 C2 C7 118.6(5) . . . no
C2 C3 C4 121.0(6) . . . no
C3 C4 C5 119.6(6) . . . no
O3 C5 C4 124.7(5) . . . yes
O3 C5 C6 115.4(5) . . . yes
C4 C5 C6 119.9(6) . . . no
C5 C6 C7 120.5(6) . . . no
C2 C7 C6 120.4(5) . . . no
O4 C9 O5 124.0(6) . . . yes
O4 C9 C10 118.4(5) . . . yes
O5 C9 C10 117.6(6) . . . yes
C9 C10 C11 121.0(5) . . . no
C9 C10 C15 120.8(6) . . . no
C11 C10 C15 118.2(7) . . . no
C10 C11 C12 121.1(6) . . . no
C11 C12 C13 119.9(7) . . . no
O6 C13 C12 115.4(6) . . . yes
O6 C13 C14 125.6(6) . . . yes
C12 C13 C14 119.0(7) . . . no
C13 C14 C15 121.1(6) . . . no
C10 C15 C14 120.8(7) . . . no
O7 C18 C17 121.4(5) . . . yes
O7 C18 C19 120.6(6) . . . yes
C17 C18 C19 118.0(5) . . . no
C2 C3 H3 119.00 . . . no
C4 C3 H3 120.00 . . . no
C3 C4 H4 120.00 . . . no
C5 C4 H4 120.00 . . . no
C5 C6 H6 120.00 . . . no
C7 C6 H6 120.00 . . . no
C2 C7 H7 120.00 . . . no
C6 C7 H7 120.00 . . . no
O3 C8 H8A 109.00 . . . no
O3 C8 H8B 109.00 . . . no
O3 C8 H8C 109.00 . . . no
H8A C8 H8B 109.00 . . . no
H8A C8 H8C 110.00 . . . no
H8B C8 H8C 110.00 . . . no
C10 C11 H11 119.00 . . . no
C12 C11 H11 119.00 . . . no
C11 C12 H12 120.00 . . . no
C13 C12 H12 120.00 . . . no
C13 C14 H14 119.00 . . . no
C15 C14 H14 119.00 . . . no
C10 C15 H15 120.00 . . . no
C14 C15 H15 120.00 . . . no
O6 C16 H16A 110.00 . . . no
O6 C16 H16B 109.00 . . . no
O6 C16 H16C 109.00 . . . no
H16A C16 H16B 109.00 . . . no
H16A C16 H16C 110.00 . . . no
H16B C16 H16C 109.00 . . . no
C18 C17 H17A 109.00 . . . no
C18 C17 H17B 109.00 . . . no
C18 C17 H17C 110.00 . . . no
H17A C17 H17B 110.00 . . . no
H17A C17 H17C 109.00 . . . no
H17B C17 H17C 110.00 . . . no
C18 C19 H19A 110.00 . . . no
C18 C19 H19B 109.00 . . . no
C18 C19 H19C 110.00 . . . no
H19A C19 H19B 109.00 . . . no
H19A C19 H19C 110.00 . . . no
H19B C19 H19C 110.00 . . . no
loop_
_geom_bond_atom_site_label_1
_geom_bond_atom_site_label_2
_geom_bond_distance
_geom_bond_site_symmetry_1
_geom_bond_site_symmetry_2
_geom_bond_publ_flag
Ru1 O1 2.058(4) . . yes
Ru1 O4 2.047(4) . . yes
Ru1 O7 2.342(3) . . yes
Ru1 Ru1 2.2686(6) . 7_556 yes
Ru1 O2 2.064(4) . 7_556 yes
Ru1 O5 2.054(4) . 7_556 yes
O1 C1 1.266(6) . . yes
O2 C1 1.280(7) . . yes
O3 C5 1.359(8) . . yes
O3 C8 1.435(7) . . yes
O4 C9 1.264(8) . . yes
O5 C9 1.275(6) . . yes
O6 C13 1.352(9) . . yes
O6 C16 1.416(8) . . yes
O7 C18 1.218(7) . . yes
C1 C2 1.479(8) . . no
C2 C3 1.394(8) . . no
C2 C7 1.397(8) . . no
C3 C4 1.385(9) . . no
C4 C5 1.383(9) . . no
C5 C6 1.391(9) . . no
C6 C7 1.375(9) . . no
C9 C10 1.494(11) . . no
C10 C11 1.390(10) . . no
C10 C15 1.394(9) . . no
C11 C12 1.377(11) . . no
C12 C13 1.394(9) . . no
C13 C14 1.378(10) . . no
C14 C15 1.363(11) . . no
C17 C18 1.494(9) . . no
C18 C19 1.492(9) . . no
C3 H3 0.9500 . . no
C4 H4 0.9500 . . no
C6 H6 0.9500 . . no
C7 H7 0.9500 . . no
C8 H8A 0.9800 . . no
C8 H8B 0.9800 . . no
C8 H8C 0.9800 . . no
C11 H11 0.9500 . . no
C12 H12 0.9500 . . no
C14 H14 0.9500 . . no
C15 H15 0.9500 . . no
C16 H16A 0.9800 . . no
C16 H16B 0.9800 . . no
C16 H16C 0.9800 . . no
C17 H17A 0.9800 . . no
C17 H17B 0.9800 . . no
C17 H17C 0.9800 . . no
C19 H19A 0.9800 . . no
C19 H19B 0.9800 . . no
C19 H19C 0.9800 . . no
loop_
_geom_hbond_atom_site_label_D
_geom_hbond_atom_site_label_H
_geom_hbond_atom_site_label_A
_geom_hbond_distance_DH
_geom_hbond_distance_HA
_geom_hbond_distance_DA
_geom_hbond_angle_DHA
_geom_hbond_site_symmetry_A
_geom_hbond_publ_flag
C17 H17A O1 0.9800 2.4600 3.327(8) 147.00 . yes
C19 H19A O2 0.9800 2.5300 3.462(8) 159.00 1_565 yes
loop_
_geom_torsion_atom_site_label_1
_geom_torsion_atom_site_label_2
_geom_torsion_atom_site_label_3
_geom_torsion_atom_site_label_4
_geom_torsion
_geom_torsion_site_symmetry_1
_geom_torsion_site_symmetry_2
_geom_torsion_site_symmetry_3
_geom_torsion_site_symmetry_4
_geom_torsion_publ_flag
O4 Ru1 O1 C1 -89.2(5) . . . . no
O7 Ru1 O1 C1 179.6(5) . . . . no
Ru1 Ru1 O1 C1 0.2(5) 7_556 . . . no
O5 Ru1 O1 C1 90.0(5) 7_556 . . . no
O1 Ru1 O4 C9 89.4(4) . . . . no
O7 Ru1 O4 C9 -178.3(4) . . . . no
Ru1 Ru1 O4 C9 -0.1(3) 7_556 . . . no
O2 Ru1 O4 C9 -90.0(4) 7_556 . . . no
O1 Ru1 O7 C18 40.8(6) . . . . no
O4 Ru1 O7 C18 -48.7(6) . . . . no
O2 Ru1 O7 C18 -139.6(6) 7_556 . . . no
O5 Ru1 O7 C18 131.1(6) 7_556 . . . no
O1 Ru1 Ru1 O2 -0.39(17) . . 7_556 . no
O1 Ru1 Ru1 O5 -89.59(16) . . 7_556 . no
O1 Ru1 Ru1 O1 -179.97(16) . . 7_556 7_556 no
O1 Ru1 Ru1 O4 90.64(16) . . 7_556 7_556 no
O4 Ru1 Ru1 O2 88.98(16) . . 7_556 . no
O4 Ru1 Ru1 O5 -0.23(15) . . 7_556 . no
O4 Ru1 Ru1 O1 -90.64(16) . . 7_556 7_556 no
O4 Ru1 Ru1 O4 -180.00(15) . . 7_556 7_556 no
O2 Ru1 Ru1 O2 180.00(17) 7_556 . 7_556 . no
O2 Ru1 Ru1 O5 90.79(16) 7_556 . 7_556 . no
O5 Ru1 Ru1 O2 -90.79(16) 7_556 . 7_556 . no
O5 Ru1 Ru1 O5 180.00(14) 7_556 . 7_556 . no
O4 Ru1 O2 C1 88.7(5) . . 7_556 7_556 no
O7 Ru1 O2 C1 179.9(5) . . 7_556 7_556 no
O1 Ru1 O5 C9 -90.1(3) . . 7_556 7_556 no
O7 Ru1 O5 C9 177.5(3) . . 7_556 7_556 no
Ru1 O1 C1 O2 0.3(10) . . . . no
Ru1 O1 C1 C2 179.7(4) . . . . no
Ru1 O2 C1 O1 -0.8(9) 7_556 . . . no
Ru1 O2 C1 C2 179.9(4) 7_556 . . . no
C8 O3 C5 C4 3.8(11) . . . . no
C8 O3 C5 C6 -177.3(6) . . . . no
Ru1 O4 C9 O5 0.7(6) . . . . no
Ru1 O4 C9 C10 179.6(4) . . . . no
Ru1 O5 C9 O4 -0.9(6) 7_556 . . . no
Ru1 O5 C9 C10 -179.9(4) 7_556 . . . no
C16 O6 C13 C12 178.1(6) . . . . no
C16 O6 C13 C14 -2.6(10) . . . . no
Ru1 O7 C18 C19 176.8(5) . . . . no
Ru1 O7 C18 C17 -3.0(11) . . . . no
O2 C1 C2 C3 -4.8(10) . . . . no
O1 C1 C2 C7 -1.7(10) . . . . no
O1 C1 C2 C3 175.8(6) . . . . no
O2 C1 C2 C7 177.7(6) . . . . no
C3 C2 C7 C6 1.9(10) . . . . no
C1 C2 C7 C6 179.5(7) . . . . no
C1 C2 C3 C4 -178.6(7) . . . . no
C7 C2 C3 C4 -1.0(10) . . . . no
C2 C3 C4 C5 -0.6(12) . . . . no
C3 C4 C5 O3 -179.8(7) . . . . no
C3 C4 C5 C6 1.4(12) . . . . no
O3 C5 C6 C7 -179.4(7) . . . . no
C4 C5 C6 C7 -0.5(12) . . . . no
C5 C6 C7 C2 -1.2(12) . . . . no
O4 C9 C10 C11 -174.7(5) . . . . no
O5 C9 C10 C15 -175.2(5) . . . . no
O4 C9 C10 C15 5.8(8) . . . . no
O5 C9 C10 C11 4.3(8) . . . . no
C9 C10 C11 C12 179.6(6) . . . . no
C9 C10 C15 C14 -179.8(6) . . . . no
C11 C10 C15 C14 0.6(10) . . . . no
C15 C10 C11 C12 -0.9(10) . . . . no
C10 C11 C12 C13 0.2(10) . . . . no
C11 C12 C13 O6 -179.9(6) . . . . no
C11 C12 C13 C14 0.8(9) . . . . no
O6 C13 C14 C15 179.7(6) . . . . no
C12 C13 C14 C15 -1.1(10) . . . . no
C13 C14 C15 C10 0.4(10) . . . . no
